# generated using pymatgen
data_Nb3Hg2Sb(PbO7)2
_symmetry_space_group_name_H-M   'P 1'
_cell_length_a   7.69982620
_cell_length_b   7.61945062
_cell_length_c   7.57456714
_cell_angle_alpha   58.93167004
_cell_angle_beta   59.45144244
_cell_angle_gamma   59.65042899
_symmetry_Int_Tables_number   1
_chemical_formula_structural   Nb3Hg2Sb(PbO7)2
_chemical_formula_sum   'Nb3 Hg2 Sb1 Pb2 O14'
_cell_volume   309.51462650
_cell_formula_units_Z   1
loop_
 _symmetry_equiv_pos_site_id
 _symmetry_equiv_pos_as_xyz
  1  'x, y, z'
loop_
 _atom_site_type_symbol
 _atom_site_label
 _atom_site_symmetry_multiplicity
 _atom_site_fract_x
 _atom_site_fract_y
 _atom_site_fract_z
 _atom_site_occupancy
  Nb  Nb0  1  0.125000  0.625000  0.125000  1
  Nb  Nb1  1  0.625000  0.125000  0.125000  1
  Nb  Nb2  1  0.125000  0.125000  0.125000  1
  Hg  Hg3  1  0.625000  0.125000  0.625000  1
  Hg  Hg4  1  0.625000  0.625000  0.125000  1
  Sb  Sb5  1  0.125000  0.125000  0.625000  1
  Pb  Pb6  1  0.625000  0.625000  0.625000  1
  Pb  Pb7  1  0.125000  0.625000  0.625000  1
  O  O8  1  0.723654  0.775476  0.777216  1
  O  O9  1  0.192883  0.808827  0.805407  1
  O  O10  1  0.180023  0.810756  0.194747  1
  O  O11  1  0.814475  0.810756  0.194747  1
  O  O12  1  0.813385  0.193685  0.807604  1
  O  O13  1  0.185327  0.193685  0.807604  1
  O  O14  1  0.431677  0.070428  0.066218  1
  O  O15  1  0.818323  0.179572  0.183782  1
  O  O16  1  0.069977  0.439244  0.055253  1
  O  O17  1  0.064673  0.056315  0.442396  1
  O  O18  1  0.435525  0.439244  0.055253  1
  O  O19  1  0.436615  0.056315  0.442396  1
  O  O20  1  0.057117  0.441173  0.444593  1
  O  O21  1  0.526346  0.474524  0.472784  1
