# generated using pymatgen
data_Tl3Os3RhPbO13
_symmetry_space_group_name_H-M   'P 1'
_cell_length_a   7.35457207
_cell_length_b   7.38370773
_cell_length_c   7.35457243
_cell_angle_alpha   60.48061746
_cell_angle_beta   60.46651284
_cell_angle_gamma   60.48063057
_symmetry_Int_Tables_number   1
_chemical_formula_structural   Tl3Os3RhPbO13
_chemical_formula_sum   'Tl3 Os3 Rh1 Pb1 O13'
_cell_volume   285.44422848
_cell_formula_units_Z   1
loop_
 _symmetry_equiv_pos_site_id
 _symmetry_equiv_pos_as_xyz
  1  'x, y, z'
loop_
 _atom_site_type_symbol
 _atom_site_label
 _atom_site_symmetry_multiplicity
 _atom_site_fract_x
 _atom_site_fract_y
 _atom_site_fract_z
 _atom_site_occupancy
  Tl  Tl0  1  0.994630  0.996010  0.994630  1
  Tl  Tl1  1  0.509130  0.997628  0.997092  1
  Tl  Tl2  1  0.997092  0.997628  0.509130  1
  Os  Os3  1  0.999379  0.500887  0.500234  1
  Os  Os4  1  0.500234  0.500887  0.999379  1
  Os  Os5  1  0.500057  0.000099  0.500057  1
  Rh  Rh6  1  0.500307  0.501266  0.500307  1
  Pb  Pb7  1  0.001090  0.497567  0.001090  1
  O  O8  1  0.831143  0.429771  0.426089  1
  O  O9  1  0.432803  0.812538  0.813246  1
  O  O10  1  0.426089  0.429771  0.831143  1
  O  O11  1  0.813246  0.812538  0.432803  1
  O  O12  1  0.815670  0.429525  0.815670  1
  O  O13  1  0.429474  0.829490  0.429474  1
  O  O14  1  0.170121  0.568631  0.574590  1
  O  O15  1  0.566906  0.187981  0.187188  1
  O  O16  1  0.574590  0.568631  0.170121  1
  O  O17  1  0.187188  0.187981  0.566906  1
  O  O18  1  0.185657  0.570076  0.185657  1
  O  O19  1  0.570265  0.171536  0.570265  1
  O  O20  1  0.119930  0.134559  0.119930  1
