# generated using pymatgen
data_Rb4HgF6
_symmetry_space_group_name_H-M   'P 1'
_cell_length_a   7.80521437
_cell_length_b   7.80521480
_cell_length_c   7.80521456
_cell_angle_alpha   89.82169722
_cell_angle_beta   90.17830140
_cell_angle_gamma   90.17830033
_symmetry_Int_Tables_number   1
_chemical_formula_structural   Rb4HgF6
_chemical_formula_sum   'Rb8 Hg2 F12'
_cell_volume   475.49750851
_cell_formula_units_Z   2
loop_
 _symmetry_equiv_pos_site_id
 _symmetry_equiv_pos_as_xyz
  1  'x, y, z'
loop_
 _atom_site_type_symbol
 _atom_site_label
 _atom_site_symmetry_multiplicity
 _atom_site_fract_x
 _atom_site_fract_y
 _atom_site_fract_z
 _atom_site_occupancy
  Rb  Rb0  1  0.617328  0.749999  0.117328  1
  Rb  Rb1  1  0.117327  0.617328  0.249999  1
  Rb  Rb2  1  0.750000  0.250000  0.250000  1
  Rb  Rb3  1  0.250000  0.117327  0.382673  1
  Rb  Rb4  1  0.750000  0.882672  0.617327  1
  Rb  Rb5  1  0.882673  0.382672  0.750000  1
  Rb  Rb6  1  0.250000  0.750000  0.750000  1
  Rb  Rb7  1  0.382672  0.250000  0.882672  1
  Hg  Hg8  1  0.000000  0.000000  0.000000  1
  Hg  Hg9  1  0.500000  0.500000  0.500000  1
  F  F10  1  0.288736  0.925761  0.056778  1
  F  F11  1  0.056777  0.288735  0.074239  1
  F  F12  1  0.443222  0.425761  0.211264  1
  F  F13  1  0.925760  0.943222  0.288735  1
  F  F14  1  0.788735  0.556778  0.425761  1
  F  F15  1  0.425761  0.788735  0.443223  1
  F  F16  1  0.574239  0.211264  0.556778  1
  F  F17  1  0.211265  0.443223  0.574240  1
  F  F18  1  0.074240  0.056777  0.711265  1
  F  F19  1  0.556778  0.574240  0.788736  1
  F  F20  1  0.943223  0.711264  0.925761  1
  F  F21  1  0.711265  0.074240  0.943223  1
