# generated using pymatgen
data_Tm16Sc4(RuPt3)3
_symmetry_space_group_name_H-M   'P 1'
_cell_length_a   10.84180400
_cell_length_b   10.84180400
_cell_length_c   6.19038200
_cell_angle_alpha   90.00000000
_cell_angle_beta   90.00000000
_cell_angle_gamma   90.00000000
_symmetry_Int_Tables_number   1
_chemical_formula_structural   Tm16Sc4(RuPt3)3
_chemical_formula_sum   'Tm16 Sc4 Ru3 Pt9'
_cell_volume   727.64668158
_cell_formula_units_Z   1
loop_
 _symmetry_equiv_pos_site_id
 _symmetry_equiv_pos_as_xyz
  1  'x, y, z'
loop_
 _atom_site_type_symbol
 _atom_site_label
 _atom_site_symmetry_multiplicity
 _atom_site_fract_x
 _atom_site_fract_y
 _atom_site_fract_z
 _atom_site_occupancy
  Tm  Tm0  1  0.291387  0.086548  0.377652  1
  Tm  Tm1  1  0.290307  0.913399  0.868870  1
  Tm  Tm2  1  0.709693  0.086601  0.868870  1
  Tm  Tm3  1  0.708613  0.913452  0.377652  1
  Tm  Tm4  1  0.586601  0.790307  0.868870  1
  Tm  Tm5  1  0.586548  0.208613  0.377652  1
  Tm  Tm6  1  0.413452  0.791387  0.377652  1
  Tm  Tm7  1  0.413399  0.209693  0.868870  1
  Tm  Tm8  1  0.205336  0.415442  0.625980  1
  Tm  Tm9  1  0.205403  0.584982  0.126712  1
  Tm  Tm10  1  0.794597  0.415018  0.126712  1
  Tm  Tm11  1  0.794664  0.584558  0.625980  1
  Tm  Tm12  1  0.915018  0.705403  0.126712  1
  Tm  Tm13  1  0.915442  0.294664  0.625980  1
  Tm  Tm14  1  0.084558  0.705336  0.625980  1
  Tm  Tm15  1  0.084982  0.294597  0.126712  1
  Sc  Sc16  1  0.000000  0.000000  0.501412  1
  Sc  Sc17  1  0.000000  0.000000  0.001483  1
  Sc  Sc18  1  0.500000  0.500000  0.001483  1
  Sc  Sc19  1  0.500000  0.500000  0.501412  1
  Ru  Ru20  1  0.500000  0.000000  0.621309  1
  Ru  Ru21  1  0.000000  0.500000  0.876293  1
  Ru  Ru22  1  0.000000  0.500000  0.375817  1
  Pt  Pt23  1  0.849651  0.147890  0.250274  1
  Pt  Pt24  1  0.850740  0.850883  0.751013  1
  Pt  Pt25  1  0.149260  0.149117  0.751013  1
  Pt  Pt26  1  0.150349  0.852110  0.250274  1
  Pt  Pt27  1  0.649117  0.350740  0.751013  1
  Pt  Pt28  1  0.647890  0.650349  0.250274  1
  Pt  Pt29  1  0.352110  0.349651  0.250274  1
  Pt  Pt30  1  0.350883  0.649260  0.751013  1
  Pt  Pt31  1  0.500000  0.000000  0.118779  1
