# generated using pymatgen
data_CaGa2F6
_symmetry_space_group_name_H-M   'P 1'
_cell_length_a   7.21913224
_cell_length_b   7.18970614
_cell_length_c   7.34386601
_cell_angle_alpha   49.73777816
_cell_angle_beta   48.68474888
_cell_angle_gamma   48.79517799
_symmetry_Int_Tables_number   1
_chemical_formula_structural   CaGa2F6
_chemical_formula_sum   'Ca1 Ga2 F6'
_cell_volume   199.75906921
_cell_formula_units_Z   1
loop_
 _symmetry_equiv_pos_site_id
 _symmetry_equiv_pos_as_xyz
  1  'x, y, z'
loop_
 _atom_site_type_symbol
 _atom_site_label
 _atom_site_symmetry_multiplicity
 _atom_site_fract_x
 _atom_site_fract_y
 _atom_site_fract_z
 _atom_site_occupancy
  Ca  Ca0  1  0.159233  0.144808  0.263189  1
  Ga  Ga1  1  0.728796  0.692474  0.831989  1
  Ga  Ga2  1  0.589087  0.599455  0.693364  1
  F  F3  1  0.327449  0.887102  0.566356  1
  F  F4  1  0.464126  0.817132  0.101236  1
  F  F5  1  0.843010  0.470686  0.428488  1
  F  F6  1  0.445099  0.347383  0.959945  1
  F  F7  1  0.992290  0.407498  0.957872  1
  F  F8  1  0.865373  0.950611  0.576495  1
