# generated using pymatgen
data_RbGaSn3O8
_symmetry_space_group_name_H-M   'P 1'
_cell_length_a   3.20844359
_cell_length_b   7.58651402
_cell_length_c   7.70175040
_cell_angle_alpha   87.40358555
_cell_angle_beta   102.04047597
_cell_angle_gamma   102.22628271
_symmetry_Int_Tables_number   1
_chemical_formula_structural   RbGaSn3O8
_chemical_formula_sum   'Rb1 Ga1 Sn3 O8'
_cell_volume   179.18479616
_cell_formula_units_Z   1
loop_
 _symmetry_equiv_pos_site_id
 _symmetry_equiv_pos_as_xyz
  1  'x, y, z'
loop_
 _atom_site_type_symbol
 _atom_site_label
 _atom_site_symmetry_multiplicity
 _atom_site_fract_x
 _atom_site_fract_y
 _atom_site_fract_z
 _atom_site_occupancy
  Rb  Rb0  1  0.051757  0.008875  0.000244  1
  Ga  Ga1  1  0.165910  0.485948  0.814640  1
  Sn  Sn2  1  0.857384  0.514232  0.167917  1
  Sn  Sn3  1  0.678751  0.805513  0.521330  1
  Sn  Sn4  1  0.358103  0.190332  0.494856  1
  O  O5  1  0.350006  0.376089  0.290307  1
  O  O6  1  0.677569  0.613622  0.710353  1
  O  O7  1  0.980280  0.298706  0.629309  1
  O  O8  1  0.054555  0.706064  0.371712  1
  O  O9  1  0.361351  0.647129  0.041988  1
  O  O10  1  0.666755  0.356602  0.943228  1
  O  O11  1  0.723116  0.048704  0.365287  1
  O  O12  1  0.314462  0.948185  0.648829  1
