# generated using pymatgen
data_LiCaLu3Al17Pd6
_symmetry_space_group_name_H-M   'P 1'
_cell_length_a   7.60090251
_cell_length_b   7.59292216
_cell_length_c   9.43975600
_cell_angle_alpha   90.00000000
_cell_angle_beta   90.00000000
_cell_angle_gamma   119.20411513
_symmetry_Int_Tables_number   1
_chemical_formula_structural   LiCaLu3Al17Pd6
_chemical_formula_sum   'Li1 Ca1 Lu3 Al17 Pd6'
_cell_volume   475.54642634
_cell_formula_units_Z   1
loop_
 _symmetry_equiv_pos_site_id
 _symmetry_equiv_pos_as_xyz
  1  'x, y, z'
loop_
 _atom_site_type_symbol
 _atom_site_label
 _atom_site_symmetry_multiplicity
 _atom_site_fract_x
 _atom_site_fract_y
 _atom_site_fract_z
 _atom_site_occupancy
  Li  Li0  1  0.127166  0.128972  0.250000  1
  Ca  Ca1  1  0.995214  0.668298  0.250000  1
  Lu  Lu2  1  0.005938  0.328031  0.750000  1
  Lu  Lu3  1  0.665557  0.995578  0.250000  1
  Lu  Lu4  1  0.325560  0.004828  0.750000  1
  Al  Al5  1  0.866989  0.867855  0.750000  1
  Al  Al6  1  0.000654  0.327928  0.083353  1
  Al  Al7  1  0.000633  0.663898  0.921663  1
  Al  Al8  1  0.000633  0.663898  0.578337  1
  Al  Al9  1  0.331221  0.001650  0.418934  1
  Al  Al10  1  0.000654  0.327928  0.416647  1
  Al  Al11  1  0.664544  0.001856  0.577499  1
  Al  Al12  1  0.664544  0.001856  0.922501  1
  Al  Al13  1  0.331221  0.001650  0.081066  1
  Al  Al14  1  0.334116  0.334181  0.547495  1
  Al  Al15  1  0.671972  0.673699  0.440853  1
  Al  Al16  1  0.671972  0.673699  0.059147  1
  Al  Al17  1  0.334116  0.334181  0.952505  1
  Al  Al18  1  0.345190  0.544820  0.250000  1
  Al  Al19  1  0.657562  0.448327  0.750000  1
  Al  Al20  1  0.540547  0.335913  0.250000  1
  Al  Al21  1  0.450907  0.657771  0.750000  1
  Pd  Pd22  1  0.675183  0.328719  0.999163  1
  Pd  Pd23  1  0.329479  0.675298  0.998751  1
  Pd  Pd24  1  0.329479  0.675298  0.501249  1
  Pd  Pd25  1  0.675183  0.328719  0.500837  1
  Pd  Pd26  1  0.001883  0.002577  0.991404  1
  Pd  Pd27  1  0.001883  0.002577  0.508596  1
