# generated using pymatgen
data_HoTm15(HgPt)4
_symmetry_space_group_name_H-M   'P 1'
_cell_length_a   9.52526363
_cell_length_b   9.52526373
_cell_length_c   9.52526303
_cell_angle_alpha   59.99198275
_cell_angle_beta   59.99197875
_cell_angle_gamma   59.99198374
_symmetry_Int_Tables_number   1
_chemical_formula_structural   HoTm15(HgPt)4
_chemical_formula_sum   'Ho1 Tm15 Hg4 Pt4'
_cell_volume   610.99411860
_cell_formula_units_Z   1
loop_
 _symmetry_equiv_pos_site_id
 _symmetry_equiv_pos_as_xyz
  1  'x, y, z'
loop_
 _atom_site_type_symbol
 _atom_site_label
 _atom_site_symmetry_multiplicity
 _atom_site_fract_x
 _atom_site_fract_y
 _atom_site_fract_z
 _atom_site_occupancy
  Ho  Ho0  1  0.355401  0.355401  0.355401  1
  Tm  Tm1  1  0.355304  0.355304  0.934110  1
  Tm  Tm2  1  0.355304  0.934110  0.355304  1
  Tm  Tm3  1  0.934110  0.355304  0.355304  1
  Tm  Tm4  1  0.810682  0.189393  0.189393  1
  Tm  Tm5  1  0.189485  0.810550  0.810550  1
  Tm  Tm6  1  0.189393  0.810682  0.189393  1
  Tm  Tm7  1  0.810550  0.189485  0.810550  1
  Tm  Tm8  1  0.189393  0.189393  0.810682  1
  Tm  Tm9  1  0.810550  0.810550  0.189485  1
  Tm  Tm10  1  0.935911  0.564082  0.564082  1
  Tm  Tm11  1  0.564014  0.935990  0.935990  1
  Tm  Tm12  1  0.564082  0.935911  0.564082  1
  Tm  Tm13  1  0.935990  0.564014  0.935990  1
  Tm  Tm14  1  0.564082  0.564082  0.935911  1
  Tm  Tm15  1  0.935990  0.935990  0.564014  1
  Hg  Hg16  1  0.586641  0.586641  0.586641  1
  Hg  Hg17  1  0.586749  0.586749  0.240068  1
  Hg  Hg18  1  0.586749  0.240068  0.586749  1
  Hg  Hg19  1  0.240068  0.586749  0.586749  1
  Pt  Pt20  1  0.144308  0.144308  0.144308  1
  Pt  Pt21  1  0.143758  0.143758  0.567728  1
  Pt  Pt22  1  0.143758  0.567728  0.143758  1
  Pt  Pt23  1  0.567728  0.143758  0.143758  1
