# generated using pymatgen
data_SrNd6NiBr12
_symmetry_space_group_name_H-M   'P 1'
_cell_length_a   9.51723126
_cell_length_b   9.51723119
_cell_length_c   9.51723068
_cell_angle_alpha   106.12068720
_cell_angle_beta   106.12067498
_cell_angle_gamma   106.12067981
_symmetry_Int_Tables_number   1
_chemical_formula_structural   SrNd6NiBr12
_chemical_formula_sum   'Sr1 Nd6 Ni1 Br12'
_cell_volume   734.46317827
_cell_formula_units_Z   1
loop_
 _symmetry_equiv_pos_site_id
 _symmetry_equiv_pos_as_xyz
  1  'x, y, z'
loop_
 _atom_site_type_symbol
 _atom_site_label
 _atom_site_symmetry_multiplicity
 _atom_site_fract_x
 _atom_site_fract_y
 _atom_site_fract_z
 _atom_site_occupancy
  Sr  Sr0  1  0.500000  0.500000  0.500000  1
  Nd  Nd1  1  0.100904  0.019931  0.309322  1
  Nd  Nd2  1  0.019931  0.309322  0.100904  1
  Nd  Nd3  1  0.309322  0.100904  0.019931  1
  Nd  Nd4  1  0.899095  0.980069  0.690678  1
  Nd  Nd5  1  0.980069  0.690678  0.899095  1
  Nd  Nd6  1  0.690678  0.899095  0.980069  1
  Ni  Ni7  1  0.000000  0.000000  0.000000  1
  Br  Br8  1  0.073844  0.680012  0.221184  1
  Br  Br9  1  0.680012  0.221184  0.073844  1
  Br  Br10  1  0.221184  0.073844  0.680012  1
  Br  Br11  1  0.926156  0.319988  0.778816  1
  Br  Br12  1  0.319988  0.778816  0.926156  1
  Br  Br13  1  0.778816  0.926156  0.319988  1
  Br  Br14  1  0.448004  0.148792  0.367468  1
  Br  Br15  1  0.148792  0.367468  0.448004  1
  Br  Br16  1  0.367468  0.448004  0.148792  1
  Br  Br17  1  0.551996  0.851208  0.632532  1
  Br  Br18  1  0.851208  0.632532  0.551996  1
  Br  Br19  1  0.632532  0.551996  0.851208  1
