# generated using pymatgen
data_La2Pr2C2Br5
_symmetry_space_group_name_H-M   'P 1'
_cell_length_a   4.01989169
_cell_length_b   8.43003273
_cell_length_c   10.07987532
_cell_angle_alpha   105.53664474
_cell_angle_beta   78.49800935
_cell_angle_gamma   90.00000292
_symmetry_Int_Tables_number   1
_chemical_formula_structural   La2Pr2C2Br5
_chemical_formula_sum   'La2 Pr2 C2 Br5'
_cell_volume   321.97764360
_cell_formula_units_Z   1
loop_
 _symmetry_equiv_pos_site_id
 _symmetry_equiv_pos_as_xyz
  1  'x, y, z'
loop_
 _atom_site_type_symbol
 _atom_site_label
 _atom_site_symmetry_multiplicity
 _atom_site_fract_x
 _atom_site_fract_y
 _atom_site_fract_z
 _atom_site_occupancy
  La  La0  1  0.002777  0.201945  0.994446  1
  La  La1  1  0.004225  0.793802  0.991550  1
  Pr  Pr2  1  0.661040  0.890308  0.677919  1
  Pr  Pr3  1  0.346086  0.104700  0.307827  1
  C  C4  1  0.466704  0.022404  0.066592  1
  C  C5  1  0.540456  0.973050  0.919089  1
  Br  Br6  1  0.166195  0.624250  0.667610  1
  Br  Br7  1  0.840536  0.370853  0.318926  1
  Br  Br8  1  0.502431  0.498762  0.995137  1
  Br  Br9  1  0.170366  0.156009  0.659267  1
  Br  Br10  1  0.836782  0.839214  0.326436  1
