# generated using pymatgen
data_Cs(MnS2)2
_symmetry_space_group_name_H-M   'P 1'
_cell_length_a   5.88368300
_cell_length_b   6.78981600
_cell_length_c   16.65041400
_cell_angle_alpha   90.00000000
_cell_angle_beta   90.00000000
_cell_angle_gamma   90.00000000
_symmetry_Int_Tables_number   1
_chemical_formula_structural   Cs(MnS2)2
_chemical_formula_sum   'Cs4 Mn8 S16'
_cell_volume   665.16946973
_cell_formula_units_Z   4
loop_
 _symmetry_equiv_pos_site_id
 _symmetry_equiv_pos_as_xyz
  1  'x, y, z'
loop_
 _atom_site_type_symbol
 _atom_site_label
 _atom_site_symmetry_multiplicity
 _atom_site_fract_x
 _atom_site_fract_y
 _atom_site_fract_z
 _atom_site_occupancy
  Cs  Cs0  1  0.361856  0.000000  0.000000  1
  Cs  Cs1  1  0.638144  0.500000  0.500000  1
  Cs  Cs2  1  0.041327  0.000000  0.500000  1
  Cs  Cs3  1  0.958673  0.500000  0.000000  1
  Mn  Mn4  1  0.002243  0.000000  0.250085  1
  Mn  Mn5  1  0.002243  0.000000  0.749915  1
  Mn  Mn6  1  0.997757  0.500000  0.249915  1
  Mn  Mn7  1  0.997757  0.500000  0.750085  1
  Mn  Mn8  1  0.500000  0.250000  0.250000  1
  Mn  Mn9  1  0.500000  0.750000  0.750000  1
  Mn  Mn10  1  0.500000  0.750000  0.250000  1
  Mn  Mn11  1  0.500000  0.250000  0.750000  1
  S  S12  1  0.833985  0.250029  0.327723  1
  S  S13  1  0.833985  0.749971  0.672277  1
  S  S14  1  0.166015  0.750029  0.172277  1
  S  S15  1  0.166015  0.249971  0.827723  1
  S  S16  1  0.166015  0.249971  0.172277  1
  S  S17  1  0.166015  0.750029  0.827723  1
  S  S18  1  0.833985  0.749971  0.327723  1
  S  S19  1  0.833985  0.250029  0.672277  1
  S  S20  1  0.671151  0.000000  0.172625  1
  S  S21  1  0.671151  0.000000  0.827375  1
  S  S22  1  0.328849  0.500000  0.327375  1
  S  S23  1  0.328849  0.500000  0.672625  1
  S  S24  1  0.338641  0.000000  0.327286  1
  S  S25  1  0.338641  0.000000  0.672714  1
  S  S26  1  0.661359  0.500000  0.172714  1
  S  S27  1  0.661359  0.500000  0.827286  1
