# generated using pymatgen
data_Y2Sc3Sn4
_symmetry_space_group_name_H-M   'P 1'
_cell_length_a   7.76722000
_cell_length_b   7.89686600
_cell_length_c   14.90084700
_cell_angle_alpha   90.00000000
_cell_angle_beta   90.00000000
_cell_angle_gamma   90.00000000
_symmetry_Int_Tables_number   1
_chemical_formula_structural   Y2Sc3Sn4
_chemical_formula_sum   'Y8 Sc12 Sn16'
_cell_volume   913.96871562
_cell_formula_units_Z   4
loop_
 _symmetry_equiv_pos_site_id
 _symmetry_equiv_pos_as_xyz
  1  'x, y, z'
loop_
 _atom_site_type_symbol
 _atom_site_label
 _atom_site_symmetry_multiplicity
 _atom_site_fract_x
 _atom_site_fract_y
 _atom_site_fract_z
 _atom_site_occupancy
  Y  Y0  1  0.517971  0.323019  0.905097  1
  Y  Y1  1  0.017971  0.176981  0.594903  1
  Y  Y2  1  0.482029  0.676981  0.405097  1
  Y  Y3  1  0.982029  0.823019  0.094903  1
  Y  Y4  1  0.482029  0.676981  0.094903  1
  Y  Y5  1  0.982029  0.823019  0.405097  1
  Y  Y6  1  0.517971  0.323019  0.594903  1
  Y  Y7  1  0.017971  0.176981  0.905097  1
  Sc  Sc8  1  0.359712  0.838056  0.874385  1
  Sc  Sc9  1  0.859712  0.661944  0.625615  1
  Sc  Sc10  1  0.640288  0.161944  0.374385  1
  Sc  Sc11  1  0.140288  0.338056  0.125615  1
  Sc  Sc12  1  0.640288  0.161944  0.125615  1
  Sc  Sc13  1  0.140288  0.338056  0.374385  1
  Sc  Sc14  1  0.359712  0.838056  0.625615  1
  Sc  Sc15  1  0.859712  0.661944  0.874385  1
  Sc  Sc16  1  0.191258  0.505752  0.750000  1
  Sc  Sc17  1  0.691258  0.994248  0.750000  1
  Sc  Sc18  1  0.808742  0.494248  0.250000  1
  Sc  Sc19  1  0.308742  0.005752  0.250000  1
  Sn  Sn20  1  0.306215  0.043236  0.042362  1
  Sn  Sn21  1  0.806215  0.456764  0.457638  1
  Sn  Sn22  1  0.693785  0.956764  0.542362  1
  Sn  Sn23  1  0.193785  0.543236  0.957638  1
  Sn  Sn24  1  0.693785  0.956764  0.957638  1
  Sn  Sn25  1  0.193785  0.543236  0.542362  1
  Sn  Sn26  1  0.306215  0.043236  0.457638  1
  Sn  Sn27  1  0.806215  0.456764  0.042362  1
  Sn  Sn28  1  0.555479  0.626749  0.750000  1
  Sn  Sn29  1  0.055479  0.873251  0.750000  1
  Sn  Sn30  1  0.444521  0.373251  0.250000  1
  Sn  Sn31  1  0.944521  0.126749  0.250000  1
  Sn  Sn32  1  0.328133  0.146705  0.750000  1
  Sn  Sn33  1  0.828133  0.353295  0.750000  1
  Sn  Sn34  1  0.671867  0.853295  0.250000  1
  Sn  Sn35  1  0.171867  0.646705  0.250000  1
