# generated using pymatgen
data_ZrPaCdPt2
_symmetry_space_group_name_H-M   'P 1'
_cell_length_a   7.64569100
_cell_length_b   7.80214700
_cell_length_c   3.55249100
_cell_angle_alpha   90.00000000
_cell_angle_beta   90.00000000
_cell_angle_gamma   90.00000000
_symmetry_Int_Tables_number   1
_chemical_formula_structural   ZrPaCdPt2
_chemical_formula_sum   'Zr2 Pa2 Cd2 Pt4'
_cell_volume   211.91605324
_cell_formula_units_Z   2
loop_
 _symmetry_equiv_pos_site_id
 _symmetry_equiv_pos_as_xyz
  1  'x, y, z'
loop_
 _atom_site_type_symbol
 _atom_site_label
 _atom_site_symmetry_multiplicity
 _atom_site_fract_x
 _atom_site_fract_y
 _atom_site_fract_z
 _atom_site_occupancy
  Zr  Zr0  1  0.824705  0.673760  0.500000  1
  Zr  Zr1  1  0.675295  0.173760  0.500000  1
  Pa  Pa2  1  0.164198  0.330919  0.500000  1
  Pa  Pa3  1  0.335802  0.830919  0.500000  1
  Cd  Cd4  1  0.510745  0.495180  0.000000  1
  Cd  Cd5  1  0.989255  0.995180  0.000000  1
  Pt  Pt6  1  0.627614  0.869513  0.000000  1
  Pt  Pt7  1  0.136544  0.630629  0.000000  1
  Pt  Pt8  1  0.872386  0.369513  0.000000  1
  Pt  Pt9  1  0.363456  0.130629  0.000000  1
