# generated using pymatgen
data_U4Al2Fe3Cu2Ru
_symmetry_space_group_name_H-M   'P 1'
_cell_length_a   5.51706390
_cell_length_b   5.16234161
_cell_length_c   7.80513500
_cell_angle_alpha   90.00000000
_cell_angle_beta   90.00000000
_cell_angle_gamma   122.11931643
_symmetry_Int_Tables_number   1
_chemical_formula_structural   U4Al2Fe3Cu2Ru
_chemical_formula_sum   'U4 Al2 Fe3 Cu2 Ru1'
_cell_volume   188.27350720
_cell_formula_units_Z   1
loop_
 _symmetry_equiv_pos_site_id
 _symmetry_equiv_pos_as_xyz
  1  'x, y, z'
loop_
 _atom_site_type_symbol
 _atom_site_label
 _atom_site_symmetry_multiplicity
 _atom_site_fract_x
 _atom_site_fract_y
 _atom_site_fract_z
 _atom_site_occupancy
  U  U0  1  0.348296  0.702393  0.422240  1
  U  U1  1  0.647872  0.296152  0.927764  1
  U  U2  1  0.647872  0.296152  0.572236  1
  U  U3  1  0.348296  0.702393  0.077760  1
  Al  Al4  1  0.006439  0.004826  0.495646  1
  Al  Al5  1  0.006439  0.004826  0.004354  1
  Fe  Fe6  1  0.156825  0.811178  0.750000  1
  Fe  Fe7  1  0.347454  0.194559  0.250000  1
  Fe  Fe8  1  0.842387  0.191321  0.250000  1
  Cu  Cu9  1  0.158489  0.325385  0.750000  1
  Cu  Cu10  1  0.832975  0.669650  0.250000  1
  Ru  Ru11  1  0.656658  0.801164  0.750000  1
