# generated using pymatgen
data_Tm5OsRh
_symmetry_space_group_name_H-M   'P 1'
_cell_length_a   6.32780405
_cell_length_b   7.23382105
_cell_length_c   8.32004838
_cell_angle_alpha   96.54199636
_cell_angle_beta   112.35068164
_cell_angle_gamma   90.00000206
_symmetry_Int_Tables_number   1
_chemical_formula_structural   Tm5OsRh
_chemical_formula_sum   'Tm10 Os2 Rh2'
_cell_volume   349.54946958
_cell_formula_units_Z   2
loop_
 _symmetry_equiv_pos_site_id
 _symmetry_equiv_pos_as_xyz
  1  'x, y, z'
loop_
 _atom_site_type_symbol
 _atom_site_label
 _atom_site_symmetry_multiplicity
 _atom_site_fract_x
 _atom_site_fract_y
 _atom_site_fract_z
 _atom_site_occupancy
  Tm  Tm0  1  0.969009  0.915792  0.179202  1
  Tm  Tm1  1  0.789806  0.584208  0.820798  1
  Tm  Tm2  1  0.024564  0.081997  0.814723  1
  Tm  Tm3  1  0.209843  0.418003  0.185277  1
  Tm  Tm4  1  0.653421  0.817046  0.440815  1
  Tm  Tm5  1  0.212607  0.682954  0.559185  1
  Tm  Tm6  1  0.350640  0.178553  0.561949  1
  Tm  Tm7  1  0.788691  0.321447  0.438051  1
  Tm  Tm8  1  0.423315  0.750000  0.000000  1
  Tm  Tm9  1  0.579783  0.250000  0.000000  1
  Os  Os10  1  0.824001  0.574981  0.217182  1
  Os  Os11  1  0.606819  0.925019  0.782818  1
  Rh  Rh12  1  0.173768  0.423462  0.780033  1
  Rh  Rh13  1  0.393734  0.076538  0.219967  1
