# generated using pymatgen
data_DyTm2(Ni3P2)3
_symmetry_space_group_name_H-M   'P 1'
_cell_length_a   3.74992700
_cell_length_b   10.42706000
_cell_length_c   12.28218200
_cell_angle_alpha   90.00000000
_cell_angle_beta   90.00000000
_cell_angle_gamma   90.00000000
_symmetry_Int_Tables_number   1
_chemical_formula_structural   DyTm2(Ni3P2)3
_chemical_formula_sum   'Dy2 Tm4 Ni18 P12'
_cell_volume   480.24208352
_cell_formula_units_Z   2
loop_
 _symmetry_equiv_pos_site_id
 _symmetry_equiv_pos_as_xyz
  1  'x, y, z'
loop_
 _atom_site_type_symbol
 _atom_site_label
 _atom_site_symmetry_multiplicity
 _atom_site_fract_x
 _atom_site_fract_y
 _atom_site_fract_z
 _atom_site_occupancy
  Dy  Dy0  1  0.751702  0.000000  0.478952  1
  Dy  Dy1  1  0.251702  0.500000  0.521048  1
  Tm  Tm2  1  0.251879  0.682777  0.794178  1
  Tm  Tm3  1  0.251879  0.317223  0.794178  1
  Tm  Tm4  1  0.751879  0.817223  0.205822  1
  Tm  Tm5  1  0.751879  0.182777  0.205822  1
  Ni  Ni6  1  0.752435  0.000000  0.016892  1
  Ni  Ni7  1  0.252435  0.500000  0.983108  1
  Ni  Ni8  1  0.251775  0.199134  0.571786  1
  Ni  Ni9  1  0.251775  0.800866  0.571786  1
  Ni  Ni10  1  0.751775  0.300866  0.428214  1
  Ni  Ni11  1  0.751775  0.699134  0.428214  1
  Ni  Ni12  1  0.251639  0.621184  0.288048  1
  Ni  Ni13  1  0.251639  0.378816  0.288048  1
  Ni  Ni14  1  0.751639  0.878816  0.711952  1
  Ni  Ni15  1  0.751639  0.121184  0.711952  1
  Ni  Ni16  1  0.252417  0.167243  0.004657  1
  Ni  Ni17  1  0.252417  0.832757  0.004657  1
  Ni  Ni18  1  0.752417  0.332757  0.995343  1
  Ni  Ni19  1  0.752417  0.667243  0.995343  1
  Ni  Ni20  1  0.250399  0.000000  0.842082  1
  Ni  Ni21  1  0.750399  0.500000  0.157918  1
  Ni  Ni22  1  0.251776  0.000000  0.299823  1
  Ni  Ni23  1  0.751776  0.500000  0.700177  1
  P  P24  1  0.251730  0.186528  0.385047  1
  P  P25  1  0.251730  0.813472  0.385047  1
  P  P26  1  0.751730  0.313472  0.614953  1
  P  P27  1  0.751730  0.686528  0.614953  1
  P  P28  1  0.252197  0.000000  0.124307  1
  P  P29  1  0.752197  0.500000  0.875693  1
  P  P30  1  0.251902  0.652458  0.107708  1
  P  P31  1  0.251902  0.347542  0.107708  1
  P  P32  1  0.751902  0.847542  0.892292  1
  P  P33  1  0.751902  0.152458  0.892292  1
  P  P34  1  0.251609  0.000000  0.656418  1
  P  P35  1  0.751609  0.500000  0.343582  1
