# generated using pymatgen
data_Nd5Sc3(As3Pd4)4
_symmetry_space_group_name_H-M   'P 1'
_cell_length_a   13.60494300
_cell_length_b   13.60494216
_cell_length_c   4.16589000
_cell_angle_alpha   90.00000000
_cell_angle_beta   90.00000000
_cell_angle_gamma   120.00000447
_symmetry_Int_Tables_number   1
_chemical_formula_structural   Nd5Sc3(As3Pd4)4
_chemical_formula_sum   'Nd5 Sc3 As12 Pd16'
_cell_volume   667.77758446
_cell_formula_units_Z   1
loop_
 _symmetry_equiv_pos_site_id
 _symmetry_equiv_pos_as_xyz
  1  'x, y, z'
loop_
 _atom_site_type_symbol
 _atom_site_label
 _atom_site_symmetry_multiplicity
 _atom_site_fract_x
 _atom_site_fract_y
 _atom_site_fract_z
 _atom_site_occupancy
  Nd  Nd0  1  0.189769  0.189769  0.500000  1
  Nd  Nd1  1  0.810231  0.000000  0.500000  1
  Nd  Nd2  1  0.000000  0.810231  0.500000  1
  Nd  Nd3  1  0.333333  0.666667  0.000000  1
  Nd  Nd4  1  0.666667  0.333333  0.000000  1
  Sc  Sc5  1  0.558331  0.558331  0.000000  1
  Sc  Sc6  1  0.441669  0.000000  0.000000  1
  Sc  Sc7  1  0.000000  0.441669  0.000000  1
  As  As8  1  0.824248  0.824248  0.000000  1
  As  As9  1  0.175752  0.000000  0.000000  1
  As  As10  1  0.000000  0.175752  0.000000  1
  As  As11  1  0.166621  0.479886  0.500000  1
  As  As12  1  0.520114  0.686735  0.500000  1
  As  As13  1  0.313265  0.833379  0.500000  1
  As  As14  1  0.686735  0.520114  0.500000  1
  As  As15  1  0.833379  0.313265  0.500000  1
  As  As16  1  0.479886  0.166621  0.500000  1
  As  As17  1  0.359678  0.359678  0.000000  1
  As  As18  1  0.640322  0.000000  0.000000  1
  As  As19  1  0.000000  0.640322  0.000000  1
  Pd  Pd20  1  0.721676  0.721676  0.500000  1
  Pd  Pd21  1  0.278324  0.000000  0.500000  1
  Pd  Pd22  1  0.000000  0.278324  0.500000  1
  Pd  Pd23  1  0.184518  0.378582  0.000000  1
  Pd  Pd24  1  0.621418  0.805937  0.000000  1
  Pd  Pd25  1  0.194063  0.815482  0.000000  1
  Pd  Pd26  1  0.805937  0.621418  0.000000  1
  Pd  Pd27  1  0.815482  0.194063  0.000000  1
  Pd  Pd28  1  0.378582  0.184518  0.000000  1
  Pd  Pd29  1  0.359240  0.484939  0.500000  1
  Pd  Pd30  1  0.515061  0.874301  0.500000  1
  Pd  Pd31  1  0.125699  0.640760  0.500000  1
  Pd  Pd32  1  0.874301  0.515061  0.500000  1
  Pd  Pd33  1  0.640760  0.125699  0.500000  1
  Pd  Pd34  1  0.484939  0.359240  0.500000  1
  Pd  Pd35  1  0.000000  0.000000  0.000000  1
