# generated using pymatgen
data_Pr6AlPbI6
_symmetry_space_group_name_H-M   'P 1'
_cell_length_a   11.21429448
_cell_length_b   11.21429354
_cell_length_c   11.11527400
_cell_angle_alpha   109.38283838
_cell_angle_beta   109.38283669
_cell_angle_gamma   110.00509526
_symmetry_Int_Tables_number   1
_chemical_formula_structural   Pr6AlPbI6
_chemical_formula_sum   'Pr12 Al2 Pb2 I12'
_cell_volume   1071.27374131
_cell_formula_units_Z   2
loop_
 _symmetry_equiv_pos_site_id
 _symmetry_equiv_pos_as_xyz
  1  'x, y, z'
loop_
 _atom_site_type_symbol
 _atom_site_label
 _atom_site_symmetry_multiplicity
 _atom_site_fract_x
 _atom_site_fract_y
 _atom_site_fract_z
 _atom_site_occupancy
  Pr  Pr0  1  0.472539  0.496456  0.228223  1
  Pr  Pr1  1  0.768234  0.244317  0.271777  1
  Pr  Pr2  1  0.764793  0.020966  0.500154  1
  Pr  Pr3  1  0.235362  0.479187  0.500154  1
  Pr  Pr4  1  0.255683  0.731766  0.228223  1
  Pr  Pr5  1  0.020813  0.264638  0.999846  1
  Pr  Pr6  1  0.003544  0.027461  0.271777  1
  Pr  Pr7  1  0.479034  0.735207  0.999846  1
  Pr  Pr8  1  0.491499  0.241499  0.482998  1
  Pr  Pr9  1  0.011935  0.488065  0.750000  1
  Pr  Pr10  1  0.258501  0.008501  0.017002  1
  Pr  Pr11  1  0.238065  0.261935  0.750000  1
  Al  Al12  1  0.003344  0.253344  0.506688  1
  Al  Al13  1  0.246656  0.496656  0.993312  1
  Pb  Pb14  1  0.249401  0.250599  0.250000  1
  Pb  Pb15  1  0.500599  0.999401  0.250000  1
  I  I16  1  0.249523  0.758178  0.743956  1
  I  I17  1  0.514220  0.505567  0.756044  1
  I  I18  1  0.993475  0.747582  0.998650  1
  I  I19  1  0.741822  0.250477  0.756044  1
  I  I20  1  0.994433  0.985780  0.743956  1
  I  I21  1  0.248933  0.994825  0.501350  1
  I  I22  1  0.752418  0.506525  0.501350  1
  I  I23  1  0.505175  0.251067  0.998650  1
  I  I24  1  0.754377  0.745623  0.250000  1
  I  I25  1  0.745400  0.995400  0.990801  1
  I  I26  1  0.995623  0.504377  0.250000  1
  I  I27  1  0.504600  0.754600  0.509199  1
