# generated using pymatgen
data_Y6Tm2Sc12Si15Au
_symmetry_space_group_name_H-M   'P 1'
_cell_length_a   7.11870009
_cell_length_b   7.37877741
_cell_length_c   14.05649811
_cell_angle_alpha   89.83699905
_cell_angle_beta   89.70241105
_cell_angle_gamma   90.30606609
_symmetry_Int_Tables_number   1
_chemical_formula_structural   Y6Tm2Sc12Si15Au
_chemical_formula_sum   'Y6 Tm2 Sc12 Si15 Au1'
_cell_volume   738.32640079
_cell_formula_units_Z   1
loop_
 _symmetry_equiv_pos_site_id
 _symmetry_equiv_pos_as_xyz
  1  'x, y, z'
loop_
 _atom_site_type_symbol
 _atom_site_label
 _atom_site_symmetry_multiplicity
 _atom_site_fract_x
 _atom_site_fract_y
 _atom_site_fract_z
 _atom_site_occupancy
  Y  Y0  1  0.011732  0.175041  0.097683  1
  Y  Y1  1  0.988226  0.825510  0.903756  1
  Y  Y2  1  0.487847  0.676224  0.904112  1
  Y  Y3  1  0.988514  0.828196  0.597243  1
  Y  Y4  1  0.511678  0.324373  0.096171  1
  Y  Y5  1  0.010049  0.173984  0.399794  1
  Tm  Tm6  1  0.509192  0.324183  0.400751  1
  Tm  Tm7  1  0.491375  0.676168  0.598923  1
  Sc  Sc8  1  0.163126  0.501704  0.750950  1
  Sc  Sc9  1  0.837263  0.498423  0.251061  1
  Sc  Sc10  1  0.338198  0.000522  0.249607  1
  Sc  Sc11  1  0.663844  0.996096  0.750665  1
  Sc  Sc12  1  0.338690  0.176756  0.625554  1
  Sc  Sc13  1  0.665971  0.822985  0.373558  1
  Sc  Sc14  1  0.169156  0.673010  0.373208  1
  Sc  Sc15  1  0.669886  0.824075  0.125640  1
  Sc  Sc16  1  0.828213  0.326057  0.625149  1
  Sc  Sc17  1  0.329000  0.175310  0.875809  1
  Sc  Sc18  1  0.830282  0.322908  0.875743  1
  Sc  Sc19  1  0.169353  0.676600  0.125514  1
  Si  Si20  1  0.035985  0.119578  0.750393  1
  Si  Si21  1  0.966451  0.882750  0.249442  1
  Si  Si22  1  0.466936  0.615016  0.248741  1
  Si  Si23  1  0.535467  0.385819  0.751992  1
  Si  Si24  1  0.286128  0.874423  0.749962  1
  Si  Si25  1  0.711193  0.128175  0.249736  1
  Si  Si26  1  0.215074  0.371164  0.248627  1
  Si  Si27  1  0.785924  0.626590  0.751952  1
  Si  Si28  1  0.833221  0.536349  0.459173  1
  Si  Si29  1  0.342183  0.962768  0.459984  1
  Si  Si30  1  0.844241  0.536307  0.039311  1
  Si  Si31  1  0.656449  0.036129  0.537372  1
  Si  Si32  1  0.155355  0.463732  0.961823  1
  Si  Si33  1  0.656722  0.035367  0.961390  1
  Si  Si34  1  0.343316  0.963712  0.039631  1
  Au  Au35  1  0.163761  0.463999  0.539578  1
