# generated using pymatgen
data_ErSi4(IrRh2)2
_symmetry_space_group_name_H-M   'P 1'
_cell_length_a   6.99728100
_cell_length_b   7.03601361
_cell_length_c   3.80224200
_cell_angle_alpha   90.00000000
_cell_angle_beta   90.00000000
_cell_angle_gamma   119.81806085
_symmetry_Int_Tables_number   1
_chemical_formula_structural   ErSi4(IrRh2)2
_chemical_formula_sum   'Er1 Si4 Ir2 Rh4'
_cell_volume   162.41258013
_cell_formula_units_Z   1
loop_
 _symmetry_equiv_pos_site_id
 _symmetry_equiv_pos_as_xyz
  1  'x, y, z'
loop_
 _atom_site_type_symbol
 _atom_site_label
 _atom_site_symmetry_multiplicity
 _atom_site_fract_x
 _atom_site_fract_y
 _atom_site_fract_z
 _atom_site_occupancy
  Er  Er0  1  0.000485  0.000970  0.000000  1
  Si  Si1  1  0.332758  0.665516  0.000000  1
  Si  Si2  1  0.396513  0.197428  0.500001  1
  Si  Si3  1  0.800916  0.197428  0.500001  1
  Si  Si4  1  0.801715  0.603431  0.500001  1
  Ir  Ir5  1  0.533098  0.066196  0.000000  1
  Ir  Ir6  1  0.196882  0.393763  0.500001  1
  Rh  Rh7  1  0.535091  0.469095  0.000000  1
  Rh  Rh8  1  0.934004  0.469095  0.000000  1
  Rh  Rh9  1  0.197418  0.801872  0.500001  1
  Rh  Rh10  1  0.604454  0.801872  0.500001  1
