# generated using pymatgen
data_HoErSc2(B6Ir)2
_symmetry_space_group_name_H-M   'P 1'
_cell_length_a   3.53809800
_cell_length_b   8.99616901
_cell_length_c   11.35579701
_cell_angle_alpha   90.00408785
_cell_angle_beta   90.00000000
_cell_angle_gamma   90.00000000
_symmetry_Int_Tables_number   1
_chemical_formula_structural   HoErSc2(B6Ir)2
_chemical_formula_sum   'Ho2 Er2 Sc4 B24 Ir4'
_cell_volume   361.44738181
_cell_formula_units_Z   2
loop_
 _symmetry_equiv_pos_site_id
 _symmetry_equiv_pos_as_xyz
  1  'x, y, z'
loop_
 _atom_site_type_symbol
 _atom_site_label
 _atom_site_symmetry_multiplicity
 _atom_site_fract_x
 _atom_site_fract_y
 _atom_site_fract_z
 _atom_site_occupancy
  Ho  Ho0  1  0.500000  0.319899  0.414012  1
  Ho  Ho1  1  0.500000  0.680101  0.585988  1
  Er  Er2  1  0.500000  0.180073  0.914008  1
  Er  Er3  1  0.500000  0.819927  0.085992  1
  Sc  Sc4  1  0.500000  0.445114  0.124192  1
  Sc  Sc5  1  0.500000  0.554886  0.875808  1
  Sc  Sc6  1  0.500000  0.054908  0.624229  1
  Sc  Sc7  1  0.500000  0.945092  0.375771  1
  B  B8  1  0.000000  0.100555  0.472751  1
  B  B9  1  0.000000  0.899445  0.527249  1
  B  B10  1  0.000000  0.399287  0.972702  1
  B  B11  1  0.000000  0.600713  0.027298  1
  B  B12  1  0.000000  0.130055  0.318450  1
  B  B13  1  0.000000  0.869945  0.681550  1
  B  B14  1  0.000000  0.369827  0.818524  1
  B  B15  1  0.000000  0.630173  0.181476  1
  B  B16  1  0.000000  0.054571  0.065287  1
  B  B17  1  0.000000  0.945429  0.934713  1
  B  B18  1  0.000000  0.445385  0.565404  1
  B  B19  1  0.000000  0.554615  0.434596  1
  B  B20  1  0.000000  0.481585  0.285261  1
  B  B21  1  0.000000  0.518415  0.714739  1
  B  B22  1  0.000000  0.018533  0.785332  1
  B  B23  1  0.000000  0.981467  0.214668  1
  B  B24  1  0.000000  0.253803  0.079767  1
  B  B25  1  0.000000  0.746197  0.920233  1
  B  B26  1  0.000000  0.246148  0.579895  1
  B  B27  1  0.000000  0.753852  0.420105  1
  B  B28  1  0.000000  0.295759  0.235570  1
  B  B29  1  0.000000  0.704241  0.764430  1
  B  B30  1  0.000000  0.204203  0.735702  1
  B  B31  1  0.000000  0.795797  0.264298  1
  Ir  Ir32  1  0.500000  0.141232  0.181145  1
  Ir  Ir33  1  0.500000  0.858768  0.818855  1
  Ir  Ir34  1  0.500000  0.358583  0.681351  1
  Ir  Ir35  1  0.500000  0.641417  0.318649  1
