# generated using pymatgen
data_NdHo5Al24ZnOs7
_symmetry_space_group_name_H-M   'P 1'
_cell_length_a   8.84436800
_cell_length_b   8.85234618
_cell_length_c   9.57556339
_cell_angle_alpha   90.05747724
_cell_angle_beta   89.95137205
_cell_angle_gamma   119.79766593
_symmetry_Int_Tables_number   1
_chemical_formula_structural   NdHo5Al24ZnOs7
_chemical_formula_sum   'Nd1 Ho5 Al24 Zn1 Os7'
_cell_volume   650.58158078
_cell_formula_units_Z   1
loop_
 _symmetry_equiv_pos_site_id
 _symmetry_equiv_pos_as_xyz
  1  'x, y, z'
loop_
 _atom_site_type_symbol
 _atom_site_label
 _atom_site_symmetry_multiplicity
 _atom_site_fract_x
 _atom_site_fract_y
 _atom_site_fract_z
 _atom_site_occupancy
  Nd  Nd0  1  0.190382  0.380511  0.247169  1
  Ho  Ho1  1  0.808396  0.614390  0.751492  1
  Ho  Ho2  1  0.613148  0.808446  0.248170  1
  Ho  Ho3  1  0.386535  0.191811  0.751975  1
  Ho  Ho4  1  0.196564  0.805916  0.254993  1
  Ho  Ho5  1  0.804191  0.195054  0.745194  1
  Al  Al6  1  0.328502  0.672677  0.020580  1
  Al  Al7  1  0.671290  0.329050  0.976008  1
  Al  Al8  1  0.666760  0.333952  0.523383  1
  Al  Al9  1  0.334055  0.667185  0.479302  1
  Al  Al10  1  0.164302  0.327520  0.574785  1
  Al  Al11  1  0.836479  0.673063  0.428285  1
  Al  Al12  1  0.673279  0.835866  0.573561  1
  Al  Al13  1  0.849774  0.677609  0.079354  1
  Al  Al14  1  0.328348  0.163749  0.428667  1
  Al  Al15  1  0.149765  0.322752  0.917410  1
  Al  Al16  1  0.163302  0.836090  0.577683  1
  Al  Al17  1  0.323497  0.149515  0.078945  1
  Al  Al18  1  0.835066  0.163527  0.424232  1
  Al  Al19  1  0.677337  0.849329  0.919248  1
  Al  Al20  1  0.834961  0.163877  0.075247  1
  Al  Al21  1  0.162931  0.835899  0.922380  1
  Al  Al22  1  0.562518  0.121684  0.249536  1
  Al  Al23  1  0.437902  0.878942  0.750636  1
  Al  Al24  1  0.877281  0.438830  0.249127  1
  Al  Al25  1  0.121433  0.562616  0.750418  1
  Al  Al26  1  0.566729  0.436976  0.255622  1
  Al  Al27  1  0.436752  0.564384  0.745806  1
  Al  Al28  1  0.996202  0.996248  0.250560  1
  Al  Al29  1  0.000899  0.998235  0.749531  1
  Zn  Zn30  1  0.500500  0.500507  0.999700  1
  Os  Os31  1  0.500375  0.000550  0.999642  1
  Os  Os32  1  0.998916  0.500809  0.998466  1
  Os  Os33  1  0.500335  0.000438  0.500453  1
  Os  Os34  1  0.999484  0.500793  0.501093  1
  Os  Os35  1  0.501710  0.500800  0.501449  1
  Os  Os36  1  0.999966  0.000207  0.999590  1
  Os  Os37  1  0.000134  0.000192  0.500307  1
