# generated using pymatgen
data_V4Te8C
_symmetry_space_group_name_H-M   'P 1'
_cell_length_a   3.43818600
_cell_length_b   11.01345800
_cell_length_c   16.55403100
_cell_angle_alpha   90.00000000
_cell_angle_beta   90.00000000
_cell_angle_gamma   90.00000000
_symmetry_Int_Tables_number   1
_chemical_formula_structural   V4Te8C
_chemical_formula_sum   'V8 Te16 C2'
_cell_volume   626.84018725
_cell_formula_units_Z   2
loop_
 _symmetry_equiv_pos_site_id
 _symmetry_equiv_pos_as_xyz
  1  'x, y, z'
loop_
 _atom_site_type_symbol
 _atom_site_label
 _atom_site_symmetry_multiplicity
 _atom_site_fract_x
 _atom_site_fract_y
 _atom_site_fract_z
 _atom_site_occupancy
  V  V0  1  0.500000  0.071616  0.065258  1
  V  V1  1  0.500000  0.928383  0.934742  1
  V  V2  1  0.500000  0.571617  0.434742  1
  V  V3  1  0.500000  0.428383  0.565258  1
  V  V4  1  0.000000  0.350378  0.428424  1
  V  V5  1  0.000000  0.649622  0.571576  1
  V  V6  1  0.000000  0.850378  0.071576  1
  V  V7  1  0.000000  0.149622  0.928424  1
  Te  Te8  1  0.500000  0.298155  0.005489  1
  Te  Te9  1  0.500000  0.701845  0.994511  1
  Te  Te10  1  0.500000  0.798155  0.494511  1
  Te  Te11  1  0.500000  0.201845  0.505489  1
  Te  Te12  1  0.500000  0.417365  0.314077  1
  Te  Te13  1  0.500000  0.582635  0.685923  1
  Te  Te14  1  0.500000  0.917365  0.185923  1
  Te  Te15  1  0.500000  0.082635  0.814077  1
  Te  Te16  1  0.000000  0.129654  0.332358  1
  Te  Te17  1  0.000000  0.870346  0.667642  1
  Te  Te18  1  0.000000  0.629654  0.167642  1
  Te  Te19  1  0.000000  0.370346  0.832358  1
  Te  Te20  1  0.000000  0.205578  0.166451  1
  Te  Te21  1  0.000000  0.794422  0.833549  1
  Te  Te22  1  0.000000  0.705578  0.333549  1
  Te  Te23  1  0.000000  0.294422  0.666451  1
  C  C24  1  0.000000  0.000000  0.000000  1
  C  C25  1  0.000000  0.500000  0.500000  1
