# generated using pymatgen
data_ErLu3(GaRh)4
_symmetry_space_group_name_H-M   'P 1'
_cell_length_a   4.29889500
_cell_length_b   6.68831245
_cell_length_c   7.71443728
_cell_angle_alpha   90.14627062
_cell_angle_beta   90.00000000
_cell_angle_gamma   90.00000000
_symmetry_Int_Tables_number   1
_chemical_formula_structural   ErLu3(GaRh)4
_chemical_formula_sum   'Er1 Lu3 Ga4 Rh4'
_cell_volume   221.80750078
_cell_formula_units_Z   1
loop_
 _symmetry_equiv_pos_site_id
 _symmetry_equiv_pos_as_xyz
  1  'x, y, z'
loop_
 _atom_site_type_symbol
 _atom_site_label
 _atom_site_symmetry_multiplicity
 _atom_site_fract_x
 _atom_site_fract_y
 _atom_site_fract_z
 _atom_site_occupancy
  Er  Er0  1  0.750000  0.522224  0.808970  1
  Lu  Lu1  1  0.250000  0.977624  0.308739  1
  Lu  Lu2  1  0.250000  0.477363  0.191636  1
  Lu  Lu3  1  0.750000  0.022605  0.690561  1
  Ga  Ga4  1  0.250000  0.338635  0.570963  1
  Ga  Ga5  1  0.250000  0.840183  0.929005  1
  Ga  Ga6  1  0.750000  0.660838  0.427877  1
  Ga  Ga7  1  0.750000  0.159702  0.071735  1
  Rh  Rh8  1  0.250000  0.231372  0.894352  1
  Rh  Rh9  1  0.250000  0.734518  0.604852  1
  Rh  Rh10  1  0.750000  0.767956  0.107427  1
  Rh  Rh11  1  0.750000  0.266980  0.393883  1
