# generated using pymatgen
data_TaBeNb3Co4SiAs2
_symmetry_space_group_name_H-M   'P 1'
_cell_length_a   3.66779400
_cell_length_b   6.24946383
_cell_length_c   7.09996700
_cell_angle_alpha   89.40424540
_cell_angle_beta   90.00000000
_cell_angle_gamma   90.00000000
_symmetry_Int_Tables_number   1
_chemical_formula_structural   TaBeNb3Co4SiAs2
_chemical_formula_sum   'Ta1 Be1 Nb3 Co4 Si1 As2'
_cell_volume   162.73484224
_cell_formula_units_Z   1
loop_
 _symmetry_equiv_pos_site_id
 _symmetry_equiv_pos_as_xyz
  1  'x, y, z'
loop_
 _atom_site_type_symbol
 _atom_site_label
 _atom_site_symmetry_multiplicity
 _atom_site_fract_x
 _atom_site_fract_y
 _atom_site_fract_z
 _atom_site_occupancy
  Ta  Ta0  1  0.750000  0.996020  0.672384  1
  Be  Be1  1  0.250000  0.274539  0.614608  1
  Nb  Nb2  1  0.250000  0.025230  0.331996  1
  Nb  Nb3  1  0.250000  0.524730  0.187158  1
  Nb  Nb4  1  0.750000  0.467009  0.804597  1
  Co  Co5  1  0.250000  0.142589  0.927753  1
  Co  Co6  1  0.250000  0.635715  0.560015  1
  Co  Co7  1  0.750000  0.855324  0.067262  1
  Co  Co8  1  0.750000  0.357066  0.448809  1
  Si  Si9  1  0.750000  0.724426  0.387011  1
  As  As10  1  0.250000  0.768060  0.876199  1
  As  As11  1  0.750000  0.229292  0.122207  1
