# generated using pymatgen
data_Pr8Zn3Si12Ru
_symmetry_space_group_name_H-M   'P 1'
_cell_length_a   8.25391200
_cell_length_b   8.25391296
_cell_length_c   8.60916000
_cell_angle_alpha   90.00000000
_cell_angle_beta   90.00000000
_cell_angle_gamma   120.00000418
_symmetry_Int_Tables_number   1
_chemical_formula_structural   Pr8Zn3Si12Ru
_chemical_formula_sum   'Pr8 Zn3 Si12 Ru1'
_cell_volume   507.93847590
_cell_formula_units_Z   1
loop_
 _symmetry_equiv_pos_site_id
 _symmetry_equiv_pos_as_xyz
  1  'x, y, z'
loop_
 _atom_site_type_symbol
 _atom_site_label
 _atom_site_symmetry_multiplicity
 _atom_site_fract_x
 _atom_site_fract_y
 _atom_site_fract_z
 _atom_site_occupancy
  Pr  Pr0  1  0.501094  0.498906  0.747814  1
  Pr  Pr1  1  0.501737  0.498263  0.252038  1
  Pr  Pr2  1  0.997812  0.498906  0.747814  1
  Pr  Pr3  1  0.996524  0.498263  0.252038  1
  Pr  Pr4  1  0.501094  0.002188  0.747814  1
  Pr  Pr5  1  0.501737  0.003476  0.252038  1
  Pr  Pr6  1  0.000000  0.000000  0.750162  1
  Pr  Pr7  1  0.000000  0.000000  0.250061  1
  Zn  Zn8  1  0.666667  0.333333  0.997077  1
  Zn  Zn9  1  0.333333  0.666667  0.002187  1
  Zn  Zn10  1  0.333333  0.666667  0.498985  1
  Si  Si11  1  0.833571  0.166429  0.000778  1
  Si  Si12  1  0.165678  0.834322  0.999489  1
  Si  Si13  1  0.332857  0.166429  0.000778  1
  Si  Si14  1  0.162438  0.837562  0.499710  1
  Si  Si15  1  0.668644  0.834322  0.999489  1
  Si  Si16  1  0.829169  0.170831  0.500369  1
  Si  Si17  1  0.833571  0.667143  0.000778  1
  Si  Si18  1  0.675125  0.837562  0.499710  1
  Si  Si19  1  0.165678  0.331356  0.999489  1
  Si  Si20  1  0.341663  0.170831  0.500369  1
  Si  Si21  1  0.162438  0.324875  0.499710  1
  Si  Si22  1  0.829169  0.658337  0.500369  1
  Ru  Ru23  1  0.666667  0.333333  0.500941  1
