# generated using pymatgen
data_YbPr6PdBr12
_symmetry_space_group_name_H-M   'P 1'
_cell_length_a   9.63656659
_cell_length_b   9.76778173
_cell_length_c   9.62624600
_cell_angle_alpha   107.11585453
_cell_angle_beta   106.91853706
_cell_angle_gamma   107.46393606
_symmetry_Int_Tables_number   1
_chemical_formula_structural   YbPr6PdBr12
_chemical_formula_sum   'Yb1 Pr6 Pd1 Br12'
_cell_volume   751.14814413
_cell_formula_units_Z   1
loop_
 _symmetry_equiv_pos_site_id
 _symmetry_equiv_pos_as_xyz
  1  'x, y, z'
loop_
 _atom_site_type_symbol
 _atom_site_label
 _atom_site_symmetry_multiplicity
 _atom_site_fract_x
 _atom_site_fract_y
 _atom_site_fract_z
 _atom_site_occupancy
  Yb  Yb0  1  0.500000  0.500000  0.500000  1
  Pr  Pr1  1  0.320743  0.111175  0.026572  1
  Pr  Pr2  1  0.025847  0.317939  0.110654  1
  Pr  Pr3  1  0.110916  0.025918  0.320237  1
  Pr  Pr4  1  0.889084  0.974082  0.679764  1
  Pr  Pr5  1  0.974153  0.682062  0.889347  1
  Pr  Pr6  1  0.679258  0.888825  0.973429  1
  Pd  Pd7  1  0.000000  0.000000  0.000000  1
  Br  Br8  1  0.681340  0.213743  0.067243  1
  Br  Br9  1  0.379354  0.458052  0.170673  1
  Br  Br10  1  0.067832  0.683296  0.216312  1
  Br  Br11  1  0.782591  0.932175  0.318455  1
  Br  Br12  1  0.461218  0.174961  0.380883  1
  Br  Br13  1  0.171063  0.377479  0.460554  1
  Br  Br14  1  0.828937  0.622522  0.539446  1
  Br  Br15  1  0.538782  0.825040  0.619117  1
  Br  Br16  1  0.217410  0.067826  0.681545  1
  Br  Br17  1  0.932168  0.316704  0.783689  1
  Br  Br18  1  0.620647  0.541948  0.829327  1
  Br  Br19  1  0.318661  0.786257  0.932757  1
