# generated using pymatgen
data_Er4LuRu3
_symmetry_space_group_name_H-M   'P 1'
_cell_length_a   10.69296900
_cell_length_b   10.69296900
_cell_length_c   6.32521200
_cell_angle_alpha   90.00000000
_cell_angle_beta   90.00000000
_cell_angle_gamma   90.00000000
_symmetry_Int_Tables_number   1
_chemical_formula_structural   Er4LuRu3
_chemical_formula_sum   'Er16 Lu4 Ru12'
_cell_volume   723.22212166
_cell_formula_units_Z   4
loop_
 _symmetry_equiv_pos_site_id
 _symmetry_equiv_pos_as_xyz
  1  'x, y, z'
loop_
 _atom_site_type_symbol
 _atom_site_label
 _atom_site_symmetry_multiplicity
 _atom_site_fract_x
 _atom_site_fract_y
 _atom_site_fract_z
 _atom_site_occupancy
  Er  Er0  1  0.291505  0.086427  0.376611  1
  Er  Er1  1  0.291505  0.913573  0.876611  1
  Er  Er2  1  0.708495  0.086427  0.876611  1
  Er  Er3  1  0.708495  0.913573  0.376611  1
  Er  Er4  1  0.586427  0.791505  0.876611  1
  Er  Er5  1  0.586427  0.208495  0.376611  1
  Er  Er6  1  0.413573  0.791505  0.376611  1
  Er  Er7  1  0.413573  0.208495  0.876611  1
  Er  Er8  1  0.208495  0.413573  0.623389  1
  Er  Er9  1  0.208495  0.586427  0.123389  1
  Er  Er10  1  0.791505  0.413573  0.123389  1
  Er  Er11  1  0.791505  0.586427  0.623389  1
  Er  Er12  1  0.913573  0.708495  0.123389  1
  Er  Er13  1  0.913573  0.291505  0.623389  1
  Er  Er14  1  0.086427  0.708495  0.623389  1
  Er  Er15  1  0.086427  0.291505  0.123389  1
  Lu  Lu16  1  0.000000  0.000000  0.500000  1
  Lu  Lu17  1  0.000000  0.000000  0.000000  1
  Lu  Lu18  1  0.500000  0.500000  0.000000  1
  Lu  Lu19  1  0.500000  0.500000  0.500000  1
  Ru  Ru20  1  0.847688  0.152312  0.250000  1
  Ru  Ru21  1  0.847688  0.847688  0.750000  1
  Ru  Ru22  1  0.152312  0.152312  0.750000  1
  Ru  Ru23  1  0.152312  0.847688  0.250000  1
  Ru  Ru24  1  0.652312  0.347688  0.750000  1
  Ru  Ru25  1  0.652312  0.652312  0.250000  1
  Ru  Ru26  1  0.347688  0.347688  0.250000  1
  Ru  Ru27  1  0.347688  0.652312  0.750000  1
  Ru  Ru28  1  0.500000  0.000000  0.125130  1
  Ru  Ru29  1  0.500000  0.000000  0.625130  1
  Ru  Ru30  1  0.000000  0.500000  0.874870  1
  Ru  Ru31  1  0.000000  0.500000  0.374870  1
