# generated using pymatgen
data_Tb3Nd17Si15Ru
_symmetry_space_group_name_H-M   'P 1'
_cell_length_a   7.90227813
_cell_length_b   7.87870269
_cell_length_c   15.19627800
_cell_angle_alpha   90.25494359
_cell_angle_beta   89.87068652
_cell_angle_gamma   90.17544339
_symmetry_Int_Tables_number   1
_chemical_formula_structural   Tb3Nd17Si15Ru
_chemical_formula_sum   'Tb3 Nd17 Si15 Ru1'
_cell_volume   946.09952615
_cell_formula_units_Z   1
loop_
 _symmetry_equiv_pos_site_id
 _symmetry_equiv_pos_as_xyz
  1  'x, y, z'
loop_
 _atom_site_type_symbol
 _atom_site_label
 _atom_site_symmetry_multiplicity
 _atom_site_fract_x
 _atom_site_fract_y
 _atom_site_fract_z
 _atom_site_occupancy
  Tb  Tb0  1  0.307269  0.307818  0.998604  1
  Tb  Tb1  1  0.189177  0.809537  0.250123  1
  Tb  Tb2  1  0.822837  0.188824  0.749222  1
  Nd  Nd3  1  0.695905  0.689087  0.501718  1
  Nd  Nd4  1  0.372924  0.011199  0.449516  1
  Nd  Nd5  1  0.487856  0.879291  0.698289  1
  Nd  Nd6  1  0.510858  0.123897  0.197464  1
  Nd  Nd7  1  0.876065  0.487739  0.300218  1
  Nd  Nd8  1  0.126428  0.502671  0.798659  1
  Nd  Nd9  1  0.625244  0.989086  0.948078  1
  Nd  Nd10  1  0.005676  0.376395  0.552751  1
  Nd  Nd11  1  0.988392  0.625086  0.051226  1
  Nd  Nd12  1  0.134220  0.984356  0.872376  1
  Nd  Nd13  1  0.517827  0.630719  0.125942  1
  Nd  Nd14  1  0.470600  0.360397  0.630102  1
  Nd  Nd15  1  0.628182  0.515848  0.874543  1
  Nd  Nd16  1  0.374195  0.482513  0.372631  1
  Nd  Nd17  1  0.873575  0.021695  0.376898  1
  Nd  Nd18  1  0.981483  0.126934  0.123530  1
  Nd  Nd19  1  0.027777  0.883634  0.626692  1
  Si  Si20  1  0.331562  0.690910  0.952256  1
  Si  Si21  1  0.663961  0.303981  0.452602  1
  Si  Si22  1  0.693288  0.332231  0.048480  1
  Si  Si23  1  0.305902  0.669040  0.546840  1
  Si  Si24  1  0.809705  0.830921  0.203975  1
  Si  Si25  1  0.169211  0.193453  0.296062  1
  Si  Si26  1  0.831354  0.805813  0.798997  1
  Si  Si27  1  0.287480  0.923541  0.060878  1
  Si  Si28  1  0.575700  0.788226  0.310134  1
  Si  Si29  1  0.425388  0.208714  0.814378  1
  Si  Si30  1  0.780281  0.579023  0.691158  1
  Si  Si31  1  0.212669  0.423850  0.187258  1
  Si  Si32  1  0.705750  0.074891  0.561456  1
  Si  Si33  1  0.922264  0.285668  0.939453  1
  Si  Si34  1  0.081708  0.717575  0.437746  1
  Ru  Ru35  1  0.187290  0.175435  0.699752  1
