# generated using pymatgen
data_Dy5Ho5InSb5
_symmetry_space_group_name_H-M   'P 1'
_cell_length_a   6.37623700
_cell_length_b   8.96372711
_cell_length_c   8.95591713
_cell_angle_alpha   120.02886778
_cell_angle_beta   90.00001797
_cell_angle_gamma   89.99997183
_symmetry_Int_Tables_number   1
_chemical_formula_structural   Dy5Ho5InSb5
_chemical_formula_sum   'Dy5 Ho5 In1 Sb5'
_cell_volume   443.16695550
_cell_formula_units_Z   1
loop_
 _symmetry_equiv_pos_site_id
 _symmetry_equiv_pos_as_xyz
  1  'x, y, z'
loop_
 _atom_site_type_symbol
 _atom_site_label
 _atom_site_symmetry_multiplicity
 _atom_site_fract_x
 _atom_site_fract_y
 _atom_site_fract_z
 _atom_site_occupancy
  Dy  Dy0  1  0.750001  0.244348  0.000000  1
  Dy  Dy1  1  0.750001  0.754068  0.757656  1
  Dy  Dy2  1  0.750001  0.996412  0.242344  1
  Dy  Dy3  1  0.250001  0.246432  0.244567  1
  Dy  Dy4  1  0.250001  0.001865  0.755433  1
  Ho  Ho5  1  0.498874  0.335179  0.668932  1
  Ho  Ho6  1  0.498874  0.666247  0.331068  1
  Ho  Ho7  1  0.001125  0.666248  0.331068  1
  Ho  Ho8  1  0.001125  0.335180  0.668932  1
  Ho  Ho9  1  0.249999  0.756812  0.000000  1
  In  In10  1  0.749999  0.605015  0.000000  1
  Sb  Sb11  1  0.750001  0.389183  0.389879  1
  Sb  Sb12  1  0.750001  0.999303  0.610121  1
  Sb  Sb13  1  0.250000  0.391367  0.000000  1
  Sb  Sb14  1  0.250000  0.611336  0.610333  1
  Sb  Sb15  1  0.250000  0.001003  0.389667  1
