# generated using pymatgen
data_Lu4AlRu7
_symmetry_space_group_name_H-M   'P 1'
_cell_length_a   5.32696300
_cell_length_b   5.32696424
_cell_length_c   8.50383200
_cell_angle_alpha   90.00000000
_cell_angle_beta   90.00000000
_cell_angle_gamma   119.99998611
_symmetry_Int_Tables_number   1
_chemical_formula_structural   Lu4AlRu7
_chemical_formula_sum   'Lu4 Al1 Ru7'
_cell_volume   208.98004851
_cell_formula_units_Z   1
loop_
 _symmetry_equiv_pos_site_id
 _symmetry_equiv_pos_as_xyz
  1  'x, y, z'
loop_
 _atom_site_type_symbol
 _atom_site_label
 _atom_site_symmetry_multiplicity
 _atom_site_fract_x
 _atom_site_fract_y
 _atom_site_fract_z
 _atom_site_occupancy
  Lu  Lu0  1  0.333333  0.666667  0.435265  1
  Lu  Lu1  1  0.666667  0.333333  0.564735  1
  Lu  Lu2  1  0.666667  0.333333  0.930372  1
  Lu  Lu3  1  0.333333  0.666667  0.069628  1
  Al  Al4  1  0.000000  0.000000  0.000000  1
  Ru  Ru5  1  0.171408  0.342817  0.751767  1
  Ru  Ru6  1  0.171408  0.828592  0.751767  1
  Ru  Ru7  1  0.342817  0.171408  0.248233  1
  Ru  Ru8  1  0.828592  0.657183  0.248233  1
  Ru  Ru9  1  0.657183  0.828592  0.751767  1
  Ru  Ru10  1  0.828592  0.171408  0.248233  1
  Ru  Ru11  1  0.000000  0.000000  0.500000  1
