# generated using pymatgen
data_Tb2YScAu5
_symmetry_space_group_name_H-M   'P 1'
_cell_length_a   7.94213127
_cell_length_b   7.94170742
_cell_length_c   7.93941491
_cell_angle_alpha   66.28426339
_cell_angle_beta   66.28746270
_cell_angle_gamma   66.27363683
_symmetry_Int_Tables_number   1
_chemical_formula_structural   Tb2YScAu5
_chemical_formula_sum   'Tb4 Y2 Sc2 Au10'
_cell_volume   402.10816712
_cell_formula_units_Z   2
loop_
 _symmetry_equiv_pos_site_id
 _symmetry_equiv_pos_as_xyz
  1  'x, y, z'
loop_
 _atom_site_type_symbol
 _atom_site_label
 _atom_site_symmetry_multiplicity
 _atom_site_fract_x
 _atom_site_fract_y
 _atom_site_fract_z
 _atom_site_occupancy
  Tb  Tb0  1  0.891554  0.188910  0.618995  1
  Tb  Tb1  1  0.619065  0.891530  0.188891  1
  Tb  Tb2  1  0.188951  0.618937  0.891520  1
  Tb  Tb3  1  0.108511  0.811196  0.380868  1
  Y  Y4  1  0.380960  0.108545  0.811093  1
  Y  Y5  1  0.811154  0.381033  0.108420  1
  Sc  Sc6  1  0.659090  0.659244  0.659384  1
  Sc  Sc7  1  0.340806  0.340687  0.340695  1
  Au  Au8  1  0.000018  0.000015  0.999987  1
  Au  Au9  1  0.499991  0.500041  0.500087  1
  Au  Au10  1  0.806706  0.806724  0.806725  1
  Au  Au11  1  0.193217  0.193281  0.193254  1
  Au  Au12  1  0.937449  0.549943  0.320476  1
  Au  Au13  1  0.320457  0.937422  0.549966  1
  Au  Au14  1  0.549957  0.320468  0.937433  1
  Au  Au15  1  0.062544  0.449998  0.679601  1
  Au  Au16  1  0.679589  0.062487  0.450000  1
  Au  Au17  1  0.449981  0.679539  0.062603  1
