# generated using pymatgen
data_Tm4Ga2(OsRu)3
_symmetry_space_group_name_H-M   'P 1'
_cell_length_a   5.27763201
_cell_length_b   5.31065014
_cell_length_c   8.82310200
_cell_angle_alpha   90.00000000
_cell_angle_beta   90.00000000
_cell_angle_gamma   120.17803844
_symmetry_Int_Tables_number   1
_chemical_formula_structural   Tm4Ga2(OsRu)3
_chemical_formula_sum   'Tm4 Ga2 Os3 Ru3'
_cell_volume   213.77493890
_cell_formula_units_Z   1
loop_
 _symmetry_equiv_pos_site_id
 _symmetry_equiv_pos_as_xyz
  1  'x, y, z'
loop_
 _atom_site_type_symbol
 _atom_site_label
 _atom_site_symmetry_multiplicity
 _atom_site_fract_x
 _atom_site_fract_y
 _atom_site_fract_z
 _atom_site_occupancy
  Tm  Tm0  1  0.665798  0.332618  0.568805  1
  Tm  Tm1  1  0.342215  0.670853  0.440823  1
  Tm  Tm2  1  0.342215  0.670853  0.059177  1
  Tm  Tm3  1  0.665798  0.332618  0.931195  1
  Ga  Ga4  1  0.826295  0.661939  0.250000  1
  Ga  Ga5  1  0.827831  0.164545  0.250000  1
  Os  Os6  1  0.165543  0.337207  0.750000  1
  Os  Os7  1  0.163843  0.831609  0.750000  1
  Os  Os8  1  0.647746  0.824222  0.750000  1
  Ru  Ru9  1  0.006493  0.001973  0.499851  1
  Ru  Ru10  1  0.006493  0.001973  0.000149  1
  Ru  Ru11  1  0.339730  0.169586  0.250000  1
