# generated using pymatgen
data_Th8Mg4Sc8Si15Sn
_symmetry_space_group_name_H-M   'P 1'
_cell_length_a   7.08970212
_cell_length_b   7.39948226
_cell_length_c   14.77603869
_cell_angle_alpha   89.99197504
_cell_angle_beta   89.80764237
_cell_angle_gamma   90.06079115
_symmetry_Int_Tables_number   1
_chemical_formula_structural   Th8Mg4Sc8Si15Sn
_chemical_formula_sum   'Th8 Mg4 Sc8 Si15 Sn1'
_cell_volume   775.14802492
_cell_formula_units_Z   1
loop_
 _symmetry_equiv_pos_site_id
 _symmetry_equiv_pos_as_xyz
  1  'x, y, z'
loop_
 _atom_site_type_symbol
 _atom_site_label
 _atom_site_symmetry_multiplicity
 _atom_site_fract_x
 _atom_site_fract_y
 _atom_site_fract_z
 _atom_site_occupancy
  Th  Th0  1  0.001984  0.172081  0.096007  1
  Th  Th1  1  0.997519  0.826790  0.904472  1
  Th  Th2  1  0.497392  0.670846  0.904145  1
  Th  Th3  1  0.993727  0.837864  0.599136  1
  Th  Th4  1  0.502456  0.327474  0.096582  1
  Th  Th5  1  0.997459  0.166833  0.398632  1
  Th  Th6  1  0.507784  0.323771  0.397580  1
  Th  Th7  1  0.511904  0.684618  0.600653  1
  Mg  Mg8  1  0.167848  0.500180  0.751364  1
  Mg  Mg9  1  0.833599  0.500526  0.247274  1
  Mg  Mg10  1  0.332556  0.999010  0.246502  1
  Mg  Mg11  1  0.668984  0.999364  0.757919  1
  Sc  Sc12  1  0.355035  0.165239  0.628397  1
  Sc  Sc13  1  0.655408  0.819088  0.374924  1
  Sc  Sc14  1  0.155347  0.686346  0.372694  1
  Sc  Sc15  1  0.659297  0.818066  0.121257  1
  Sc  Sc16  1  0.827646  0.315352  0.624199  1
  Sc  Sc17  1  0.339173  0.182282  0.878028  1
  Sc  Sc18  1  0.841354  0.320205  0.878258  1
  Sc  Sc19  1  0.159899  0.680400  0.121958  1
  Si  Si20  1  0.048718  0.116735  0.751621  1
  Si  Si21  1  0.950497  0.883569  0.247215  1
  Si  Si22  1  0.450903  0.615660  0.248255  1
  Si  Si23  1  0.548055  0.386226  0.752211  1
  Si  Si24  1  0.291667  0.881210  0.752929  1
  Si  Si25  1  0.706274  0.115265  0.246561  1
  Si  Si26  1  0.206476  0.382467  0.248697  1
  Si  Si27  1  0.795849  0.617673  0.752463  1
  Si  Si28  1  0.822368  0.543519  0.470163  1
  Si  Si29  1  0.330276  0.960529  0.470475  1
  Si  Si30  1  0.833453  0.539034  0.029858  1
  Si  Si31  1  0.668638  0.043310  0.523883  1
  Si  Si32  1  0.166497  0.460765  0.970894  1
  Si  Si33  1  0.665829  0.039607  0.969629  1
  Si  Si34  1  0.334188  0.960925  0.030048  1
  Sn  Sn35  1  0.173940  0.457172  0.535117  1
