# generated using pymatgen
data_Sm2Ho14CdHg3Rh4
_symmetry_space_group_name_H-M   'P 1'
_cell_length_a   9.57506723
_cell_length_b   9.57503529
_cell_length_c   9.58008500
_cell_angle_alpha   59.98254241
_cell_angle_beta   59.98265282
_cell_angle_gamma   59.91451346
_symmetry_Int_Tables_number   1
_chemical_formula_structural   Sm2Ho14CdHg3Rh4
_chemical_formula_sum   'Sm2 Ho14 Cd1 Hg3 Rh4'
_cell_volume   620.49898237
_cell_formula_units_Z   1
loop_
 _symmetry_equiv_pos_site_id
 _symmetry_equiv_pos_as_xyz
  1  'x, y, z'
loop_
 _atom_site_type_symbol
 _atom_site_label
 _atom_site_symmetry_multiplicity
 _atom_site_fract_x
 _atom_site_fract_y
 _atom_site_fract_z
 _atom_site_occupancy
  Sm  Sm0  1  0.936051  0.936735  0.563607  1
  Sm  Sm1  1  0.563312  0.564417  0.936136  1
  Ho  Ho2  1  0.689098  0.689184  0.310859  1
  Ho  Ho3  1  0.147259  0.554786  0.148978  1
  Ho  Ho4  1  0.688655  0.312463  0.687712  1
  Ho  Ho5  1  0.149883  0.149275  0.149968  1
  Ho  Ho6  1  0.552054  0.147603  0.150172  1
  Ho  Ho7  1  0.688655  0.312463  0.311169  1
  Ho  Ho8  1  0.149883  0.149275  0.550873  1
  Ho  Ho9  1  0.311368  0.689378  0.310860  1
  Ho  Ho10  1  0.311368  0.689378  0.688395  1
  Ho  Ho11  1  0.937480  0.563196  0.561937  1
  Ho  Ho12  1  0.937480  0.563196  0.937386  1
  Ho  Ho13  1  0.562064  0.938017  0.562586  1
  Ho  Ho14  1  0.562064  0.938017  0.937332  1
  Ho  Ho15  1  0.311081  0.311876  0.688521  1
  Cd  Cd16  1  0.920792  0.240700  0.919254  1
  Hg  Hg17  1  0.914371  0.916067  0.253394  1
  Hg  Hg18  1  0.253759  0.917805  0.914218  1
  Hg  Hg19  1  0.914371  0.916067  0.916169  1
  Rh  Rh20  1  0.356435  0.357000  0.928119  1
  Rh  Rh21  1  0.357780  0.928056  0.357082  1
  Rh  Rh22  1  0.928299  0.358050  0.356825  1
  Rh  Rh23  1  0.356435  0.357000  0.358445  1
