# generated using pymatgen
data_Sc2Co8CuP6Ru
_symmetry_space_group_name_H-M   'P 1'
_cell_length_a   3.62818200
_cell_length_b   10.19498800
_cell_length_c   11.71791000
_cell_angle_alpha   90.00000000
_cell_angle_beta   90.00000000
_cell_angle_gamma   90.00000000
_symmetry_Int_Tables_number   1
_chemical_formula_structural   Sc2Co8CuP6Ru
_chemical_formula_sum   'Sc4 Co16 Cu2 P12 Ru2'
_cell_volume   433.43695970
_cell_formula_units_Z   2
loop_
 _symmetry_equiv_pos_site_id
 _symmetry_equiv_pos_as_xyz
  1  'x, y, z'
loop_
 _atom_site_type_symbol
 _atom_site_label
 _atom_site_symmetry_multiplicity
 _atom_site_fract_x
 _atom_site_fract_y
 _atom_site_fract_z
 _atom_site_occupancy
  Sc  Sc0  1  0.250000  0.579869  0.701869  1
  Sc  Sc1  1  0.250000  0.920131  0.201869  1
  Sc  Sc2  1  0.750000  0.417972  0.294694  1
  Sc  Sc3  1  0.750000  0.082028  0.794694  1
  Co  Co4  1  0.250000  0.406555  0.481566  1
  Co  Co5  1  0.250000  0.093445  0.981566  1
  Co  Co6  1  0.750000  0.590576  0.513679  1
  Co  Co7  1  0.750000  0.909424  0.013679  1
  Co  Co8  1  0.250000  0.220151  0.175321  1
  Co  Co9  1  0.250000  0.279850  0.675321  1
  Co  Co10  1  0.750000  0.777254  0.823556  1
  Co  Co11  1  0.750000  0.722746  0.323556  1
  Co  Co12  1  0.250000  0.884341  0.703643  1
  Co  Co13  1  0.250000  0.615659  0.203643  1
  Co  Co14  1  0.750000  0.116291  0.299825  1
  Co  Co15  1  0.750000  0.383709  0.799825  1
  Co  Co16  1  0.250000  0.461873  0.932838  1
  Co  Co17  1  0.250000  0.038127  0.432838  1
  Co  Co18  1  0.750000  0.535062  0.071470  1
  Co  Co19  1  0.750000  0.964938  0.571470  1
  Cu  Cu20  1  0.750000  0.286292  0.008491  1
  Cu  Cu21  1  0.750000  0.213708  0.508491  1
  P  P22  1  0.250000  0.420532  0.118272  1
  P  P23  1  0.250000  0.079468  0.618272  1
  P  P24  1  0.750000  0.577759  0.885477  1
  P  P25  1  0.750000  0.922241  0.385477  1
  P  P26  1  0.250000  0.265058  0.861092  1
  P  P27  1  0.250000  0.234942  0.361092  1
  P  P28  1  0.750000  0.735853  0.134942  1
  P  P29  1  0.750000  0.764147  0.634942  1
  P  P30  1  0.250000  0.593393  0.389332  1
  P  P31  1  0.250000  0.906607  0.889332  1
  P  P32  1  0.750000  0.402681  0.610724  1
  P  P33  1  0.750000  0.097319  0.110724  1
  Ru  Ru34  1  0.250000  0.714826  0.993211  1
  Ru  Ru35  1  0.250000  0.785174  0.493211  1
