# generated using pymatgen
data_Gd3Er5(ReB6)4
_symmetry_space_group_name_H-M   'P 1'
_cell_length_a   3.67224400
_cell_length_b   9.16078801
_cell_length_c   11.55424201
_cell_angle_alpha   89.99540866
_cell_angle_beta   90.00000000
_cell_angle_gamma   90.00000000
_symmetry_Int_Tables_number   1
_chemical_formula_structural   Gd3Er5(ReB6)4
_chemical_formula_sum   'Gd3 Er5 Re4 B24'
_cell_volume   388.69219628
_cell_formula_units_Z   1
loop_
 _symmetry_equiv_pos_site_id
 _symmetry_equiv_pos_as_xyz
  1  'x, y, z'
loop_
 _atom_site_type_symbol
 _atom_site_label
 _atom_site_symmetry_multiplicity
 _atom_site_fract_x
 _atom_site_fract_y
 _atom_site_fract_z
 _atom_site_occupancy
  Gd  Gd0  1  0.000000  0.323308  0.413807  1
  Gd  Gd1  1  0.000000  0.676649  0.586275  1
  Gd  Gd2  1  0.000000  0.823506  0.086050  1
  Er  Er3  1  0.000000  0.176322  0.913855  1
  Er  Er4  1  0.000000  0.943568  0.369866  1
  Er  Er5  1  0.000000  0.056624  0.630239  1
  Er  Er6  1  0.000000  0.443248  0.129689  1
  Er  Er7  1  0.000000  0.556298  0.870110  1
  Re  Re8  1  0.000000  0.639377  0.320373  1
  Re  Re9  1  0.000000  0.360402  0.680089  1
  Re  Re10  1  0.000000  0.139325  0.178875  1
  Re  Re11  1  0.000000  0.861334  0.820697  1
  B  B12  1  0.500000  0.553814  0.432569  1
  B  B13  1  0.500000  0.446124  0.567636  1
  B  B14  1  0.500000  0.053891  0.066851  1
  B  B15  1  0.500000  0.946892  0.932665  1
  B  B16  1  0.500000  0.750001  0.418641  1
  B  B17  1  0.500000  0.249953  0.581636  1
  B  B18  1  0.500000  0.249972  0.080613  1
  B  B19  1  0.500000  0.750154  0.918548  1
  B  B20  1  0.500000  0.792624  0.265860  1
  B  B21  1  0.500000  0.207029  0.734744  1
  B  B22  1  0.500000  0.292556  0.233948  1
  B  B23  1  0.500000  0.707490  0.765860  1
  B  B24  1  0.500000  0.630821  0.185638  1
  B  B25  1  0.500000  0.368646  0.814839  1
  B  B26  1  0.500000  0.130945  0.314107  1
  B  B27  1  0.500000  0.869296  0.685866  1
  B  B28  1  0.500000  0.982988  0.212185  1
  B  B29  1  0.500000  0.017956  0.787972  1
  B  B30  1  0.500000  0.482733  0.287556  1
  B  B31  1  0.500000  0.517052  0.712515  1
  B  B32  1  0.500000  0.599087  0.027675  1
  B  B33  1  0.500000  0.399948  0.972027  1
  B  B34  1  0.500000  0.099043  0.472369  1
  B  B35  1  0.500000  0.901022  0.527751  1
