# generated using pymatgen
data_Ca20Hg5Rh7
_symmetry_space_group_name_H-M   'P 1'
_cell_length_a   7.75204082
_cell_length_b   7.75204082
_cell_length_c   14.89812503
_cell_angle_alpha   90.00550621
_cell_angle_beta   90.00550621
_cell_angle_gamma   90.68574624
_symmetry_Int_Tables_number   1
_chemical_formula_structural   Ca20Hg5Rh7
_chemical_formula_sum   'Ca20 Hg5 Rh7'
_cell_volume   895.22583296
_cell_formula_units_Z   1
loop_
 _symmetry_equiv_pos_site_id
 _symmetry_equiv_pos_as_xyz
  1  'x, y, z'
loop_
 _atom_site_type_symbol
 _atom_site_label
 _atom_site_symmetry_multiplicity
 _atom_site_fract_x
 _atom_site_fract_y
 _atom_site_fract_z
 _atom_site_occupancy
  Ca  Ca0  1  0.181407  0.169891  0.112100  1
  Ca  Ca1  1  0.656046  0.346649  0.113456  1
  Ca  Ca2  1  0.329048  0.667805  0.117690  1
  Ca  Ca3  1  0.833385  0.815966  0.112476  1
  Ca  Ca4  1  0.490398  0.997320  0.247809  1
  Ca  Ca5  1  0.002680  0.509602  0.252191  1
  Ca  Ca6  1  0.184034  0.166615  0.387524  1
  Ca  Ca7  1  0.653351  0.343953  0.386544  1
  Ca  Ca8  1  0.332195  0.670951  0.382310  1
  Ca  Ca9  1  0.830109  0.818593  0.387900  1
  Ca  Ca10  1  0.832734  0.170112  0.618228  1
  Ca  Ca11  1  0.330548  0.333676  0.620157  1
  Ca  Ca12  1  0.669142  0.666563  0.620255  1
  Ca  Ca13  1  0.167768  0.829329  0.618945  1
  Ca  Ca14  1  0.500025  0.000366  0.747999  1
  Ca  Ca15  1  0.999634  0.499975  0.752001  1
  Ca  Ca16  1  0.829888  0.167266  0.881772  1
  Ca  Ca17  1  0.333437  0.330857  0.879745  1
  Ca  Ca18  1  0.666324  0.669451  0.879843  1
  Ca  Ca19  1  0.170671  0.832232  0.881055  1
  Hg  Hg20  1  0.503920  0.999380  0.999858  1
  Hg  Hg21  1  0.875741  0.124260  0.250000  1
  Hg  Hg22  1  0.000620  0.496080  0.500142  1
  Hg  Hg23  1  0.503998  0.999425  0.502911  1
  Hg  Hg24  1  0.000575  0.496002  0.997089  1
  Rh  Rh25  1  0.371629  0.375272  0.249953  1
  Rh  Rh26  1  0.624728  0.628371  0.250047  1
  Rh  Rh27  1  0.128372  0.871629  0.250000  1
  Rh  Rh28  1  0.121658  0.122455  0.749950  1
  Rh  Rh29  1  0.623100  0.376900  0.750000  1
  Rh  Rh30  1  0.375291  0.624709  0.750000  1
  Rh  Rh31  1  0.877546  0.878343  0.750050  1
