# generated using pymatgen
data_Nd12CoOsRu2
_symmetry_space_group_name_H-M   'P 1'
_cell_length_a   6.46634257
_cell_length_b   7.38857194
_cell_length_c   9.76679700
_cell_angle_alpha   90.00000000
_cell_angle_beta   90.00000000
_cell_angle_gamma   90.13434147
_symmetry_Int_Tables_number   1
_chemical_formula_structural   Nd12CoOsRu2
_chemical_formula_sum   'Nd12 Co1 Os1 Ru2'
_cell_volume   466.62734124
_cell_formula_units_Z   1
loop_
 _symmetry_equiv_pos_site_id
 _symmetry_equiv_pos_as_xyz
  1  'x, y, z'
loop_
 _atom_site_type_symbol
 _atom_site_label
 _atom_site_symmetry_multiplicity
 _atom_site_fract_x
 _atom_site_fract_y
 _atom_site_fract_z
 _atom_site_occupancy
  Nd  Nd0  1  0.328958  0.672914  0.069373  1
  Nd  Nd1  1  0.171812  0.178675  0.431200  1
  Nd  Nd2  1  0.673383  0.322829  0.568687  1
  Nd  Nd3  1  0.831657  0.823399  0.934794  1
  Nd  Nd4  1  0.673383  0.322829  0.931313  1
  Nd  Nd5  1  0.831657  0.823399  0.565206  1
  Nd  Nd6  1  0.328958  0.672914  0.430627  1
  Nd  Nd7  1  0.171812  0.178675  0.068800  1
  Nd  Nd8  1  0.850488  0.540368  0.250000  1
  Nd  Nd9  1  0.637780  0.043781  0.250000  1
  Nd  Nd10  1  0.145680  0.461963  0.750000  1
  Nd  Nd11  1  0.357296  0.959249  0.750000  1
  Co  Co12  1  0.444470  0.383677  0.250000  1
  Os  Os13  1  0.053086  0.885465  0.250000  1
  Ru  Ru14  1  0.945838  0.115458  0.750000  1
  Ru  Ru15  1  0.553741  0.614403  0.750000  1
