# generated using pymatgen
data_Ba2DyAlSe5
_symmetry_space_group_name_H-M   'P 1'
_cell_length_a   7.41002413
_cell_length_b   8.79505430
_cell_length_c   9.54672619
_cell_angle_alpha   103.54841175
_cell_angle_beta   102.91446649
_cell_angle_gamma   107.43976045
_symmetry_Int_Tables_number   1
_chemical_formula_structural   Ba2DyAlSe5
_chemical_formula_sum   'Ba4 Dy2 Al2 Se10'
_cell_volume   547.35959598
_cell_formula_units_Z   2
loop_
 _symmetry_equiv_pos_site_id
 _symmetry_equiv_pos_as_xyz
  1  'x, y, z'
loop_
 _atom_site_type_symbol
 _atom_site_label
 _atom_site_symmetry_multiplicity
 _atom_site_fract_x
 _atom_site_fract_y
 _atom_site_fract_z
 _atom_site_occupancy
  Ba  Ba0  1  0.632657  0.977197  0.289673  1
  Ba  Ba1  1  0.367343  0.022803  0.710327  1
  Ba  Ba2  1  0.340950  0.510128  0.706213  1
  Ba  Ba3  1  0.659050  0.489872  0.293787  1
  Dy  Dy4  1  0.997922  0.728921  0.998288  1
  Dy  Dy5  1  0.002078  0.271079  0.001712  1
  Al  Al6  1  0.806916  0.872841  0.691086  1
  Al  Al7  1  0.193084  0.127159  0.308914  1
  Se  Se8  1  0.988526  0.687341  0.687311  1
  Se  Se9  1  0.011474  0.312659  0.312689  1
  Se  Se10  1  0.984512  0.150457  0.690456  1
  Se  Se11  1  0.015488  0.849543  0.309544  1
  Se  Se12  1  0.714126  0.908278  0.924708  1
  Se  Se13  1  0.285874  0.091722  0.075292  1
  Se  Se14  1  0.707963  0.411922  0.946850  1
  Se  Se15  1  0.292037  0.588078  0.053150  1
  Se  Se16  1  0.496063  0.743993  0.495520  1
  Se  Se17  1  0.503937  0.256007  0.504480  1
