# generated using pymatgen
data_Yb4CoCu(RuO6)2
_symmetry_space_group_name_H-M   'P 1'
_cell_length_a   5.26255816
_cell_length_b   5.50404036
_cell_length_c   7.52594715
_cell_angle_alpha   90.07780093
_cell_angle_beta   90.36669706
_cell_angle_gamma   89.84119567
_symmetry_Int_Tables_number   1
_chemical_formula_structural   Yb4CoCu(RuO6)2
_chemical_formula_sum   'Yb4 Co1 Cu1 Ru2 O12'
_cell_volume   217.98606421
_cell_formula_units_Z   1
loop_
 _symmetry_equiv_pos_site_id
 _symmetry_equiv_pos_as_xyz
  1  'x, y, z'
loop_
 _atom_site_type_symbol
 _atom_site_label
 _atom_site_symmetry_multiplicity
 _atom_site_fract_x
 _atom_site_fract_y
 _atom_site_fract_z
 _atom_site_occupancy
  Yb  Yb0  1  0.980966  0.068315  0.250532  1
  Yb  Yb1  1  0.519076  0.568436  0.247158  1
  Yb  Yb2  1  0.480924  0.431565  0.752842  1
  Yb  Yb3  1  0.019034  0.931684  0.749468  1
  Co  Co4  1  0.500000  0.000000  0.000000  1
  Cu  Cu5  1  0.000000  0.500000  0.500000  1
  Ru  Ru6  1  0.500000  0.000000  0.500000  1
  Ru  Ru7  1  0.000000  0.500000  0.000000  1
  O  O8  1  0.313885  0.704760  0.551776  1
  O  O9  1  0.401823  0.973063  0.246417  1
  O  O10  1  0.199330  0.201580  0.948776  1
  O  O11  1  0.100195  0.472611  0.247348  1
  O  O12  1  0.800670  0.798420  0.051224  1
  O  O13  1  0.899805  0.527389  0.752652  1
  O  O14  1  0.686115  0.295240  0.448224  1
  O  O15  1  0.598177  0.026937  0.753583  1
  O  O16  1  0.197002  0.191010  0.549506  1
  O  O17  1  0.802998  0.808990  0.450494  1
  O  O18  1  0.303418  0.702732  0.951341  1
  O  O19  1  0.696582  0.297268  0.048659  1
