# generated using pymatgen
data_La16Mg3GaTc4
_symmetry_space_group_name_H-M   'P 1'
_cell_length_a   10.06474484
_cell_length_b   10.06474600
_cell_length_c   10.06474474
_cell_angle_alpha   60.38147769
_cell_angle_beta   60.38147734
_cell_angle_gamma   60.38147466
_symmetry_Int_Tables_number   1
_chemical_formula_structural   La16Mg3GaTc4
_chemical_formula_sum   'La16 Mg3 Ga1 Tc4'
_cell_volume   727.15059830
_cell_formula_units_Z   1
loop_
 _symmetry_equiv_pos_site_id
 _symmetry_equiv_pos_as_xyz
  1  'x, y, z'
loop_
 _atom_site_type_symbol
 _atom_site_label
 _atom_site_symmetry_multiplicity
 _atom_site_fract_x
 _atom_site_fract_y
 _atom_site_fract_z
 _atom_site_occupancy
  La  La0  1  0.558789  0.929568  0.558789  1
  La  La1  1  0.187884  0.187884  0.810303  1
  La  La2  1  0.558789  0.558789  0.929568  1
  La  La3  1  0.965013  0.345690  0.345690  1
  La  La4  1  0.810833  0.189235  0.810833  1
  La  La5  1  0.187884  0.810303  0.187884  1
  La  La6  1  0.345690  0.345690  0.965013  1
  La  La7  1  0.345690  0.965013  0.345690  1
  La  La8  1  0.946684  0.946684  0.552948  1
  La  La9  1  0.929568  0.558789  0.558789  1
  La  La10  1  0.344307  0.344307  0.344307  1
  La  La11  1  0.810833  0.810833  0.189235  1
  La  La12  1  0.810303  0.187884  0.187884  1
  La  La13  1  0.552948  0.946684  0.946684  1
  La  La14  1  0.946684  0.552948  0.946684  1
  La  La15  1  0.189235  0.810833  0.810833  1
  Mg  Mg16  1  0.577405  0.274886  0.577405  1
  Mg  Mg17  1  0.577405  0.577405  0.274886  1
  Mg  Mg18  1  0.274886  0.577405  0.577405  1
  Ga  Ga19  1  0.580998  0.580998  0.580998  1
  Tc  Tc20  1  0.133212  0.598625  0.133212  1
  Tc  Tc21  1  0.598625  0.133212  0.133212  1
  Tc  Tc22  1  0.133212  0.133212  0.598625  1
  Tc  Tc23  1  0.133123  0.133123  0.133123  1
