# generated using pymatgen
data_Ca3Ac(B8Ru7)2
_symmetry_space_group_name_H-M   'P 1'
_cell_length_a   6.46443203
_cell_length_b   6.47260603
_cell_length_c   10.12576300
_cell_angle_alpha   90.00000000
_cell_angle_beta   90.00000000
_cell_angle_gamma   89.98910514
_symmetry_Int_Tables_number   1
_chemical_formula_structural   Ca3Ac(B8Ru7)2
_chemical_formula_sum   'Ca3 Ac1 B16 Ru14'
_cell_volume   423.67935007
_cell_formula_units_Z   1
loop_
 _symmetry_equiv_pos_site_id
 _symmetry_equiv_pos_as_xyz
  1  'x, y, z'
loop_
 _atom_site_type_symbol
 _atom_site_label
 _atom_site_symmetry_multiplicity
 _atom_site_fract_x
 _atom_site_fract_y
 _atom_site_fract_z
 _atom_site_occupancy
  Ca  Ca0  1  0.114746  0.731302  0.500000  1
  Ca  Ca1  1  0.884928  0.266530  0.500000  1
  Ca  Ca2  1  0.256894  0.124114  0.000000  1
  Ac  Ac3  1  0.728995  0.889723  0.000000  1
  B  B4  1  0.500710  0.000691  0.587953  1
  B  B5  1  0.500710  0.000691  0.412047  1
  B  B6  1  0.899124  0.274566  0.170848  1
  B  B7  1  0.102773  0.723670  0.829330  1
  B  B8  1  0.498694  0.500789  0.342136  1
  B  B9  1  0.500261  0.499960  0.840355  1
  B  B10  1  0.276340  0.102610  0.667463  1
  B  B11  1  0.102773  0.723670  0.170670  1
  B  B12  1  0.276340  0.102610  0.332537  1
  B  B13  1  0.899124  0.274566  0.829152  1
  B  B14  1  0.498694  0.500789  0.657864  1
  B  B15  1  0.500261  0.499960  0.159645  1
  B  B16  1  0.999525  0.498933  0.910461  1
  B  B17  1  0.726863  0.897716  0.666592  1
  B  B18  1  0.726863  0.897716  0.333408  1
  B  B19  1  0.999525  0.498933  0.089539  1
  Ru  Ru20  1  0.206174  0.394578  0.755127  1
  Ru  Ru21  1  0.404823  0.288659  0.500000  1
  Ru  Ru22  1  0.394440  0.794675  0.256273  1
  Ru  Ru23  1  0.206174  0.394578  0.244873  1
  Ru  Ru24  1  0.594520  0.713178  0.500000  1
  Ru  Ru25  1  0.605981  0.205480  0.743212  1
  Ru  Ru26  1  0.285466  0.595478  0.000000  1
  Ru  Ru27  1  0.712646  0.401233  0.000000  1
  Ru  Ru28  1  0.795269  0.601884  0.247683  1
  Ru  Ru29  1  0.795269  0.601884  0.752317  1
  Ru  Ru30  1  0.394440  0.794675  0.743727  1
  Ru  Ru31  1  0.002337  0.999341  0.252579  1
  Ru  Ru32  1  0.605981  0.205480  0.256788  1
  Ru  Ru33  1  0.002337  0.999341  0.747421  1
