# generated using pymatgen
data_EuDyErGa8Ag3
_symmetry_space_group_name_H-M   'P 1'
_cell_length_a   4.37406424
_cell_length_b   8.41972193
_cell_length_c   8.41972237
_cell_angle_alpha   69.68668820
_cell_angle_beta   74.94469617
_cell_angle_gamma   74.94469420
_symmetry_Int_Tables_number   1
_chemical_formula_structural   EuDyErGa8Ag3
_chemical_formula_sum   'Eu1 Dy1 Er1 Ga8 Ag3'
_cell_volume   275.85159974
_cell_formula_units_Z   1
loop_
 _symmetry_equiv_pos_site_id
 _symmetry_equiv_pos_as_xyz
  1  'x, y, z'
loop_
 _atom_site_type_symbol
 _atom_site_label
 _atom_site_symmetry_multiplicity
 _atom_site_fract_x
 _atom_site_fract_y
 _atom_site_fract_z
 _atom_site_occupancy
  Eu  Eu0  1  0.500125  0.499875  0.499875  1
  Dy  Dy1  1  0.200814  0.799186  0.799186  1
  Er  Er2  1  0.799401  0.200599  0.200599  1
  Ga  Ga3  1  0.645076  0.072761  0.637086  1
  Ga  Ga4  1  0.354869  0.927750  0.362512  1
  Ga  Ga5  1  0.645076  0.637086  0.072761  1
  Ga  Ga6  1  0.354869  0.362512  0.927750  1
  Ga  Ga7  1  0.839137  0.792953  0.528773  1
  Ga  Ga8  1  0.161114  0.206999  0.470772  1
  Ga  Ga9  1  0.839137  0.528773  0.792953  1
  Ga  Ga10  1  0.161114  0.470772  0.206999  1
  Ag  Ag11  1  0.499752  0.000248  0.000248  1
  Ag  Ag12  1  0.999757  0.808363  0.192124  1
  Ag  Ag13  1  0.999757  0.192124  0.808363  1
