# generated using pymatgen
data_Dy2TaBi4SbO14
_symmetry_space_group_name_H-M   'P 1'
_cell_length_a   6.48029385
_cell_length_b   6.81675161
_cell_length_c   7.64936487
_cell_angle_alpha   106.32660019
_cell_angle_beta   89.80392750
_cell_angle_gamma   98.85740792
_symmetry_Int_Tables_number   1
_chemical_formula_structural   Dy2TaBi4SbO14
_chemical_formula_sum   'Dy2 Ta1 Bi4 Sb1 O14'
_cell_volume   320.13069452
_cell_formula_units_Z   1
loop_
 _symmetry_equiv_pos_site_id
 _symmetry_equiv_pos_as_xyz
  1  'x, y, z'
loop_
 _atom_site_type_symbol
 _atom_site_label
 _atom_site_symmetry_multiplicity
 _atom_site_fract_x
 _atom_site_fract_y
 _atom_site_fract_z
 _atom_site_occupancy
  Dy  Dy0  1  0.545258  0.996645  0.754430  1
  Dy  Dy1  1  0.454742  0.003355  0.245570  1
  Ta  Ta2  1  0.000000  0.000000  0.000000  1
  Bi  Bi3  1  0.253999  0.512273  0.879286  1
  Bi  Bi4  1  0.746001  0.487727  0.120714  1
  Bi  Bi5  1  0.729815  0.461139  0.608321  1
  Bi  Bi6  1  0.270185  0.538861  0.391679  1
  Sb  Sb7  1  0.000000  0.000000  0.500000  1
  O  O8  1  0.460371  0.657346  0.179112  1
  O  O9  1  0.539629  0.342654  0.820888  1
  O  O10  1  0.290643  0.949715  0.951017  1
  O  O11  1  0.709357  0.050285  0.048983  1
  O  O12  1  0.287748  0.926099  0.514019  1
  O  O13  1  0.712252  0.073901  0.485981  1
  O  O14  1  0.527908  0.348010  0.349712  1
  O  O15  1  0.472092  0.651990  0.650288  1
  O  O16  1  0.913603  0.691353  0.959561  1
  O  O17  1  0.086397  0.308647  0.040439  1
  O  O18  1  0.098875  0.306401  0.612479  1
  O  O19  1  0.901125  0.693599  0.387521  1
  O  O20  1  0.906593  0.955510  0.739168  1
  O  O21  1  0.093407  0.044490  0.260832  1
