# generated using pymatgen
data_Tb5Ho(ErAu2)2
_symmetry_space_group_name_H-M   'P 1'
_cell_length_a   4.93662800
_cell_length_b   7.12774310
_cell_length_c   8.95373200
_cell_angle_alpha   90.05347960
_cell_angle_beta   90.00000000
_cell_angle_gamma   90.00000000
_symmetry_Int_Tables_number   1
_chemical_formula_structural   Tb5Ho(ErAu2)2
_chemical_formula_sum   'Tb5 Ho1 Er2 Au4'
_cell_volume   315.05497559
_cell_formula_units_Z   1
loop_
 _symmetry_equiv_pos_site_id
 _symmetry_equiv_pos_as_xyz
  1  'x, y, z'
loop_
 _atom_site_type_symbol
 _atom_site_label
 _atom_site_symmetry_multiplicity
 _atom_site_fract_x
 _atom_site_fract_y
 _atom_site_fract_z
 _atom_site_occupancy
  Tb  Tb0  1  0.250000  0.486632  0.176719  1
  Tb  Tb1  1  0.750000  0.513583  0.823145  1
  Tb  Tb2  1  0.250000  0.987799  0.323287  1
  Tb  Tb3  1  0.750000  0.013932  0.677303  1
  Tb  Tb4  1  0.750000  0.648741  0.419377  1
  Ho  Ho5  1  0.750000  0.148815  0.080065  1
  Er  Er6  1  0.250000  0.351494  0.580696  1
  Er  Er7  1  0.250000  0.851483  0.919671  1
  Au  Au8  1  0.250000  0.254434  0.899911  1
  Au  Au9  1  0.750000  0.745048  0.096918  1
  Au  Au10  1  0.250000  0.755128  0.601385  1
  Au  Au11  1  0.750000  0.242911  0.401520  1
