# generated using pymatgen
data_Ho12Si12PtRh3
_symmetry_space_group_name_H-M   'P 1'
_cell_length_a   4.23229500
_cell_length_b   10.63850064
_cell_length_c   12.30461773
_cell_angle_alpha   90.03958992
_cell_angle_beta   90.00000000
_cell_angle_gamma   90.00000000
_symmetry_Int_Tables_number   1
_chemical_formula_structural   Ho12Si12PtRh3
_chemical_formula_sum   'Ho12 Si12 Pt1 Rh3'
_cell_volume   554.01864094
_cell_formula_units_Z   1
loop_
 _symmetry_equiv_pos_site_id
 _symmetry_equiv_pos_as_xyz
  1  'x, y, z'
loop_
 _atom_site_type_symbol
 _atom_site_label
 _atom_site_symmetry_multiplicity
 _atom_site_fract_x
 _atom_site_fract_y
 _atom_site_fract_z
 _atom_site_occupancy
  Ho  Ho0  1  0.250000  0.879316  0.020688  1
  Ho  Ho1  1  0.250000  0.620451  0.520672  1
  Ho  Ho2  1  0.750000  0.120939  0.980051  1
  Ho  Ho3  1  0.750000  0.380905  0.478482  1
  Ho  Ho4  1  0.250000  0.919142  0.604578  1
  Ho  Ho5  1  0.250000  0.580365  0.103759  1
  Ho  Ho6  1  0.750000  0.079525  0.397017  1
  Ho  Ho7  1  0.750000  0.420092  0.897086  1
  Ho  Ho8  1  0.250000  0.660189  0.800498  1
  Ho  Ho9  1  0.250000  0.839519  0.300347  1
  Ho  Ho10  1  0.750000  0.340249  0.198972  1
  Ho  Ho11  1  0.750000  0.162703  0.697774  1
  Si  Si12  1  0.250000  0.016960  0.822823  1
  Si  Si13  1  0.250000  0.486551  0.322208  1
  Si  Si14  1  0.750000  0.985858  0.177080  1
  Si  Si15  1  0.750000  0.511984  0.678923  1
  Si  Si16  1  0.250000  0.247444  0.841606  1
  Si  Si17  1  0.250000  0.253082  0.341542  1
  Si  Si18  1  0.750000  0.752699  0.158818  1
  Si  Si19  1  0.750000  0.744132  0.655627  1
  Si  Si20  1  0.250000  0.200674  0.541246  1
  Si  Si21  1  0.250000  0.300051  0.042407  1
  Si  Si22  1  0.750000  0.800764  0.457346  1
  Si  Si23  1  0.750000  0.695803  0.959431  1
  Pt  Pt24  1  0.750000  0.891060  0.817060  1
  Rh  Rh25  1  0.250000  0.390821  0.682598  1
  Rh  Rh26  1  0.250000  0.109390  0.183030  1
  Rh  Rh27  1  0.750000  0.609334  0.318330  1
