# generated using pymatgen
data_Dy6TlFe2
_symmetry_space_group_name_H-M   'P 1'
_cell_length_a   8.43888806
_cell_length_b   8.43888742
_cell_length_c   8.43888769
_cell_angle_alpha   111.66815458
_cell_angle_beta   109.81969874
_cell_angle_gamma   106.96025801
_symmetry_Int_Tables_number   1
_chemical_formula_structural   Dy6TlFe2
_chemical_formula_sum   'Dy12 Tl2 Fe4'
_cell_volume   461.84120597
_cell_formula_units_Z   2
loop_
 _symmetry_equiv_pos_site_id
 _symmetry_equiv_pos_as_xyz
  1  'x, y, z'
loop_
 _atom_site_type_symbol
 _atom_site_label
 _atom_site_symmetry_multiplicity
 _atom_site_fract_x
 _atom_site_fract_y
 _atom_site_fract_z
 _atom_site_occupancy
  Dy  Dy0  1  0.188647  0.291903  0.480550  1
  Dy  Dy1  1  0.811353  0.708097  0.519450  1
  Dy  Dy2  1  0.188647  0.708097  0.896746  1
  Dy  Dy3  1  0.811353  0.291903  0.103254  1
  Dy  Dy4  1  0.311328  0.609700  0.298373  1
  Dy  Dy5  1  0.688672  0.390300  0.701627  1
  Dy  Dy6  1  0.311328  0.012956  0.701627  1
  Dy  Dy7  1  0.688672  0.987044  0.298373  1
  Dy  Dy8  1  0.443069  0.227288  0.215780  1
  Dy  Dy9  1  0.556931  0.772712  0.784220  1
  Dy  Dy10  1  0.011508  0.227288  0.784220  1
  Dy  Dy11  1  0.988492  0.772712  0.215780  1
  Tl  Tl12  1  0.500000  0.500000  0.000000  1
  Tl  Tl13  1  0.000000  0.000000  0.000000  1
  Fe  Fe14  1  0.107947  0.607947  0.500000  1
  Fe  Fe15  1  0.892053  0.392053  0.500000  1
  Fe  Fe16  1  0.387517  0.000000  0.387517  1
  Fe  Fe17  1  0.612483  0.000000  0.612483  1
