# generated using pymatgen
data_NbPd5Au2
_symmetry_space_group_name_H-M   'P 1'
_cell_length_a   8.52461749
_cell_length_b   8.52461725
_cell_length_c   8.52461938
_cell_angle_alpha   152.65521785
_cell_angle_beta   152.65521591
_cell_angle_gamma   39.05723125
_symmetry_Int_Tables_number   1
_chemical_formula_structural   NbPd5Au2
_chemical_formula_sum   'Nb1 Pd5 Au2'
_cell_volume   130.47853105
_cell_formula_units_Z   1
loop_
 _symmetry_equiv_pos_site_id
 _symmetry_equiv_pos_as_xyz
  1  'x, y, z'
loop_
 _atom_site_type_symbol
 _atom_site_label
 _atom_site_symmetry_multiplicity
 _atom_site_fract_x
 _atom_site_fract_y
 _atom_site_fract_z
 _atom_site_occupancy
  Nb  Nb0  1  0.000000  0.000000  0.000000  1
  Pd  Pd1  1  0.500000  0.500000  0.000000  1
  Pd  Pd2  1  0.881897  0.381897  0.500000  1
  Pd  Pd3  1  0.381897  0.881897  0.500000  1
  Pd  Pd4  1  0.118103  0.618103  0.500000  1
  Pd  Pd5  1  0.618103  0.118103  0.500000  1
  Au  Au6  1  0.746755  0.746755  0.000000  1
  Au  Au7  1  0.253245  0.253245  0.000000  1
