# generated using pymatgen
data_Tb4Zr3NbF28
_symmetry_space_group_name_H-M   'P 1'
_cell_length_a   5.73104584
_cell_length_b   9.11067140
_cell_length_c   12.26604679
_cell_angle_alpha   62.56267225
_cell_angle_beta   89.97409988
_cell_angle_gamma   90.11153855
_symmetry_Int_Tables_number   1
_chemical_formula_structural   Tb4Zr3NbF28
_chemical_formula_sum   'Tb4 Zr3 Nb1 F28'
_cell_volume   568.41227110
_cell_formula_units_Z   1
loop_
 _symmetry_equiv_pos_site_id
 _symmetry_equiv_pos_as_xyz
  1  'x, y, z'
loop_
 _atom_site_type_symbol
 _atom_site_label
 _atom_site_symmetry_multiplicity
 _atom_site_fract_x
 _atom_site_fract_y
 _atom_site_fract_z
 _atom_site_occupancy
  Tb  Tb0  1  0.254724  0.814162  0.269319  1
  Tb  Tb1  1  0.744232  0.182602  0.733941  1
  Tb  Tb2  1  0.757557  0.185811  0.233081  1
  Tb  Tb3  1  0.242502  0.813753  0.763251  1
  Zr  Zr4  1  0.755157  0.726622  0.043918  1
  Zr  Zr5  1  0.245245  0.273492  0.955395  1
  Zr  Zr6  1  0.256274  0.274286  0.456118  1
  Nb  Nb7  1  0.743067  0.725550  0.544947  1
  F  F8  1  0.949287  0.709605  0.415684  1
  F  F9  1  0.038442  0.290135  0.581284  1
  F  F10  1  0.463112  0.290883  0.080032  1
  F  F11  1  0.535429  0.710360  0.919767  1
  F  F12  1  0.483614  0.733398  0.148948  1
  F  F13  1  0.519325  0.268573  0.850881  1
  F  F14  1  0.979671  0.265371  0.354291  1
  F  F15  1  0.026363  0.730249  0.643081  1
  F  F16  1  0.966706  0.748004  0.170935  1
  F  F17  1  0.037341  0.251812  0.826924  1
  F  F18  1  0.465674  0.253098  0.327588  1
  F  F19  1  0.541038  0.744948  0.675691  1
  F  F20  1  0.775202  0.475374  0.140025  1
  F  F21  1  0.223243  0.523983  0.859327  1
  F  F22  1  0.269894  0.524752  0.359711  1
  F  F23  1  0.732480  0.483414  0.640334  1
  F  F24  1  0.949120  0.275605  0.049565  1
  F  F25  1  0.048996  0.725032  0.948385  1
  F  F26  1  0.446286  0.723363  0.452236  1
  F  F27  1  0.552038  0.281272  0.548577  1
  F  F28  1  0.738110  0.967435  0.448916  1
  F  F29  1  0.261156  0.024092  0.556387  1
  F  F30  1  0.242193  0.024366  0.060171  1
  F  F31  1  0.758148  0.977304  0.940638  1
  F  F32  1  0.573459  0.972985  0.236403  1
  F  F33  1  0.426336  0.027687  0.763514  1
  F  F34  1  0.073183  0.027884  0.269591  1
  F  F35  1  0.925398  0.972740  0.731143  1
