# generated using pymatgen
data_Pr2YPa(Ga3Ir)6
_symmetry_space_group_name_H-M   'P 1'
_cell_length_a   7.64982033
_cell_length_b   7.64831063
_cell_length_c   9.52914100
_cell_angle_alpha   90.00000000
_cell_angle_beta   90.00000000
_cell_angle_gamma   119.77287569
_symmetry_Int_Tables_number   1
_chemical_formula_structural   Pr2YPa(Ga3Ir)6
_chemical_formula_sum   'Pr2 Y1 Pa1 Ga18 Ir6'
_cell_volume   483.93891380
_cell_formula_units_Z   1
loop_
 _symmetry_equiv_pos_site_id
 _symmetry_equiv_pos_as_xyz
  1  'x, y, z'
loop_
 _atom_site_type_symbol
 _atom_site_label
 _atom_site_symmetry_multiplicity
 _atom_site_fract_x
 _atom_site_fract_y
 _atom_site_fract_z
 _atom_site_occupancy
  Pr  Pr0  1  0.003628  0.331089  0.750000  1
  Pr  Pr1  1  0.330968  0.003126  0.750000  1
  Y  Y2  1  0.670599  0.996420  0.250000  1
  Pa  Pa3  1  0.998342  0.669987  0.250000  1
  Ga  Ga4  1  0.130729  0.129613  0.250000  1
  Ga  Ga5  1  0.869277  0.870363  0.750000  1
  Ga  Ga6  1  0.998660  0.330959  0.082428  1
  Ga  Ga7  1  0.997994  0.665359  0.922303  1
  Ga  Ga8  1  0.997994  0.665359  0.577697  1
  Ga  Ga9  1  0.338802  0.002480  0.417442  1
  Ga  Ga10  1  0.998660  0.330959  0.417572  1
  Ga  Ga11  1  0.665617  0.998921  0.575376  1
  Ga  Ga12  1  0.665617  0.998921  0.924624  1
  Ga  Ga13  1  0.338802  0.002480  0.082558  1
  Ga  Ga14  1  0.333932  0.333853  0.561669  1
  Ga  Ga15  1  0.663999  0.667381  0.433736  1
  Ga  Ga16  1  0.663999  0.667381  0.066264  1
  Ga  Ga17  1  0.333932  0.333853  0.938331  1
  Ga  Ga18  1  0.339102  0.545316  0.250000  1
  Ga  Ga19  1  0.661252  0.456006  0.750000  1
  Ga  Ga20  1  0.545812  0.341884  0.250000  1
  Ga  Ga21  1  0.455981  0.662413  0.750000  1
  Ir  Ir22  1  0.673698  0.332059  0.003922  1
  Ir  Ir23  1  0.326294  0.670910  0.004052  1
  Ir  Ir24  1  0.326294  0.670910  0.495948  1
  Ir  Ir25  1  0.673698  0.332059  0.496078  1
  Ir  Ir26  1  0.998157  0.994970  0.005070  1
  Ir  Ir27  1  0.998157  0.994970  0.494930  1
