# generated using pymatgen
data_Ca5Ge2AsF
_symmetry_space_group_name_H-M   'P 1'
_cell_length_a   9.04120842
_cell_length_b   9.04120763
_cell_length_c   9.04120800
_cell_angle_alpha   129.44670914
_cell_angle_beta   129.44670506
_cell_angle_gamma   74.29285284
_symmetry_Int_Tables_number   1
_chemical_formula_structural   Ca5Ge2AsF
_chemical_formula_sum   'Ca10 Ge4 As2 F2'
_cell_volume   429.61896126
_cell_formula_units_Z   2
loop_
 _symmetry_equiv_pos_site_id
 _symmetry_equiv_pos_as_xyz
  1  'x, y, z'
loop_
 _atom_site_type_symbol
 _atom_site_label
 _atom_site_symmetry_multiplicity
 _atom_site_fract_x
 _atom_site_fract_y
 _atom_site_fract_z
 _atom_site_occupancy
  Ca  Ca0  1  0.500000  0.500000  0.000000  1
  Ca  Ca1  1  0.000000  0.000000  0.000000  1
  Ca  Ca2  1  0.519253  0.019253  0.827890  1
  Ca  Ca3  1  0.191364  0.691364  0.172110  1
  Ca  Ca4  1  0.019253  0.191364  0.500000  1
  Ca  Ca5  1  0.691364  0.519253  0.500000  1
  Ca  Ca6  1  0.480747  0.980747  0.172110  1
  Ca  Ca7  1  0.808636  0.308636  0.827890  1
  Ca  Ca8  1  0.980747  0.808636  0.500000  1
  Ca  Ca9  1  0.308636  0.480747  0.500000  1
  Ge  Ge10  1  0.876752  0.376752  0.253505  1
  Ge  Ge11  1  0.123248  0.623248  0.746495  1
  Ge  Ge12  1  0.376752  0.123248  0.500000  1
  Ge  Ge13  1  0.623248  0.876752  0.500000  1
  As  As14  1  0.250000  0.250000  0.000000  1
  As  As15  1  0.750000  0.750000  0.000000  1
  F  F16  1  0.250000  0.750000  0.500000  1
  F  F17  1  0.750000  0.250000  0.500000  1
