# generated using pymatgen
data_Yb11Dy(AgGe)12
_symmetry_space_group_name_H-M   'P 1'
_cell_length_a   4.55757100
_cell_length_b   7.86364552
_cell_length_c   21.33416782
_cell_angle_alpha   89.89380428
_cell_angle_beta   90.00000000
_cell_angle_gamma   90.00000000
_symmetry_Int_Tables_number   1
_chemical_formula_structural   Yb11Dy(AgGe)12
_chemical_formula_sum   'Yb11 Dy1 Ag12 Ge12'
_cell_volume   764.59654668
_cell_formula_units_Z   1
loop_
 _symmetry_equiv_pos_site_id
 _symmetry_equiv_pos_as_xyz
  1  'x, y, z'
loop_
 _atom_site_type_symbol
 _atom_site_label
 _atom_site_symmetry_multiplicity
 _atom_site_fract_x
 _atom_site_fract_y
 _atom_site_fract_z
 _atom_site_occupancy
  Yb  Yb0  1  0.250000  0.224476  0.001107  1
  Yb  Yb1  1  0.250000  0.277439  0.499776  1
  Yb  Yb2  1  0.750000  0.772841  0.001362  1
  Yb  Yb3  1  0.750000  0.722142  0.499687  1
  Yb  Yb4  1  0.250000  0.210900  0.333893  1
  Yb  Yb5  1  0.250000  0.286256  0.833309  1
  Yb  Yb6  1  0.750000  0.787346  0.665417  1
  Yb  Yb7  1  0.750000  0.710147  0.166269  1
  Yb  Yb8  1  0.250000  0.213905  0.665972  1
  Yb  Yb9  1  0.250000  0.287742  0.166949  1
  Yb  Yb10  1  0.750000  0.788040  0.333156  1
  Dy  Dy11  1  0.750000  0.713542  0.833966  1
  Ag  Ag12  1  0.250000  0.913682  0.761629  1
  Ag  Ag13  1  0.250000  0.586662  0.262209  1
  Ag  Ag14  1  0.750000  0.087261  0.238315  1
  Ag  Ag15  1  0.750000  0.412002  0.738116  1
  Ag  Ag16  1  0.250000  0.922976  0.906661  1
  Ag  Ag17  1  0.250000  0.581337  0.405984  1
  Ag  Ag18  1  0.750000  0.080979  0.093881  1
  Ag  Ag19  1  0.750000  0.418921  0.594181  1
  Ag  Ag20  1  0.250000  0.917375  0.565491  1
  Ag  Ag21  1  0.250000  0.582079  0.068327  1
  Ag  Ag22  1  0.750000  0.082568  0.434582  1
  Ag  Ag23  1  0.750000  0.418194  0.937755  1
  Ge  Ge24  1  0.250000  0.583000  0.730619  1
  Ge  Ge25  1  0.250000  0.917770  0.228040  1
  Ge  Ge26  1  0.750000  0.417366  0.272088  1
  Ge  Ge27  1  0.750000  0.079671  0.771429  1
  Ge  Ge28  1  0.250000  0.911293  0.102313  1
  Ge  Ge29  1  0.250000  0.587300  0.602917  1
  Ge  Ge30  1  0.750000  0.088757  0.897237  1
  Ge  Ge31  1  0.750000  0.412763  0.397981  1
  Ge  Ge32  1  0.250000  0.592976  0.916275  1
  Ge  Ge33  1  0.250000  0.910195  0.427254  1
  Ge  Ge34  1  0.750000  0.409819  0.072584  1
  Ge  Ge35  1  0.750000  0.090278  0.573270  1
