# generated using pymatgen
data_La2Fe(SeO3)4
_symmetry_space_group_name_H-M   'P 1'
_cell_length_a   7.22069700
_cell_length_b   8.48058124
_cell_length_c   11.09312942
_cell_angle_alpha   70.56330237
_cell_angle_beta   90.00000000
_cell_angle_gamma   90.00000000
_symmetry_Int_Tables_number   1
_chemical_formula_structural   La2Fe(SeO3)4
_chemical_formula_sum   'La4 Fe2 Se8 O24'
_cell_volume   640.58237841
_cell_formula_units_Z   2
loop_
 _symmetry_equiv_pos_site_id
 _symmetry_equiv_pos_as_xyz
  1  'x, y, z'
loop_
 _atom_site_type_symbol
 _atom_site_label
 _atom_site_symmetry_multiplicity
 _atom_site_fract_x
 _atom_site_fract_y
 _atom_site_fract_z
 _atom_site_occupancy
  La  La0  1  0.658717  0.760701  0.088611  1
  La  La1  1  0.158717  0.739299  0.911389  1
  La  La2  1  0.341283  0.239299  0.911389  1
  La  La3  1  0.841283  0.260701  0.088611  1
  Fe  Fe4  1  0.500000  0.500000  0.500000  1
  Fe  Fe5  1  0.000000  0.000000  0.500000  1
  Se  Se6  1  0.674495  0.630418  0.821385  1
  Se  Se7  1  0.174495  0.869582  0.178615  1
  Se  Se8  1  0.325505  0.369582  0.178615  1
  Se  Se9  1  0.825505  0.130418  0.821385  1
  Se  Se10  1  0.336084  0.120707  0.636839  1
  Se  Se11  1  0.836084  0.379293  0.363161  1
  Se  Se12  1  0.663916  0.879293  0.363161  1
  Se  Se13  1  0.163916  0.620707  0.636839  1
  O  O14  1  0.391720  0.312495  0.654372  1
  O  O15  1  0.891720  0.187505  0.345628  1
  O  O16  1  0.608280  0.687505  0.345628  1
  O  O17  1  0.108280  0.812495  0.654372  1
  O  O18  1  0.616122  0.429261  0.839029  1
  O  O19  1  0.116122  0.070739  0.160971  1
  O  O20  1  0.383878  0.570739  0.160971  1
  O  O21  1  0.883878  0.929261  0.839029  1
  O  O22  1  0.840694  0.588103  0.943969  1
  O  O23  1  0.340694  0.911897  0.056031  1
  O  O24  1  0.159306  0.411897  0.056031  1
  O  O25  1  0.659306  0.088103  0.943969  1
  O  O26  1  0.125053  0.170446  0.560907  1
  O  O27  1  0.625053  0.329554  0.439093  1
  O  O28  1  0.874947  0.829554  0.439093  1
  O  O29  1  0.374947  0.670446  0.560907  1
  O  O30  1  0.504060  0.706237  0.898592  1
  O  O31  1  0.004060  0.793763  0.101408  1
  O  O32  1  0.495940  0.293763  0.101408  1
  O  O33  1  0.995940  0.206237  0.898592  1
  O  O34  1  0.283171  0.025063  0.795961  1
  O  O35  1  0.783171  0.474937  0.204039  1
  O  O36  1  0.716829  0.974937  0.204039  1
  O  O37  1  0.216829  0.525063  0.795961  1
