# generated using pymatgen
data_CsNdSnSe4
_symmetry_space_group_name_H-M   'P 1'
_cell_length_a   7.15189555
_cell_length_b   7.35606200
_cell_length_c   9.95969625
_cell_angle_alpha   90.00086166
_cell_angle_beta   107.52341287
_cell_angle_gamma   89.99941491
_symmetry_Int_Tables_number   1
_chemical_formula_structural   CsNdSnSe4
_chemical_formula_sum   'Cs2 Nd2 Sn2 Se8'
_cell_volume   499.66179577
_cell_formula_units_Z   2
loop_
 _symmetry_equiv_pos_site_id
 _symmetry_equiv_pos_as_xyz
  1  'x, y, z'
loop_
 _atom_site_type_symbol
 _atom_site_label
 _atom_site_symmetry_multiplicity
 _atom_site_fract_x
 _atom_site_fract_y
 _atom_site_fract_z
 _atom_site_occupancy
  Cs  Cs0  1  0.262774  0.010470  0.064679  1
  Cs  Cs1  1  0.737234  0.510481  0.935325  1
  Nd  Nd2  1  0.775206  0.489562  0.451808  1
  Nd  Nd3  1  0.224785  0.989539  0.548186  1
  Sn  Sn4  1  0.227502  0.519952  0.333109  1
  Sn  Sn5  1  0.772515  0.020005  0.666905  1
  Se  Se6  1  0.442571  0.522143  0.173681  1
  Se  Se7  1  0.962216  0.767192  0.293208  1
  Se  Se8  1  0.004002  0.241199  0.307528  1
  Se  Se9  1  0.548081  0.110272  0.424644  1
  Se  Se10  1  0.451915  0.610266  0.575357  1
  Se  Se11  1  0.995977  0.741229  0.692462  1
  Se  Se12  1  0.037800  0.267217  0.706794  1
  Se  Se13  1  0.557421  0.022150  0.826315  1
