# generated using pymatgen
data_Lu2Fe6Ni3P7Ru3
_symmetry_space_group_name_H-M   'P 1'
_cell_length_a   9.04807100
_cell_length_b   9.04806992
_cell_length_c   3.67295000
_cell_angle_alpha   90.00000000
_cell_angle_beta   90.00000000
_cell_angle_gamma   120.00000513
_symmetry_Int_Tables_number   1
_chemical_formula_structural   Lu2Fe6Ni3P7Ru3
_chemical_formula_sum   'Lu2 Fe6 Ni3 P7 Ru3'
_cell_volume   260.40994950
_cell_formula_units_Z   1
loop_
 _symmetry_equiv_pos_site_id
 _symmetry_equiv_pos_as_xyz
  1  'x, y, z'
loop_
 _atom_site_type_symbol
 _atom_site_label
 _atom_site_symmetry_multiplicity
 _atom_site_fract_x
 _atom_site_fract_y
 _atom_site_fract_z
 _atom_site_occupancy
  Lu  Lu0  1  0.666667  0.333333  0.000000  1
  Lu  Lu1  1  0.000000  0.000000  0.500000  1
  Fe  Fe2  1  0.488181  0.944176  0.000000  1
  Fe  Fe3  1  0.055824  0.544003  0.000000  1
  Fe  Fe4  1  0.455997  0.511819  0.000000  1
  Fe  Fe5  1  0.724179  0.108423  0.500000  1
  Fe  Fe6  1  0.891577  0.615757  0.500000  1
  Fe  Fe7  1  0.384243  0.275821  0.500000  1
  Ni  Ni8  1  0.769924  0.732132  0.000000  1
  Ni  Ni9  1  0.267868  0.037793  0.000000  1
  Ni  Ni10  1  0.962207  0.230076  0.000000  1
  P  P11  1  0.461732  0.078175  0.500000  1
  P  P12  1  0.921825  0.383556  0.500000  1
  P  P13  1  0.616444  0.538268  0.500000  1
  P  P14  1  0.739659  0.968846  0.000000  1
  P  P15  1  0.031154  0.770814  0.000000  1
  P  P16  1  0.229186  0.260341  0.000000  1
  P  P17  1  0.333333  0.666667  0.000000  1
  Ru  Ru18  1  0.569405  0.770518  0.500000  1
  Ru  Ru19  1  0.229482  0.798888  0.500000  1
  Ru  Ru20  1  0.201112  0.430595  0.500000  1
