# generated using pymatgen
data_La2Zn4CuNi3Rh2
_symmetry_space_group_name_H-M   'P 1'
_cell_length_a   3.95645000
_cell_length_b   5.49510135
_cell_length_c   9.08920309
_cell_angle_alpha   93.56757430
_cell_angle_beta   90.00000000
_cell_angle_gamma   90.00000000
_symmetry_Int_Tables_number   1
_chemical_formula_structural   La2Zn4CuNi3Rh2
_chemical_formula_sum   'La2 Zn4 Cu1 Ni3 Rh2'
_cell_volume   197.22627045
_cell_formula_units_Z   1
loop_
 _symmetry_equiv_pos_site_id
 _symmetry_equiv_pos_as_xyz
  1  'x, y, z'
loop_
 _atom_site_type_symbol
 _atom_site_label
 _atom_site_symmetry_multiplicity
 _atom_site_fract_x
 _atom_site_fract_y
 _atom_site_fract_z
 _atom_site_occupancy
  La  La0  1  0.000000  0.500000  0.000000  1
  La  La1  1  0.000000  0.000000  0.500000  1
  Zn  Zn2  1  0.000000  0.484234  0.334233  1
  Zn  Zn3  1  0.000000  0.984063  0.838406  1
  Zn  Zn4  1  0.000000  0.015937  0.161594  1
  Zn  Zn5  1  0.000000  0.515766  0.665767  1
  Cu  Cu6  1  0.500000  0.500000  0.500000  1
  Ni  Ni7  1  0.500000  0.000000  0.000000  1
  Ni  Ni8  1  0.500000  0.250700  0.247381  1
  Ni  Ni9  1  0.500000  0.749300  0.752619  1
  Rh  Rh10  1  0.500000  0.752677  0.249719  1
  Rh  Rh11  1  0.500000  0.247323  0.750281  1
