# generated using pymatgen
data_Nd2NiGe2Rh3
_symmetry_space_group_name_H-M   'P 1'
_cell_length_a   9.17855905
_cell_length_b   9.17856002
_cell_length_c   4.13594500
_cell_angle_alpha   90.00000000
_cell_angle_beta   90.00000000
_cell_angle_gamma   154.05193866
_symmetry_Int_Tables_number   1
_chemical_formula_structural   Nd2NiGe2Rh3
_chemical_formula_sum   'Nd2 Ni1 Ge2 Rh3'
_cell_volume   152.46061410
_cell_formula_units_Z   1
loop_
 _symmetry_equiv_pos_site_id
 _symmetry_equiv_pos_as_xyz
  1  'x, y, z'
loop_
 _atom_site_type_symbol
 _atom_site_label
 _atom_site_symmetry_multiplicity
 _atom_site_fract_x
 _atom_site_fract_y
 _atom_site_fract_z
 _atom_site_occupancy
  Nd  Nd0  1  0.097691  0.902309  0.750000  1
  Nd  Nd1  1  0.902525  0.097475  0.250000  1
  Ni  Ni2  1  0.541129  0.458871  0.250000  1
  Ge  Ge3  1  0.325208  0.674792  0.750000  1
  Ge  Ge4  1  0.672482  0.327518  0.250000  1
  Rh  Rh5  1  0.463380  0.536620  0.750000  1
  Rh  Rh6  1  0.248373  0.751627  0.250000  1
  Rh  Rh7  1  0.749212  0.250788  0.750000  1
