# generated using pymatgen
data_Cs4LaUSe6
_symmetry_space_group_name_H-M   'P 1'
_cell_length_a   7.98182390
_cell_length_b   7.98182451
_cell_length_c   8.77837034
_cell_angle_alpha   81.13296001
_cell_angle_beta   81.13295465
_cell_angle_gamma   119.77624591
_symmetry_Int_Tables_number   1
_chemical_formula_structural   Cs4LaUSe6
_chemical_formula_sum   'Cs4 La1 U1 Se6'
_cell_volume   461.94671019
_cell_formula_units_Z   1
loop_
 _symmetry_equiv_pos_site_id
 _symmetry_equiv_pos_as_xyz
  1  'x, y, z'
loop_
 _atom_site_type_symbol
 _atom_site_label
 _atom_site_symmetry_multiplicity
 _atom_site_fract_x
 _atom_site_fract_y
 _atom_site_fract_z
 _atom_site_occupancy
  Cs  Cs0  1  0.500176  0.499824  0.000000  1
  Cs  Cs1  1  0.654043  0.345957  0.500000  1
  Cs  Cs2  1  0.346625  0.653375  0.500000  1
  Cs  Cs3  1  0.999375  0.000625  0.500000  1
  La  La4  1  0.832188  0.167812  0.000000  1
  U  U5  1  0.167634  0.832366  0.000000  1
  Se  Se6  1  0.835506  0.812053  0.188268  1
  Se  Se7  1  0.187947  0.164494  0.811732  1
  Se  Se8  1  0.410079  0.032864  0.192652  1
  Se  Se9  1  0.541152  0.941861  0.807109  1
  Se  Se10  1  0.967136  0.589921  0.807348  1
  Se  Se11  1  0.058139  0.458848  0.192891  1
