# generated using pymatgen
data_BaLaB2Pd2Pt5Au
_symmetry_space_group_name_H-M   'P 1'
_cell_length_a   5.63664700
_cell_length_b   5.63664632
_cell_length_c   7.72719200
_cell_angle_alpha   90.00000000
_cell_angle_beta   90.00000000
_cell_angle_gamma   119.99999811
_symmetry_Int_Tables_number   1
_chemical_formula_structural   BaLaB2Pd2Pt5Au
_chemical_formula_sum   'Ba1 La1 B2 Pd2 Pt5 Au1'
_cell_volume   212.61503211
_cell_formula_units_Z   1
loop_
 _symmetry_equiv_pos_site_id
 _symmetry_equiv_pos_as_xyz
  1  'x, y, z'
loop_
 _atom_site_type_symbol
 _atom_site_label
 _atom_site_symmetry_multiplicity
 _atom_site_fract_x
 _atom_site_fract_y
 _atom_site_fract_z
 _atom_site_occupancy
  Ba  Ba0  1  0.000073  0.000146  0.500423  1
  La  La1  1  0.000023  0.000046  0.000387  1
  B  B2  1  0.330889  0.661778  0.998932  1
  B  B3  1  0.668800  0.337600  0.999253  1
  Pd  Pd4  1  0.666984  0.333967  0.499841  1
  Pd  Pd5  1  0.500182  0.000363  0.195475  1
  Pt  Pt6  1  0.500495  0.000988  0.809868  1
  Pt  Pt7  1  0.999054  0.499611  0.193189  1
  Pt  Pt8  1  0.999133  0.499729  0.805210  1
  Pt  Pt9  1  0.500559  0.499611  0.193189  1
  Pt  Pt10  1  0.500598  0.499729  0.805210  1
  Au  Au11  1  0.333213  0.666427  0.499024  1
