# generated using pymatgen
data_Dy2Co3Si7Ru9
_symmetry_space_group_name_H-M   'P 1'
_cell_length_a   9.50385100
_cell_length_b   9.50385090
_cell_length_c   3.83549800
_cell_angle_alpha   90.00000000
_cell_angle_beta   90.00000000
_cell_angle_gamma   120.00000382
_symmetry_Int_Tables_number   1
_chemical_formula_structural   Dy2Co3Si7Ru9
_chemical_formula_sum   'Dy2 Co3 Si7 Ru9'
_cell_volume   300.02096872
_cell_formula_units_Z   1
loop_
 _symmetry_equiv_pos_site_id
 _symmetry_equiv_pos_as_xyz
  1  'x, y, z'
loop_
 _atom_site_type_symbol
 _atom_site_label
 _atom_site_symmetry_multiplicity
 _atom_site_fract_x
 _atom_site_fract_y
 _atom_site_fract_z
 _atom_site_occupancy
  Dy  Dy0  1  0.333333  0.666667  0.000000  1
  Dy  Dy1  1  0.666667  0.333333  0.500000  1
  Co  Co2  1  0.147048  0.876566  0.000000  1
  Co  Co3  1  0.123434  0.270482  0.000000  1
  Co  Co4  1  0.729518  0.852952  0.000000  1
  Si  Si5  1  0.397558  0.106257  0.000000  1
  Si  Si6  1  0.893743  0.291301  0.000000  1
  Si  Si7  1  0.708699  0.602442  0.000000  1
  Si  Si8  1  0.107037  0.716100  0.500000  1
  Si  Si9  1  0.283900  0.390937  0.500000  1
  Si  Si10  1  0.609063  0.892963  0.500000  1
  Si  Si11  1  0.000000  0.000000  0.000000  1
  Ru  Ru12  1  0.427541  0.370333  0.000000  1
  Ru  Ru13  1  0.629667  0.057209  0.000000  1
  Ru  Ru14  1  0.942791  0.572459  0.000000  1
  Ru  Ru15  1  0.379335  0.944724  0.500000  1
  Ru  Ru16  1  0.055276  0.434611  0.500000  1
  Ru  Ru17  1  0.565389  0.620665  0.500000  1
  Ru  Ru18  1  0.203573  0.105783  0.500000  1
  Ru  Ru19  1  0.894217  0.097790  0.500000  1
  Ru  Ru20  1  0.902210  0.796427  0.500000  1
