# generated using pymatgen
data_Dy6Ho4Tl5InBr2
_symmetry_space_group_name_H-M   'P 1'
_cell_length_a   9.15930102
_cell_length_b   9.15930333
_cell_length_c   6.79615300
_cell_angle_alpha   90.00000000
_cell_angle_beta   90.00000000
_cell_angle_gamma   119.95237112
_symmetry_Int_Tables_number   1
_chemical_formula_structural   Dy6Ho4Tl5InBr2
_chemical_formula_sum   'Dy6 Ho4 Tl5 In1 Br2'
_cell_volume   493.99981763
_cell_formula_units_Z   1
loop_
 _symmetry_equiv_pos_site_id
 _symmetry_equiv_pos_as_xyz
  1  'x, y, z'
loop_
 _atom_site_type_symbol
 _atom_site_label
 _atom_site_symmetry_multiplicity
 _atom_site_fract_x
 _atom_site_fract_y
 _atom_site_fract_z
 _atom_site_occupancy
  Dy  Dy0  1  0.733054  0.733054  0.250000  1
  Dy  Dy1  1  0.999429  0.733173  0.750000  1
  Dy  Dy2  1  0.733173  0.999429  0.750000  1
  Dy  Dy3  1  0.266596  0.266596  0.750000  1
  Dy  Dy4  1  0.999920  0.266637  0.250000  1
  Dy  Dy5  1  0.266637  0.999920  0.250000  1
  Ho  Ho6  1  0.333971  0.666592  0.500543  1
  Ho  Ho7  1  0.666592  0.333971  0.500543  1
  Ho  Ho8  1  0.333971  0.666592  0.999457  1
  Ho  Ho9  1  0.666592  0.333971  0.999457  1
  Tl  Tl10  1  0.393035  0.999878  0.750000  1
  Tl  Tl11  1  0.999917  0.606378  0.250000  1
  Tl  Tl12  1  0.606378  0.999917  0.250000  1
  Tl  Tl13  1  0.999878  0.393035  0.750000  1
  Tl  Tl14  1  0.393405  0.393405  0.250000  1
  In  In15  1  0.607244  0.607244  0.750000  1
  Br  Br16  1  0.000103  0.000103  0.499921  1
  Br  Br17  1  0.000103  0.000103  0.000079  1
