# generated using pymatgen
data_Ce5MnFeB6
_symmetry_space_group_name_H-M   'P 1'
_cell_length_a   5.34816664
_cell_length_b   5.34816799
_cell_length_c   8.12016037
_cell_angle_alpha   70.77282803
_cell_angle_beta   70.77284979
_cell_angle_gamma   59.99999037
_symmetry_Int_Tables_number   1
_chemical_formula_structural   Ce5MnFeB6
_chemical_formula_sum   'Ce5 Mn1 Fe1 B6'
_cell_volume   186.03322013
_cell_formula_units_Z   1
loop_
 _symmetry_equiv_pos_site_id
 _symmetry_equiv_pos_as_xyz
  1  'x, y, z'
loop_
 _atom_site_type_symbol
 _atom_site_label
 _atom_site_symmetry_multiplicity
 _atom_site_fract_x
 _atom_site_fract_y
 _atom_site_fract_z
 _atom_site_occupancy
  Ce  Ce0  1  0.993652  0.993652  0.019044  1
  Ce  Ce1  1  0.742922  0.742922  0.771235  1
  Ce  Ce2  1  0.257032  0.257032  0.228906  1
  Ce  Ce3  1  0.589858  0.589858  0.230425  1
  Ce  Ce4  1  0.410063  0.410063  0.769813  1
  Mn  Mn5  1  0.891088  0.891088  0.326737  1
  Fe  Fe6  1  0.112788  0.112788  0.661637  1
  B  B7  1  0.500425  0.167849  0.498701  1
  B  B8  1  0.833025  0.500425  0.498701  1
  B  B9  1  0.167849  0.833025  0.498701  1
  B  B10  1  0.167849  0.500425  0.498701  1
  B  B11  1  0.833025  0.167849  0.498701  1
  B  B12  1  0.500425  0.833025  0.498701  1
