# generated using pymatgen
data_Y3Th2Sn3C
_symmetry_space_group_name_H-M   'P 1'
_cell_length_a   9.19496900
_cell_length_b   9.12456873
_cell_length_c   6.55953500
_cell_angle_alpha   90.00000000
_cell_angle_beta   90.00000000
_cell_angle_gamma   120.25555171
_symmetry_Int_Tables_number   1
_chemical_formula_structural   Y3Th2Sn3C
_chemical_formula_sum   'Y6 Th4 Sn6 C2'
_cell_volume   475.38139036
_cell_formula_units_Z   2
loop_
 _symmetry_equiv_pos_site_id
 _symmetry_equiv_pos_as_xyz
  1  'x, y, z'
loop_
 _atom_site_type_symbol
 _atom_site_label
 _atom_site_symmetry_multiplicity
 _atom_site_fract_x
 _atom_site_fract_y
 _atom_site_fract_z
 _atom_site_occupancy
  Y  Y0  1  0.333186  0.666372  0.500000  1
  Y  Y1  1  0.666814  0.333628  0.500000  1
  Y  Y2  1  0.666814  0.333628  0.000000  1
  Y  Y3  1  0.333186  0.666372  0.000000  1
  Y  Y4  1  0.221619  0.000000  0.750000  1
  Y  Y5  1  0.778381  0.000000  0.250000  1
  Th  Th6  1  0.001100  0.219445  0.750000  1
  Th  Th7  1  0.998900  0.780555  0.250000  1
  Th  Th8  1  0.781655  0.780555  0.750000  1
  Th  Th9  1  0.218345  0.219445  0.250000  1
  Sn  Sn10  1  0.591294  0.000000  0.750000  1
  Sn  Sn11  1  0.408706  0.000000  0.250000  1
  Sn  Sn12  1  0.002583  0.596967  0.750000  1
  Sn  Sn13  1  0.997417  0.403033  0.250000  1
  Sn  Sn14  1  0.405616  0.403033  0.750000  1
  Sn  Sn15  1  0.594384  0.596967  0.250000  1
  C  C16  1  0.000000  0.000000  0.500000  1
  C  C17  1  0.000000  0.000000  0.000000  1
