# generated using pymatgen
data_Ce2ZrU(NiAs)4
_symmetry_space_group_name_H-M   'P 1'
_cell_length_a   4.03042300
_cell_length_b   4.03042400
_cell_length_c   15.32199400
_cell_angle_alpha   90.00000000
_cell_angle_beta   90.00000000
_cell_angle_gamma   120.00001638
_symmetry_Int_Tables_number   1
_chemical_formula_structural   Ce2ZrU(NiAs)4
_chemical_formula_sum   'Ce2 Zr1 U1 Ni4 As4'
_cell_volume   215.54959601
_cell_formula_units_Z   1
loop_
 _symmetry_equiv_pos_site_id
 _symmetry_equiv_pos_as_xyz
  1  'x, y, z'
loop_
 _atom_site_type_symbol
 _atom_site_label
 _atom_site_symmetry_multiplicity
 _atom_site_fract_x
 _atom_site_fract_y
 _atom_site_fract_z
 _atom_site_occupancy
  Ce  Ce0  1  0.000000  0.000000  0.005445  1
  Ce  Ce1  1  0.000000  0.000000  0.494555  1
  Zr  Zr2  1  0.000000  0.000000  0.250000  1
  U  U3  1  0.000000  0.000000  0.750000  1
  Ni  Ni4  1  0.333333  0.666667  0.162033  1
  Ni  Ni5  1  0.666667  0.333333  0.845716  1
  Ni  Ni6  1  0.666667  0.333333  0.654284  1
  Ni  Ni7  1  0.333333  0.666667  0.337967  1
  As  As8  1  0.333333  0.666667  0.618824  1
  As  As9  1  0.666667  0.333333  0.373593  1
  As  As10  1  0.666667  0.333333  0.126407  1
  As  As11  1  0.333333  0.666667  0.881176  1
