# generated using pymatgen
data_SrCo3Sn6Ru
_symmetry_space_group_name_H-M   'P 1'
_cell_length_a   6.85426592
_cell_length_b   6.85426497
_cell_length_c   6.79004043
_cell_angle_alpha   119.57038583
_cell_angle_beta   119.57037978
_cell_angle_gamma   91.77996043
_symmetry_Int_Tables_number   1
_chemical_formula_structural   SrCo3Sn6Ru
_chemical_formula_sum   'Sr1 Co3 Sn6 Ru1'
_cell_volume   224.85425405
_cell_formula_units_Z   1
loop_
 _symmetry_equiv_pos_site_id
 _symmetry_equiv_pos_as_xyz
  1  'x, y, z'
loop_
 _atom_site_type_symbol
 _atom_site_label
 _atom_site_symmetry_multiplicity
 _atom_site_fract_x
 _atom_site_fract_y
 _atom_site_fract_z
 _atom_site_occupancy
  Sr  Sr0  1  0.005922  0.005922  0.999595  1
  Co  Co1  1  0.406111  0.747300  0.999087  1
  Co  Co2  1  0.747300  0.406111  0.999087  1
  Co  Co3  1  0.262136  0.262136  0.681785  1
  Sn  Sn4  1  0.475523  0.106451  0.993142  1
  Sn  Sn5  1  0.106451  0.475523  0.993142  1
  Sn  Sn6  1  0.884222  0.884222  0.354006  1
  Sn  Sn7  1  0.528996  0.528996  0.656778  1
  Sn  Sn8  1  0.003385  0.499037  0.500843  1
  Sn  Sn9  1  0.499037  0.003385  0.500843  1
  Ru  Ru10  1  0.580917  0.580917  0.321691  1
