# generated using pymatgen
data_Zr2BIr5Rh
_symmetry_space_group_name_H-M   'P 1'
_cell_length_a   5.74940363
_cell_length_b   5.74940367
_cell_length_c   5.74384100
_cell_angle_alpha   60.03199441
_cell_angle_beta   60.03199420
_cell_angle_gamma   59.93599385
_symmetry_Int_Tables_number   1
_chemical_formula_structural   Zr2BIr5Rh
_chemical_formula_sum   'Zr2 B1 Ir5 Rh1'
_cell_volume   134.25551723
_cell_formula_units_Z   1
loop_
 _symmetry_equiv_pos_site_id
 _symmetry_equiv_pos_as_xyz
  1  'x, y, z'
loop_
 _atom_site_type_symbol
 _atom_site_label
 _atom_site_symmetry_multiplicity
 _atom_site_fract_x
 _atom_site_fract_y
 _atom_site_fract_z
 _atom_site_occupancy
  Zr  Zr0  1  0.749891  0.749891  0.750109  1
  Zr  Zr1  1  0.249891  0.249891  0.250109  1
  B  B2  1  0.999442  0.999442  0.000558  1
  Ir  Ir3  1  0.258084  0.741878  0.258122  1
  Ir  Ir4  1  0.741878  0.258084  0.258122  1
  Ir  Ir5  1  0.258842  0.258842  0.741158  1
  Ir  Ir6  1  0.741878  0.258084  0.741916  1
  Ir  Ir7  1  0.258084  0.741878  0.741916  1
  Rh  Rh8  1  0.742009  0.742009  0.257991  1
