# generated using pymatgen
data_Eu6BeZnP6
_symmetry_space_group_name_H-M   'P 1'
_cell_length_a   9.55087406
_cell_length_b   9.55087499
_cell_length_c   12.00927000
_cell_angle_alpha   90.00000000
_cell_angle_beta   90.00000000
_cell_angle_gamma   142.71923650
_symmetry_Int_Tables_number   1
_chemical_formula_structural   Eu6BeZnP6
_chemical_formula_sum   'Eu12 Be2 Zn2 P12'
_cell_volume   663.55317142
_cell_formula_units_Z   2
loop_
 _symmetry_equiv_pos_site_id
 _symmetry_equiv_pos_as_xyz
  1  'x, y, z'
loop_
 _atom_site_type_symbol
 _atom_site_label
 _atom_site_symmetry_multiplicity
 _atom_site_fract_x
 _atom_site_fract_y
 _atom_site_fract_z
 _atom_site_occupancy
  Eu  Eu0  1  0.806093  0.809241  0.644640  1
  Eu  Eu1  1  0.190759  0.193907  0.355360  1
  Eu  Eu2  1  0.690759  0.693907  0.144640  1
  Eu  Eu3  1  0.306093  0.309241  0.855360  1
  Eu  Eu4  1  0.118237  0.461473  0.129964  1
  Eu  Eu5  1  0.538527  0.881763  0.870036  1
  Eu  Eu6  1  0.038527  0.381763  0.629964  1
  Eu  Eu7  1  0.618237  0.961473  0.370036  1
  Eu  Eu8  1  0.882838  0.530199  0.869246  1
  Eu  Eu9  1  0.469801  0.117162  0.130754  1
  Eu  Eu10  1  0.969801  0.617162  0.369246  1
  Eu  Eu11  1  0.382838  0.030199  0.630754  1
  Be  Be12  1  0.916844  0.083156  0.000000  1
  Be  Be13  1  0.416844  0.583156  0.500000  1
  Zn  Zn14  1  0.083616  0.916384  0.000000  1
  Zn  Zn15  1  0.583616  0.416384  0.500000  1
  P  P16  1  0.282105  0.295241  0.606059  1
  P  P17  1  0.704759  0.717895  0.393941  1
  P  P18  1  0.204759  0.217895  0.106059  1
  P  P19  1  0.782105  0.795241  0.893941  1
  P  P20  1  0.547659  0.866158  0.616227  1
  P  P21  1  0.133842  0.452341  0.383773  1
  P  P22  1  0.633842  0.952341  0.116227  1
  P  P23  1  0.047659  0.366158  0.883773  1
  P  P24  1  0.443030  0.118110  0.377516  1
  P  P25  1  0.881890  0.556970  0.622484  1
  P  P26  1  0.381890  0.056970  0.877516  1
  P  P27  1  0.943030  0.618110  0.122484  1
