# generated using pymatgen
data_Er7Tm9In4NiRh3
_symmetry_space_group_name_H-M   'P 1'
_cell_length_a   9.52853187
_cell_length_b   9.52734372
_cell_length_c   9.53309248
_cell_angle_alpha   59.97507938
_cell_angle_beta   60.03291284
_cell_angle_gamma   59.99501520
_symmetry_Int_Tables_number   1
_chemical_formula_structural   Er7Tm9In4NiRh3
_chemical_formula_sum   'Er7 Tm9 In4 Ni1 Rh3'
_cell_volume   611.96456440
_cell_formula_units_Z   1
loop_
 _symmetry_equiv_pos_site_id
 _symmetry_equiv_pos_as_xyz
  1  'x, y, z'
loop_
 _atom_site_type_symbol
 _atom_site_label
 _atom_site_symmetry_multiplicity
 _atom_site_fract_x
 _atom_site_fract_y
 _atom_site_fract_z
 _atom_site_occupancy
  Er  Er0  1  0.062777  0.063572  0.437666  1
  Er  Er1  1  0.436244  0.063305  0.437609  1
  Er  Er2  1  0.061759  0.438359  0.060928  1
  Er  Er3  1  0.046264  0.651988  0.648506  1
  Er  Er4  1  0.439278  0.438264  0.060626  1
  Er  Er5  1  0.652355  0.047938  0.647325  1
  Er  Er6  1  0.186983  0.811162  0.190649  1
  Tm  Tm7  1  0.188184  0.189416  0.811510  1
  Tm  Tm8  1  0.810911  0.811123  0.190788  1
  Tm  Tm9  1  0.439727  0.061211  0.059799  1
  Tm  Tm10  1  0.811042  0.187786  0.189871  1
  Tm  Tm11  1  0.062570  0.436059  0.438356  1
  Tm  Tm12  1  0.810742  0.189371  0.811616  1
  Tm  Tm13  1  0.188842  0.810775  0.811455  1
  Tm  Tm14  1  0.650179  0.648327  0.051653  1
  Tm  Tm15  1  0.653507  0.652313  0.648139  1
  In  In16  1  0.415587  0.416002  0.417933  1
  In  In17  1  0.750521  0.416207  0.417946  1
  In  In18  1  0.416416  0.749676  0.417886  1
  In  In19  1  0.417728  0.417217  0.747538  1
  Ni  Ni20  1  0.857969  0.858368  0.425074  1
  Rh  Rh21  1  0.856459  0.857401  0.859468  1
  Rh  Rh22  1  0.427387  0.857113  0.858599  1
  Rh  Rh23  1  0.856571  0.427048  0.859066  1
