# generated using pymatgen
data_Hf3(Cu2Si3)2
_symmetry_space_group_name_H-M   'P 1'
_cell_length_a   3.69658385
_cell_length_b   3.69658444
_cell_length_c   14.30306141
_cell_angle_alpha   97.42471778
_cell_angle_beta   97.42472183
_cell_angle_gamma   89.99999718
_symmetry_Int_Tables_number   1
_chemical_formula_structural   Hf3(Cu2Si3)2
_chemical_formula_sum   'Hf3 Cu4 Si6'
_cell_volume   192.15610085
_cell_formula_units_Z   1
loop_
 _symmetry_equiv_pos_site_id
 _symmetry_equiv_pos_as_xyz
  1  'x, y, z'
loop_
 _atom_site_type_symbol
 _atom_site_label
 _atom_site_symmetry_multiplicity
 _atom_site_fract_x
 _atom_site_fract_y
 _atom_site_fract_z
 _atom_site_occupancy
  Hf  Hf0  1  0.000000  0.000000  0.000000  1
  Hf  Hf1  1  0.676160  0.676160  0.352320  1
  Hf  Hf2  1  0.323840  0.323840  0.647680  1
  Cu  Cu3  1  0.590905  0.090906  0.181811  1
  Cu  Cu4  1  0.090906  0.590905  0.181811  1
  Cu  Cu5  1  0.909094  0.409094  0.818189  1
  Cu  Cu6  1  0.409094  0.909094  0.818189  1
  Si  Si7  1  0.540502  0.540502  0.081006  1
  Si  Si8  1  0.148575  0.148575  0.297150  1
  Si  Si9  1  0.750000  0.250000  0.500000  1
  Si  Si10  1  0.250000  0.750000  0.500000  1
  Si  Si11  1  0.851425  0.851425  0.702850  1
  Si  Si12  1  0.459498  0.459498  0.918994  1
