# generated using pymatgen
data_TbDy3V3TcB16
_symmetry_space_group_name_H-M   'P 1'
_cell_length_a   3.50374200
_cell_length_b   5.98752702
_cell_length_c   11.59165602
_cell_angle_alpha   90.00168899
_cell_angle_beta   90.00000000
_cell_angle_gamma   90.00000000
_symmetry_Int_Tables_number   1
_chemical_formula_structural   TbDy3V3TcB16
_chemical_formula_sum   'Tb1 Dy3 V3 Tc1 B16'
_cell_volume   243.17845251
_cell_formula_units_Z   1
loop_
 _symmetry_equiv_pos_site_id
 _symmetry_equiv_pos_as_xyz
  1  'x, y, z'
loop_
 _atom_site_type_symbol
 _atom_site_label
 _atom_site_symmetry_multiplicity
 _atom_site_fract_x
 _atom_site_fract_y
 _atom_site_fract_z
 _atom_site_occupancy
  Tb  Tb0  1  0.000000  0.375231  0.651163  1
  Dy  Dy1  1  0.000000  0.123264  0.150296  1
  Dy  Dy2  1  0.000000  0.876073  0.848948  1
  Dy  Dy3  1  0.000000  0.626058  0.348136  1
  V  V4  1  0.000000  0.872488  0.581786  1
  V  V5  1  0.000000  0.626817  0.083911  1
  V  V6  1  0.000000  0.373457  0.917662  1
  Tc  Tc7  1  0.000000  0.127385  0.417072  1
  B  B8  1  0.500000  0.475743  0.192471  1
  B  B9  1  0.500000  0.524196  0.807866  1
  B  B10  1  0.500000  0.976405  0.307836  1
  B  B11  1  0.500000  0.023091  0.692183  1
  B  B12  1  0.500000  0.284069  0.315226  1
  B  B13  1  0.500000  0.716017  0.685161  1
  B  B14  1  0.500000  0.785227  0.185721  1
  B  B15  1  0.500000  0.214450  0.814578  1
  B  B16  1  0.500000  0.364488  0.467846  1
  B  B17  1  0.500000  0.635457  0.532066  1
  B  B18  1  0.500000  0.864223  0.032657  1
  B  B19  1  0.500000  0.135716  0.967338  1
  B  B20  1  0.500000  0.385505  0.047440  1
  B  B21  1  0.500000  0.615009  0.952680  1
  B  B22  1  0.500000  0.885928  0.452773  1
  B  B23  1  0.500000  0.113703  0.547184  1
