# generated using pymatgen
data_HoSi2P4(Pd10Pb)2
_symmetry_space_group_name_H-M   'P 1'
_cell_length_a   8.73049262
_cell_length_b   8.70343816
_cell_length_c   8.70343718
_cell_angle_alpha   60.20575825
_cell_angle_beta   59.89711536
_cell_angle_gamma   59.89711851
_symmetry_Int_Tables_number   1
_chemical_formula_structural   HoSi2P4(Pd10Pb)2
_chemical_formula_sum   'Ho1 Si2 P4 Pd20 Pb2'
_cell_volume   467.62417388
_cell_formula_units_Z   1
loop_
 _symmetry_equiv_pos_site_id
 _symmetry_equiv_pos_as_xyz
  1  'x, y, z'
loop_
 _atom_site_type_symbol
 _atom_site_label
 _atom_site_symmetry_multiplicity
 _atom_site_fract_x
 _atom_site_fract_y
 _atom_site_fract_z
 _atom_site_occupancy
  Ho  Ho0  1  0.000000  0.000000  0.000000  1
  Si  Si1  1  0.733165  0.266835  0.266835  1
  Si  Si2  1  0.266835  0.733165  0.733165  1
  P  P3  1  0.265510  0.734490  0.265510  1
  P  P4  1  0.734490  0.265510  0.734490  1
  P  P5  1  0.265510  0.265510  0.734490  1
  P  P6  1  0.734490  0.734490  0.265510  1
  Pd  Pd7  1  0.383296  0.384778  0.384778  1
  Pd  Pd8  1  0.616704  0.615222  0.615222  1
  Pd  Pd9  1  0.384778  0.383296  0.847149  1
  Pd  Pd10  1  0.384778  0.847149  0.383296  1
  Pd  Pd11  1  0.615222  0.616704  0.152851  1
  Pd  Pd12  1  0.615222  0.152851  0.616704  1
  Pd  Pd13  1  0.847149  0.384778  0.384778  1
  Pd  Pd14  1  0.152851  0.615222  0.615222  1
  Pd  Pd15  1  0.342580  0.000000  0.000000  1
  Pd  Pd16  1  0.657420  0.000000  0.000000  1
  Pd  Pd17  1  0.000000  0.342580  0.657420  1
  Pd  Pd18  1  0.000000  0.657420  0.342580  1
  Pd  Pd19  1  0.000623  0.344029  0.999377  1
  Pd  Pd20  1  0.655971  0.999377  0.344029  1
  Pd  Pd21  1  0.999377  0.655971  0.000623  1
  Pd  Pd22  1  0.344029  0.000623  0.655971  1
  Pd  Pd23  1  0.000623  0.999377  0.344029  1
  Pd  Pd24  1  0.999377  0.000623  0.655971  1
  Pd  Pd25  1  0.655971  0.344029  0.999377  1
  Pd  Pd26  1  0.344029  0.655971  0.000623  1
  Pb  Pb27  1  0.250000  0.250000  0.250000  1
  Pb  Pb28  1  0.750000  0.750000  0.750000  1
