# generated using pymatgen
data_YLu11(Si3Ir)4
_symmetry_space_group_name_H-M   'P 1'
_cell_length_a   4.18016300
_cell_length_b   10.47154400
_cell_length_c   12.06842215
_cell_angle_alpha   89.95005002
_cell_angle_beta   90.00000000
_cell_angle_gamma   90.00000000
_symmetry_Int_Tables_number   1
_chemical_formula_structural   YLu11(Si3Ir)4
_chemical_formula_sum   'Y1 Lu11 Si12 Ir4'
_cell_volume   528.26795462
_cell_formula_units_Z   1
loop_
 _symmetry_equiv_pos_site_id
 _symmetry_equiv_pos_as_xyz
  1  'x, y, z'
loop_
 _atom_site_type_symbol
 _atom_site_label
 _atom_site_symmetry_multiplicity
 _atom_site_fract_x
 _atom_site_fract_y
 _atom_site_fract_z
 _atom_site_occupancy
  Y  Y0  1  0.250000  0.878603  0.019615  1
  Lu  Lu1  1  0.250000  0.621228  0.519605  1
  Lu  Lu2  1  0.750000  0.121877  0.980424  1
  Lu  Lu3  1  0.750000  0.378815  0.480452  1
  Lu  Lu4  1  0.250000  0.919766  0.603086  1
  Lu  Lu5  1  0.250000  0.579423  0.103428  1
  Lu  Lu6  1  0.750000  0.080304  0.396991  1
  Lu  Lu7  1  0.750000  0.419753  0.896832  1
  Lu  Lu8  1  0.250000  0.658718  0.799641  1
  Lu  Lu9  1  0.250000  0.840811  0.300655  1
  Lu  Lu10  1  0.750000  0.341044  0.200003  1
  Lu  Lu11  1  0.750000  0.159143  0.699866  1
  Si  Si12  1  0.250000  0.013418  0.820000  1
  Si  Si13  1  0.250000  0.487438  0.321591  1
  Si  Si14  1  0.750000  0.988153  0.179304  1
  Si  Si15  1  0.750000  0.512539  0.678525  1
  Si  Si16  1  0.250000  0.248407  0.840865  1
  Si  Si17  1  0.250000  0.252064  0.341344  1
  Si  Si18  1  0.750000  0.750993  0.159800  1
  Si  Si19  1  0.750000  0.748145  0.658656  1
  Si  Si20  1  0.250000  0.197025  0.544243  1
  Si  Si21  1  0.250000  0.303050  0.044332  1
  Si  Si22  1  0.750000  0.803026  0.455717  1
  Si  Si23  1  0.750000  0.695283  0.955274  1
  Ir  Ir24  1  0.250000  0.390366  0.678342  1
  Ir  Ir25  1  0.250000  0.110596  0.179109  1
  Ir  Ir26  1  0.750000  0.609598  0.321882  1
  Ir  Ir27  1  0.750000  0.890415  0.820421  1
