# generated using pymatgen
data_Er3LuTi3GaIr4
_symmetry_space_group_name_H-M   'P 1'
_cell_length_a   4.30589600
_cell_length_b   6.88738773
_cell_length_c   7.94207156
_cell_angle_alpha   93.07220905
_cell_angle_beta   90.00000000
_cell_angle_gamma   90.00000000
_symmetry_Int_Tables_number   1
_chemical_formula_structural   Er3LuTi3GaIr4
_chemical_formula_sum   'Er3 Lu1 Ti3 Ga1 Ir4'
_cell_volume   235.19454259
_cell_formula_units_Z   1
loop_
 _symmetry_equiv_pos_site_id
 _symmetry_equiv_pos_as_xyz
  1  'x, y, z'
loop_
 _atom_site_type_symbol
 _atom_site_label
 _atom_site_symmetry_multiplicity
 _atom_site_fract_x
 _atom_site_fract_y
 _atom_site_fract_z
 _atom_site_occupancy
  Er  Er0  1  0.250000  0.979504  0.316308  1
  Er  Er1  1  0.250000  0.469682  0.172317  1
  Er  Er2  1  0.750000  0.512681  0.824738  1
  Lu  Lu3  1  0.750000  0.030280  0.686846  1
  Ti  Ti4  1  0.250000  0.364171  0.570334  1
  Ti  Ti5  1  0.250000  0.864692  0.938048  1
  Ti  Ti6  1  0.750000  0.636241  0.432167  1
  Ga  Ga7  1  0.750000  0.146178  0.069666  1
  Ir  Ir8  1  0.250000  0.223556  0.872390  1
  Ir  Ir9  1  0.250000  0.729176  0.603624  1
  Ir  Ir10  1  0.750000  0.768726  0.113546  1
  Ir  Ir11  1  0.750000  0.275114  0.400017  1
