# generated using pymatgen
data_Tb11DyCo6Sb
_symmetry_space_group_name_H-M   'P 1'
_cell_length_a   8.42125170
_cell_length_b   8.42250388
_cell_length_c   8.42125100
_cell_angle_alpha   109.47608175
_cell_angle_beta   109.44929212
_cell_angle_gamma   109.48225654
_symmetry_Int_Tables_number   1
_chemical_formula_structural   Tb11DyCo6Sb
_chemical_formula_sum   'Tb11 Dy1 Co6 Sb1'
_cell_volume   459.83802514
_cell_formula_units_Z   1
loop_
 _symmetry_equiv_pos_site_id
 _symmetry_equiv_pos_as_xyz
  1  'x, y, z'
loop_
 _atom_site_type_symbol
 _atom_site_label
 _atom_site_symmetry_multiplicity
 _atom_site_fract_x
 _atom_site_fract_y
 _atom_site_fract_z
 _atom_site_occupancy
  Tb  Tb0  1  0.805253  0.500072  0.694821  1
  Tb  Tb1  1  0.694951  0.194874  0.889668  1
  Tb  Tb2  1  0.194836  0.889469  0.694633  1
  Tb  Tb3  1  0.305205  0.194874  0.499923  1
  Tb  Tb4  1  0.694487  0.805073  0.499940  1
  Tb  Tb5  1  0.499805  0.305246  0.194759  1
  Tb  Tb6  1  0.805420  0.110582  0.305161  1
  Tb  Tb7  1  0.889685  0.694685  0.194776  1
  Tb  Tb8  1  0.110488  0.305246  0.805442  1
  Tb  Tb9  1  0.305132  0.805073  0.110586  1
  Tb  Tb10  1  0.499909  0.694685  0.805000  1
  Dy  Dy11  1  0.194746  0.500317  0.305570  1
  Co  Co12  1  0.612878  0.112922  0.500044  1
  Co  Co13  1  0.499875  0.612838  0.112962  1
  Co  Co14  1  0.500006  0.387054  0.887048  1
  Co  Co15  1  0.386804  0.886687  0.499884  1
  Co  Co16  1  0.113099  0.500031  0.612702  1
  Co  Co17  1  0.887329  0.500031  0.386932  1
  Sb  Sb18  1  0.000094  0.000241  0.000149  1
