# generated using pymatgen
data_Ca11Tb8YbSn16
_symmetry_space_group_name_H-M   'P 1'
_cell_length_a   7.90103401
_cell_length_b   8.47251801
_cell_length_c   16.15780000
_cell_angle_alpha   90.00000000
_cell_angle_beta   90.00000000
_cell_angle_gamma   89.99533913
_symmetry_Int_Tables_number   1
_chemical_formula_structural   Ca11Tb8YbSn16
_chemical_formula_sum   'Ca11 Tb8 Yb1 Sn16'
_cell_volume   1081.62983556
_cell_formula_units_Z   1
loop_
 _symmetry_equiv_pos_site_id
 _symmetry_equiv_pos_as_xyz
  1  'x, y, z'
loop_
 _atom_site_type_symbol
 _atom_site_label
 _atom_site_symmetry_multiplicity
 _atom_site_fract_x
 _atom_site_fract_y
 _atom_site_fract_z
 _atom_site_occupancy
  Ca  Ca0  1  0.501841  0.687131  0.593118  1
  Ca  Ca1  1  0.001809  0.812887  0.906887  1
  Ca  Ca2  1  0.498230  0.312838  0.093132  1
  Ca  Ca3  1  0.998065  0.187087  0.406881  1
  Ca  Ca4  1  0.498230  0.312838  0.406868  1
  Ca  Ca5  1  0.998065  0.187087  0.093119  1
  Ca  Ca6  1  0.501841  0.687131  0.906882  1
  Ca  Ca7  1  0.001809  0.812887  0.593113  1
  Ca  Ca8  1  0.832115  0.510980  0.750000  1
  Ca  Ca9  1  0.332126  0.989024  0.750000  1
  Ca  Ca10  1  0.167903  0.489018  0.250000  1
  Tb  Tb11  1  0.669682  0.167319  0.622091  1
  Tb  Tb12  1  0.169681  0.332623  0.877900  1
  Tb  Tb13  1  0.330485  0.832606  0.122167  1
  Tb  Tb14  1  0.830256  0.667448  0.377834  1
  Tb  Tb15  1  0.330485  0.832606  0.377833  1
  Tb  Tb16  1  0.830256  0.667448  0.122166  1
  Tb  Tb17  1  0.669682  0.167319  0.877909  1
  Tb  Tb18  1  0.169681  0.332623  0.622100  1
  Yb  Yb19  1  0.667844  0.011056  0.250000  1
  Sn  Sn20  1  0.671627  0.964462  0.459595  1
  Sn  Sn21  1  0.171679  0.535665  0.040245  1
  Sn  Sn22  1  0.328358  0.035631  0.959754  1
  Sn  Sn23  1  0.828315  0.464374  0.540234  1
  Sn  Sn24  1  0.328358  0.035631  0.540246  1
  Sn  Sn25  1  0.828315  0.464374  0.959766  1
  Sn  Sn26  1  0.671627  0.964462  0.040405  1
  Sn  Sn27  1  0.171679  0.535665  0.459755  1
  Sn  Sn28  1  0.466670  0.376665  0.750000  1
  Sn  Sn29  1  0.966665  0.123310  0.750000  1
  Sn  Sn30  1  0.533454  0.623515  0.250000  1
  Sn  Sn31  1  0.032959  0.876868  0.250000  1
  Sn  Sn32  1  0.712172  0.872959  0.750000  1
  Sn  Sn33  1  0.212176  0.627047  0.750000  1
  Sn  Sn34  1  0.288137  0.126796  0.250000  1
  Sn  Sn35  1  0.787723  0.372622  0.250000  1
