# generated using pymatgen
data_Gd2Cr3O12
_symmetry_space_group_name_H-M   'P 1'
_cell_length_a   5.13783710
_cell_length_b   6.90921482
_cell_length_c   14.35584314
_cell_angle_alpha   84.40482090
_cell_angle_beta   80.17065981
_cell_angle_gamma   68.64000662
_symmetry_Int_Tables_number   1
_chemical_formula_structural   Gd2Cr3O12
_chemical_formula_sum   'Gd4 Cr6 O24'
_cell_volume   467.29139389
_cell_formula_units_Z   2
loop_
 _symmetry_equiv_pos_site_id
 _symmetry_equiv_pos_as_xyz
  1  'x, y, z'
loop_
 _atom_site_type_symbol
 _atom_site_label
 _atom_site_symmetry_multiplicity
 _atom_site_fract_x
 _atom_site_fract_y
 _atom_site_fract_z
 _atom_site_occupancy
  Gd  Gd0  1  0.364553  0.130282  0.125066  1
  Gd  Gd1  1  0.379489  0.793499  0.453373  1
  Gd  Gd2  1  0.636865  0.870155  0.873636  1
  Gd  Gd3  1  0.619696  0.206188  0.547532  1
  Cr  Cr4  1  0.904420  0.276173  0.951755  1
  Cr  Cr5  1  0.849197  0.978354  0.298391  1
  Cr  Cr6  1  0.871802  0.622055  0.621614  1
  Cr  Cr7  1  0.149264  0.022195  0.702200  1
  Cr  Cr8  1  0.097010  0.724077  0.046285  1
  Cr  Cr9  1  0.128416  0.376892  0.379825  1
  O  O10  1  0.836571  0.191118  0.680135  1
  O  O11  1  0.751614  0.860430  0.030347  1
  O  O12  1  0.825990  0.565027  0.370692  1
  O  O13  1  0.871422  0.512716  0.907091  1
  O  O14  1  0.905700  0.180961  0.242962  1
  O  O15  1  0.945951  0.824107  0.558442  1
  O  O16  1  0.321362  0.103319  0.768391  1
  O  O17  1  0.200849  0.849385  0.116084  1
  O  O18  1  0.329363  0.454600  0.441203  1
  O  O19  1  0.696936  0.689915  0.726673  1
  O  O20  1  0.710002  0.282880  0.057085  1
  O  O21  1  0.640318  0.022268  0.408045  1
  O  O22  1  0.292216  0.717405  0.941334  1
  O  O23  1  0.300964  0.308193  0.274568  1
  O  O24  1  0.359111  0.977340  0.592750  1
  O  O25  1  0.091983  0.819279  0.757138  1
  O  O26  1  0.131697  0.486845  0.090530  1
  O  O27  1  0.052924  0.175642  0.443065  1
  O  O28  1  0.249815  0.139276  0.967934  1
  O  O29  1  0.162679  0.810372  0.320414  1
  O  O30  1  0.175327  0.435358  0.631096  1
  O  O31  1  0.797471  0.152284  0.882287  1
  O  O32  1  0.677491  0.896931  0.232104  1
  O  O33  1  0.671531  0.544481  0.559954  1
