# generated using pymatgen
data_Tm4Al4Co3Cu
_symmetry_space_group_name_H-M   'P 1'
_cell_length_a   4.12705600
_cell_length_b   6.66485791
_cell_length_c   7.76791000
_cell_angle_alpha   89.77604682
_cell_angle_beta   90.00000000
_cell_angle_gamma   90.00000000
_symmetry_Int_Tables_number   1
_chemical_formula_structural   Tm4Al4Co3Cu
_chemical_formula_sum   'Tm4 Al4 Co3 Cu1'
_cell_volume   213.66437884
_cell_formula_units_Z   1
loop_
 _symmetry_equiv_pos_site_id
 _symmetry_equiv_pos_as_xyz
  1  'x, y, z'
loop_
 _atom_site_type_symbol
 _atom_site_label
 _atom_site_symmetry_multiplicity
 _atom_site_fract_x
 _atom_site_fract_y
 _atom_site_fract_z
 _atom_site_occupancy
  Tm  Tm0  1  0.250000  0.471224  0.182467  1
  Tm  Tm1  1  0.750000  0.544556  0.821551  1
  Tm  Tm2  1  0.750000  0.027152  0.670439  1
  Tm  Tm3  1  0.250000  0.966636  0.324467  1
  Al  Al4  1  0.250000  0.855567  0.943103  1
  Al  Al5  1  0.750000  0.133679  0.062825  1
  Al  Al6  1  0.750000  0.636302  0.442520  1
  Al  Al7  1  0.250000  0.366839  0.553306  1
  Co  Co8  1  0.250000  0.734393  0.629186  1
  Co  Co9  1  0.750000  0.268316  0.373241  1
  Co  Co10  1  0.750000  0.766015  0.125423  1
  Cu  Cu11  1  0.250000  0.229322  0.871474  1
