# generated using pymatgen
data_Ac7LaS12
_symmetry_space_group_name_H-M   'P 1'
_cell_length_a   4.29865700
_cell_length_b   7.82221028
_cell_length_c   16.33919387
_cell_angle_alpha   89.89496719
_cell_angle_beta   90.00000000
_cell_angle_gamma   90.00000000
_symmetry_Int_Tables_number   1
_chemical_formula_structural   Ac7LaS12
_chemical_formula_sum   'Ac7 La1 S12'
_cell_volume   549.40445419
_cell_formula_units_Z   1
loop_
 _symmetry_equiv_pos_site_id
 _symmetry_equiv_pos_as_xyz
  1  'x, y, z'
loop_
 _atom_site_type_symbol
 _atom_site_label
 _atom_site_symmetry_multiplicity
 _atom_site_fract_x
 _atom_site_fract_y
 _atom_site_fract_z
 _atom_site_occupancy
  Ac  Ac0  1  0.250000  0.145203  0.796684  1
  Ac  Ac1  1  0.750000  0.851125  0.201315  1
  Ac  Ac2  1  0.250000  0.647253  0.705885  1
  Ac  Ac3  1  0.750000  0.352448  0.295199  1
  Ac  Ac4  1  0.250000  0.765077  0.455659  1
  Ac  Ac5  1  0.750000  0.235255  0.544458  1
  Ac  Ac6  1  0.250000  0.267319  0.043373  1
  La  La7  1  0.750000  0.736944  0.955855  1
  S  S8  1  0.250000  0.371107  0.433170  1
  S  S9  1  0.750000  0.628822  0.567090  1
  S  S10  1  0.250000  0.866991  0.062281  1
  S  S11  1  0.750000  0.124296  0.933900  1
  S  S12  1  0.250000  0.143038  0.218228  1
  S  S13  1  0.750000  0.852362  0.784051  1
  S  S14  1  0.250000  0.644595  0.280022  1
  S  S15  1  0.750000  0.354984  0.720488  1
  S  S16  1  0.750000  0.492459  0.108323  1
  S  S17  1  0.250000  0.520649  0.893248  1
  S  S18  1  0.750000  0.990088  0.389716  1
  S  S19  1  0.250000  0.009987  0.611054  1
