# generated using pymatgen
data_Ba2Sr(LiSn2)4
_symmetry_space_group_name_H-M   'P 1'
_cell_length_a   9.94835626
_cell_length_b   9.94835510
_cell_length_c   6.87862899
_cell_angle_alpha   81.72519468
_cell_angle_beta   81.72519605
_cell_angle_gamma   39.13908661
_symmetry_Int_Tables_number   1
_chemical_formula_structural   Ba2Sr(LiSn2)4
_chemical_formula_sum   'Ba2 Sr1 Li4 Sn8'
_cell_volume   424.66720185
_cell_formula_units_Z   1
loop_
 _symmetry_equiv_pos_site_id
 _symmetry_equiv_pos_as_xyz
  1  'x, y, z'
loop_
 _atom_site_type_symbol
 _atom_site_label
 _atom_site_symmetry_multiplicity
 _atom_site_fract_x
 _atom_site_fract_y
 _atom_site_fract_z
 _atom_site_occupancy
  Ba  Ba0  1  0.321405  0.321405  0.314148  1
  Ba  Ba1  1  0.678595  0.678595  0.685852  1
  Sr  Sr2  1  0.000000  0.000000  0.000000  1
  Li  Li3  1  0.785714  0.785714  0.130403  1
  Li  Li4  1  0.214286  0.214286  0.869597  1
  Li  Li5  1  0.785847  0.214153  0.500000  1
  Li  Li6  1  0.214153  0.785847  0.500000  1
  Sn  Sn7  1  0.405797  0.891794  0.196189  1
  Sn  Sn8  1  0.594203  0.108206  0.803811  1
  Sn  Sn9  1  0.891794  0.405797  0.196189  1
  Sn  Sn10  1  0.126820  0.126820  0.559356  1
  Sn  Sn11  1  0.873180  0.873180  0.440644  1
  Sn  Sn12  1  0.485583  0.485583  0.798112  1
  Sn  Sn13  1  0.514417  0.514417  0.201888  1
  Sn  Sn14  1  0.108206  0.594203  0.803811  1
