# generated using pymatgen
data_Gd4Er8GaNi4Hg
_symmetry_space_group_name_H-M   'P 1'
_cell_length_a   8.31441500
_cell_length_b   8.31610907
_cell_length_c   8.31441548
_cell_angle_alpha   112.59236139
_cell_angle_beta   109.87257035
_cell_angle_gamma   106.00753833
_symmetry_Int_Tables_number   1
_chemical_formula_structural   Gd4Er8GaNi4Hg
_chemical_formula_sum   'Gd4 Er8 Ga1 Ni4 Hg1'
_cell_volume   441.12689273
_cell_formula_units_Z   1
loop_
 _symmetry_equiv_pos_site_id
 _symmetry_equiv_pos_as_xyz
  1  'x, y, z'
loop_
 _atom_site_type_symbol
 _atom_site_label
 _atom_site_symmetry_multiplicity
 _atom_site_fract_x
 _atom_site_fract_y
 _atom_site_fract_z
 _atom_site_occupancy
  Gd  Gd0  1  0.180964  0.213160  0.394216  1
  Gd  Gd1  1  0.818944  0.213160  0.032195  1
  Gd  Gd2  1  0.181056  0.786840  0.967805  1
  Gd  Gd3  1  0.819036  0.786840  0.605784  1
  Er  Er4  1  0.039017  0.734037  0.305001  1
  Er  Er5  1  0.960983  0.265963  0.694999  1
  Er  Er6  1  0.570964  0.265963  0.304980  1
  Er  Er7  1  0.429036  0.734037  0.695020  1
  Er  Er8  1  0.673133  0.863990  0.190856  1
  Er  Er9  1  0.326648  0.517426  0.190777  1
  Er  Er10  1  0.326868  0.136010  0.809144  1
  Er  Er11  1  0.673353  0.482574  0.809223  1
  Ga  Ga12  1  0.000000  0.500000  0.500000  1
  Ni  Ni13  1  0.649663  0.500000  0.149663  1
  Ni  Ni14  1  0.350337  0.500000  0.850337  1
  Ni  Ni15  1  0.874862  0.874999  0.000136  1
  Ni  Ni16  1  0.125138  0.125001  0.999864  1
  Hg  Hg17  1  0.500000  0.000000  0.500000  1
