# generated using pymatgen
data_Ho4C2Cl3
_symmetry_space_group_name_H-M   'P 1'
_cell_length_a   3.63644000
_cell_length_b   10.44970400
_cell_length_c   19.53576700
_cell_angle_alpha   90.00000000
_cell_angle_beta   90.00000000
_cell_angle_gamma   90.00000000
_symmetry_Int_Tables_number   1
_chemical_formula_structural   Ho4C2Cl3
_chemical_formula_sum   'Ho16 C8 Cl12'
_cell_volume   742.35370751
_cell_formula_units_Z   4
loop_
 _symmetry_equiv_pos_site_id
 _symmetry_equiv_pos_as_xyz
  1  'x, y, z'
loop_
 _atom_site_type_symbol
 _atom_site_label
 _atom_site_symmetry_multiplicity
 _atom_site_fract_x
 _atom_site_fract_y
 _atom_site_fract_z
 _atom_site_occupancy
  Ho  Ho0  1  0.250000  0.139025  0.572937  1
  Ho  Ho1  1  0.250000  0.639025  0.927063  1
  Ho  Ho2  1  0.750000  0.860975  0.427063  1
  Ho  Ho3  1  0.750000  0.360975  0.072937  1
  Ho  Ho4  1  0.250000  0.638038  0.756280  1
  Ho  Ho5  1  0.250000  0.138038  0.743720  1
  Ho  Ho6  1  0.750000  0.361962  0.243720  1
  Ho  Ho7  1  0.750000  0.861962  0.256280  1
  Ho  Ho8  1  0.250000  0.099976  0.331610  1
  Ho  Ho9  1  0.250000  0.599976  0.168390  1
  Ho  Ho10  1  0.750000  0.900024  0.668390  1
  Ho  Ho11  1  0.750000  0.400024  0.831610  1
  Ho  Ho12  1  0.250000  0.124191  0.163872  1
  Ho  Ho13  1  0.250000  0.624191  0.336128  1
  Ho  Ho14  1  0.750000  0.875809  0.836128  1
  Ho  Ho15  1  0.750000  0.375809  0.663872  1
  C  C16  1  0.250000  0.863593  0.348334  1
  C  C17  1  0.250000  0.363593  0.151666  1
  C  C18  1  0.750000  0.136407  0.651666  1
  C  C19  1  0.750000  0.636407  0.848334  1
  C  C20  1  0.250000  0.388480  0.749387  1
  C  C21  1  0.250000  0.888480  0.750613  1
  C  C22  1  0.750000  0.611520  0.250613  1
  C  C23  1  0.750000  0.111520  0.249387  1
  Cl  Cl24  1  0.250000  0.378801  0.952019  1
  Cl  Cl25  1  0.250000  0.878801  0.547981  1
  Cl  Cl26  1  0.750000  0.621199  0.047981  1
  Cl  Cl27  1  0.750000  0.121199  0.452019  1
  Cl  Cl28  1  0.250000  0.887445  0.946345  1
  Cl  Cl29  1  0.250000  0.387445  0.553655  1
  Cl  Cl30  1  0.750000  0.112555  0.053655  1
  Cl  Cl31  1  0.750000  0.612555  0.446345  1
  Cl  Cl32  1  0.250000  0.360136  0.354761  1
  Cl  Cl33  1  0.250000  0.860136  0.145239  1
  Cl  Cl34  1  0.750000  0.639864  0.645239  1
  Cl  Cl35  1  0.750000  0.139864  0.854761  1
