# generated using pymatgen
data_DyTh3(Ge2Rh)4
_symmetry_space_group_name_H-M   'P 1'
_cell_length_a   9.52575975
_cell_length_b   9.52582647
_cell_length_c   9.52581939
_cell_angle_alpha   153.36771718
_cell_angle_beta   123.98562278
_cell_angle_gamma   63.07110642
_symmetry_Int_Tables_number   1
_chemical_formula_structural   DyTh3(Ge2Rh)4
_chemical_formula_sum   'Dy1 Th3 Ge8 Rh4'
_cell_volume   318.72483004
_cell_formula_units_Z   1
loop_
 _symmetry_equiv_pos_site_id
 _symmetry_equiv_pos_as_xyz
  1  'x, y, z'
loop_
 _atom_site_type_symbol
 _atom_site_label
 _atom_site_symmetry_multiplicity
 _atom_site_fract_x
 _atom_site_fract_y
 _atom_site_fract_z
 _atom_site_occupancy
  Dy  Dy0  1  0.705420  0.205418  0.499996  1
  Th  Th1  1  0.731449  0.000924  0.730507  1
  Th  Th2  1  0.270418  0.000938  0.269479  1
  Th  Th3  1  0.292836  0.792843  0.500011  1
  Ge  Ge4  1  0.921486  0.421483  0.499996  1
  Ge  Ge5  1  0.077154  0.577152  0.500004  1
  Ge  Ge6  1  0.425426  0.425429  0.000004  1
  Ge  Ge7  1  0.579461  0.579450  0.000006  1
  Ge  Ge8  1  0.357508  0.197441  0.160075  1
  Ge  Ge9  1  0.649819  0.800712  0.849105  1
  Ge  Ge10  1  0.037368  0.197439  0.839927  1
  Ge  Ge11  1  0.951609  0.800713  0.150891  1
  Rh  Rh12  1  0.606291  0.353347  0.252948  1
  Rh  Rh13  1  0.393765  0.646686  0.747081  1
  Rh  Rh14  1  0.100377  0.353336  0.747046  1
  Rh  Rh15  1  0.899611  0.646687  0.252926  1
