# generated using pymatgen
data_Yb11(HgSb2)6
_symmetry_space_group_name_H-M   'P 1'
_cell_length_a   4.57727692
_cell_length_b   12.14791256
_cell_length_c   16.07654900
_cell_angle_alpha   110.30775491
_cell_angle_beta   98.18435469
_cell_angle_gamma   89.99999925
_symmetry_Int_Tables_number   1
_chemical_formula_structural   Yb11(HgSb2)6
_chemical_formula_sum   'Yb11 Hg6 Sb12'
_cell_volume   828.64673295
_cell_formula_units_Z   1
loop_
 _symmetry_equiv_pos_site_id
 _symmetry_equiv_pos_as_xyz
  1  'x, y, z'
loop_
 _atom_site_type_symbol
 _atom_site_label
 _atom_site_symmetry_multiplicity
 _atom_site_fract_x
 _atom_site_fract_y
 _atom_site_fract_z
 _atom_site_occupancy
  Yb  Yb0  1  0.000000  0.000000  0.000000  1
  Yb  Yb1  1  0.019846  0.684484  0.039351  1
  Yb  Yb2  1  0.113641  0.510781  0.229925  1
  Yb  Yb3  1  0.125242  0.014695  0.251729  1
  Yb  Yb4  1  0.203011  0.340731  0.407679  1
  Yb  Yb5  1  0.726014  0.867530  0.451390  1
  Yb  Yb6  1  0.273986  0.132470  0.548610  1
  Yb  Yb7  1  0.796989  0.659269  0.592321  1
  Yb  Yb8  1  0.874758  0.985305  0.748271  1
  Yb  Yb9  1  0.886358  0.489219  0.770075  1
  Yb  Yb10  1  0.980155  0.315517  0.960649  1
  Hg  Hg11  1  0.546298  0.238937  0.091149  1
  Hg  Hg12  1  0.599348  0.745394  0.198018  1
  Hg  Hg13  1  0.220663  0.662504  0.441963  1
  Hg  Hg14  1  0.779338  0.337495  0.558037  1
  Hg  Hg15  1  0.400653  0.254607  0.801982  1
  Hg  Hg16  1  0.453704  0.761063  0.908852  1
  Sb  Sb17  1  0.540597  0.494795  0.088033  1
  Sb  Sb18  1  0.548728  0.900421  0.097167  1
  Sb  Sb19  1  0.096465  0.236141  0.191353  1
  Sb  Sb20  1  0.155008  0.794038  0.308927  1
  Sb  Sb21  1  0.686179  0.510692  0.373992  1
  Sb  Sb22  1  0.700582  0.123151  0.402820  1
  Sb  Sb23  1  0.299418  0.876850  0.597180  1
  Sb  Sb24  1  0.313822  0.489308  0.626007  1
  Sb  Sb25  1  0.844993  0.205962  0.691073  1
  Sb  Sb26  1  0.903533  0.763859  0.808647  1
  Sb  Sb27  1  0.451272  0.099580  0.902833  1
  Sb  Sb28  1  0.459403  0.505205  0.911967  1
