# generated using pymatgen
data_Rb2TaSe3
_symmetry_space_group_name_H-M   'P 1'
_cell_length_a   8.13302047
_cell_length_b   8.13302042
_cell_length_c   10.35642018
_cell_angle_alpha   58.29827821
_cell_angle_beta   58.29827551
_cell_angle_gamma   54.92218745
_symmetry_Int_Tables_number   1
_chemical_formula_structural   Rb2TaSe3
_chemical_formula_sum   'Rb4 Ta2 Se6'
_cell_volume   451.72704422
_cell_formula_units_Z   2
loop_
 _symmetry_equiv_pos_site_id
 _symmetry_equiv_pos_as_xyz
  1  'x, y, z'
loop_
 _atom_site_type_symbol
 _atom_site_label
 _atom_site_symmetry_multiplicity
 _atom_site_fract_x
 _atom_site_fract_y
 _atom_site_fract_z
 _atom_site_occupancy
  Rb  Rb0  1  0.304229  0.304229  0.309689  1
  Rb  Rb1  1  0.695771  0.695771  0.690311  1
  Rb  Rb2  1  0.085593  0.085593  0.139487  1
  Rb  Rb3  1  0.914407  0.914407  0.860513  1
  Ta  Ta4  1  0.390808  0.390808  0.665674  1
  Ta  Ta5  1  0.609192  0.609192  0.334326  1
  Se  Se6  1  0.389996  0.389996  0.899587  1
  Se  Se7  1  0.610004  0.610004  0.100413  1
  Se  Se8  1  0.201166  0.201166  0.724557  1
  Se  Se9  1  0.798834  0.798834  0.275443  1
  Se  Se10  1  0.768292  0.231708  0.500000  1
  Se  Se11  1  0.231708  0.768292  0.500000  1
