# generated using pymatgen
data_NaCa3(InPt)4
_symmetry_space_group_name_H-M   'P 1'
_cell_length_a   4.47103900
_cell_length_b   7.34372256
_cell_length_c   8.34177882
_cell_angle_alpha   89.86847549
_cell_angle_beta   90.00000000
_cell_angle_gamma   90.00000000
_symmetry_Int_Tables_number   1
_chemical_formula_structural   NaCa3(InPt)4
_chemical_formula_sum   'Na1 Ca3 In4 Pt4'
_cell_volume   273.89382778
_cell_formula_units_Z   1
loop_
 _symmetry_equiv_pos_site_id
 _symmetry_equiv_pos_as_xyz
  1  'x, y, z'
loop_
 _atom_site_type_symbol
 _atom_site_label
 _atom_site_symmetry_multiplicity
 _atom_site_fract_x
 _atom_site_fract_y
 _atom_site_fract_z
 _atom_site_occupancy
  Na  Na0  1  0.250000  0.026419  0.322173  1
  Ca  Ca1  1  0.250000  0.528999  0.179203  1
  Ca  Ca2  1  0.750000  0.972674  0.671333  1
  Ca  Ca3  1  0.750000  0.472156  0.821749  1
  In  In4  1  0.750000  0.341740  0.432391  1
  In  In5  1  0.250000  0.149899  0.937391  1
  In  In6  1  0.750000  0.855078  0.071705  1
  In  In7  1  0.250000  0.651857  0.564593  1
  Pt  Pt8  1  0.750000  0.235441  0.115782  1
  Pt  Pt9  1  0.750000  0.719118  0.380552  1
  Pt  Pt10  1  0.250000  0.772624  0.879006  1
  Pt  Pt11  1  0.250000  0.273994  0.624121  1
