# generated using pymatgen
data_Pr3ErTh4(ZnRh)8
_symmetry_space_group_name_H-M   'P 1'
_cell_length_a   3.98769800
_cell_length_b   7.40813934
_cell_length_c   16.61723892
_cell_angle_alpha   90.52142275
_cell_angle_beta   90.00000000
_cell_angle_gamma   90.00000000
_symmetry_Int_Tables_number   1
_chemical_formula_structural   Pr3ErTh4(ZnRh)8
_chemical_formula_sum   'Pr3 Er1 Th4 Zn8 Rh8'
_cell_volume   490.87654648
_cell_formula_units_Z   1
loop_
 _symmetry_equiv_pos_site_id
 _symmetry_equiv_pos_as_xyz
  1  'x, y, z'
loop_
 _atom_site_type_symbol
 _atom_site_label
 _atom_site_symmetry_multiplicity
 _atom_site_fract_x
 _atom_site_fract_y
 _atom_site_fract_z
 _atom_site_occupancy
  Pr  Pr0  1  0.250000  0.556577  0.786497  1
  Pr  Pr1  1  0.750000  0.330389  0.440888  1
  Pr  Pr2  1  0.250000  0.677651  0.560796  1
  Er  Er3  1  0.250000  0.168365  0.940145  1
  Th  Th4  1  0.750000  0.438366  0.212863  1
  Th  Th5  1  0.750000  0.943420  0.285095  1
  Th  Th6  1  0.750000  0.825553  0.057279  1
  Th  Th7  1  0.250000  0.059353  0.717198  1
  Zn  Zn8  1  0.250000  0.003450  0.441678  1
  Zn  Zn9  1  0.750000  0.487127  0.940035  1
  Zn  Zn10  1  0.750000  0.005865  0.558434  1
  Zn  Zn11  1  0.250000  0.613248  0.348791  1
  Zn  Zn12  1  0.750000  0.389567  0.653153  1
  Zn  Zn13  1  0.750000  0.888622  0.853335  1
  Zn  Zn14  1  0.250000  0.486712  0.056505  1
  Zn  Zn15  1  0.250000  0.112511  0.149385  1
  Rh  Rh16  1  0.250000  0.246660  0.570957  1
  Rh  Rh17  1  0.750000  0.244387  0.064621  1
  Rh  Rh18  1  0.250000  0.239050  0.307015  1
  Rh  Rh19  1  0.750000  0.246484  0.812908  1
  Rh  Rh20  1  0.250000  0.753875  0.941571  1
  Rh  Rh21  1  0.750000  0.781213  0.689350  1
  Rh  Rh22  1  0.750000  0.765549  0.427556  1
  Rh  Rh23  1  0.250000  0.736007  0.183947  1
