# generated using pymatgen
data_AcPrZn4CdPb
_symmetry_space_group_name_H-M   'P 1'
_cell_length_a   8.97481780
_cell_length_b   8.97481962
_cell_length_c   9.43537100
_cell_angle_alpha   90.00000000
_cell_angle_beta   90.00000000
_cell_angle_gamma   150.12716151
_symmetry_Int_Tables_number   1
_chemical_formula_structural   AcPrZn4CdPb
_chemical_formula_sum   'Ac2 Pr2 Zn8 Cd2 Pb2'
_cell_volume   378.53548511
_cell_formula_units_Z   2
loop_
 _symmetry_equiv_pos_site_id
 _symmetry_equiv_pos_as_xyz
  1  'x, y, z'
loop_
 _atom_site_type_symbol
 _atom_site_label
 _atom_site_symmetry_multiplicity
 _atom_site_fract_x
 _atom_site_fract_y
 _atom_site_fract_z
 _atom_site_occupancy
  Ac  Ac0  1  0.000000  0.000000  0.500000  1
  Ac  Ac1  1  0.000000  0.000000  0.000000  1
  Pr  Pr2  1  0.207669  0.792331  0.250000  1
  Pr  Pr3  1  0.792331  0.207669  0.750000  1
  Zn  Zn4  1  0.811756  0.188244  0.390111  1
  Zn  Zn5  1  0.188244  0.811756  0.609889  1
  Zn  Zn6  1  0.811756  0.188244  0.109889  1
  Zn  Zn7  1  0.188244  0.811756  0.890111  1
  Zn  Zn8  1  0.666822  0.333178  0.483804  1
  Zn  Zn9  1  0.333178  0.666822  0.516196  1
  Zn  Zn10  1  0.666822  0.333178  0.016196  1
  Zn  Zn11  1  0.333178  0.666822  0.983804  1
  Cd  Cd12  1  0.396693  0.603307  0.250000  1
  Cd  Cd13  1  0.603307  0.396693  0.750000  1
  Pb  Pb14  1  0.566811  0.433189  0.250000  1
  Pb  Pb15  1  0.433189  0.566811  0.750000  1
