# generated using pymatgen
data_CeCo3P3RuRh
_symmetry_space_group_name_H-M   'P 1'
_cell_length_a   3.77949100
_cell_length_b   10.56158200
_cell_length_c   12.07875200
_cell_angle_alpha   90.00000000
_cell_angle_beta   90.00000000
_cell_angle_gamma   90.00000000
_symmetry_Int_Tables_number   1
_chemical_formula_structural   CeCo3P3RuRh
_chemical_formula_sum   'Ce4 Co12 P12 Ru4 Rh4'
_cell_volume   482.15242479
_cell_formula_units_Z   4
loop_
 _symmetry_equiv_pos_site_id
 _symmetry_equiv_pos_as_xyz
  1  'x, y, z'
loop_
 _atom_site_type_symbol
 _atom_site_label
 _atom_site_symmetry_multiplicity
 _atom_site_fract_x
 _atom_site_fract_y
 _atom_site_fract_z
 _atom_site_occupancy
  Ce  Ce0  1  0.250000  0.586344  0.709675  1
  Ce  Ce1  1  0.250000  0.913656  0.209675  1
  Ce  Ce2  1  0.750000  0.413656  0.290325  1
  Ce  Ce3  1  0.750000  0.086344  0.790325  1
  Co  Co4  1  0.250000  0.221258  0.176624  1
  Co  Co5  1  0.250000  0.278742  0.676624  1
  Co  Co6  1  0.750000  0.778742  0.823376  1
  Co  Co7  1  0.750000  0.721258  0.323376  1
  Co  Co8  1  0.250000  0.884407  0.697628  1
  Co  Co9  1  0.250000  0.615593  0.197628  1
  Co  Co10  1  0.750000  0.115593  0.302372  1
  Co  Co11  1  0.750000  0.384407  0.802372  1
  Co  Co12  1  0.250000  0.465425  0.933073  1
  Co  Co13  1  0.250000  0.034575  0.433073  1
  Co  Co14  1  0.750000  0.534575  0.066927  1
  Co  Co15  1  0.750000  0.965425  0.566927  1
  P  P16  1  0.250000  0.419775  0.109600  1
  P  P17  1  0.250000  0.080225  0.609600  1
  P  P18  1  0.750000  0.580225  0.890400  1
  P  P19  1  0.750000  0.919775  0.390400  1
  P  P20  1  0.250000  0.278841  0.863573  1
  P  P21  1  0.250000  0.221159  0.363573  1
  P  P22  1  0.750000  0.721159  0.136427  1
  P  P23  1  0.750000  0.778841  0.636427  1
  P  P24  1  0.250000  0.607285  0.381102  1
  P  P25  1  0.250000  0.892715  0.881102  1
  P  P26  1  0.750000  0.392715  0.618898  1
  P  P27  1  0.750000  0.107285  0.118898  1
  Ru  Ru28  1  0.250000  0.710021  0.986279  1
  Ru  Ru29  1  0.250000  0.789979  0.486279  1
  Ru  Ru30  1  0.750000  0.289979  0.013721  1
  Ru  Ru31  1  0.750000  0.210021  0.513721  1
  Rh  Rh32  1  0.250000  0.405805  0.482801  1
  Rh  Rh33  1  0.250000  0.094195  0.982801  1
  Rh  Rh34  1  0.750000  0.594195  0.517199  1
  Rh  Rh35  1  0.750000  0.905805  0.017199  1
