# generated using pymatgen
data_Gd2Er3Ir2
_symmetry_space_group_name_H-M   'P 1'
_cell_length_a   6.49054520
_cell_length_b   7.26370846
_cell_length_c   8.44739200
_cell_angle_alpha   97.21581355
_cell_angle_beta   112.59250218
_cell_angle_gamma   90.00000619
_symmetry_Int_Tables_number   1
_chemical_formula_structural   Gd2Er3Ir2
_chemical_formula_sum   'Gd4 Er6 Ir4'
_cell_volume   364.27526028
_cell_formula_units_Z   2
loop_
 _symmetry_equiv_pos_site_id
 _symmetry_equiv_pos_as_xyz
  1  'x, y, z'
loop_
 _atom_site_type_symbol
 _atom_site_label
 _atom_site_symmetry_multiplicity
 _atom_site_fract_x
 _atom_site_fract_y
 _atom_site_fract_z
 _atom_site_occupancy
  Gd  Gd0  1  0.975864  0.918773  0.186003  1
  Gd  Gd1  1  0.789862  0.581227  0.813997  1
  Gd  Gd2  1  0.024136  0.081227  0.813997  1
  Gd  Gd3  1  0.210138  0.418773  0.186003  1
  Er  Er4  1  0.647073  0.817329  0.440181  1
  Er  Er5  1  0.206892  0.682671  0.559819  1
  Er  Er6  1  0.352927  0.182671  0.559819  1
  Er  Er7  1  0.793108  0.317329  0.440181  1
  Er  Er8  1  0.428608  0.750000  0.000000  1
  Er  Er9  1  0.571392  0.250000  0.000000  1
  Ir  Ir10  1  0.818336  0.576102  0.224201  1
  Ir  Ir11  1  0.594135  0.923898  0.775799  1
  Ir  Ir12  1  0.181665  0.423898  0.775799  1
  Ir  Ir13  1  0.405865  0.076102  0.224201  1
