# generated using pymatgen
data_Sc4CoNi3B16
_symmetry_space_group_name_H-M   'P 1'
_cell_length_a   5.78320765
_cell_length_b   11.20630025
_cell_length_c   3.24309400
_cell_angle_alpha   90.00000000
_cell_angle_beta   90.00000000
_cell_angle_gamma   90.05426271
_symmetry_Int_Tables_number   1
_chemical_formula_structural   Sc4CoNi3B16
_chemical_formula_sum   'Sc4 Co1 Ni3 B16'
_cell_volume   210.17951360
_cell_formula_units_Z   1
loop_
 _symmetry_equiv_pos_site_id
 _symmetry_equiv_pos_as_xyz
  1  'x, y, z'
loop_
 _atom_site_type_symbol
 _atom_site_label
 _atom_site_symmetry_multiplicity
 _atom_site_fract_x
 _atom_site_fract_y
 _atom_site_fract_z
 _atom_site_occupancy
  Sc  Sc0  1  0.629695  0.350725  0.000000  1
  Sc  Sc1  1  0.371934  0.649682  0.000000  1
  Sc  Sc2  1  0.126206  0.150819  0.000000  1
  Sc  Sc3  1  0.872572  0.848813  0.000000  1
  Co  Co4  1  0.865798  0.588336  0.000000  1
  Ni  Ni5  1  0.633826  0.088319  0.000000  1
  Ni  Ni6  1  0.364566  0.909959  0.000000  1
  Ni  Ni7  1  0.139113  0.410667  0.000000  1
  B  B8  1  0.789435  0.186793  0.500000  1
  B  B9  1  0.209949  0.813198  0.500000  1
  B  B10  1  0.288763  0.313350  0.500000  1
  B  B11  1  0.711267  0.685969  0.500000  1
  B  B12  1  0.866207  0.032499  0.500000  1
  B  B13  1  0.133621  0.967489  0.500000  1
  B  B14  1  0.367187  0.468214  0.500000  1
  B  B15  1  0.634100  0.532944  0.500000  1
  B  B16  1  0.884190  0.452878  0.500000  1
  B  B17  1  0.114278  0.549059  0.500000  1
  B  B18  1  0.383710  0.049235  0.500000  1
  B  B19  1  0.615365  0.950959  0.500000  1
  B  B20  1  0.978054  0.306385  0.500000  1
  B  B21  1  0.019959  0.693494  0.500000  1
  B  B22  1  0.478981  0.194437  0.500000  1
  B  B23  1  0.521227  0.805776  0.500000  1
