# generated using pymatgen
data_NdTh7(Nb3Si4)4
_symmetry_space_group_name_H-M   'P 1'
_cell_length_a   7.20220715
_cell_length_b   7.20034521
_cell_length_c   13.37991747
_cell_angle_alpha   90.02404246
_cell_angle_beta   90.01873310
_cell_angle_gamma   89.98643247
_symmetry_Int_Tables_number   1
_chemical_formula_structural   NdTh7(Nb3Si4)4
_chemical_formula_sum   'Nd1 Th7 Nb12 Si16'
_cell_volume   693.86069662
_cell_formula_units_Z   1
loop_
 _symmetry_equiv_pos_site_id
 _symmetry_equiv_pos_as_xyz
  1  'x, y, z'
loop_
 _atom_site_type_symbol
 _atom_site_label
 _atom_site_symmetry_multiplicity
 _atom_site_fract_x
 _atom_site_fract_y
 _atom_site_fract_z
 _atom_site_occupancy
  Nd  Nd0  1  0.660420  0.001539  0.282548  1
  Th  Th1  1  0.998407  0.339096  0.217823  1
  Th  Th2  1  0.001418  0.660920  0.717855  1
  Th  Th3  1  0.160964  0.498065  0.467186  1
  Th  Th4  1  0.501960  0.838990  0.032868  1
  Th  Th5  1  0.838823  0.501400  0.968147  1
  Th  Th6  1  0.498422  0.160890  0.532228  1
  Th  Th7  1  0.339098  0.998679  0.782391  1
  Nb  Nb8  1  0.169915  0.169783  0.000415  1
  Nb  Nb9  1  0.830331  0.829906  0.500498  1
  Nb  Nb10  1  0.328668  0.667912  0.249686  1
  Nb  Nb11  1  0.669641  0.330185  0.750004  1
  Nb  Nb12  1  0.158133  0.994800  0.374529  1
  Nb  Nb13  1  0.841561  0.005023  0.874062  1
  Nb  Nb14  1  0.505119  0.658172  0.623826  1
  Nb  Nb15  1  0.342094  0.494840  0.875787  1
  Nb  Nb16  1  0.494420  0.343790  0.123872  1
  Nb  Nb17  1  0.657397  0.506269  0.375919  1
  Nb  Nb18  1  0.994780  0.157849  0.625312  1
  Nb  Nb19  1  0.007055  0.841704  0.125370  1
  Si  Si20  1  0.289597  0.042359  0.187449  1
  Si  Si21  1  0.712309  0.957610  0.686163  1
  Si  Si22  1  0.457761  0.788621  0.435206  1
  Si  Si23  1  0.211785  0.542200  0.063799  1
  Si  Si24  1  0.542285  0.212096  0.936683  1
  Si  Si25  1  0.787963  0.457393  0.563391  1
  Si  Si26  1  0.042090  0.287594  0.813774  1
  Si  Si27  1  0.956222  0.713850  0.313395  1
  Si  Si28  1  0.375082  0.297615  0.313495  1
  Si  Si29  1  0.625663  0.701105  0.813872  1
  Si  Si30  1  0.201742  0.873904  0.563561  1
  Si  Si31  1  0.126128  0.798472  0.936285  1
  Si  Si32  1  0.799378  0.125253  0.063933  1
  Si  Si33  1  0.873273  0.200188  0.435413  1
  Si  Si34  1  0.298607  0.374231  0.686114  1
  Si  Si35  1  0.701491  0.627696  0.187140  1
