# generated using pymatgen
data_CsInCoF6
_symmetry_space_group_name_H-M   'P 1'
_cell_length_a   7.74687101
_cell_length_b   7.74687111
_cell_length_c   7.74687135
_cell_angle_alpha   121.94399618
_cell_angle_beta   118.83501015
_cell_angle_gamma   89.34801291
_symmetry_Int_Tables_number   1
_chemical_formula_structural   CsInCoF6
_chemical_formula_sum   'Cs2 In2 Co2 F12'
_cell_volume   326.48525568
_cell_formula_units_Z   2
loop_
 _symmetry_equiv_pos_site_id
 _symmetry_equiv_pos_as_xyz
  1  'x, y, z'
loop_
 _atom_site_type_symbol
 _atom_site_label
 _atom_site_symmetry_multiplicity
 _atom_site_fract_x
 _atom_site_fract_y
 _atom_site_fract_z
 _atom_site_occupancy
  Cs  Cs0  1  0.652463  0.902463  0.750000  1
  Cs  Cs1  1  0.347537  0.097537  0.250000  1
  In  In2  1  0.500000  0.500000  0.000000  1
  In  In3  1  0.000000  0.500000  0.500000  1
  Co  Co4  1  0.000000  0.500000  0.000000  1
  Co  Co5  1  0.000000  0.000000  0.500000  1
  F  F6  1  0.060805  0.810805  0.250000  1
  F  F7  1  0.671041  0.421041  0.250000  1
  F  F8  1  0.058457  0.824554  0.642430  1
  F  F9  1  0.682124  0.416026  0.857570  1
  F  F10  1  0.682124  0.824554  0.266098  1
  F  F11  1  0.058457  0.416026  0.233902  1
  F  F12  1  0.939195  0.189195  0.750000  1
  F  F13  1  0.328959  0.578959  0.750000  1
  F  F14  1  0.941543  0.175446  0.357570  1
  F  F15  1  0.317876  0.583974  0.142430  1
  F  F16  1  0.317876  0.175446  0.733902  1
  F  F17  1  0.941543  0.583974  0.766098  1
