# generated using pymatgen
data_Ce5Ho11Cd2(HgRu2)2
_symmetry_space_group_name_H-M   'P 1'
_cell_length_a   9.47235720
_cell_length_b   9.60485809
_cell_length_c   9.60485870
_cell_angle_alpha   60.09893593
_cell_angle_beta   60.45530068
_cell_angle_gamma   60.45530392
_symmetry_Int_Tables_number   1
_chemical_formula_structural   Ce5Ho11Cd2(HgRu2)2
_chemical_formula_sum   'Ce5 Ho11 Cd2 Hg2 Ru4'
_cell_volume   622.59812582
_cell_formula_units_Z   1
loop_
 _symmetry_equiv_pos_site_id
 _symmetry_equiv_pos_as_xyz
  1  'x, y, z'
loop_
 _atom_site_type_symbol
 _atom_site_label
 _atom_site_symmetry_multiplicity
 _atom_site_fract_x
 _atom_site_fract_y
 _atom_site_fract_z
 _atom_site_occupancy
  Ce  Ce0  1  0.813184  0.186816  0.186816  1
  Ce  Ce1  1  0.346946  0.346724  0.959384  1
  Ce  Ce2  1  0.346946  0.959384  0.346724  1
  Ce  Ce3  1  0.955092  0.350658  0.350658  1
  Ce  Ce4  1  0.343595  0.350658  0.350658  1
  Ho  Ho5  1  0.561348  0.561579  0.937954  1
  Ho  Ho6  1  0.939118  0.561579  0.937954  1
  Ho  Ho7  1  0.565302  0.934698  0.934698  1
  Ho  Ho8  1  0.939118  0.937954  0.561579  1
  Ho  Ho9  1  0.561348  0.937954  0.561579  1
  Ho  Ho10  1  0.934212  0.565788  0.565788  1
  Ho  Ho11  1  0.192168  0.187466  0.808291  1
  Ho  Ho12  1  0.812074  0.187466  0.808291  1
  Ho  Ho13  1  0.187632  0.812368  0.812367  1
  Ho  Ho14  1  0.812074  0.808292  0.187466  1
  Ho  Ho15  1  0.192167  0.808291  0.187465  1
  Cd  Cd16  1  0.257836  0.580890  0.580890  1
  Cd  Cd17  1  0.580382  0.580890  0.580890  1
  Hg  Hg18  1  0.583629  0.589770  0.242969  1
  Hg  Hg19  1  0.583629  0.242969  0.589770  1
  Ru  Ru20  1  0.148035  0.140665  0.563264  1
  Ru  Ru21  1  0.148035  0.563264  0.140665  1
  Ru  Ru22  1  0.583178  0.151938  0.151938  1
  Ru  Ru23  1  0.112948  0.151938  0.151938  1
