# generated using pymatgen
data_Tb(TmCu6)2
_symmetry_space_group_name_H-M   'P 1'
_cell_length_a   4.99614955
_cell_length_b   4.99614923
_cell_length_c   10.54867648
_cell_angle_alpha   94.87437792
_cell_angle_beta   94.87438846
_cell_angle_gamma   119.68183867
_symmetry_Int_Tables_number   1
_chemical_formula_structural   Tb(TmCu6)2
_chemical_formula_sum   'Tb1 Tm2 Cu12'
_cell_volume   225.46586683
_cell_formula_units_Z   1
loop_
 _symmetry_equiv_pos_site_id
 _symmetry_equiv_pos_as_xyz
  1  'x, y, z'
loop_
 _atom_site_type_symbol
 _atom_site_label
 _atom_site_symmetry_multiplicity
 _atom_site_fract_x
 _atom_site_fract_y
 _atom_site_fract_z
 _atom_site_occupancy
  Tb  Tb0  1  0.000000  0.000000  0.000000  1
  Tm  Tm1  1  0.133849  0.133849  0.358624  1
  Tm  Tm2  1  0.866151  0.866151  0.641376  1
  Cu  Cu3  1  0.663344  0.336657  0.000000  1
  Cu  Cu4  1  0.336657  0.663344  0.000000  1
  Cu  Cu5  1  0.568767  0.067431  0.196924  1
  Cu  Cu6  1  0.067431  0.568767  0.196924  1
  Cu  Cu7  1  0.570062  0.570062  0.202623  1
  Cu  Cu8  1  0.807586  0.471699  0.405886  1
  Cu  Cu9  1  0.471699  0.807586  0.405886  1
  Cu  Cu10  1  0.528303  0.192415  0.594114  1
  Cu  Cu11  1  0.192415  0.528303  0.594114  1
  Cu  Cu12  1  0.429937  0.429937  0.797377  1
  Cu  Cu13  1  0.932568  0.431232  0.803077  1
  Cu  Cu14  1  0.431232  0.932568  0.803077  1
