# generated using pymatgen
data_Th2CoBI2
_symmetry_space_group_name_H-M   'P 1'
_cell_length_a   3.98075700
_cell_length_b   3.98075789
_cell_length_c   11.79367500
_cell_angle_alpha   90.00000000
_cell_angle_beta   90.00000000
_cell_angle_gamma   119.99998433
_symmetry_Int_Tables_number   1
_chemical_formula_structural   Th2CoBI2
_chemical_formula_sum   'Th2 Co1 B1 I2'
_cell_volume   161.84947223
_cell_formula_units_Z   1
loop_
 _symmetry_equiv_pos_site_id
 _symmetry_equiv_pos_as_xyz
  1  'x, y, z'
loop_
 _atom_site_type_symbol
 _atom_site_label
 _atom_site_symmetry_multiplicity
 _atom_site_fract_x
 _atom_site_fract_y
 _atom_site_fract_z
 _atom_site_occupancy
  Th  Th0  1  0.000000  0.000000  0.139933  1
  Th  Th1  1  0.000000  0.000000  0.857757  1
  Co  Co2  1  0.333333  0.666667  0.004116  1
  B  B3  1  0.666667  0.333333  0.995451  1
  I  I4  1  0.333333  0.666667  0.657833  1
  I  I5  1  0.666667  0.333333  0.344911  1
