# generated using pymatgen
data_Y15TmIn3HgRh4
_symmetry_space_group_name_H-M   'P 1'
_cell_length_a   9.66777536
_cell_length_b   9.66777588
_cell_length_c   9.66777474
_cell_angle_alpha   59.97194227
_cell_angle_beta   59.97193963
_cell_angle_gamma   59.97194227
_symmetry_Int_Tables_number   1
_chemical_formula_structural   Y15TmIn3HgRh4
_chemical_formula_sum   'Y15 Tm1 In3 Hg1 Rh4'
_cell_volume   638.54018387
_cell_formula_units_Z   1
loop_
 _symmetry_equiv_pos_site_id
 _symmetry_equiv_pos_as_xyz
  1  'x, y, z'
loop_
 _atom_site_type_symbol
 _atom_site_label
 _atom_site_symmetry_multiplicity
 _atom_site_fract_x
 _atom_site_fract_y
 _atom_site_fract_z
 _atom_site_occupancy
  Y  Y0  1  0.061632  0.061632  0.438377  1
  Y  Y1  1  0.437250  0.064511  0.437250  1
  Y  Y2  1  0.061632  0.438377  0.061632  1
  Y  Y3  1  0.052636  0.647914  0.647914  1
  Y  Y4  1  0.437250  0.437250  0.064511  1
  Y  Y5  1  0.647914  0.052636  0.647914  1
  Y  Y6  1  0.189255  0.812982  0.189255  1
  Y  Y7  1  0.189255  0.189255  0.812982  1
  Y  Y8  1  0.809698  0.809698  0.191549  1
  Y  Y9  1  0.438377  0.061632  0.061632  1
  Y  Y10  1  0.812982  0.189255  0.189255  1
  Y  Y11  1  0.064511  0.437250  0.437250  1
  Y  Y12  1  0.809698  0.191549  0.809698  1
  Y  Y13  1  0.191549  0.809698  0.809698  1
  Y  Y14  1  0.647914  0.647914  0.052636  1
  Tm  Tm15  1  0.652131  0.652131  0.652131  1
  In  In16  1  0.748452  0.417475  0.417475  1
  In  In17  1  0.417475  0.748452  0.417475  1
  In  In18  1  0.417475  0.417475  0.748452  1
  Hg  Hg19  1  0.413795  0.413795  0.413795  1
  Rh  Rh20  1  0.856872  0.856872  0.428475  1
  Rh  Rh21  1  0.856896  0.856896  0.856896  1
  Rh  Rh22  1  0.428475  0.856872  0.856872  1
  Rh  Rh23  1  0.856872  0.428475  0.856872  1
