# generated using pymatgen
data_Ti4Re15Tc9Sn
_symmetry_space_group_name_H-M   'P 1'
_cell_length_a   8.37135415
_cell_length_b   8.37135260
_cell_length_c   8.37135336
_cell_angle_alpha   109.50381945
_cell_angle_beta   109.50382286
_cell_angle_gamma   109.50383909
_symmetry_Int_Tables_number   1
_chemical_formula_structural   Ti4Re15Tc9Sn
_chemical_formula_sum   'Ti4 Re15 Tc9 Sn1'
_cell_volume   451.06562627
_cell_formula_units_Z   1
loop_
 _symmetry_equiv_pos_site_id
 _symmetry_equiv_pos_as_xyz
  1  'x, y, z'
loop_
 _atom_site_type_symbol
 _atom_site_label
 _atom_site_symmetry_multiplicity
 _atom_site_fract_x
 _atom_site_fract_y
 _atom_site_fract_z
 _atom_site_occupancy
  Ti  Ti0  1  0.630957  0.999956  0.999956  1
  Ti  Ti1  1  0.999956  0.630957  0.999956  1
  Ti  Ti2  1  0.999956  0.999956  0.630957  1
  Ti  Ti3  1  0.368396  0.368396  0.368396  1
  Re  Re4  1  0.601753  0.601753  0.281961  1
  Re  Re5  1  0.281961  0.601753  0.601753  1
  Re  Re6  1  0.601753  0.281961  0.601753  1
  Re  Re7  1  0.377599  0.195290  0.000314  1
  Re  Re8  1  0.182370  0.805179  0.805179  1
  Re  Re9  1  0.377599  0.000314  0.195290  1
  Re  Re10  1  0.195290  0.377599  0.000314  1
  Re  Re11  1  0.000314  0.377599  0.195290  1
  Re  Re12  1  0.805179  0.182370  0.805179  1
  Re  Re13  1  0.805179  0.805179  0.182370  1
  Re  Re14  1  0.000314  0.195290  0.377599  1
  Re  Re15  1  0.195290  0.000314  0.377599  1
  Re  Re16  1  0.622165  0.622165  0.816699  1
  Re  Re17  1  0.816699  0.622165  0.622165  1
  Re  Re18  1  0.622165  0.816699  0.622165  1
  Tc  Tc19  1  0.398447  0.680733  0.000320  1
  Tc  Tc20  1  0.717973  0.319137  0.319137  1
  Tc  Tc21  1  0.398447  0.000320  0.680733  1
  Tc  Tc22  1  0.680733  0.398447  0.000320  1
  Tc  Tc23  1  0.000320  0.398447  0.680733  1
  Tc  Tc24  1  0.319137  0.717973  0.319137  1
  Tc  Tc25  1  0.319137  0.319137  0.717973  1
  Tc  Tc26  1  0.000320  0.680733  0.398447  1
  Tc  Tc27  1  0.680733  0.000320  0.398447  1
  Sn  Sn28  1  0.999860  0.999860  0.999860  1
