# generated using pymatgen
data_Er3Bi3(SbO7)2
_symmetry_space_group_name_H-M   'P 1'
_cell_length_a   6.45548821
_cell_length_b   6.66081710
_cell_length_c   7.59673752
_cell_angle_alpha   106.58151070
_cell_angle_beta   89.63013936
_cell_angle_gamma   98.58996980
_symmetry_Int_Tables_number   1
_chemical_formula_structural   Er3Bi3(SbO7)2
_chemical_formula_sum   'Er3 Bi3 Sb2 O14'
_cell_volume   309.32956441
_cell_formula_units_Z   1
loop_
 _symmetry_equiv_pos_site_id
 _symmetry_equiv_pos_as_xyz
  1  'x, y, z'
loop_
 _atom_site_type_symbol
 _atom_site_label
 _atom_site_symmetry_multiplicity
 _atom_site_fract_x
 _atom_site_fract_y
 _atom_site_fract_z
 _atom_site_occupancy
  Er  Er0  1  0.542568  0.995432  0.752007  1
  Er  Er1  1  0.459813  0.001808  0.251578  1
  Er  Er2  1  0.257900  0.532311  0.883150  1
  Bi  Bi3  1  0.741163  0.480550  0.115982  1
  Bi  Bi4  1  0.728205  0.465371  0.614893  1
  Bi  Bi5  1  0.259400  0.527467  0.387469  1
  Sb  Sb6  1  0.003024  0.007358  0.502528  1
  Sb  Sb7  1  0.004989  0.001029  0.999196  1
  O  O8  1  0.443486  0.651884  0.163625  1
  O  O9  1  0.539997  0.343380  0.825076  1
  O  O10  1  0.295836  0.931597  0.953344  1
  O  O11  1  0.708648  0.041989  0.046958  1
  O  O12  1  0.291401  0.931848  0.515677  1
  O  O13  1  0.710953  0.075277  0.487581  1
  O  O14  1  0.529695  0.351372  0.346413  1
  O  O15  1  0.454060  0.646295  0.661800  1
  O  O16  1  0.939001  0.679867  0.952821  1
  O  O17  1  0.087417  0.312266  0.034293  1
  O  O18  1  0.094110  0.317939  0.622172  1
  O  O19  1  0.904506  0.697785  0.382183  1
  O  O20  1  0.898317  0.945620  0.736190  1
  O  O21  1  0.105512  0.061556  0.265061  1
