# generated using pymatgen
data_KBaTaO4
_symmetry_space_group_name_H-M   'P 1'
_cell_length_a   6.35006800
_cell_length_b   7.98709300
_cell_length_c   10.80064200
_cell_angle_alpha   90.00000000
_cell_angle_beta   90.00000000
_cell_angle_gamma   90.00000000
_symmetry_Int_Tables_number   1
_chemical_formula_structural   KBaTaO4
_chemical_formula_sum   'K4 Ba4 Ta4 O16'
_cell_volume   547.79326499
_cell_formula_units_Z   4
loop_
 _symmetry_equiv_pos_site_id
 _symmetry_equiv_pos_as_xyz
  1  'x, y, z'
loop_
 _atom_site_type_symbol
 _atom_site_label
 _atom_site_symmetry_multiplicity
 _atom_site_fract_x
 _atom_site_fract_y
 _atom_site_fract_z
 _atom_site_occupancy
  K  K0  1  0.474819  0.077594  0.570428  1
  K  K1  1  0.525181  0.577594  0.929572  1
  K  K2  1  0.025181  0.922406  0.070428  1
  K  K3  1  0.974819  0.422406  0.429572  1
  Ba  Ba4  1  0.981458  0.250874  0.793698  1
  Ba  Ba5  1  0.481458  0.249126  0.206302  1
  Ba  Ba6  1  0.518542  0.749126  0.293698  1
  Ba  Ba7  1  0.018542  0.750874  0.706302  1
  Ta  Ta8  1  0.486446  0.527814  0.584033  1
  Ta  Ta9  1  0.013554  0.472186  0.084033  1
  Ta  Ta10  1  0.986446  0.972186  0.415967  1
  Ta  Ta11  1  0.513554  0.027814  0.915967  1
  O  O12  1  0.502621  0.926717  0.072431  1
  O  O13  1  0.244720  0.553730  0.172573  1
  O  O14  1  0.255280  0.446270  0.672573  1
  O  O15  1  0.066881  0.245755  0.059179  1
  O  O16  1  0.744720  0.946270  0.827427  1
  O  O17  1  0.566881  0.254245  0.940821  1
  O  O18  1  0.761152  0.512416  0.170127  1
  O  O19  1  0.261152  0.987584  0.829873  1
  O  O20  1  0.997379  0.073283  0.572431  1
  O  O21  1  0.755280  0.053730  0.327427  1
  O  O22  1  0.002621  0.573283  0.927569  1
  O  O23  1  0.497379  0.426717  0.427569  1
  O  O24  1  0.238848  0.012416  0.329873  1
  O  O25  1  0.433119  0.754245  0.559179  1
  O  O26  1  0.738848  0.487584  0.670127  1
  O  O27  1  0.933119  0.745755  0.440821  1
