# generated using pymatgen
data_Ac4Ga10IrPt5
_symmetry_space_group_name_H-M   'P 1'
_cell_length_a   8.92987685
_cell_length_b   8.91781118
_cell_length_c   8.91781100
_cell_angle_alpha   140.54340942
_cell_angle_beta   107.36408160
_cell_angle_gamma   85.93680181
_symmetry_Int_Tables_number   1
_chemical_formula_structural   Ac4Ga10IrPt5
_chemical_formula_sum   'Ac4 Ga10 Ir1 Pt5'
_cell_volume   415.56641646
_cell_formula_units_Z   1
loop_
 _symmetry_equiv_pos_site_id
 _symmetry_equiv_pos_as_xyz
  1  'x, y, z'
loop_
 _atom_site_type_symbol
 _atom_site_label
 _atom_site_symmetry_multiplicity
 _atom_site_fract_x
 _atom_site_fract_y
 _atom_site_fract_z
 _atom_site_occupancy
  Ac  Ac0  1  0.859340  0.633528  0.225811  1
  Ac  Ac1  1  0.138089  0.365590  0.772501  1
  Ac  Ac2  1  0.408804  0.133943  0.274863  1
  Ac  Ac3  1  0.591299  0.866117  0.725180  1
  Ga  Ga4  1  0.497661  0.746734  0.242520  1
  Ga  Ga5  1  0.497661  0.255141  0.750927  1
  Ga  Ga6  1  0.218903  0.967084  0.749207  1
  Ga  Ga7  1  0.777242  0.530545  0.748337  1
  Ga  Ga8  1  0.777242  0.028905  0.246698  1
  Ga  Ga9  1  0.218903  0.469697  0.251820  1
  Ga  Ga10  1  0.050060  0.898786  0.151275  1
  Ga  Ga11  1  0.950064  0.101347  0.848717  1
  Ga  Ga12  1  0.747191  0.399150  0.348041  1
  Ga  Ga13  1  0.261643  0.601963  0.659679  1
  Ir  Ir14  1  0.537594  0.641962  0.895631  1
  Pt  Pt15  1  0.002824  0.749340  0.749681  1
  Pt  Pt16  1  0.002824  0.253143  0.253484  1
  Pt  Pt17  1  0.250993  0.858544  0.392450  1
  Pt  Pt18  1  0.747031  0.139721  0.607308  1
  Pt  Pt19  1  0.464627  0.358760  0.105868  1
