# generated using pymatgen
data_Dy8Re12Si15Ge
_symmetry_space_group_name_H-M   'P 1'
_cell_length_a   6.79578406
_cell_length_b   6.79050754
_cell_length_c   12.78928239
_cell_angle_alpha   90.07615901
_cell_angle_beta   89.90229985
_cell_angle_gamma   90.14507002
_symmetry_Int_Tables_number   1
_chemical_formula_structural   Dy8Re12Si15Ge
_chemical_formula_sum   'Dy8 Re12 Si15 Ge1'
_cell_volume   590.18148125
_cell_formula_units_Z   1
loop_
 _symmetry_equiv_pos_site_id
 _symmetry_equiv_pos_as_xyz
  1  'x, y, z'
loop_
 _atom_site_type_symbol
 _atom_site_label
 _atom_site_symmetry_multiplicity
 _atom_site_fract_x
 _atom_site_fract_y
 _atom_site_fract_z
 _atom_site_occupancy
  Dy  Dy0  1  0.006714  0.661990  0.031056  1
  Dy  Dy1  1  0.993569  0.338233  0.531844  1
  Dy  Dy2  1  0.338935  0.993909  0.469013  1
  Dy  Dy3  1  0.162277  0.493095  0.781475  1
  Dy  Dy4  1  0.836623  0.505579  0.279996  1
  Dy  Dy5  1  0.493129  0.162711  0.218390  1
  Dy  Dy6  1  0.507405  0.838849  0.719047  1
  Dy  Dy7  1  0.661530  0.006675  0.968640  1
  Re  Re8  1  0.660165  0.666731  0.501459  1
  Re  Re9  1  0.167092  0.836590  0.246504  1
  Re  Re10  1  0.334394  0.334753  0.000234  1
  Re  Re11  1  0.020426  0.812961  0.634036  1
  Re  Re12  1  0.980485  0.184644  0.130353  1
  Re  Re13  1  0.809532  0.024985  0.367641  1
  Re  Re14  1  0.318804  0.479194  0.379430  1
  Re  Re15  1  0.685083  0.519661  0.881715  1
  Re  Re16  1  0.482106  0.312827  0.619361  1
  Re  Re17  1  0.519814  0.683920  0.118648  1
  Re  Re18  1  0.184201  0.981136  0.869918  1
  Re  Re19  1  0.835180  0.165478  0.750594  1
  Si  Si20  1  0.614455  0.304925  0.434839  1
  Si  Si21  1  0.384720  0.695356  0.934896  1
  Si  Si22  1  0.195568  0.114259  0.684954  1
  Si  Si23  1  0.307110  0.613068  0.566663  1
  Si  Si24  1  0.695321  0.384217  0.064938  1
  Si  Si25  1  0.804366  0.884713  0.184413  1
  Si  Si26  1  0.114616  0.195059  0.315229  1
  Si  Si27  1  0.979471  0.273630  0.938088  1
  Si  Si28  1  0.730230  0.018843  0.561533  1
  Si  Si29  1  0.226590  0.479313  0.187670  1
  Si  Si30  1  0.772134  0.519283  0.689162  1
  Si  Si31  1  0.480466  0.227703  0.812012  1
  Si  Si32  1  0.519699  0.774136  0.311332  1
  Si  Si33  1  0.273940  0.979504  0.062067  1
  Si  Si34  1  0.884535  0.804199  0.816064  1
  Ge  Ge35  1  0.019311  0.727871  0.436787  1
