# generated using pymatgen
data_Tm3Sc5(MnB6)4
_symmetry_space_group_name_H-M   'P 1'
_cell_length_a   3.39254400
_cell_length_b   8.88830106
_cell_length_c   11.23632000
_cell_angle_alpha   89.99325294
_cell_angle_beta   90.00000000
_cell_angle_gamma   90.00000000
_symmetry_Int_Tables_number   1
_chemical_formula_structural   Tm3Sc5(MnB6)4
_chemical_formula_sum   'Tm3 Sc5 Mn4 B24'
_cell_volume   338.81945652
_cell_formula_units_Z   1
loop_
 _symmetry_equiv_pos_site_id
 _symmetry_equiv_pos_as_xyz
  1  'x, y, z'
loop_
 _atom_site_type_symbol
 _atom_site_label
 _atom_site_symmetry_multiplicity
 _atom_site_fract_x
 _atom_site_fract_y
 _atom_site_fract_z
 _atom_site_occupancy
  Tm  Tm0  1  0.000000  0.822015  0.086021  1
  Tm  Tm1  1  0.000000  0.178086  0.915087  1
  Tm  Tm2  1  0.000000  0.322465  0.414478  1
  Sc  Sc3  1  0.000000  0.678421  0.584293  1
  Sc  Sc4  1  0.000000  0.443377  0.130902  1
  Sc  Sc5  1  0.000000  0.557017  0.869192  1
  Sc  Sc6  1  0.000000  0.942488  0.370346  1
  Sc  Sc7  1  0.000000  0.055781  0.629483  1
  Mn  Mn8  1  0.000000  0.140163  0.181847  1
  Mn  Mn9  1  0.000000  0.859052  0.817113  1
  Mn  Mn10  1  0.000000  0.640243  0.320192  1
  Mn  Mn11  1  0.000000  0.361135  0.680741  1
  B  B12  1  0.500000  0.054417  0.068207  1
  B  B13  1  0.500000  0.945478  0.931977  1
  B  B14  1  0.500000  0.555401  0.433912  1
  B  B15  1  0.500000  0.447650  0.567042  1
  B  B16  1  0.500000  0.251310  0.082783  1
  B  B17  1  0.500000  0.748073  0.917267  1
  B  B18  1  0.500000  0.750853  0.419985  1
  B  B19  1  0.500000  0.248658  0.581703  1
  B  B20  1  0.500000  0.292956  0.235557  1
  B  B21  1  0.500000  0.705979  0.762555  1
  B  B22  1  0.500000  0.792766  0.266056  1
  B  B23  1  0.500000  0.206795  0.734968  1
  B  B24  1  0.500000  0.129407  0.316158  1
  B  B25  1  0.500000  0.868697  0.681895  1
  B  B26  1  0.500000  0.629773  0.184755  1
  B  B27  1  0.500000  0.370981  0.815999  1
  B  B28  1  0.500000  0.483119  0.287850  1
  B  B29  1  0.500000  0.519663  0.711617  1
  B  B30  1  0.500000  0.982505  0.213511  1
  B  B31  1  0.500000  0.017366  0.786082  1
  B  B32  1  0.500000  0.097960  0.473249  1
  B  B33  1  0.500000  0.899570  0.527058  1
  B  B34  1  0.500000  0.598229  0.026763  1
  B  B35  1  0.500000  0.402156  0.973357  1
