# generated using pymatgen
data_Lu6Al24Fe5Cu3
_symmetry_space_group_name_H-M   'P 1'
_cell_length_a   8.69879307
_cell_length_b   8.66507067
_cell_length_c   9.27108600
_cell_angle_alpha   90.02297102
_cell_angle_beta   90.00729141
_cell_angle_gamma   119.64295564
_symmetry_Int_Tables_number   1
_chemical_formula_structural   Lu6Al24Fe5Cu3
_chemical_formula_sum   'Lu6 Al24 Fe5 Cu3'
_cell_volume   607.35635488
_cell_formula_units_Z   1
loop_
 _symmetry_equiv_pos_site_id
 _symmetry_equiv_pos_as_xyz
  1  'x, y, z'
loop_
 _atom_site_type_symbol
 _atom_site_label
 _atom_site_symmetry_multiplicity
 _atom_site_fract_x
 _atom_site_fract_y
 _atom_site_fract_z
 _atom_site_occupancy
  Lu  Lu0  1  0.191209  0.389102  0.253096  1
  Lu  Lu1  1  0.808791  0.610898  0.746904  1
  Lu  Lu2  1  0.612769  0.808089  0.248754  1
  Lu  Lu3  1  0.387231  0.191911  0.751246  1
  Lu  Lu4  1  0.193880  0.802761  0.249654  1
  Lu  Lu5  1  0.806120  0.197239  0.750346  1
  Al  Al6  1  0.324105  0.661684  0.021320  1
  Al  Al7  1  0.675895  0.338316  0.978680  1
  Al  Al8  1  0.670304  0.328558  0.521405  1
  Al  Al9  1  0.329696  0.671442  0.478595  1
  Al  Al10  1  0.152604  0.320890  0.575536  1
  Al  Al11  1  0.847396  0.679110  0.424464  1
  Al  Al12  1  0.680453  0.848756  0.573728  1
  Al  Al13  1  0.847713  0.680142  0.076751  1
  Al  Al14  1  0.319547  0.151244  0.426272  1
  Al  Al15  1  0.152287  0.319858  0.923249  1
  Al  Al16  1  0.161842  0.838109  0.575039  1
  Al  Al17  1  0.315592  0.158346  0.079727  1
  Al  Al18  1  0.838158  0.161891  0.424961  1
  Al  Al19  1  0.684408  0.841654  0.920273  1
  Al  Al20  1  0.846834  0.168034  0.078912  1
  Al  Al21  1  0.153166  0.831966  0.921088  1
  Al  Al22  1  0.560318  0.120763  0.256261  1
  Al  Al23  1  0.439682  0.879237  0.743739  1
  Al  Al24  1  0.883484  0.441841  0.250093  1
  Al  Al25  1  0.116516  0.558159  0.749907  1
  Al  Al26  1  0.561560  0.437960  0.250306  1
  Al  Al27  1  0.438440  0.562040  0.749694  1
  Al  Al28  1  0.997862  0.999748  0.250610  1
  Al  Al29  1  0.002138  0.000252  0.749390  1
  Fe  Fe30  1  0.000000  0.500000  0.000000  1
  Fe  Fe31  1  0.500000  0.000000  0.500000  1
  Fe  Fe32  1  0.000000  0.500000  0.500000  1
  Fe  Fe33  1  0.000000  0.000000  0.000000  1
  Fe  Fe34  1  0.000000  0.000000  0.500000  1
  Cu  Cu35  1  0.500000  0.000000  0.000000  1
  Cu  Cu36  1  0.500000  0.500000  0.000000  1
  Cu  Cu37  1  0.500000  0.500000  0.500000  1
