# generated using pymatgen
data_La3Pr3(ScBi5)2
_symmetry_space_group_name_H-M   'P 1'
_cell_length_a   9.82358101
_cell_length_b   9.82577090
_cell_length_c   6.61351900
_cell_angle_alpha   89.99793716
_cell_angle_beta   90.00412659
_cell_angle_gamma   119.99263107
_symmetry_Int_Tables_number   1
_chemical_formula_structural   La3Pr3(ScBi5)2
_chemical_formula_sum   'La3 Pr3 Sc2 Bi10'
_cell_volume   552.88135524
_cell_formula_units_Z   1
loop_
 _symmetry_equiv_pos_site_id
 _symmetry_equiv_pos_as_xyz
  1  'x, y, z'
loop_
 _atom_site_type_symbol
 _atom_site_label
 _atom_site_symmetry_multiplicity
 _atom_site_fract_x
 _atom_site_fract_y
 _atom_site_fract_z
 _atom_site_occupancy
  La  La0  1  0.617629  0.617689  0.750069  1
  La  La1  1  0.618140  0.000000  0.250293  1
  La  La2  1  0.999940  0.382311  0.750069  1
  Pr  Pr3  1  0.999788  0.618956  0.249844  1
  Pr  Pr4  1  0.380832  0.381044  0.249844  1
  Pr  Pr5  1  0.381668  0.000000  0.749907  1
  Sc  Sc6  1  0.000400  0.000000  0.999951  1
  Sc  Sc7  1  0.000503  0.000000  0.499928  1
  Bi  Bi8  1  0.001788  0.261861  0.249992  1
  Bi  Bi9  1  0.331978  0.666710  0.499109  1
  Bi  Bi10  1  0.665255  0.333257  0.000893  1
  Bi  Bi11  1  0.331997  0.666743  0.000893  1
  Bi  Bi12  1  0.261754  0.259850  0.749949  1
  Bi  Bi13  1  0.739785  0.000000  0.750164  1
  Bi  Bi14  1  0.001904  0.740150  0.749949  1
  Bi  Bi15  1  0.739928  0.738139  0.249992  1
  Bi  Bi16  1  0.261442  0.000000  0.250044  1
  Bi  Bi17  1  0.665269  0.333290  0.499109  1
