# generated using pymatgen
data_Y5Lu3Ti7Si16Mo5
_symmetry_space_group_name_H-M   'P 1'
_cell_length_a   6.77148023
_cell_length_b   6.96595454
_cell_length_c   13.17283120
_cell_angle_alpha   90.01646290
_cell_angle_beta   89.94493290
_cell_angle_gamma   89.96290026
_symmetry_Int_Tables_number   1
_chemical_formula_structural   Y5Lu3Ti7Si16Mo5
_chemical_formula_sum   'Y5 Lu3 Ti7 Si16 Mo5'
_cell_volume   621.35967849
_cell_formula_units_Z   1
loop_
 _symmetry_equiv_pos_site_id
 _symmetry_equiv_pos_as_xyz
  1  'x, y, z'
loop_
 _atom_site_type_symbol
 _atom_site_label
 _atom_site_symmetry_multiplicity
 _atom_site_fract_x
 _atom_site_fract_y
 _atom_site_fract_z
 _atom_site_occupancy
  Y  Y0  1  0.502875  0.329410  0.096388  1
  Y  Y1  1  0.001764  0.170929  0.404456  1
  Y  Y2  1  0.497450  0.671959  0.595232  1
  Y  Y3  1  0.997712  0.830259  0.904349  1
  Y  Y4  1  0.496398  0.670241  0.902329  1
  Lu  Lu5  1  0.999651  0.829559  0.595810  1
  Lu  Lu6  1  0.501838  0.327560  0.404654  1
  Lu  Lu7  1  0.002406  0.172093  0.098065  1
  Ti  Ti8  1  0.835848  0.327133  0.626596  1
  Ti  Ti9  1  0.331540  0.172157  0.872341  1
  Ti  Ti10  1  0.166969  0.671788  0.127391  1
  Ti  Ti11  1  0.666838  0.829084  0.373418  1
  Ti  Ti12  1  0.166555  0.672285  0.374470  1
  Ti  Ti13  1  0.668046  0.828823  0.127219  1
  Ti  Ti14  1  0.833030  0.326418  0.871150  1
  Si  Si15  1  0.659024  0.040251  0.543848  1
  Si  Si16  1  0.158393  0.457276  0.957318  1
  Si  Si17  1  0.338192  0.960301  0.043954  1
  Si  Si18  1  0.838299  0.539692  0.457113  1
  Si  Si19  1  0.338099  0.959808  0.458141  1
  Si  Si20  1  0.842488  0.538761  0.044357  1
  Si  Si21  1  0.658663  0.040917  0.956888  1
  Si  Si22  1  0.162251  0.459697  0.543525  1
  Si  Si23  1  0.534202  0.372084  0.748094  1
  Si  Si24  1  0.037304  0.124488  0.749021  1
  Si  Si25  1  0.463947  0.625956  0.251065  1
  Si  Si26  1  0.964638  0.874865  0.249796  1
  Si  Si27  1  0.798962  0.627029  0.748085  1
  Si  Si28  1  0.298266  0.875441  0.748966  1
  Si  Si29  1  0.203636  0.372784  0.250709  1
  Si  Si30  1  0.702341  0.127583  0.250347  1
  Mo  Mo31  1  0.331695  0.170631  0.625879  1
  Mo  Mo32  1  0.663068  0.011221  0.749147  1
  Mo  Mo33  1  0.159229  0.489080  0.749137  1
  Mo  Mo34  1  0.338556  0.991923  0.250286  1
  Mo  Mo35  1  0.839827  0.510516  0.250455  1
