# generated using pymatgen
data_ErTh3(Sn5Rh3)2
_symmetry_space_group_name_H-M   'P 1'
_cell_length_a   13.56285212
_cell_length_b   13.56285296
_cell_length_c   7.32487200
_cell_angle_alpha   89.90853224
_cell_angle_beta   90.09146882
_cell_angle_gamma   160.88388336
_symmetry_Int_Tables_number   1
_chemical_formula_structural   ErTh3(Sn5Rh3)2
_chemical_formula_sum   'Er1 Th3 Sn10 Rh6'
_cell_volume   441.25661093
_cell_formula_units_Z   1
loop_
 _symmetry_equiv_pos_site_id
 _symmetry_equiv_pos_as_xyz
  1  'x, y, z'
loop_
 _atom_site_type_symbol
 _atom_site_label
 _atom_site_symmetry_multiplicity
 _atom_site_fract_x
 _atom_site_fract_y
 _atom_site_fract_z
 _atom_site_occupancy
  Er  Er0  1  0.525929  0.474071  0.236493  1
  Th  Th1  1  0.171261  0.828739  0.757863  1
  Th  Th2  1  0.828302  0.171698  0.258079  1
  Th  Th3  1  0.475097  0.524903  0.734539  1
  Sn  Sn4  1  0.877814  0.122186  0.731411  1
  Sn  Sn5  1  0.120226  0.879774  0.235003  1
  Sn  Sn6  1  0.704782  0.295218  0.052561  1
  Sn  Sn7  1  0.294897  0.705103  0.551675  1
  Sn  Sn8  1  0.595940  0.404060  0.607789  1
  Sn  Sn9  1  0.404637  0.595363  0.113126  1
  Sn  Sn10  1  0.953857  0.046143  0.390302  1
  Sn  Sn11  1  0.048518  0.951482  0.903138  1
  Sn  Sn12  1  0.290106  0.709894  0.976348  1
  Sn  Sn13  1  0.709188  0.290812  0.475641  1
  Rh  Rh14  1  0.050306  0.949694  0.516792  1
  Rh  Rh15  1  0.948952  0.051048  0.011981  1
  Rh  Rh16  1  0.775866  0.224134  0.767654  1
  Rh  Rh17  1  0.223069  0.776931  0.267756  1
  Rh  Rh18  1  0.395616  0.604384  0.485871  1
  Rh  Rh19  1  0.605637  0.394363  0.981976  1
