# generated using pymatgen
data_Rb6Na4TaTiAs6
_symmetry_space_group_name_H-M   'P 1'
_cell_length_a   10.85929254
_cell_length_b   10.85929334
_cell_length_c   15.94323000
_cell_angle_alpha   90.00000000
_cell_angle_beta   90.00000000
_cell_angle_gamma   142.56304151
_symmetry_Int_Tables_number   1
_chemical_formula_structural   Rb6Na4TaTiAs6
_chemical_formula_sum   'Rb12 Na8 Ta2 Ti2 As12'
_cell_volume   1142.88645354
_cell_formula_units_Z   2
loop_
 _symmetry_equiv_pos_site_id
 _symmetry_equiv_pos_as_xyz
  1  'x, y, z'
loop_
 _atom_site_type_symbol
 _atom_site_label
 _atom_site_symmetry_multiplicity
 _atom_site_fract_x
 _atom_site_fract_y
 _atom_site_fract_z
 _atom_site_occupancy
  Rb  Rb0  1  0.944551  0.607541  0.826176  1
  Rb  Rb1  1  0.555449  0.892459  0.326176  1
  Rb  Rb2  1  0.392459  0.055449  0.173824  1
  Rb  Rb3  1  0.059942  0.391994  0.171582  1
  Rb  Rb4  1  0.891994  0.559942  0.328418  1
  Rb  Rb5  1  0.440058  0.108006  0.671582  1
  Rb  Rb6  1  0.608006  0.940058  0.828418  1
  Rb  Rb7  1  0.278868  0.275452  0.316975  1
  Rb  Rb8  1  0.775452  0.778868  0.183025  1
  Rb  Rb9  1  0.221132  0.224548  0.816975  1
  Rb  Rb10  1  0.724548  0.721132  0.683025  1
  Rb  Rb11  1  0.107541  0.444551  0.673824  1
  Na  Na12  1  0.920307  0.079693  0.000000  1
  Na  Na13  1  0.579693  0.420307  0.500000  1
  Na  Na14  1  0.079014  0.920986  0.000000  1
  Na  Na15  1  0.420986  0.579014  0.500000  1
  Na  Na16  1  0.755325  0.244675  0.000000  1
  Na  Na17  1  0.744675  0.255325  0.500000  1
  Na  Na18  1  0.246183  0.753817  0.000000  1
  Na  Na19  1  0.253817  0.746183  0.500000  1
  Ta  Ta20  1  0.581897  0.418103  0.000000  1
  Ta  Ta21  1  0.918103  0.081897  0.500000  1
  Ti  Ti22  1  0.415104  0.584896  0.000000  1
  Ti  Ti23  1  0.084896  0.915104  0.500000  1
  As  As24  1  0.859005  0.554092  0.093640  1
  As  As25  1  0.445908  0.140995  0.906360  1
  As  As26  1  0.640995  0.945908  0.593640  1
  As  As27  1  0.944865  0.636206  0.594366  1
  As  As28  1  0.136206  0.444865  0.905634  1
  As  As29  1  0.555135  0.863794  0.094366  1
  As  As30  1  0.363794  0.055135  0.405634  1
  As  As31  1  0.193673  0.196875  0.587255  1
  As  As32  1  0.696875  0.693673  0.912745  1
  As  As33  1  0.306327  0.303125  0.087255  1
  As  As34  1  0.054092  0.359005  0.406360  1
  As  As35  1  0.803125  0.806327  0.412745  1
