# generated using pymatgen
data_CdOs3Pb4O13
_symmetry_space_group_name_H-M   'P 1'
_cell_length_a   7.59003533
_cell_length_b   7.59003441
_cell_length_c   7.59003298
_cell_angle_alpha   58.67339690
_cell_angle_beta   58.67340160
_cell_angle_gamma   58.67340247
_symmetry_Int_Tables_number   1
_chemical_formula_structural   CdOs3Pb4O13
_chemical_formula_sum   'Cd1 Os3 Pb4 O13'
_cell_volume   299.80979526
_cell_formula_units_Z   1
loop_
 _symmetry_equiv_pos_site_id
 _symmetry_equiv_pos_as_xyz
  1  'x, y, z'
loop_
 _atom_site_type_symbol
 _atom_site_label
 _atom_site_symmetry_multiplicity
 _atom_site_fract_x
 _atom_site_fract_y
 _atom_site_fract_z
 _atom_site_occupancy
  Cd  Cd0  1  0.502387  0.502387  0.502387  1
  Os  Os1  1  0.000500  0.501252  0.501252  1
  Os  Os2  1  0.501252  0.501252  0.000500  1
  Os  Os3  1  0.501252  0.000500  0.501252  1
  Pb  Pb4  1  0.998127  0.998127  0.998127  1
  Pb  Pb5  1  0.502005  0.004616  0.004616  1
  Pb  Pb6  1  0.004616  0.004616  0.502005  1
  Pb  Pb7  1  0.004616  0.502005  0.004616  1
  O  O8  1  0.879971  0.403218  0.403218  1
  O  O9  1  0.419737  0.800900  0.800900  1
  O  O10  1  0.403218  0.403218  0.879971  1
  O  O11  1  0.800900  0.800900  0.419737  1
  O  O12  1  0.800900  0.419737  0.800900  1
  O  O13  1  0.403218  0.879971  0.403218  1
  O  O14  1  0.133226  0.587756  0.587756  1
  O  O15  1  0.589466  0.192773  0.192773  1
  O  O16  1  0.587756  0.587756  0.133226  1
  O  O17  1  0.192773  0.192773  0.589466  1
  O  O18  1  0.192773  0.589466  0.192773  1
  O  O19  1  0.587756  0.133226  0.587756  1
  O  O20  1  0.118549  0.118549  0.118549  1
