# generated using pymatgen
data_MgSc2Ga7Co
_symmetry_space_group_name_H-M   'P 1'
_cell_length_a   4.13952800
_cell_length_b   4.16309100
_cell_length_c   10.96809900
_cell_angle_alpha   90.00000000
_cell_angle_beta   90.00000000
_cell_angle_gamma   90.00000000
_symmetry_Int_Tables_number   1
_chemical_formula_structural   MgSc2Ga7Co
_chemical_formula_sum   'Mg1 Sc2 Ga7 Co1'
_cell_volume   189.01579205
_cell_formula_units_Z   1
loop_
 _symmetry_equiv_pos_site_id
 _symmetry_equiv_pos_as_xyz
  1  'x, y, z'
loop_
 _atom_site_type_symbol
 _atom_site_label
 _atom_site_symmetry_multiplicity
 _atom_site_fract_x
 _atom_site_fract_y
 _atom_site_fract_z
 _atom_site_occupancy
  Mg  Mg0  1  0.000000  0.500000  0.500000  1
  Sc  Sc1  1  0.000000  0.000000  0.296945  1
  Sc  Sc2  1  0.000000  0.000000  0.703055  1
  Ga  Ga3  1  0.000000  0.500000  0.119978  1
  Ga  Ga4  1  0.000000  0.500000  0.880022  1
  Ga  Ga5  1  0.500000  0.000000  0.119970  1
  Ga  Ga6  1  0.500000  0.000000  0.880030  1
  Ga  Ga7  1  0.500000  0.500000  0.308753  1
  Ga  Ga8  1  0.500000  0.500000  0.691247  1
  Ga  Ga9  1  0.500000  0.000000  0.500000  1
  Co  Co10  1  0.000000  0.000000  0.000000  1
