# generated using pymatgen
data_Ca7(YbPt3)2
_symmetry_space_group_name_H-M   'P 1'
_cell_length_a   7.56490512
_cell_length_b   7.56490424
_cell_length_c   7.56490600
_cell_angle_alpha   70.48040143
_cell_angle_beta   70.48039577
_cell_angle_gamma   70.48041136
_symmetry_Int_Tables_number   1
_chemical_formula_structural   Ca7(YbPt3)2
_chemical_formula_sum   'Ca7 Yb2 Pt6'
_cell_volume   372.33345882
_cell_formula_units_Z   1
loop_
 _symmetry_equiv_pos_site_id
 _symmetry_equiv_pos_as_xyz
  1  'x, y, z'
loop_
 _atom_site_type_symbol
 _atom_site_label
 _atom_site_symmetry_multiplicity
 _atom_site_fract_x
 _atom_site_fract_y
 _atom_site_fract_z
 _atom_site_occupancy
  Ca  Ca0  1  0.199135  0.199135  0.199135  1
  Ca  Ca1  1  0.333761  0.601250  0.845362  1
  Ca  Ca2  1  0.845362  0.333761  0.601250  1
  Ca  Ca3  1  0.601250  0.845362  0.333761  1
  Ca  Ca4  1  0.667284  0.399013  0.152686  1
  Ca  Ca5  1  0.152686  0.667284  0.399013  1
  Ca  Ca6  1  0.399013  0.152686  0.667284  1
  Yb  Yb7  1  0.000713  0.000713  0.000713  1
  Yb  Yb8  1  0.802600  0.802600  0.802600  1
  Pt  Pt9  1  0.155563  0.955323  0.593244  1
  Pt  Pt10  1  0.593244  0.155563  0.955323  1
  Pt  Pt11  1  0.955323  0.593244  0.155563  1
  Pt  Pt12  1  0.837998  0.042572  0.413496  1
  Pt  Pt13  1  0.413496  0.837998  0.042572  1
  Pt  Pt14  1  0.042572  0.413496  0.837998  1
