# generated using pymatgen
data_Y19ErCd6OsPd
_symmetry_space_group_name_H-M   'P 1'
_cell_length_a   9.69782211
_cell_length_b   9.69782267
_cell_length_c   9.86354114
_cell_angle_alpha   90.09090246
_cell_angle_beta   89.90909794
_cell_angle_gamma   119.98678780
_symmetry_Int_Tables_number   1
_chemical_formula_structural   Y19ErCd6OsPd
_chemical_formula_sum   'Y19 Er1 Cd6 Os1 Pd1'
_cell_volume   803.46880503
_cell_formula_units_Z   1
loop_
 _symmetry_equiv_pos_site_id
 _symmetry_equiv_pos_as_xyz
  1  'x, y, z'
loop_
 _atom_site_type_symbol
 _atom_site_label
 _atom_site_symmetry_multiplicity
 _atom_site_fract_x
 _atom_site_fract_y
 _atom_site_fract_z
 _atom_site_occupancy
  Y  Y0  1  0.209344  0.419658  0.940140  1
  Y  Y1  1  0.580342  0.790656  0.940140  1
  Y  Y2  1  0.792286  0.207714  0.057371  1
  Y  Y3  1  0.792829  0.584435  0.057144  1
  Y  Y4  1  0.415565  0.207171  0.057144  1
  Y  Y5  1  0.792071  0.207929  0.442757  1
  Y  Y6  1  0.792213  0.584370  0.442733  1
  Y  Y7  1  0.415630  0.207787  0.442733  1
  Y  Y8  1  0.209558  0.790442  0.560745  1
  Y  Y9  1  0.209613  0.419102  0.560113  1
  Y  Y10  1  0.580898  0.790387  0.560113  1
  Y  Y11  1  0.540158  0.459842  0.749954  1
  Y  Y12  1  0.539198  0.079255  0.750529  1
  Y  Y13  1  0.920745  0.460802  0.750529  1
  Y  Y14  1  0.457053  0.542947  0.250123  1
  Y  Y15  1  0.456472  0.913625  0.249245  1
  Y  Y16  1  0.086375  0.543528  0.249245  1
  Y  Y17  1  0.000586  0.999414  0.000442  1
  Y  Y18  1  0.000026  0.999974  0.499312  1
  Er  Er19  1  0.210155  0.789845  0.938586  1
  Cd  Cd20  1  0.885010  0.114990  0.750058  1
  Cd  Cd21  1  0.885068  0.770057  0.750005  1
  Cd  Cd22  1  0.229943  0.114932  0.750005  1
  Cd  Cd23  1  0.115095  0.884905  0.249934  1
  Cd  Cd24  1  0.115033  0.230091  0.249981  1
  Cd  Cd25  1  0.769909  0.884967  0.249981  1
  Os  Os26  1  0.332171  0.667829  0.751094  1
  Pd  Pd27  1  0.666654  0.333346  0.249847  1
