# generated using pymatgen
data_Ho6Zn23S
_symmetry_space_group_name_H-M   'P 1'
_cell_length_a   8.99152023
_cell_length_b   8.99151994
_cell_length_c   8.99152000
_cell_angle_alpha   59.99999979
_cell_angle_beta   60.00000083
_cell_angle_gamma   59.99999526
_symmetry_Int_Tables_number   1
_chemical_formula_structural   Ho6Zn23S
_chemical_formula_sum   'Ho6 Zn23 S1'
_cell_volume   514.02511707
_cell_formula_units_Z   1
loop_
 _symmetry_equiv_pos_site_id
 _symmetry_equiv_pos_as_xyz
  1  'x, y, z'
loop_
 _atom_site_type_symbol
 _atom_site_label
 _atom_site_symmetry_multiplicity
 _atom_site_fract_x
 _atom_site_fract_y
 _atom_site_fract_z
 _atom_site_occupancy
  Ho  Ho0  1  0.712327  0.287673  0.287673  1
  Ho  Ho1  1  0.287673  0.712327  0.712327  1
  Ho  Ho2  1  0.287673  0.712327  0.287673  1
  Ho  Ho3  1  0.712327  0.287673  0.712327  1
  Ho  Ho4  1  0.287673  0.287673  0.712327  1
  Ho  Ho5  1  0.712327  0.712327  0.287673  1
  Zn  Zn6  1  0.124701  0.124701  0.124701  1
  Zn  Zn7  1  0.875299  0.875299  0.875299  1
  Zn  Zn8  1  0.124701  0.124701  0.625898  1
  Zn  Zn9  1  0.124701  0.625898  0.124701  1
  Zn  Zn10  1  0.875299  0.875299  0.374102  1
  Zn  Zn11  1  0.875299  0.374102  0.875299  1
  Zn  Zn12  1  0.625898  0.124701  0.124701  1
  Zn  Zn13  1  0.374102  0.875299  0.875299  1
  Zn  Zn14  1  0.500000  0.000000  0.000000  1
  Zn  Zn15  1  0.000000  0.500000  0.500000  1
  Zn  Zn16  1  0.000000  0.500000  0.000000  1
  Zn  Zn17  1  0.500000  0.000000  0.500000  1
  Zn  Zn18  1  0.000000  0.000000  0.500000  1
  Zn  Zn19  1  0.500000  0.500000  0.000000  1
  Zn  Zn20  1  0.328736  0.328736  0.328736  1
  Zn  Zn21  1  0.671264  0.671264  0.671264  1
  Zn  Zn22  1  0.328736  0.328736  0.013792  1
  Zn  Zn23  1  0.328736  0.013792  0.328736  1
  Zn  Zn24  1  0.671264  0.671264  0.986208  1
  Zn  Zn25  1  0.671264  0.986208  0.671264  1
  Zn  Zn26  1  0.013792  0.328736  0.328736  1
  Zn  Zn27  1  0.986208  0.671264  0.671264  1
  Zn  Zn28  1  0.000000  0.000000  0.000000  1
  S  S29  1  0.500000  0.500000  0.500000  1
