# generated using pymatgen
data_Ti18NbSi16Rh
_symmetry_space_group_name_H-M   'P 1'
_cell_length_a   6.69797429
_cell_length_b   6.69797520
_cell_length_c   12.15121028
_cell_angle_alpha   89.63948942
_cell_angle_beta   90.36050624
_cell_angle_gamma   89.91992734
_symmetry_Int_Tables_number   1
_chemical_formula_structural   Ti18NbSi16Rh
_chemical_formula_sum   'Ti18 Nb1 Si16 Rh1'
_cell_volume   545.11596976
_cell_formula_units_Z   1
loop_
 _symmetry_equiv_pos_site_id
 _symmetry_equiv_pos_as_xyz
  1  'x, y, z'
loop_
 _atom_site_type_symbol
 _atom_site_label
 _atom_site_symmetry_multiplicity
 _atom_site_fract_x
 _atom_site_fract_y
 _atom_site_fract_z
 _atom_site_occupancy
  Ti  Ti0  1  0.996227  0.146592  0.624444  1
  Ti  Ti1  1  0.354265  0.500411  0.869659  1
  Ti  Ti2  1  0.648593  0.504516  0.371099  1
  Ti  Ti3  1  0.500411  0.354265  0.130341  1
  Ti  Ti4  1  0.504516  0.648593  0.628901  1
  Ti  Ti5  1  0.004003  0.848585  0.120108  1
  Ti  Ti6  1  0.146592  0.996227  0.375556  1
  Ti  Ti7  1  0.848585  0.004003  0.879892  1
  Ti  Ti8  1  0.000460  0.346774  0.219506  1
  Ti  Ti9  1  0.155136  0.501298  0.468881  1
  Ti  Ti10  1  0.840225  0.500179  0.970039  1
  Ti  Ti11  1  0.501298  0.155136  0.531119  1
  Ti  Ti12  1  0.500179  0.840225  0.029961  1
  Ti  Ti13  1  0.998518  0.655378  0.720478  1
  Ti  Ti14  1  0.346774  0.000460  0.780494  1
  Ti  Ti15  1  0.655378  0.998518  0.279522  1
  Ti  Ti16  1  0.327797  0.671883  0.246956  1
  Ti  Ti17  1  0.671883  0.327797  0.753044  1
  Nb  Nb18  1  0.828530  0.828530  0.500000  1
  Si  Si19  1  0.048474  0.298884  0.816945  1
  Si  Si20  1  0.200277  0.541084  0.061222  1
  Si  Si21  1  0.800366  0.451572  0.565442  1
  Si  Si22  1  0.541084  0.200277  0.938778  1
  Si  Si23  1  0.451572  0.800366  0.434558  1
  Si  Si24  1  0.957142  0.697261  0.311790  1
  Si  Si25  1  0.298884  0.048474  0.183055  1
  Si  Si26  1  0.697261  0.957142  0.688210  1
  Si  Si27  1  0.294390  0.356771  0.673558  1
  Si  Si28  1  0.140140  0.792011  0.921859  1
  Si  Si29  1  0.858485  0.207747  0.422661  1
  Si  Si30  1  0.792011  0.140140  0.078141  1
  Si  Si31  1  0.207747  0.858485  0.577339  1
  Si  Si32  1  0.705083  0.645130  0.173355  1
  Si  Si33  1  0.356771  0.294390  0.326442  1
  Si  Si34  1  0.645130  0.705083  0.826645  1
  Rh  Rh35  1  0.175814  0.175814  0.000000  1
