# generated using pymatgen
data_La11CeTc4
_symmetry_space_group_name_H-M   'P 1'
_cell_length_a   6.62507501
_cell_length_b   7.40524187
_cell_length_c   10.02629200
_cell_angle_alpha   90.00000000
_cell_angle_beta   90.00000000
_cell_angle_gamma   91.25302985
_symmetry_Int_Tables_number   1
_chemical_formula_structural   La11CeTc4
_chemical_formula_sum   'La11 Ce1 Tc4'
_cell_volume   491.77509593
_cell_formula_units_Z   1
loop_
 _symmetry_equiv_pos_site_id
 _symmetry_equiv_pos_as_xyz
  1  'x, y, z'
loop_
 _atom_site_type_symbol
 _atom_site_label
 _atom_site_symmetry_multiplicity
 _atom_site_fract_x
 _atom_site_fract_y
 _atom_site_fract_z
 _atom_site_occupancy
  La  La0  1  0.661895  0.173207  0.064950  1
  La  La1  1  0.131135  0.058757  0.250000  1
  La  La2  1  0.828489  0.666890  0.433112  1
  La  La3  1  0.329883  0.827952  0.933979  1
  La  La4  1  0.171800  0.330674  0.567778  1
  La  La5  1  0.661895  0.173207  0.435050  1
  La  La6  1  0.171800  0.330674  0.932222  1
  La  La7  1  0.329883  0.827952  0.566021  1
  La  La8  1  0.864501  0.942281  0.750000  1
  La  La9  1  0.641208  0.441354  0.750000  1
  La  La10  1  0.828489  0.666890  0.066888  1
  Ce  Ce11  1  0.342909  0.570970  0.250000  1
  Tc  Tc12  1  0.003955  0.387051  0.250000  1
  Tc  Tc13  1  0.468332  0.124382  0.750000  1
  Tc  Tc14  1  0.519764  0.851014  0.250000  1
  Tc  Tc15  1  0.044060  0.626745  0.750000  1
