# generated using pymatgen
data_DyEr3(TmSb5)4
_symmetry_space_group_name_H-M   'P 1'
_cell_length_a   4.20550300
_cell_length_b   13.14683236
_cell_length_c   14.57617252
_cell_angle_alpha   78.35915805
_cell_angle_beta   90.00000000
_cell_angle_gamma   90.00000000
_symmetry_Int_Tables_number   1
_chemical_formula_structural   DyEr3(TmSb5)4
_chemical_formula_sum   'Dy1 Er3 Tm4 Sb20'
_cell_volume   789.32655511
_cell_formula_units_Z   1
loop_
 _symmetry_equiv_pos_site_id
 _symmetry_equiv_pos_as_xyz
  1  'x, y, z'
loop_
 _atom_site_type_symbol
 _atom_site_label
 _atom_site_symmetry_multiplicity
 _atom_site_fract_x
 _atom_site_fract_y
 _atom_site_fract_z
 _atom_site_occupancy
  Dy  Dy0  1  0.750000  0.046686  0.641465  1
  Er  Er1  1  0.250000  0.668737  0.576472  1
  Er  Er2  1  0.750000  0.331140  0.423513  1
  Er  Er3  1  0.250000  0.953400  0.359234  1
  Tm  Tm4  1  0.250000  0.395315  0.771047  1
  Tm  Tm5  1  0.750000  0.604753  0.228921  1
  Tm  Tm6  1  0.250000  0.661556  0.856463  1
  Tm  Tm7  1  0.750000  0.338331  0.143562  1
  Sb  Sb8  1  0.250000  0.144788  0.779047  1
  Sb  Sb9  1  0.750000  0.855671  0.221247  1
  Sb  Sb10  1  0.250000  0.143871  0.482178  1
  Sb  Sb11  1  0.750000  0.856298  0.516979  1
  Sb  Sb12  1  0.250000  0.153676  0.170354  1
  Sb  Sb13  1  0.750000  0.846080  0.829708  1
  Sb  Sb14  1  0.250000  0.420803  0.975499  1
  Sb  Sb15  1  0.750000  0.579160  0.024462  1
  Sb  Sb16  1  0.750000  0.028619  0.910007  1
  Sb  Sb17  1  0.250000  0.971383  0.089937  1
  Sb  Sb18  1  0.750000  0.139553  0.321808  1
  Sb  Sb19  1  0.250000  0.859600  0.678214  1
  Sb  Sb20  1  0.750000  0.279313  0.936752  1
  Sb  Sb21  1  0.250000  0.720697  0.063207  1
  Sb  Sb22  1  0.750000  0.285937  0.653377  1
  Sb  Sb23  1  0.250000  0.714553  0.346618  1
  Sb  Sb24  1  0.750000  0.576098  0.735323  1
  Sb  Sb25  1  0.250000  0.423901  0.264658  1
  Sb  Sb26  1  0.750000  0.571688  0.446855  1
  Sb  Sb27  1  0.250000  0.428393  0.553093  1
