# generated using pymatgen
data_Lu7Th3Co4
_symmetry_space_group_name_H-M   'P 1'
_cell_length_a   8.63808937
_cell_length_b   8.59713059
_cell_length_c   6.84227445
_cell_angle_alpha   84.58406333
_cell_angle_beta   83.97810865
_cell_angle_gamma   41.82839529
_symmetry_Int_Tables_number   1
_chemical_formula_structural   Lu7Th3Co4
_chemical_formula_sum   'Lu7 Th3 Co4'
_cell_volume   336.89975156
_cell_formula_units_Z   1
loop_
 _symmetry_equiv_pos_site_id
 _symmetry_equiv_pos_as_xyz
  1  'x, y, z'
loop_
 _atom_site_type_symbol
 _atom_site_label
 _atom_site_symmetry_multiplicity
 _atom_site_fract_x
 _atom_site_fract_y
 _atom_site_fract_z
 _atom_site_occupancy
  Lu  Lu0  1  0.641119  0.785714  0.683708  1
  Lu  Lu1  1  0.210663  0.358433  0.823317  1
  Lu  Lu2  1  0.359626  0.210473  0.316137  1
  Lu  Lu3  1  0.781315  0.641859  0.181649  1
  Lu  Lu4  1  0.425300  0.576941  0.748251  1
  Lu  Lu5  1  0.575111  0.428672  0.247568  1
  Lu  Lu6  1  0.204592  0.988010  0.086251  1
  Th  Th7  1  0.006212  0.799284  0.409693  1
  Th  Th8  1  0.799668  0.007228  0.909565  1
  Th  Th9  1  0.999857  0.195583  0.586641  1
  Co  Co10  1  0.396423  0.831738  0.425471  1
  Co  Co11  1  0.167582  0.610844  0.086301  1
  Co  Co12  1  0.605157  0.172352  0.583771  1
  Co  Co13  1  0.827376  0.392868  0.911674  1
