# generated using pymatgen
data_SrNdNpO6
_symmetry_space_group_name_H-M   'P 1'
_cell_length_a   5.63809900
_cell_length_b   9.65435100
_cell_length_c   10.67810400
_cell_angle_alpha   90.00000000
_cell_angle_beta   90.00000000
_cell_angle_gamma   90.00000000
_symmetry_Int_Tables_number   1
_chemical_formula_structural   SrNdNpO6
_chemical_formula_sum   'Sr4 Nd4 Np4 O24'
_cell_volume   581.23255073
_cell_formula_units_Z   4
loop_
 _symmetry_equiv_pos_site_id
 _symmetry_equiv_pos_as_xyz
  1  'x, y, z'
loop_
 _atom_site_type_symbol
 _atom_site_label
 _atom_site_symmetry_multiplicity
 _atom_site_fract_x
 _atom_site_fract_y
 _atom_site_fract_z
 _atom_site_occupancy
  Sr  Sr0  1  0.471708  0.602877  0.533880  1
  Sr  Sr1  1  0.971708  0.897123  0.466120  1
  Sr  Sr2  1  0.528292  0.102877  0.966120  1
  Sr  Sr3  1  0.028292  0.397123  0.033880  1
  Nd  Nd4  1  0.961323  0.784524  0.873101  1
  Nd  Nd5  1  0.461323  0.715476  0.126899  1
  Nd  Nd6  1  0.038677  0.284524  0.626899  1
  Nd  Nd7  1  0.538677  0.215476  0.373101  1
  Np  Np8  1  0.457023  0.998153  0.649988  1
  Np  Np9  1  0.957023  0.501847  0.350012  1
  Np  Np10  1  0.542977  0.498153  0.850012  1
  Np  Np11  1  0.042977  0.001847  0.149988  1
  O  O12  1  0.254089  0.094291  0.511825  1
  O  O13  1  0.754089  0.405709  0.488175  1
  O  O14  1  0.745911  0.594291  0.988175  1
  O  O15  1  0.245911  0.905709  0.011825  1
  O  O16  1  0.725528  0.120211  0.567181  1
  O  O17  1  0.225528  0.379789  0.432819  1
  O  O18  1  0.274472  0.620211  0.932819  1
  O  O19  1  0.774472  0.879789  0.067181  1
  O  O20  1  0.561671  0.854358  0.533618  1
  O  O21  1  0.061671  0.645642  0.466382  1
  O  O22  1  0.438329  0.354358  0.966382  1
  O  O23  1  0.938329  0.145642  0.033618  1
  O  O24  1  0.182277  0.858366  0.257480  1
  O  O25  1  0.682277  0.641634  0.742520  1
  O  O26  1  0.817723  0.358366  0.242520  1
  O  O27  1  0.317723  0.141634  0.757480  1
  O  O28  1  0.825017  0.050735  0.293587  1
  O  O29  1  0.325017  0.449265  0.706413  1
  O  O30  1  0.174983  0.550735  0.206413  1
  O  O31  1  0.674983  0.949265  0.793587  1
  O  O32  1  0.317719  0.132724  0.192925  1
  O  O33  1  0.817719  0.367276  0.807075  1
  O  O34  1  0.682281  0.632724  0.307075  1
  O  O35  1  0.182281  0.867276  0.692925  1
