# generated using pymatgen
data_ErLu3AlZn11
_symmetry_space_group_name_H-M   'P 1'
_cell_length_a   4.34608000
_cell_length_b   6.63075356
_cell_length_c   9.99076000
_cell_angle_alpha   90.08056792
_cell_angle_beta   90.00000000
_cell_angle_gamma   90.00000000
_symmetry_Int_Tables_number   1
_chemical_formula_structural   ErLu3AlZn11
_chemical_formula_sum   'Er1 Lu3 Al1 Zn11'
_cell_volume   287.91129314
_cell_formula_units_Z   1
loop_
 _symmetry_equiv_pos_site_id
 _symmetry_equiv_pos_as_xyz
  1  'x, y, z'
loop_
 _atom_site_type_symbol
 _atom_site_label
 _atom_site_symmetry_multiplicity
 _atom_site_fract_x
 _atom_site_fract_y
 _atom_site_fract_z
 _atom_site_occupancy
  Er  Er0  1  0.750000  0.719273  0.335407  1
  Lu  Lu1  1  0.250000  0.279798  0.663246  1
  Lu  Lu2  1  0.250000  0.780159  0.833420  1
  Lu  Lu3  1  0.750000  0.218084  0.165404  1
  Al  Al4  1  0.250000  0.537865  0.103864  1
  Zn  Zn5  1  0.250000  0.036744  0.397014  1
  Zn  Zn6  1  0.750000  0.463215  0.896630  1
  Zn  Zn7  1  0.750000  0.963911  0.603233  1
  Zn  Zn8  1  0.250000  0.924020  0.148664  1
  Zn  Zn9  1  0.250000  0.419641  0.352790  1
  Zn  Zn10  1  0.750000  0.079475  0.851086  1
  Zn  Zn11  1  0.750000  0.579902  0.649388  1
  Zn  Zn12  1  0.250000  0.214235  0.957161  1
  Zn  Zn13  1  0.250000  0.715960  0.542923  1
  Zn  Zn14  1  0.750000  0.784690  0.041804  1
  Zn  Zn15  1  0.750000  0.283028  0.457968  1
