# generated using pymatgen
data_Ca4La16(Ga3Pb)3
_symmetry_space_group_name_H-M   'P 1'
_cell_length_a   8.14703400
_cell_length_b   8.14703400
_cell_length_c   14.87675700
_cell_angle_alpha   90.00000000
_cell_angle_beta   90.00000000
_cell_angle_gamma   90.00000000
_symmetry_Int_Tables_number   1
_chemical_formula_structural   Ca4La16(Ga3Pb)3
_chemical_formula_sum   'Ca4 La16 Ga9 Pb3'
_cell_volume   987.43229399
_cell_formula_units_Z   1
loop_
 _symmetry_equiv_pos_site_id
 _symmetry_equiv_pos_as_xyz
  1  'x, y, z'
loop_
 _atom_site_type_symbol
 _atom_site_label
 _atom_site_symmetry_multiplicity
 _atom_site_fract_x
 _atom_site_fract_y
 _atom_site_fract_z
 _atom_site_occupancy
  Ca  Ca0  1  0.500000  0.500000  0.755469  1
  Ca  Ca1  1  0.000000  0.000000  0.249485  1
  Ca  Ca2  1  0.000000  0.000000  0.750515  1
  Ca  Ca3  1  0.500000  0.500000  0.244531  1
  La  La4  1  0.678191  0.167931  0.102798  1
  La  La5  1  0.172102  0.670934  0.607380  1
  La  La6  1  0.321809  0.832069  0.102798  1
  La  La7  1  0.827898  0.329066  0.607380  1
  La  La8  1  0.832069  0.678191  0.102798  1
  La  La9  1  0.329066  0.172102  0.607380  1
  La  La10  1  0.167931  0.321809  0.102798  1
  La  La11  1  0.670934  0.827898  0.607380  1
  La  La12  1  0.832069  0.321809  0.897202  1
  La  La13  1  0.329066  0.827898  0.392620  1
  La  La14  1  0.167931  0.678191  0.897202  1
  La  La15  1  0.670934  0.172102  0.392620  1
  La  La16  1  0.678191  0.832069  0.897202  1
  La  La17  1  0.172102  0.329066  0.392620  1
  La  La18  1  0.321809  0.167931  0.897202  1
  La  La19  1  0.827898  0.670934  0.392620  1
  Ga  Ga20  1  0.616479  0.117546  0.751494  1
  Ga  Ga21  1  0.117546  0.616479  0.248506  1
  Ga  Ga22  1  0.882454  0.383521  0.248506  1
  Ga  Ga23  1  0.383521  0.882454  0.751494  1
  Ga  Ga24  1  0.882454  0.616479  0.751494  1
  Ga  Ga25  1  0.383521  0.117546  0.248506  1
  Ga  Ga26  1  0.117546  0.383521  0.751494  1
  Ga  Ga27  1  0.616479  0.882454  0.248506  1
  Ga  Ga28  1  0.000000  0.000000  0.000000  1
  Pb  Pb29  1  0.500000  0.500000  0.500000  1
  Pb  Pb30  1  0.500000  0.500000  0.000000  1
  Pb  Pb31  1  0.000000  0.000000  0.500000  1
