# generated using pymatgen
data_TaNb3Si4Ir3Ru
_symmetry_space_group_name_H-M   'P 1'
_cell_length_a   3.83063200
_cell_length_b   6.44737765
_cell_length_c   7.31984332
_cell_angle_alpha   89.88942106
_cell_angle_beta   90.00000000
_cell_angle_gamma   90.00000000
_symmetry_Int_Tables_number   1
_chemical_formula_structural   TaNb3Si4Ir3Ru
_chemical_formula_sum   'Ta1 Nb3 Si4 Ir3 Ru1'
_cell_volume   180.78172163
_cell_formula_units_Z   1
loop_
 _symmetry_equiv_pos_site_id
 _symmetry_equiv_pos_as_xyz
  1  'x, y, z'
loop_
 _atom_site_type_symbol
 _atom_site_label
 _atom_site_symmetry_multiplicity
 _atom_site_fract_x
 _atom_site_fract_y
 _atom_site_fract_z
 _atom_site_occupancy
  Ta  Ta0  1  0.250000  0.478228  0.172800  1
  Nb  Nb1  1  0.750000  0.524758  0.827365  1
  Nb  Nb2  1  0.250000  0.973820  0.325500  1
  Nb  Nb3  1  0.750000  0.021509  0.675204  1
  Si  Si4  1  0.250000  0.227339  0.875439  1
  Si  Si5  1  0.250000  0.729135  0.626579  1
  Si  Si6  1  0.750000  0.772800  0.120673  1
  Si  Si7  1  0.750000  0.268452  0.377336  1
  Ir  Ir8  1  0.250000  0.352776  0.561260  1
  Ir  Ir9  1  0.750000  0.645588  0.434028  1
  Ir  Ir10  1  0.750000  0.151864  0.064103  1
  Ru  Ru11  1  0.250000  0.853728  0.939716  1
