# generated using pymatgen
data_Gd8ZnSi5Ir8
_symmetry_space_group_name_H-M   'P 1'
_cell_length_a   10.69884013
_cell_length_b   10.69884044
_cell_length_c   7.68310300
_cell_angle_alpha   71.40553034
_cell_angle_beta   71.40552978
_cell_angle_gamma   30.26928458
_symmetry_Int_Tables_number   1
_chemical_formula_structural   Gd8ZnSi5Ir8
_chemical_formula_sum   'Gd8 Zn1 Si5 Ir8'
_cell_volume   418.41499236
_cell_formula_units_Z   1
loop_
 _symmetry_equiv_pos_site_id
 _symmetry_equiv_pos_as_xyz
  1  'x, y, z'
loop_
 _atom_site_type_symbol
 _atom_site_label
 _atom_site_symmetry_multiplicity
 _atom_site_fract_x
 _atom_site_fract_y
 _atom_site_fract_z
 _atom_site_occupancy
  Gd  Gd0  1  0.209029  0.448300  0.403390  1
  Gd  Gd1  1  0.551700  0.790971  0.096610  1
  Gd  Gd2  1  0.448941  0.210895  0.902592  1
  Gd  Gd3  1  0.923683  0.213423  0.332904  1
  Gd  Gd4  1  0.786577  0.076317  0.167096  1
  Gd  Gd5  1  0.079191  0.783876  0.666464  1
  Gd  Gd6  1  0.216124  0.920809  0.833536  1
  Gd  Gd7  1  0.789105  0.551059  0.597408  1
  Zn  Zn8  1  0.630306  0.369694  0.750000  1
  Si  Si9  1  0.388014  0.611986  0.250000  1
  Si  Si10  1  0.299340  0.046910  0.441159  1
  Si  Si11  1  0.953090  0.700660  0.058841  1
  Si  Si12  1  0.699412  0.953393  0.559275  1
  Si  Si13  1  0.046607  0.300588  0.940725  1
  Ir  Ir14  1  0.277012  0.594899  0.035387  1
  Ir  Ir15  1  0.582392  0.286942  0.518459  1
  Ir  Ir16  1  0.713058  0.417608  0.981541  1
  Ir  Ir17  1  0.070215  0.369861  0.191392  1
  Ir  Ir18  1  0.630139  0.929785  0.308608  1
  Ir  Ir19  1  0.405101  0.722988  0.464613  1
  Ir  Ir20  1  0.931270  0.630307  0.808327  1
  Ir  Ir21  1  0.369693  0.068730  0.691673  1
