# generated using pymatgen
data_Hf6Zn22CuS
_symmetry_space_group_name_H-M   'P 1'
_cell_length_a   8.70558855
_cell_length_b   8.70558901
_cell_length_c   8.70559000
_cell_angle_alpha   60.00000384
_cell_angle_beta   60.00000210
_cell_angle_gamma   60.00000314
_symmetry_Int_Tables_number   1
_chemical_formula_structural   Hf6Zn22CuS
_chemical_formula_sum   'Hf6 Zn22 Cu1 S1'
_cell_volume   466.52996065
_cell_formula_units_Z   1
loop_
 _symmetry_equiv_pos_site_id
 _symmetry_equiv_pos_as_xyz
  1  'x, y, z'
loop_
 _atom_site_type_symbol
 _atom_site_label
 _atom_site_symmetry_multiplicity
 _atom_site_fract_x
 _atom_site_fract_y
 _atom_site_fract_z
 _atom_site_occupancy
  Hf  Hf0  1  0.703201  0.296799  0.296799  1
  Hf  Hf1  1  0.296799  0.703201  0.703201  1
  Hf  Hf2  1  0.296799  0.703201  0.296799  1
  Hf  Hf3  1  0.703201  0.296799  0.703201  1
  Hf  Hf4  1  0.296799  0.296799  0.703201  1
  Hf  Hf5  1  0.703201  0.703201  0.296799  1
  Zn  Zn6  1  0.119079  0.119079  0.119079  1
  Zn  Zn7  1  0.880921  0.880921  0.880921  1
  Zn  Zn8  1  0.119079  0.119079  0.642761  1
  Zn  Zn9  1  0.119079  0.642761  0.119079  1
  Zn  Zn10  1  0.880921  0.880921  0.357239  1
  Zn  Zn11  1  0.880921  0.357239  0.880921  1
  Zn  Zn12  1  0.642761  0.119079  0.119079  1
  Zn  Zn13  1  0.357239  0.880921  0.880921  1
  Zn  Zn14  1  0.500000  0.000000  0.000000  1
  Zn  Zn15  1  0.000000  0.500000  0.500000  1
  Zn  Zn16  1  0.000000  0.500000  0.000000  1
  Zn  Zn17  1  0.500000  0.000000  0.500000  1
  Zn  Zn18  1  0.000000  0.000000  0.500000  1
  Zn  Zn19  1  0.500000  0.500000  0.000000  1
  Zn  Zn20  1  0.333235  0.333235  0.333235  1
  Zn  Zn21  1  0.666765  0.666765  0.666765  1
  Zn  Zn22  1  0.333235  0.333235  0.000294  1
  Zn  Zn23  1  0.333235  0.000294  0.333235  1
  Zn  Zn24  1  0.666765  0.666765  0.999706  1
  Zn  Zn25  1  0.666765  0.999706  0.666765  1
  Zn  Zn26  1  0.000294  0.333235  0.333235  1
  Zn  Zn27  1  0.999706  0.666765  0.666765  1
  Cu  Cu28  1  0.000000  0.000000  0.000000  1
  S  S29  1  0.500000  0.500000  0.500000  1
