# generated using pymatgen
data_P2PbWO8
_symmetry_space_group_name_H-M   'P 1'
_cell_length_a   4.96410274
_cell_length_b   4.96396145
_cell_length_c   7.66376736
_cell_angle_alpha   91.75530017
_cell_angle_beta   91.75884291
_cell_angle_gamma   65.49350305
_symmetry_Int_Tables_number   1
_chemical_formula_structural   P2PbWO8
_chemical_formula_sum   'P2 Pb1 W1 O8'
_cell_volume   171.72089744
_cell_formula_units_Z   1
loop_
 _symmetry_equiv_pos_site_id
 _symmetry_equiv_pos_as_xyz
  1  'x, y, z'
loop_
 _atom_site_type_symbol
 _atom_site_label
 _atom_site_symmetry_multiplicity
 _atom_site_fract_x
 _atom_site_fract_y
 _atom_site_fract_z
 _atom_site_occupancy
  P  P0  1  0.639953  0.639985  0.277593  1
  P  P1  1  0.360047  0.360015  0.722407  1
  Pb  Pb2  1  0.000000  0.000000  0.000000  1
  W  W3  1  0.000000  0.000000  0.500000  1
  O  O4  1  0.765401  0.765447  0.432264  1
  O  O5  1  0.705551  0.705577  0.095484  1
  O  O6  1  0.772206  0.295742  0.300911  1
  O  O7  1  0.295738  0.772141  0.300897  1
  O  O8  1  0.704262  0.227859  0.699103  1
  O  O9  1  0.227794  0.704258  0.699089  1
  O  O10  1  0.294449  0.294423  0.904516  1
  O  O11  1  0.234599  0.234553  0.567736  1
