# generated using pymatgen
data_Ba2MnCo5O12
_symmetry_space_group_name_H-M   'P 1'
_cell_length_a   4.94878443
_cell_length_b   6.45194439
_cell_length_c   8.59424800
_cell_angle_alpha   89.99996448
_cell_angle_beta   89.99998842
_cell_angle_gamma   74.63015903
_symmetry_Int_Tables_number   1
_chemical_formula_structural   Ba2MnCo5O12
_chemical_formula_sum   'Ba2 Mn1 Co5 O12'
_cell_volume   264.59397375
_cell_formula_units_Z   1
loop_
 _symmetry_equiv_pos_site_id
 _symmetry_equiv_pos_as_xyz
  1  'x, y, z'
loop_
 _atom_site_type_symbol
 _atom_site_label
 _atom_site_symmetry_multiplicity
 _atom_site_fract_x
 _atom_site_fract_y
 _atom_site_fract_z
 _atom_site_occupancy
  Ba  Ba0  1  0.000000  0.499999  0.162671  1
  Ba  Ba1  1  0.500001  0.500000  0.658164  1
  Mn  Mn2  1  0.500000  0.000000  0.834848  1
  Co  Co3  1  0.000000  0.000000  0.666436  1
  Co  Co4  1  0.500000  0.000000  0.499157  1
  Co  Co5  1  0.500000  0.000000  0.168635  1
  Co  Co6  1  0.000000  0.000000  0.334588  1
  Co  Co7  1  0.000000  0.000000  0.001003  1
  O  O8  1  0.780282  0.157447  0.169776  1
  O  O9  1  0.277175  0.162085  0.667197  1
  O  O10  1  0.219717  0.842553  0.169777  1
  O  O11  1  0.722825  0.837915  0.667197  1
  O  O12  1  0.278084  0.161822  0.000699  1
  O  O13  1  0.781341  0.157344  0.497704  1
  O  O14  1  0.275681  0.158461  0.334472  1
  O  O15  1  0.777122  0.163055  0.834067  1
  O  O16  1  0.724319  0.841539  0.334472  1
  O  O17  1  0.222878  0.836946  0.834067  1
  O  O18  1  0.721916  0.838177  0.000699  1
  O  O19  1  0.218659  0.842657  0.497704  1
