# generated using pymatgen
data_Yb6Pr3DyRu4
_symmetry_space_group_name_H-M   'P 1'
_cell_length_a   8.60298493
_cell_length_b   8.60298509
_cell_length_c   7.47583382
_cell_angle_alpha   83.21553072
_cell_angle_beta   83.21552288
_cell_angle_gamma   44.00390912
_symmetry_Int_Tables_number   1
_chemical_formula_structural   Yb6Pr3DyRu4
_chemical_formula_sum   'Yb6 Pr3 Dy1 Ru4'
_cell_volume   381.24638937
_cell_formula_units_Z   1
loop_
 _symmetry_equiv_pos_site_id
 _symmetry_equiv_pos_as_xyz
  1  'x, y, z'
loop_
 _atom_site_type_symbol
 _atom_site_label
 _atom_site_symmetry_multiplicity
 _atom_site_fract_x
 _atom_site_fract_y
 _atom_site_fract_z
 _atom_site_occupancy
  Yb  Yb0  1  0.201136  0.978832  0.581331  1
  Yb  Yb1  1  0.021168  0.798864  0.918669  1
  Yb  Yb2  1  0.201920  0.367123  0.317742  1
  Yb  Yb3  1  0.632877  0.798080  0.182258  1
  Yb  Yb4  1  0.805905  0.627577  0.676759  1
  Yb  Yb5  1  0.372423  0.194095  0.823241  1
  Pr  Pr6  1  0.974160  0.203648  0.079757  1
  Pr  Pr7  1  0.796352  0.025840  0.420243  1
  Pr  Pr8  1  0.561948  0.438052  0.750000  1
  Dy  Dy9  1  0.421195  0.578805  0.250000  1
  Ru  Ru10  1  0.177906  0.601441  0.573582  1
  Ru  Ru11  1  0.398559  0.822094  0.926418  1
  Ru  Ru12  1  0.819946  0.385497  0.415963  1
  Ru  Ru13  1  0.614503  0.180054  0.084037  1
