# generated using pymatgen
data_Ho20Bi8Ir3Ru
_symmetry_space_group_name_H-M   'P 1'
_cell_length_a   7.96040783
_cell_length_b   8.99997100
_cell_length_c   12.45121549
_cell_angle_alpha   90.00000000
_cell_angle_beta   90.13710487
_cell_angle_gamma   90.00000000
_symmetry_Int_Tables_number   1
_chemical_formula_structural   Ho20Bi8Ir3Ru
_chemical_formula_sum   'Ho20 Bi8 Ir3 Ru1'
_cell_volume   892.04535120
_cell_formula_units_Z   1
loop_
 _symmetry_equiv_pos_site_id
 _symmetry_equiv_pos_as_xyz
  1  'x, y, z'
loop_
 _atom_site_type_symbol
 _atom_site_label
 _atom_site_symmetry_multiplicity
 _atom_site_fract_x
 _atom_site_fract_y
 _atom_site_fract_z
 _atom_site_occupancy
  Ho  Ho0  1  0.838662  0.750000  0.790839  1
  Ho  Ho1  1  0.159398  0.250000  0.207343  1
  Ho  Ho2  1  0.342101  0.250000  0.706102  1
  Ho  Ho3  1  0.656461  0.750000  0.295898  1
  Ho  Ho4  1  0.380153  0.750000  0.694240  1
  Ho  Ho5  1  0.621809  0.250000  0.304991  1
  Ho  Ho6  1  0.878317  0.250000  0.806370  1
  Ho  Ho7  1  0.120374  0.750000  0.192255  1
  Ho  Ho8  1  0.947434  0.750000  0.502589  1
  Ho  Ho9  1  0.054860  0.250000  0.497166  1
  Ho  Ho10  1  0.446322  0.250000  0.999229  1
  Ho  Ho11  1  0.554312  0.750000  0.001333  1
  Ho  Ho12  1  0.676781  0.042266  0.564763  1
  Ho  Ho13  1  0.324132  0.956219  0.435917  1
  Ho  Ho14  1  0.175892  0.957764  0.933803  1
  Ho  Ho15  1  0.324132  0.543781  0.435917  1
  Ho  Ho16  1  0.823156  0.043026  0.065432  1
  Ho  Ho17  1  0.676781  0.457734  0.564763  1
  Ho  Ho18  1  0.823156  0.456974  0.065432  1
  Ho  Ho19  1  0.175892  0.542236  0.933803  1
  Bi  Bi20  1  0.569296  0.489743  0.827601  1
  Bi  Bi21  1  0.430152  0.510451  0.173148  1
  Bi  Bi22  1  0.069972  0.508858  0.672859  1
  Bi  Bi23  1  0.430152  0.989549  0.173148  1
  Bi  Bi24  1  0.930616  0.491640  0.327160  1
  Bi  Bi25  1  0.569296  0.010257  0.827601  1
  Bi  Bi26  1  0.930616  0.008360  0.327160  1
  Bi  Bi27  1  0.069972  0.991142  0.672859  1
  Ir  Ir28  1  0.426435  0.250000  0.489226  1
  Ir  Ir29  1  0.071917  0.250000  0.991149  1
  Ir  Ir30  1  0.927183  0.750000  0.007520  1
  Ru  Ru31  1  0.574265  0.750000  0.512385  1
