# generated using pymatgen
data_VInI18
_symmetry_space_group_name_H-M   'P 1'
_cell_length_a   10.16011097
_cell_length_b   10.16011201
_cell_length_c   10.16011307
_cell_angle_alpha   90.15280699
_cell_angle_beta   90.15280812
_cell_angle_gamma   90.15280789
_symmetry_Int_Tables_number   1
_chemical_formula_structural   VInI18
_chemical_formula_sum   'V1 In1 I18'
_cell_volume   1048.79557457
_cell_formula_units_Z   1
loop_
 _symmetry_equiv_pos_site_id
 _symmetry_equiv_pos_as_xyz
  1  'x, y, z'
loop_
 _atom_site_type_symbol
 _atom_site_label
 _atom_site_symmetry_multiplicity
 _atom_site_fract_x
 _atom_site_fract_y
 _atom_site_fract_z
 _atom_site_occupancy
  V  V0  1  0.000000  0.000000  0.000000  1
  In  In1  1  0.500000  0.500000  0.500000  1
  I  I2  1  0.730578  0.995046  0.021046  1
  I  I3  1  0.748922  0.121197  0.617907  1
  I  I4  1  0.021046  0.730578  0.995046  1
  I  I5  1  0.251078  0.878803  0.382093  1
  I  I6  1  0.121197  0.617907  0.748922  1
  I  I7  1  0.004954  0.978954  0.269422  1
  I  I8  1  0.617907  0.748922  0.121197  1
  I  I9  1  0.978954  0.269422  0.004954  1
  I  I10  1  0.878803  0.382093  0.251078  1
  I  I11  1  0.382093  0.251078  0.878803  1
  I  I12  1  0.995046  0.021046  0.730578  1
  I  I13  1  0.269422  0.004954  0.978954  1
  I  I14  1  0.792509  0.524894  0.488786  1
  I  I15  1  0.511214  0.207491  0.475106  1
  I  I16  1  0.475106  0.511214  0.207491  1
  I  I17  1  0.488786  0.792509  0.524894  1
  I  I18  1  0.524894  0.488786  0.792509  1
  I  I19  1  0.207491  0.475106  0.511214  1
