# generated using pymatgen
data_NaMn3FeSb12
_symmetry_space_group_name_H-M   'P 1'
_cell_length_a   8.07064638
_cell_length_b   8.07064734
_cell_length_c   8.12924900
_cell_angle_alpha   109.61837124
_cell_angle_beta   109.61837366
_cell_angle_gamma   109.32366521
_symmetry_Int_Tables_number   1
_chemical_formula_structural   NaMn3FeSb12
_chemical_formula_sum   'Na1 Mn3 Fe1 Sb12'
_cell_volume   406.86779832
_cell_formula_units_Z   1
loop_
 _symmetry_equiv_pos_site_id
 _symmetry_equiv_pos_as_xyz
  1  'x, y, z'
loop_
 _atom_site_type_symbol
 _atom_site_label
 _atom_site_symmetry_multiplicity
 _atom_site_fract_x
 _atom_site_fract_y
 _atom_site_fract_z
 _atom_site_occupancy
  Na  Na0  1  0.000000  0.000000  0.000000  1
  Mn  Mn1  1  0.000000  0.500000  0.000000  1
  Mn  Mn2  1  0.500000  0.500000  0.500000  1
  Mn  Mn3  1  0.500000  0.000000  0.000000  1
  Fe  Fe4  1  0.000000  0.000000  0.500000  1
  Sb  Sb5  1  0.671383  0.825820  0.165379  1
  Sb  Sb6  1  0.843324  0.339050  0.182501  1
  Sb  Sb7  1  0.504274  0.843324  0.660823  1
  Sb  Sb8  1  0.845563  0.671383  0.506004  1
  Sb  Sb9  1  0.495726  0.156676  0.339177  1
  Sb  Sb10  1  0.156676  0.660950  0.817499  1
  Sb  Sb11  1  0.825820  0.154437  0.660441  1
  Sb  Sb12  1  0.174180  0.845563  0.339559  1
  Sb  Sb13  1  0.154437  0.328617  0.493996  1
  Sb  Sb14  1  0.660950  0.504274  0.843451  1
  Sb  Sb15  1  0.339050  0.495726  0.156549  1
  Sb  Sb16  1  0.328617  0.174180  0.834621  1
