# generated using pymatgen
data_TbGd3Sc4(CrB6)4
_symmetry_space_group_name_H-M   'P 1'
_cell_length_a   3.48002800
_cell_length_b   9.02237504
_cell_length_c   11.39854005
_cell_angle_alpha   90.01043764
_cell_angle_beta   90.00000000
_cell_angle_gamma   90.00000000
_symmetry_Int_Tables_number   1
_chemical_formula_structural   TbGd3Sc4(CrB6)4
_chemical_formula_sum   'Tb1 Gd3 Sc4 Cr4 B24'
_cell_volume   357.89269672
_cell_formula_units_Z   1
loop_
 _symmetry_equiv_pos_site_id
 _symmetry_equiv_pos_as_xyz
  1  'x, y, z'
loop_
 _atom_site_type_symbol
 _atom_site_label
 _atom_site_symmetry_multiplicity
 _atom_site_fract_x
 _atom_site_fract_y
 _atom_site_fract_z
 _atom_site_occupancy
  Tb  Tb0  1  0.000000  0.677376  0.585317  1
  Gd  Gd1  1  0.000000  0.822543  0.085751  1
  Gd  Gd2  1  0.000000  0.177442  0.914784  1
  Gd  Gd3  1  0.000000  0.322487  0.414595  1
  Sc  Sc4  1  0.000000  0.443217  0.130948  1
  Sc  Sc5  1  0.000000  0.556761  0.868713  1
  Sc  Sc6  1  0.000000  0.943082  0.369082  1
  Sc  Sc7  1  0.000000  0.056570  0.630864  1
  Cr  Cr8  1  0.000000  0.141740  0.182430  1
  Cr  Cr9  1  0.000000  0.857953  0.817336  1
  Cr  Cr10  1  0.000000  0.641863  0.317912  1
  Cr  Cr11  1  0.000000  0.358458  0.682223  1
  B  B12  1  0.500000  0.055223  0.068427  1
  B  B13  1  0.500000  0.944831  0.931632  1
  B  B14  1  0.500000  0.555334  0.431731  1
  B  B15  1  0.500000  0.445051  0.568493  1
  B  B16  1  0.500000  0.253111  0.083315  1
  B  B17  1  0.500000  0.746728  0.916707  1
  B  B18  1  0.500000  0.753313  0.416957  1
  B  B19  1  0.500000  0.246765  0.583211  1
  B  B20  1  0.500000  0.294508  0.235284  1
  B  B21  1  0.500000  0.705389  0.764553  1
  B  B22  1  0.500000  0.794553  0.264789  1
  B  B23  1  0.500000  0.205494  0.735303  1
  B  B24  1  0.500000  0.129476  0.316201  1
  B  B25  1  0.500000  0.870492  0.683452  1
  B  B26  1  0.500000  0.629515  0.183725  1
  B  B27  1  0.500000  0.370582  0.816416  1
  B  B28  1  0.500000  0.482959  0.286111  1
  B  B29  1  0.500000  0.517273  0.713835  1
  B  B30  1  0.500000  0.982885  0.213761  1
  B  B31  1  0.500000  0.017011  0.786174  1
  B  B32  1  0.500000  0.095252  0.474119  1
  B  B33  1  0.500000  0.904488  0.525866  1
  B  B34  1  0.500000  0.595436  0.025819  1
  B  B35  1  0.500000  0.404838  0.974165  1
