# generated using pymatgen
data_Pr5NbCoO12
_symmetry_space_group_name_H-M   'P 1'
_cell_length_a   7.07348278
_cell_length_b   7.07348217
_cell_length_c   7.72076700
_cell_angle_alpha   74.26727496
_cell_angle_beta   74.26727482
_cell_angle_gamma   50.71508888
_symmetry_Int_Tables_number   1
_chemical_formula_structural   Pr5NbCoO12
_chemical_formula_sum   'Pr5 Nb1 Co1 O12'
_cell_volume   285.22262136
_cell_formula_units_Z   1
loop_
 _symmetry_equiv_pos_site_id
 _symmetry_equiv_pos_as_xyz
  1  'x, y, z'
loop_
 _atom_site_type_symbol
 _atom_site_label
 _atom_site_symmetry_multiplicity
 _atom_site_fract_x
 _atom_site_fract_y
 _atom_site_fract_z
 _atom_site_occupancy
  Pr  Pr0  1  0.318552  0.295855  0.356308  1
  Pr  Pr1  1  0.704145  0.681448  0.643692  1
  Pr  Pr2  1  0.699594  0.685915  0.164627  1
  Pr  Pr3  1  0.314085  0.300406  0.835373  1
  Pr  Pr4  1  0.996665  0.003335  0.500000  1
  Nb  Nb5  1  0.206524  0.793476  0.000000  1
  Co  Co6  1  0.737480  0.262520  0.000000  1
  O  O7  1  0.103347  0.591563  0.578560  1
  O  O8  1  0.986679  0.010915  0.181338  1
  O  O9  1  0.408437  0.896653  0.421440  1
  O  O10  1  0.507263  0.493738  0.166247  1
  O  O11  1  0.103298  0.576493  0.077811  1
  O  O12  1  0.911252  0.400983  0.421310  1
  O  O13  1  0.989085  0.013321  0.818662  1
  O  O14  1  0.599017  0.088747  0.578690  1
  O  O15  1  0.506262  0.492737  0.833753  1
  O  O16  1  0.588892  0.104082  0.076036  1
  O  O17  1  0.423507  0.896702  0.922189  1
  O  O18  1  0.895918  0.411108  0.923964  1
