# generated using pymatgen
data_Tb4Er2Lu6Co5Bi
_symmetry_space_group_name_H-M   'P 1'
_cell_length_a   8.21725620
_cell_length_b   8.21725644
_cell_length_c   8.19975715
_cell_angle_alpha   111.35393560
_cell_angle_beta   110.54310875
_cell_angle_gamma   106.64749391
_symmetry_Int_Tables_number   1
_chemical_formula_structural   Tb4Er2Lu6Co5Bi
_chemical_formula_sum   'Tb4 Er2 Lu6 Co5 Bi1'
_cell_volume   424.92047918
_cell_formula_units_Z   1
loop_
 _symmetry_equiv_pos_site_id
 _symmetry_equiv_pos_as_xyz
  1  'x, y, z'
loop_
 _atom_site_type_symbol
 _atom_site_label
 _atom_site_symmetry_multiplicity
 _atom_site_fract_x
 _atom_site_fract_y
 _atom_site_fract_z
 _atom_site_occupancy
  Tb  Tb0  1  0.594577  0.791280  0.805164  1
  Tb  Tb1  1  0.405423  0.208720  0.194836  1
  Tb  Tb2  1  0.986118  0.789414  0.194836  1
  Tb  Tb3  1  0.013882  0.210586  0.805164  1
  Er  Er4  1  0.818250  0.711611  0.529861  1
  Er  Er5  1  0.181750  0.288389  0.470139  1
  Lu  Lu6  1  0.182407  0.711518  0.893926  1
  Lu  Lu7  1  0.817593  0.288482  0.106074  1
  Lu  Lu8  1  0.687322  0.376172  0.690153  1
  Lu  Lu9  1  0.312678  0.623828  0.309847  1
  Lu  Lu10  1  0.686019  0.997169  0.309847  1
  Lu  Lu11  1  0.313981  0.002831  0.690153  1
  Co  Co12  1  0.623978  0.001058  0.625036  1
  Co  Co13  1  0.376022  0.998942  0.374964  1
  Co  Co14  1  0.112167  0.612167  0.500000  1
  Co  Co15  1  0.887833  0.387833  0.500000  1
  Co  Co16  1  0.000000  0.000000  0.000000  1
  Bi  Bi17  1  0.500000  0.500000  0.000000  1
