# generated using pymatgen
data_Be8TcMo2W
_symmetry_space_group_name_H-M   'P 1'
_cell_length_a   4.42906700
_cell_length_b   4.42906455
_cell_length_c   7.26722700
_cell_angle_alpha   90.00000000
_cell_angle_beta   90.00000000
_cell_angle_gamma   120.00001081
_symmetry_Int_Tables_number   1
_chemical_formula_structural   Be8TcMo2W
_chemical_formula_sum   'Be8 Tc1 Mo2 W1'
_cell_volume   123.45923188
_cell_formula_units_Z   1
loop_
 _symmetry_equiv_pos_site_id
 _symmetry_equiv_pos_as_xyz
  1  'x, y, z'
loop_
 _atom_site_type_symbol
 _atom_site_label
 _atom_site_symmetry_multiplicity
 _atom_site_fract_x
 _atom_site_fract_y
 _atom_site_fract_z
 _atom_site_occupancy
  Be  Be0  1  0.000000  0.000000  0.502156  1
  Be  Be1  1  0.000000  0.000000  0.000618  1
  Be  Be2  1  0.831116  0.168884  0.248654  1
  Be  Be3  1  0.831116  0.662234  0.248654  1
  Be  Be4  1  0.337766  0.168884  0.248654  1
  Be  Be5  1  0.169400  0.830600  0.751229  1
  Be  Be6  1  0.169400  0.338799  0.751229  1
  Be  Be7  1  0.661201  0.830600  0.751229  1
  Tc  Tc8  1  0.666667  0.333333  0.937265  1
  Mo  Mo9  1  0.333333  0.666667  0.437600  1
  Mo  Mo10  1  0.666667  0.333333  0.563520  1
  W  W11  1  0.333333  0.666667  0.059188  1
