# generated using pymatgen
data_Y4Al18Co4CuPt
_symmetry_space_group_name_H-M   'P 1'
_cell_length_a   7.49047943
_cell_length_b   7.49047999
_cell_length_c   9.37240472
_cell_angle_alpha   89.91647647
_cell_angle_beta   89.91647630
_cell_angle_gamma   119.29033728
_symmetry_Int_Tables_number   1
_chemical_formula_structural   Y4Al18Co4CuPt
_chemical_formula_sum   'Y4 Al18 Co4 Cu1 Pt1'
_cell_volume   458.62800316
_cell_formula_units_Z   1
loop_
 _symmetry_equiv_pos_site_id
 _symmetry_equiv_pos_as_xyz
  1  'x, y, z'
loop_
 _atom_site_type_symbol
 _atom_site_label
 _atom_site_symmetry_multiplicity
 _atom_site_fract_x
 _atom_site_fract_y
 _atom_site_fract_z
 _atom_site_occupancy
  Y  Y0  1  0.995027  0.676782  0.250715  1
  Y  Y1  1  0.004973  0.323218  0.749285  1
  Y  Y2  1  0.676782  0.995027  0.250715  1
  Y  Y3  1  0.323218  0.004973  0.749285  1
  Al  Al4  1  0.137801  0.137801  0.251814  1
  Al  Al5  1  0.862199  0.862199  0.748186  1
  Al  Al6  1  0.338702  0.338702  0.546166  1
  Al  Al7  1  0.659871  0.659871  0.047527  1
  Al  Al8  1  0.340129  0.340129  0.952473  1
  Al  Al9  1  0.661298  0.661298  0.453834  1
  Al  Al10  1  0.339590  0.557847  0.250110  1
  Al  Al11  1  0.660410  0.442153  0.749890  1
  Al  Al12  1  0.557847  0.339590  0.250110  1
  Al  Al13  1  0.442153  0.660410  0.749890  1
  Al  Al14  1  0.998243  0.343519  0.072534  1
  Al  Al15  1  0.001687  0.656110  0.573635  1
  Al  Al16  1  0.343890  0.998313  0.426365  1
  Al  Al17  1  0.656481  0.001757  0.927466  1
  Al  Al18  1  0.001757  0.656481  0.927466  1
  Al  Al19  1  0.998313  0.343890  0.426365  1
  Al  Al20  1  0.656110  0.001687  0.573635  1
  Al  Al21  1  0.343519  0.998243  0.072534  1
  Co  Co22  1  0.670766  0.329234  0.000000  1
  Co  Co23  1  0.329117  0.670883  0.500000  1
  Co  Co24  1  0.329234  0.670766  0.000000  1
  Co  Co25  1  0.670883  0.329117  0.500000  1
  Cu  Cu26  1  0.000000  0.000000  0.500000  1
  Pt  Pt27  1  0.000000  0.000000  0.000000  1
