# generated using pymatgen
data_NdY8Ho11Pb16
_symmetry_space_group_name_H-M   'P 1'
_cell_length_a   8.19501608
_cell_length_b   8.29966894
_cell_length_c   15.65001675
_cell_angle_alpha   90.00935678
_cell_angle_beta   89.78875518
_cell_angle_gamma   89.82396533
_symmetry_Int_Tables_number   1
_chemical_formula_structural   NdY8Ho11Pb16
_chemical_formula_sum   'Nd1 Y8 Ho11 Pb16'
_cell_volume   1064.43801804
_cell_formula_units_Z   1
loop_
 _symmetry_equiv_pos_site_id
 _symmetry_equiv_pos_as_xyz
  1  'x, y, z'
loop_
 _atom_site_type_symbol
 _atom_site_label
 _atom_site_symmetry_multiplicity
 _atom_site_fract_x
 _atom_site_fract_y
 _atom_site_fract_z
 _atom_site_occupancy
  Nd  Nd0  1  0.974863  0.821480  0.596810  1
  Y  Y1  1  0.130408  0.341927  0.621439  1
  Y  Y2  1  0.471207  0.676771  0.597884  1
  Y  Y3  1  0.971562  0.822498  0.902130  1
  Y  Y4  1  0.528603  0.323426  0.097881  1
  Y  Y5  1  0.028526  0.177373  0.400941  1
  Y  Y6  1  0.527186  0.322791  0.401799  1
  Y  Y7  1  0.028176  0.177121  0.098032  1
  Y  Y8  1  0.472314  0.676886  0.903310  1
  Ho  Ho9  1  0.630817  0.158539  0.622803  1
  Ho  Ho10  1  0.130444  0.341892  0.879068  1
  Ho  Ho11  1  0.369852  0.842702  0.122122  1
  Ho  Ho12  1  0.867923  0.657131  0.377485  1
  Ho  Ho13  1  0.369112  0.842364  0.376800  1
  Ho  Ho14  1  0.869603  0.657591  0.121849  1
  Ho  Ho15  1  0.629930  0.157546  0.878426  1
  Ho  Ho16  1  0.797577  0.495723  0.750771  1
  Ho  Ho17  1  0.298281  0.004554  0.750984  1
  Ho  Ho18  1  0.201981  0.504220  0.249525  1
  Ho  Ho19  1  0.702008  0.995953  0.249640  1
  Pb  Pb20  1  0.709604  0.964700  0.455910  1
  Pb  Pb21  1  0.212308  0.538453  0.042854  1
  Pb  Pb22  1  0.287385  0.036992  0.957687  1
  Pb  Pb23  1  0.784692  0.461014  0.542226  1
  Pb  Pb24  1  0.292740  0.039527  0.541688  1
  Pb  Pb25  1  0.787813  0.461669  0.957689  1
  Pb  Pb26  1  0.712390  0.962228  0.042698  1
  Pb  Pb27  1  0.211952  0.538842  0.456616  1
  Pb  Pb28  1  0.435413  0.374498  0.750880  1
  Pb  Pb29  1  0.935276  0.126062  0.750863  1
  Pb  Pb30  1  0.564505  0.625175  0.249328  1
  Pb  Pb31  1  0.064136  0.874187  0.249689  1
  Pb  Pb32  1  0.658293  0.845253  0.750795  1
  Pb  Pb33  1  0.162180  0.652445  0.752104  1
  Pb  Pb34  1  0.340586  0.154991  0.249517  1
  Pb  Pb35  1  0.840350  0.345476  0.249759  1
