# generated using pymatgen
data_Dy16In3AgIr3Rh
_symmetry_space_group_name_H-M   'P 1'
_cell_length_a   9.66480963
_cell_length_b   9.64663813
_cell_length_c   9.65378015
_cell_angle_alpha   59.90352631
_cell_angle_beta   59.97756994
_cell_angle_gamma   59.85138062
_symmetry_Int_Tables_number   1
_chemical_formula_structural   Dy16In3AgIr3Rh
_chemical_formula_sum   'Dy16 In3 Ag1 Ir3 Rh1'
_cell_volume   635.14252351
_cell_formula_units_Z   1
loop_
 _symmetry_equiv_pos_site_id
 _symmetry_equiv_pos_as_xyz
  1  'x, y, z'
loop_
 _atom_site_type_symbol
 _atom_site_label
 _atom_site_symmetry_multiplicity
 _atom_site_fract_x
 _atom_site_fract_y
 _atom_site_fract_z
 _atom_site_occupancy
  Dy  Dy0  1  0.690124  0.311229  0.309457  1
  Dy  Dy1  1  0.689800  0.688716  0.312738  1
  Dy  Dy2  1  0.310877  0.689835  0.309952  1
  Dy  Dy3  1  0.936253  0.938513  0.557414  1
  Dy  Dy4  1  0.149119  0.149376  0.550459  1
  Dy  Dy5  1  0.565533  0.940150  0.556298  1
  Dy  Dy6  1  0.152227  0.152676  0.150029  1
  Dy  Dy7  1  0.308812  0.309445  0.691709  1
  Dy  Dy8  1  0.940573  0.564186  0.555313  1
  Dy  Dy9  1  0.561901  0.561888  0.937586  1
  Dy  Dy10  1  0.563212  0.938145  0.934094  1
  Dy  Dy11  1  0.938308  0.562322  0.936058  1
  Dy  Dy12  1  0.149578  0.549200  0.148240  1
  Dy  Dy13  1  0.310253  0.690781  0.692389  1
  Dy  Dy14  1  0.691392  0.310466  0.692011  1
  Dy  Dy15  1  0.549393  0.149812  0.148295  1
  In  In16  1  0.245362  0.917165  0.922011  1
  In  In17  1  0.916477  0.245003  0.922645  1
  In  In18  1  0.916750  0.917476  0.921004  1
  Ag  Ag19  1  0.915759  0.915820  0.252033  1
  Ir  Ir20  1  0.357167  0.357383  0.358636  1
  Ir  Ir21  1  0.925222  0.357611  0.358549  1
  Ir  Ir22  1  0.358037  0.357922  0.924588  1
  Rh  Rh23  1  0.357869  0.924877  0.358496  1
