# generated using pymatgen
data_ErTm9Os4
_symmetry_space_group_name_H-M   'P 1'
_cell_length_a   6.27608337
_cell_length_b   7.31651182
_cell_length_c   8.30902115
_cell_angle_alpha   96.97164856
_cell_angle_beta   112.21444828
_cell_angle_gamma   90.05296715
_symmetry_Int_Tables_number   1
_chemical_formula_structural   ErTm9Os4
_chemical_formula_sum   'Er1 Tm9 Os4'
_cell_volume   350.15550951
_cell_formula_units_Z   1
loop_
 _symmetry_equiv_pos_site_id
 _symmetry_equiv_pos_as_xyz
  1  'x, y, z'
loop_
 _atom_site_type_symbol
 _atom_site_label
 _atom_site_symmetry_multiplicity
 _atom_site_fract_x
 _atom_site_fract_y
 _atom_site_fract_z
 _atom_site_occupancy
  Er  Er0  1  0.792437  0.083782  0.817250  1
  Tm  Tm1  1  0.975586  0.416222  0.182743  1
  Tm  Tm2  1  0.207370  0.916182  0.182830  1
  Tm  Tm3  1  0.024634  0.583804  0.817413  1
  Tm  Tm4  1  0.203223  0.182571  0.563988  1
  Tm  Tm5  1  0.639758  0.317418  0.435959  1
  Tm  Tm6  1  0.796542  0.817266  0.435742  1
  Tm  Tm7  1  0.360170  0.682617  0.563931  1
  Tm  Tm8  1  0.420240  0.249896  0.000010  1
  Tm  Tm9  1  0.579705  0.750048  0.000134  1
  Os  Os10  1  0.602687  0.422142  0.780193  1
  Os  Os11  1  0.822628  0.078433  0.219825  1
  Os  Os12  1  0.397010  0.578233  0.219696  1
  Os  Os13  1  0.178011  0.921384  0.780287  1
