# generated using pymatgen
data_Dy3Mg3RuPt2
_symmetry_space_group_name_H-M   'P 1'
_cell_length_a   7.35449300
_cell_length_b   7.35449345
_cell_length_c   4.03798500
_cell_angle_alpha   90.00000000
_cell_angle_beta   90.00000000
_cell_angle_gamma   120.00000248
_symmetry_Int_Tables_number   1
_chemical_formula_structural   Dy3Mg3RuPt2
_chemical_formula_sum   'Dy3 Mg3 Ru1 Pt2'
_cell_volume   189.14759629
_cell_formula_units_Z   1
loop_
 _symmetry_equiv_pos_site_id
 _symmetry_equiv_pos_as_xyz
  1  'x, y, z'
loop_
 _atom_site_type_symbol
 _atom_site_label
 _atom_site_symmetry_multiplicity
 _atom_site_fract_x
 _atom_site_fract_y
 _atom_site_fract_z
 _atom_site_occupancy
  Dy  Dy0  1  0.012603  0.418748  0.500000  1
  Dy  Dy1  1  0.581252  0.593854  0.500000  1
  Dy  Dy2  1  0.406146  0.987397  0.500000  1
  Mg  Mg3  1  0.998057  0.752617  0.000000  1
  Mg  Mg4  1  0.247383  0.245438  0.000000  1
  Mg  Mg5  1  0.754562  0.001943  0.000000  1
  Ru  Ru6  1  0.333333  0.666667  0.000000  1
  Pt  Pt7  1  0.666667  0.333333  0.000000  1
  Pt  Pt8  1  0.000000  0.000000  0.500000  1
