# generated using pymatgen
data_MnTlCrF6
_symmetry_space_group_name_H-M   'P 1'
_cell_length_a   7.54526819
_cell_length_b   7.54526848
_cell_length_c   7.54526800
_cell_angle_alpha   120.03339335
_cell_angle_beta   120.34303278
_cell_angle_gamma   89.67452951
_symmetry_Int_Tables_number   1
_chemical_formula_structural   MnTlCrF6
_chemical_formula_sum   'Mn2 Tl2 Cr2 F12'
_cell_volume   302.87273910
_cell_formula_units_Z   2
loop_
 _symmetry_equiv_pos_site_id
 _symmetry_equiv_pos_as_xyz
  1  'x, y, z'
loop_
 _atom_site_type_symbol
 _atom_site_label
 _atom_site_symmetry_multiplicity
 _atom_site_fract_x
 _atom_site_fract_y
 _atom_site_fract_z
 _atom_site_occupancy
  Mn  Mn0  1  0.500000  0.000000  0.500000  1
  Mn  Mn1  1  0.000000  0.000000  0.000000  1
  Tl  Tl2  1  0.610598  0.360598  0.250000  1
  Tl  Tl3  1  0.389402  0.639402  0.750000  1
  Cr  Cr4  1  0.000000  0.000000  0.500000  1
  Cr  Cr5  1  0.000000  0.500000  0.000000  1
  F  F6  1  0.050236  0.300236  0.750000  1
  F  F7  1  0.660001  0.910001  0.750000  1
  F  F8  1  0.061151  0.338274  0.146601  1
  F  F9  1  0.691673  0.914550  0.353399  1
  F  F10  1  0.691673  0.338274  0.777124  1
  F  F11  1  0.061151  0.914550  0.722876  1
  F  F12  1  0.949764  0.699764  0.250000  1
  F  F13  1  0.339999  0.089999  0.250000  1
  F  F14  1  0.938849  0.661726  0.853399  1
  F  F15  1  0.308327  0.085450  0.646601  1
  F  F16  1  0.308327  0.661726  0.222876  1
  F  F17  1  0.938849  0.085450  0.277124  1
