# generated using pymatgen
data_Nd2YPd5
_symmetry_space_group_name_H-M   'P 1'
_cell_length_a   5.94655123
_cell_length_b   5.94655063
_cell_length_c   9.85745800
_cell_angle_alpha   90.00000000
_cell_angle_beta   90.00000000
_cell_angle_gamma   104.56259224
_symmetry_Int_Tables_number   1
_chemical_formula_structural   Nd2YPd5
_chemical_formula_sum   'Nd4 Y2 Pd10'
_cell_volume   337.37572969
_cell_formula_units_Z   2
loop_
 _symmetry_equiv_pos_site_id
 _symmetry_equiv_pos_as_xyz
  1  'x, y, z'
loop_
 _atom_site_type_symbol
 _atom_site_label
 _atom_site_symmetry_multiplicity
 _atom_site_fract_x
 _atom_site_fract_y
 _atom_site_fract_z
 _atom_site_occupancy
  Nd  Nd0  1  0.203304  0.796696  0.500000  1
  Nd  Nd1  1  0.203304  0.796696  0.000000  1
  Nd  Nd2  1  0.796696  0.203304  0.500000  1
  Nd  Nd3  1  0.796696  0.203304  0.000000  1
  Y  Y4  1  0.621071  0.621071  0.250000  1
  Y  Y5  1  0.378929  0.378929  0.750000  1
  Pd  Pd6  1  0.021257  0.021257  0.250000  1
  Pd  Pd7  1  0.978743  0.978743  0.750000  1
  Pd  Pd8  1  0.316220  0.316220  0.049592  1
  Pd  Pd9  1  0.683780  0.683780  0.950408  1
  Pd  Pd10  1  0.316220  0.316220  0.450408  1
  Pd  Pd11  1  0.683780  0.683780  0.549592  1
  Pd  Pd12  1  0.501023  0.058506  0.250000  1
  Pd  Pd13  1  0.941494  0.498977  0.750000  1
  Pd  Pd14  1  0.498977  0.941494  0.750000  1
  Pd  Pd15  1  0.058506  0.501023  0.250000  1
