# generated using pymatgen
data_TmMgFeB6
_symmetry_space_group_name_H-M   'P 1'
_cell_length_a   3.39146800
_cell_length_b   8.80832700
_cell_length_c   11.14783000
_cell_angle_alpha   90.00000000
_cell_angle_beta   90.00000000
_cell_angle_gamma   90.00000000
_symmetry_Int_Tables_number   1
_chemical_formula_structural   TmMgFeB6
_chemical_formula_sum   'Tm4 Mg4 Fe4 B24'
_cell_volume   333.02089981
_cell_formula_units_Z   4
loop_
 _symmetry_equiv_pos_site_id
 _symmetry_equiv_pos_as_xyz
  1  'x, y, z'
loop_
 _atom_site_type_symbol
 _atom_site_label
 _atom_site_symmetry_multiplicity
 _atom_site_fract_x
 _atom_site_fract_y
 _atom_site_fract_z
 _atom_site_occupancy
  Tm  Tm0  1  0.000000  0.823938  0.086213  1
  Tm  Tm1  1  0.000000  0.176062  0.913787  1
  Tm  Tm2  1  0.000000  0.323938  0.413787  1
  Tm  Tm3  1  0.000000  0.676062  0.586213  1
  Mg  Mg4  1  0.000000  0.443048  0.130028  1
  Mg  Mg5  1  0.000000  0.556952  0.869972  1
  Mg  Mg6  1  0.000000  0.943048  0.369972  1
  Mg  Mg7  1  0.000000  0.056952  0.630028  1
  Fe  Fe8  1  0.000000  0.140653  0.181595  1
  Fe  Fe9  1  0.000000  0.859347  0.818405  1
  Fe  Fe10  1  0.000000  0.640653  0.318405  1
  Fe  Fe11  1  0.000000  0.359347  0.681595  1
  B  B12  1  0.500000  0.056077  0.068541  1
  B  B13  1  0.500000  0.943923  0.931459  1
  B  B14  1  0.500000  0.556077  0.431459  1
  B  B15  1  0.500000  0.443923  0.568541  1
  B  B16  1  0.500000  0.253528  0.082521  1
  B  B17  1  0.500000  0.746472  0.917479  1
  B  B18  1  0.500000  0.753528  0.417479  1
  B  B19  1  0.500000  0.246472  0.582521  1
  B  B20  1  0.500000  0.292632  0.235869  1
  B  B21  1  0.500000  0.707368  0.764131  1
  B  B22  1  0.500000  0.792632  0.264131  1
  B  B23  1  0.500000  0.207368  0.735869  1
  B  B24  1  0.500000  0.128506  0.316551  1
  B  B25  1  0.500000  0.871494  0.683449  1
  B  B26  1  0.500000  0.628506  0.183449  1
  B  B27  1  0.500000  0.371494  0.816551  1
  B  B28  1  0.500000  0.482667  0.286964  1
  B  B29  1  0.500000  0.517333  0.713036  1
  B  B30  1  0.500000  0.982667  0.213036  1
  B  B31  1  0.500000  0.017333  0.786964  1
  B  B32  1  0.500000  0.094069  0.474421  1
  B  B33  1  0.500000  0.905931  0.525579  1
  B  B34  1  0.500000  0.594069  0.025579  1
  B  B35  1  0.500000  0.405931  0.974421  1
