# generated using pymatgen
data_Nb12As5C3S
_symmetry_space_group_name_H-M   'P 1'
_cell_length_a   10.55856400
_cell_length_b   10.55856480
_cell_length_c   3.40960400
_cell_angle_alpha   90.00000000
_cell_angle_beta   90.00000000
_cell_angle_gamma   120.00000375
_symmetry_Int_Tables_number   1
_chemical_formula_structural   Nb12As5C3S
_chemical_formula_sum   'Nb12 As5 C3 S1'
_cell_volume   329.18823361
_cell_formula_units_Z   1
loop_
 _symmetry_equiv_pos_site_id
 _symmetry_equiv_pos_as_xyz
  1  'x, y, z'
loop_
 _atom_site_type_symbol
 _atom_site_label
 _atom_site_symmetry_multiplicity
 _atom_site_fract_x
 _atom_site_fract_y
 _atom_site_fract_z
 _atom_site_occupancy
  Nb  Nb0  1  0.811553  0.000000  0.000000  1
  Nb  Nb1  1  0.188447  0.188447  0.000000  1
  Nb  Nb2  1  0.000000  0.811553  0.000000  1
  Nb  Nb3  1  0.000000  0.538898  0.000000  1
  Nb  Nb4  1  0.461102  0.461102  0.000000  1
  Nb  Nb5  1  0.538898  0.000000  0.000000  1
  Nb  Nb6  1  0.450367  0.211149  0.500000  1
  Nb  Nb7  1  0.788851  0.239218  0.500000  1
  Nb  Nb8  1  0.760782  0.549633  0.500000  1
  Nb  Nb9  1  0.549633  0.760782  0.500000  1
  Nb  Nb10  1  0.239218  0.788851  0.500000  1
  Nb  Nb11  1  0.211149  0.450367  0.500000  1
  As  As12  1  0.666667  0.333333  0.000000  1
  As  As13  1  0.333333  0.666667  0.000000  1
  As  As14  1  0.000000  0.282833  0.000000  1
  As  As15  1  0.717167  0.717167  0.000000  1
  As  As16  1  0.282833  0.000000  0.000000  1
  C  C17  1  0.000000  0.672416  0.500000  1
  C  C18  1  0.327584  0.327584  0.500000  1
  C  C19  1  0.672416  0.000000  0.500000  1
  S  S20  1  0.000000  0.000000  0.500000  1
