# generated using pymatgen
data_Cd2Ni3RhO8
_symmetry_space_group_name_H-M   'P 1'
_cell_length_a   6.16590580
_cell_length_b   6.16590565
_cell_length_c   6.23976428
_cell_angle_alpha   60.39078959
_cell_angle_beta   60.39079093
_cell_angle_gamma   60.00000467
_symmetry_Int_Tables_number   1
_chemical_formula_structural   Cd2Ni3RhO8
_chemical_formula_sum   'Cd2 Ni3 Rh1 O8'
_cell_volume   168.72799751
_cell_formula_units_Z   1
loop_
 _symmetry_equiv_pos_site_id
 _symmetry_equiv_pos_as_xyz
  1  'x, y, z'
loop_
 _atom_site_type_symbol
 _atom_site_label
 _atom_site_symmetry_multiplicity
 _atom_site_fract_x
 _atom_site_fract_y
 _atom_site_fract_z
 _atom_site_occupancy
  Cd  Cd0  1  0.259184  0.259184  0.222447  1
  Cd  Cd1  1  0.990816  0.990816  0.027553  1
  Ni  Ni2  1  0.625000  0.125000  0.625000  1
  Ni  Ni3  1  0.125000  0.625000  0.625000  1
  Ni  Ni4  1  0.625000  0.625000  0.625000  1
  Rh  Rh5  1  0.625000  0.625000  0.125000  1
  O  O6  1  0.850230  0.850230  0.449310  1
  O  O7  1  0.851290  0.422102  0.875319  1
  O  O8  1  0.422102  0.851290  0.875319  1
  O  O9  1  0.851290  0.851290  0.875319  1
  O  O10  1  0.399770  0.399770  0.800690  1
  O  O11  1  0.398710  0.827898  0.374681  1
  O  O12  1  0.827898  0.398710  0.374681  1
  O  O13  1  0.398710  0.398710  0.374681  1
