# generated using pymatgen
data_Tm3Hf(Ga3Rh)6
_symmetry_space_group_name_H-M   'P 1'
_cell_length_a   7.53584790
_cell_length_b   7.51921770
_cell_length_c   9.44619800
_cell_angle_alpha   90.00000000
_cell_angle_beta   90.00000000
_cell_angle_gamma   119.90017004
_symmetry_Int_Tables_number   1
_chemical_formula_structural   Tm3Hf(Ga3Rh)6
_chemical_formula_sum   'Tm3 Hf1 Ga18 Rh6'
_cell_volume   464.01119716
_cell_formula_units_Z   1
loop_
 _symmetry_equiv_pos_site_id
 _symmetry_equiv_pos_as_xyz
  1  'x, y, z'
loop_
 _atom_site_type_symbol
 _atom_site_label
 _atom_site_symmetry_multiplicity
 _atom_site_fract_x
 _atom_site_fract_y
 _atom_site_fract_z
 _atom_site_occupancy
  Tm  Tm0  1  0.004034  0.331121  0.750000  1
  Tm  Tm1  1  0.669298  0.997443  0.250000  1
  Tm  Tm2  1  0.331403  0.003589  0.750000  1
  Hf  Hf3  1  0.996594  0.668111  0.250000  1
  Ga  Ga4  1  0.123453  0.122073  0.250000  1
  Ga  Ga5  1  0.874204  0.874151  0.750000  1
  Ga  Ga6  1  0.998873  0.337125  0.082942  1
  Ga  Ga7  1  0.001116  0.665645  0.921936  1
  Ga  Ga8  1  0.001116  0.665645  0.578064  1
  Ga  Ga9  1  0.331300  0.996580  0.417043  1
  Ga  Ga10  1  0.998873  0.337125  0.417058  1
  Ga  Ga11  1  0.665808  0.000519  0.579825  1
  Ga  Ga12  1  0.665808  0.000519  0.920175  1
  Ga  Ga13  1  0.331300  0.996580  0.082957  1
  Ga  Ga14  1  0.332483  0.332411  0.565517  1
  Ga  Ga15  1  0.669978  0.667842  0.431190  1
  Ga  Ga16  1  0.669978  0.667842  0.068810  1
  Ga  Ga17  1  0.332483  0.332411  0.934483  1
  Ga  Ga18  1  0.336750  0.548773  0.250000  1
  Ga  Ga19  1  0.661780  0.452880  0.750000  1
  Ga  Ga20  1  0.551904  0.340897  0.250000  1
  Ga  Ga21  1  0.451763  0.660975  0.750000  1
  Rh  Rh22  1  0.672465  0.328709  0.000921  1
  Rh  Rh23  1  0.327739  0.672101  0.001456  1
  Rh  Rh24  1  0.327739  0.672101  0.498544  1
  Rh  Rh25  1  0.672465  0.328709  0.499079  1
  Rh  Rh26  1  0.999648  0.999062  0.001050  1
  Rh  Rh27  1  0.999648  0.999062  0.498950  1
