# generated using pymatgen
data_Tb2NpFe2Si7
_symmetry_space_group_name_H-M   'P 1'
_cell_length_a   12.26121512
_cell_length_b   12.26121405
_cell_length_c   4.05354900
_cell_angle_alpha   90.00000000
_cell_angle_beta   90.00000000
_cell_angle_gamma   160.79825596
_symmetry_Int_Tables_number   1
_chemical_formula_structural   Tb2NpFe2Si7
_chemical_formula_sum   'Tb2 Np1 Fe2 Si7'
_cell_volume   200.42883552
_cell_formula_units_Z   1
loop_
 _symmetry_equiv_pos_site_id
 _symmetry_equiv_pos_as_xyz
  1  'x, y, z'
loop_
 _atom_site_type_symbol
 _atom_site_label
 _atom_site_symmetry_multiplicity
 _atom_site_fract_x
 _atom_site_fract_y
 _atom_site_fract_z
 _atom_site_occupancy
  Tb  Tb0  1  0.099156  0.900844  0.500000  1
  Tb  Tb1  1  0.466786  0.533214  0.500000  1
  Np  Np2  1  0.783120  0.216880  0.000000  1
  Fe  Fe3  1  0.658259  0.341741  0.000000  1
  Fe  Fe4  1  0.907865  0.092135  0.000000  1
  Si  Si5  1  0.368009  0.631991  0.000000  1
  Si  Si6  1  0.561887  0.438113  0.000000  1
  Si  Si7  1  0.867652  0.132348  0.500000  1
  Si  Si8  1  0.003965  0.996035  0.000000  1
  Si  Si9  1  0.198226  0.801774  0.000000  1
  Si  Si10  1  0.283173  0.716827  0.500000  1
  Si  Si11  1  0.698601  0.301399  0.500000  1
