# generated using pymatgen
data_PrSmPt10
_symmetry_space_group_name_H-M   'P 1'
_cell_length_a   4.45413200
_cell_length_b   5.42328900
_cell_length_c   9.36856000
_cell_angle_alpha   89.99998944
_cell_angle_beta   90.00000000
_cell_angle_gamma   90.00000000
_symmetry_Int_Tables_number   1
_chemical_formula_structural   PrSmPt10
_chemical_formula_sum   'Pr1 Sm1 Pt10'
_cell_volume   226.30735770
_cell_formula_units_Z   1
loop_
 _symmetry_equiv_pos_site_id
 _symmetry_equiv_pos_as_xyz
  1  'x, y, z'
loop_
 _atom_site_type_symbol
 _atom_site_label
 _atom_site_symmetry_multiplicity
 _atom_site_fract_x
 _atom_site_fract_y
 _atom_site_fract_z
 _atom_site_occupancy
  Pr  Pr0  1  0.000000  0.499976  0.500000  1
  Sm  Sm1  1  0.000000  0.999983  0.000000  1
  Pt  Pt2  1  0.000000  0.999985  0.330331  1
  Pt  Pt3  1  0.000000  0.499981  0.834717  1
  Pt  Pt4  1  0.000000  0.499981  0.165283  1
  Pt  Pt5  1  0.000000  0.999985  0.669669  1
  Pt  Pt6  1  0.500000  0.999978  0.500000  1
  Pt  Pt7  1  0.500000  0.499989  0.000000  1
  Pt  Pt8  1  0.500000  0.248910  0.248358  1
  Pt  Pt9  1  0.500000  0.751061  0.751639  1
  Pt  Pt10  1  0.500000  0.751061  0.248361  1
  Pt  Pt11  1  0.500000  0.248910  0.751642  1
