# generated using pymatgen
data_Cs5KP4W
_symmetry_space_group_name_H-M   'P 1'
_cell_length_a   10.84293920
_cell_length_b   10.84293848
_cell_length_c   8.54306862
_cell_angle_alpha   88.65234385
_cell_angle_beta   88.65233895
_cell_angle_gamma   120.55206244
_symmetry_Int_Tables_number   1
_chemical_formula_structural   Cs5KP4W
_chemical_formula_sum   'Cs10 K2 P8 W2'
_cell_volume   863.98553788
_cell_formula_units_Z   2
loop_
 _symmetry_equiv_pos_site_id
 _symmetry_equiv_pos_as_xyz
  1  'x, y, z'
loop_
 _atom_site_type_symbol
 _atom_site_label
 _atom_site_symmetry_multiplicity
 _atom_site_fract_x
 _atom_site_fract_y
 _atom_site_fract_z
 _atom_site_occupancy
  Cs  Cs0  1  0.462424  0.534798  0.492605  1
  Cs  Cs1  1  0.071014  0.536087  0.500480  1
  Cs  Cs2  1  0.534798  0.462424  0.992605  1
  Cs  Cs3  1  0.536087  0.071014  0.000480  1
  Cs  Cs4  1  0.854842  0.142811  0.681735  1
  Cs  Cs5  1  0.295272  0.146406  0.699065  1
  Cs  Cs6  1  0.853639  0.708835  0.664019  1
  Cs  Cs7  1  0.142811  0.854842  0.181735  1
  Cs  Cs8  1  0.708835  0.853639  0.164019  1
  Cs  Cs9  1  0.146406  0.295272  0.199065  1
  K  K10  1  0.469341  0.941812  0.508006  1
  K  K11  1  0.941812  0.469341  0.008006  1
  P  P12  1  0.673045  0.333534  0.663297  1
  P  P13  1  0.333534  0.673045  0.163297  1
  P  P14  1  0.783333  0.207936  0.303847  1
  P  P15  1  0.429150  0.206491  0.320384  1
  P  P16  1  0.786846  0.565368  0.289982  1
  P  P17  1  0.207936  0.783333  0.803847  1
  P  P18  1  0.565368  0.786846  0.789982  1
  P  P19  1  0.206491  0.429150  0.820384  1
  W  W20  1  0.668452  0.328562  0.390868  1
  W  W21  1  0.328562  0.668452  0.890868  1
