# generated using pymatgen
data_Dy4Al18OsRh3Au2
_symmetry_space_group_name_H-M   'P 1'
_cell_length_a   7.63438667
_cell_length_b   7.63438800
_cell_length_c   9.48099066
_cell_angle_alpha   90.03223276
_cell_angle_beta   90.03223442
_cell_angle_gamma   119.44023059
_symmetry_Int_Tables_number   1
_chemical_formula_structural   Dy4Al18OsRh3Au2
_chemical_formula_sum   'Dy4 Al18 Os1 Rh3 Au2'
_cell_volume   481.23212712
_cell_formula_units_Z   1
loop_
 _symmetry_equiv_pos_site_id
 _symmetry_equiv_pos_as_xyz
  1  'x, y, z'
loop_
 _atom_site_type_symbol
 _atom_site_label
 _atom_site_symmetry_multiplicity
 _atom_site_fract_x
 _atom_site_fract_y
 _atom_site_fract_z
 _atom_site_occupancy
  Dy  Dy0  1  0.995864  0.677436  0.749408  1
  Dy  Dy1  1  0.003273  0.322062  0.250790  1
  Dy  Dy2  1  0.677938  0.996727  0.749210  1
  Dy  Dy3  1  0.322564  0.004136  0.250592  1
  Al  Al4  1  0.143951  0.144811  0.749953  1
  Al  Al5  1  0.855189  0.856049  0.250047  1
  Al  Al6  1  0.000447  0.345980  0.576992  1
  Al  Al7  1  0.997995  0.652396  0.423062  1
  Al  Al8  1  0.999348  0.654843  0.078099  1
  Al  Al9  1  0.345157  0.000652  0.921901  1
  Al  Al10  1  0.001163  0.345913  0.922438  1
  Al  Al11  1  0.654087  0.998837  0.077562  1
  Al  Al12  1  0.654020  0.999553  0.423008  1
  Al  Al13  1  0.347604  0.002005  0.576938  1
  Al  Al14  1  0.341701  0.342076  0.057526  1
  Al  Al15  1  0.657924  0.658299  0.942474  1
  Al  Al16  1  0.658485  0.656498  0.555593  1
  Al  Al17  1  0.343502  0.341515  0.444407  1
  Al  Al18  1  0.338343  0.554951  0.749689  1
  Al  Al19  1  0.660954  0.445051  0.250440  1
  Al  Al20  1  0.554949  0.339046  0.749560  1
  Al  Al21  1  0.445049  0.661657  0.250311  1
  Os  Os22  1  0.672240  0.327760  0.500000  1
  Rh  Rh23  1  0.328404  0.671596  0.500000  1
  Rh  Rh24  1  0.328002  0.671998  0.000000  1
  Rh  Rh25  1  0.671762  0.328238  0.000000  1
  Au  Au26  1  0.000132  0.999868  0.500000  1
  Au  Au27  1  0.999953  0.000047  0.000000  1
