# generated using pymatgen
data_ErTm7(Si4Mo3)4
_symmetry_space_group_name_H-M   'P 1'
_cell_length_a   6.72056301
_cell_length_b   6.91756902
_cell_length_c   12.86751224
_cell_angle_alpha   90.00979051
_cell_angle_beta   90.00177841
_cell_angle_gamma   89.99950365
_symmetry_Int_Tables_number   1
_chemical_formula_structural   ErTm7(Si4Mo3)4
_chemical_formula_sum   'Er1 Tm7 Si16 Mo12'
_cell_volume   598.21010134
_cell_formula_units_Z   1
loop_
 _symmetry_equiv_pos_site_id
 _symmetry_equiv_pos_as_xyz
  1  'x, y, z'
loop_
 _atom_site_type_symbol
 _atom_site_label
 _atom_site_symmetry_multiplicity
 _atom_site_fract_x
 _atom_site_fract_y
 _atom_site_fract_z
 _atom_site_occupancy
  Er  Er0  1  0.996881  0.167675  0.093499  1
  Tm  Tm1  1  0.496941  0.332085  0.093721  1
  Tm  Tm2  1  0.996969  0.167962  0.406294  1
  Tm  Tm3  1  0.503038  0.667940  0.593750  1
  Tm  Tm4  1  0.003033  0.832010  0.906286  1
  Tm  Tm5  1  0.503010  0.668000  0.906309  1
  Tm  Tm6  1  0.003031  0.832059  0.593749  1
  Tm  Tm7  1  0.496960  0.332018  0.406224  1
  Si  Si8  1  0.660252  0.040507  0.546939  1
  Si  Si9  1  0.160403  0.459578  0.953091  1
  Si  Si10  1  0.339814  0.959481  0.046931  1
  Si  Si11  1  0.839696  0.540515  0.453084  1
  Si  Si12  1  0.339752  0.959505  0.453045  1
  Si  Si13  1  0.839641  0.540677  0.046923  1
  Si  Si14  1  0.660157  0.040437  0.953081  1
  Si  Si15  1  0.160293  0.459505  0.546918  1
  Si  Si16  1  0.534244  0.368325  0.750038  1
  Si  Si17  1  0.034242  0.131629  0.750007  1
  Si  Si18  1  0.465787  0.631714  0.249950  1
  Si  Si19  1  0.965793  0.868317  0.250015  1
  Si  Si20  1  0.801796  0.631655  0.750039  1
  Si  Si21  1  0.301770  0.868303  0.750024  1
  Si  Si22  1  0.198293  0.368428  0.250044  1
  Si  Si23  1  0.698115  0.131659  0.250050  1
  Mo  Mo24  1  0.829990  0.334508  0.624819  1
  Mo  Mo25  1  0.329979  0.165501  0.875200  1
  Mo  Mo26  1  0.170042  0.665474  0.124794  1
  Mo  Mo27  1  0.670072  0.834547  0.375198  1
  Mo  Mo28  1  0.169994  0.665524  0.375163  1
  Mo  Mo29  1  0.669941  0.834441  0.124792  1
  Mo  Mo30  1  0.829967  0.334471  0.875143  1
  Mo  Mo31  1  0.329983  0.165470  0.624814  1
  Mo  Mo32  1  0.666229  0.997376  0.750034  1
  Mo  Mo33  1  0.166185  0.502643  0.750034  1
  Mo  Mo34  1  0.333927  0.002659  0.249997  1
  Mo  Mo35  1  0.833783  0.497406  0.249998  1
