# generated using pymatgen
data_YbDy3Al5Tc3
_symmetry_space_group_name_H-M   'P 1'
_cell_length_a   5.53543665
_cell_length_b   5.60039643
_cell_length_c   8.72594433
_cell_angle_alpha   90.00000385
_cell_angle_beta   90.02729701
_cell_angle_gamma   120.38893052
_symmetry_Int_Tables_number   1
_chemical_formula_structural   YbDy3Al5Tc3
_chemical_formula_sum   'Yb1 Dy3 Al5 Tc3'
_cell_volume   233.34485517
_cell_formula_units_Z   1
loop_
 _symmetry_equiv_pos_site_id
 _symmetry_equiv_pos_as_xyz
  1  'x, y, z'
loop_
 _atom_site_type_symbol
 _atom_site_label
 _atom_site_symmetry_multiplicity
 _atom_site_fract_x
 _atom_site_fract_y
 _atom_site_fract_z
 _atom_site_occupancy
  Yb  Yb0  1  0.336710  0.668355  0.442835  1
  Dy  Dy1  1  0.665980  0.332989  0.552593  1
  Dy  Dy2  1  0.662889  0.331444  0.946201  1
  Dy  Dy3  1  0.336767  0.668384  0.057234  1
  Al  Al4  1  0.837443  0.160885  0.249124  1
  Al  Al5  1  0.837443  0.676559  0.249124  1
  Al  Al6  1  0.322261  0.161130  0.247779  1
  Al  Al7  1  0.185233  0.844903  0.750779  1
  Al  Al8  1  0.185233  0.340331  0.750779  1
  Tc  Tc9  1  0.973732  0.986866  0.512358  1
  Tc  Tc10  1  0.976685  0.988343  0.989102  1
  Tc  Tc11  1  0.679624  0.839811  0.752092  1
