# generated using pymatgen
data_TbHo3V2O10
_symmetry_space_group_name_H-M   'P 1'
_cell_length_a   3.71783400
_cell_length_b   10.36884536
_cell_length_c   11.23977000
_cell_angle_alpha   89.98489809
_cell_angle_beta   90.00000000
_cell_angle_gamma   90.00000000
_symmetry_Int_Tables_number   1
_chemical_formula_structural   TbHo3V2O10
_chemical_formula_sum   'Tb2 Ho6 V4 O20'
_cell_volume   433.28913756
_cell_formula_units_Z   2
loop_
 _symmetry_equiv_pos_site_id
 _symmetry_equiv_pos_as_xyz
  1  'x, y, z'
loop_
 _atom_site_type_symbol
 _atom_site_label
 _atom_site_symmetry_multiplicity
 _atom_site_fract_x
 _atom_site_fract_y
 _atom_site_fract_z
 _atom_site_occupancy
  Tb  Tb0  1  0.250000  0.120759  0.273541  1
  Tb  Tb1  1  0.250000  0.135983  0.943660  1
  Ho  Ho2  1  0.750000  0.363913  0.445159  1
  Ho  Ho3  1  0.750000  0.379180  0.772198  1
  Ho  Ho4  1  0.250000  0.621765  0.227391  1
  Ho  Ho5  1  0.250000  0.636595  0.555243  1
  Ho  Ho6  1  0.750000  0.861397  0.054719  1
  Ho  Ho7  1  0.750000  0.877754  0.726755  1
  V  V8  1  0.250000  0.168952  0.617174  1
  V  V9  1  0.750000  0.332501  0.116828  1
  V  V10  1  0.250000  0.668113  0.882633  1
  V  V11  1  0.750000  0.830817  0.383451  1
  O  O12  1  0.750000  0.002785  0.893993  1
  O  O13  1  0.250000  0.005401  0.653835  1
  O  O14  1  0.250000  0.228644  0.456630  1
  O  O15  1  0.750000  0.233301  0.614534  1
  O  O16  1  0.750000  0.246394  0.268642  1
  O  O17  1  0.250000  0.257440  0.766861  1
  O  O18  1  0.250000  0.267453  0.114335  1
  O  O19  1  0.750000  0.275212  0.955167  1
  O  O20  1  0.750000  0.495657  0.152832  1
  O  O21  1  0.250000  0.495827  0.394606  1
  O  O22  1  0.750000  0.504997  0.605321  1
  O  O23  1  0.250000  0.505065  0.846444  1
  O  O24  1  0.250000  0.725413  0.044044  1
  O  O25  1  0.750000  0.732472  0.885100  1
  O  O26  1  0.750000  0.744517  0.231867  1
  O  O27  1  0.250000  0.755480  0.731458  1
  O  O28  1  0.250000  0.766391  0.385671  1
  O  O29  1  0.750000  0.772393  0.544532  1
  O  O30  1  0.750000  0.994608  0.350031  1
  O  O31  1  0.250000  0.992822  0.105348  1
