# generated using pymatgen
data_Ta5Ti7B12Os11Ru
_symmetry_space_group_name_H-M   'P 1'
_cell_length_a   3.09377100
_cell_length_b   8.98324919
_cell_length_c   15.50581527
_cell_angle_alpha   89.94903277
_cell_angle_beta   90.00000000
_cell_angle_gamma   90.00000000
_symmetry_Int_Tables_number   1
_chemical_formula_structural   Ta5Ti7B12Os11Ru
_chemical_formula_sum   'Ta5 Ti7 B12 Os11 Ru1'
_cell_volume   430.93924316
_cell_formula_units_Z   1
loop_
 _symmetry_equiv_pos_site_id
 _symmetry_equiv_pos_as_xyz
  1  'x, y, z'
loop_
 _atom_site_type_symbol
 _atom_site_label
 _atom_site_symmetry_multiplicity
 _atom_site_fract_x
 _atom_site_fract_y
 _atom_site_fract_z
 _atom_site_occupancy
  Ta  Ta0  1  0.000000  0.982696  0.093452  1
  Ta  Ta1  1  0.000000  0.685519  0.206094  1
  Ta  Ta2  1  0.000000  0.315421  0.794598  1
  Ta  Ta3  1  0.000000  0.186059  0.296712  1
  Ta  Ta4  1  0.000000  0.815506  0.704186  1
  Ti  Ti5  1  0.000000  0.799650  0.495642  1
  Ti  Ti6  1  0.000000  0.200326  0.505209  1
  Ti  Ti7  1  0.000000  0.300551  0.004863  1
  Ti  Ti8  1  0.000000  0.697942  0.993586  1
  Ti  Ti9  1  0.000000  0.515204  0.593985  1
  Ti  Ti10  1  0.000000  0.484932  0.406505  1
  Ti  Ti11  1  0.000000  0.015269  0.905101  1
  B  B12  1  0.500000  0.603738  0.495619  1
  B  B13  1  0.500000  0.396568  0.504586  1
  B  B14  1  0.500000  0.104883  0.002500  1
  B  B15  1  0.500000  0.893480  0.993739  1
  B  B16  1  0.000000  0.609855  0.833959  1
  B  B17  1  0.000000  0.393751  0.166099  1
  B  B18  1  0.000000  0.110744  0.664877  1
  B  B19  1  0.000000  0.888665  0.337872  1
  B  B20  1  0.500000  0.712350  0.598536  1
  B  B21  1  0.500000  0.288305  0.402091  1
  B  B22  1  0.500000  0.212144  0.900954  1
  B  B23  1  0.500000  0.781976  0.097270  1
  Os  Os24  1  0.500000  0.717156  0.359583  1
  Os  Os25  1  0.500000  0.283664  0.640437  1
  Os  Os26  1  0.500000  0.218790  0.141793  1
  Os  Os27  1  0.500000  0.783071  0.858611  1
  Os  Os28  1  0.500000  0.520617  0.093507  1
  Os  Os29  1  0.500000  0.479181  0.906151  1
  Os  Os30  1  0.500000  0.020720  0.406765  1
  Os  Os31  1  0.500000  0.979865  0.593171  1
  Os  Os32  1  0.500000  0.566030  0.730953  1
  Os  Os33  1  0.500000  0.435048  0.269052  1
  Os  Os34  1  0.500000  0.066296  0.768162  1
  Ru  Ru35  1  0.500000  0.934027  0.233783  1
