# generated using pymatgen
data_In3Ge4Rh3
_symmetry_space_group_name_H-M   'P 1'
_cell_length_a   7.90138479
_cell_length_b   7.90138532
_cell_length_c   7.90138500
_cell_angle_alpha   109.47121982
_cell_angle_beta   109.47122116
_cell_angle_gamma   109.47122239
_symmetry_Int_Tables_number   1
_chemical_formula_structural   In3Ge4Rh3
_chemical_formula_sum   'In6 Ge8 Rh6'
_cell_volume   379.74125225
_cell_formula_units_Z   2
loop_
 _symmetry_equiv_pos_site_id
 _symmetry_equiv_pos_as_xyz
  1  'x, y, z'
loop_
 _atom_site_type_symbol
 _atom_site_label
 _atom_site_symmetry_multiplicity
 _atom_site_fract_x
 _atom_site_fract_y
 _atom_site_fract_z
 _atom_site_occupancy
  In  In0  1  0.750000  0.250000  0.500000  1
  In  In1  1  0.500000  0.250000  0.750000  1
  In  In2  1  0.500000  0.750000  0.250000  1
  In  In3  1  0.250000  0.500000  0.750000  1
  In  In4  1  0.750000  0.500000  0.250000  1
  In  In5  1  0.250000  0.750000  0.500000  1
  Ge  Ge6  1  0.322258  0.322258  0.322258  1
  Ge  Ge7  1  0.000000  0.000000  0.322258  1
  Ge  Ge8  1  0.322258  0.000000  0.000000  1
  Ge  Ge9  1  0.000000  0.322258  0.000000  1
  Ge  Ge10  1  0.677742  0.000000  0.000000  1
  Ge  Ge11  1  0.000000  0.677742  0.000000  1
  Ge  Ge12  1  0.000000  0.000000  0.677742  1
  Ge  Ge13  1  0.677742  0.677742  0.677742  1
  Rh  Rh14  1  0.328569  0.328569  0.000000  1
  Rh  Rh15  1  0.000000  0.328569  0.328569  1
  Rh  Rh16  1  0.000000  0.671431  0.671431  1
  Rh  Rh17  1  0.671431  0.000000  0.671431  1
  Rh  Rh18  1  0.328569  0.000000  0.328569  1
  Rh  Rh19  1  0.671431  0.671431  0.000000  1
