# generated using pymatgen
data_HoTm3(SeO4)6
_symmetry_space_group_name_H-M   'P 1'
_cell_length_a   9.88453191
_cell_length_b   9.88453193
_cell_length_c   9.88453203
_cell_angle_alpha   58.02382125
_cell_angle_beta   58.02382082
_cell_angle_gamma   58.02381709
_symmetry_Int_Tables_number   1
_chemical_formula_structural   HoTm3(SeO4)6
_chemical_formula_sum   'Ho1 Tm3 Se6 O24'
_cell_volume   651.94154502
_cell_formula_units_Z   1
loop_
 _symmetry_equiv_pos_site_id
 _symmetry_equiv_pos_as_xyz
  1  'x, y, z'
loop_
 _atom_site_type_symbol
 _atom_site_label
 _atom_site_symmetry_multiplicity
 _atom_site_fract_x
 _atom_site_fract_y
 _atom_site_fract_z
 _atom_site_occupancy
  Ho  Ho0  1  0.856279  0.856279  0.856279  1
  Tm  Tm1  1  0.644155  0.644155  0.644155  1
  Tm  Tm2  1  0.356023  0.356023  0.356023  1
  Tm  Tm3  1  0.143951  0.143951  0.143951  1
  Se  Se4  1  0.749881  0.037781  0.461448  1
  Se  Se5  1  0.963027  0.536048  0.251548  1
  Se  Se6  1  0.536048  0.251548  0.963028  1
  Se  Se7  1  0.461447  0.749881  0.037782  1
  Se  Se8  1  0.037782  0.461447  0.749881  1
  Se  Se9  1  0.251548  0.963027  0.536048  1
  O  O10  1  0.919323  0.064952  0.289154  1
  O  O11  1  0.775117  0.009257  0.629216  1
  O  O12  1  0.992558  0.368609  0.224757  1
  O  O13  1  0.708955  0.082755  0.936238  1
  O  O14  1  0.580743  0.210085  0.433802  1
  O  O15  1  0.869378  0.491846  0.724034  1
  O  O16  1  0.506214  0.277400  0.130996  1
  O  O17  1  0.790408  0.563436  0.420628  1
  O  O18  1  0.936238  0.708955  0.082755  1
  O  O19  1  0.563436  0.420628  0.790408  1
  O  O20  1  0.368609  0.224757  0.992558  1
  O  O21  1  0.277400  0.130996  0.506214  1
  O  O22  1  0.724034  0.869378  0.491846  1
  O  O23  1  0.629216  0.775117  0.009257  1
  O  O24  1  0.433802  0.580743  0.210085  1
  O  O25  1  0.064952  0.289154  0.919323  1
  O  O26  1  0.210085  0.433802  0.580743  1
  O  O27  1  0.491846  0.724034  0.869378  1
  O  O28  1  0.130996  0.506214  0.277400  1
  O  O29  1  0.420628  0.790408  0.563436  1
  O  O30  1  0.289154  0.919323  0.064952  1
  O  O31  1  0.009257  0.629216  0.775117  1
  O  O32  1  0.224757  0.992558  0.368609  1
  O  O33  1  0.082755  0.936238  0.708955  1
