# generated using pymatgen
data_KU3(Ga3Ir)6
_symmetry_space_group_name_H-M   'P 1'
_cell_length_a   7.64796033
_cell_length_b   7.67897716
_cell_length_c   9.51645100
_cell_angle_alpha   90.00000000
_cell_angle_beta   90.00000000
_cell_angle_gamma   120.05095286
_symmetry_Int_Tables_number   1
_chemical_formula_structural   KU3(Ga3Ir)6
_chemical_formula_sum   'K1 U3 Ga18 Ir6'
_cell_volume   483.76165213
_cell_formula_units_Z   1
loop_
 _symmetry_equiv_pos_site_id
 _symmetry_equiv_pos_as_xyz
  1  'x, y, z'
loop_
 _atom_site_type_symbol
 _atom_site_label
 _atom_site_symmetry_multiplicity
 _atom_site_fract_x
 _atom_site_fract_y
 _atom_site_fract_z
 _atom_site_occupancy
  K  K0  1  0.996968  0.667980  0.750000  1
  U  U1  1  0.000253  0.329744  0.250000  1
  U  U2  1  0.667955  0.999675  0.750000  1
  U  U3  1  0.332369  0.000046  0.250000  1
  Ga  Ga4  1  0.124864  0.127181  0.750000  1
  Ga  Ga5  1  0.870795  0.870137  0.250000  1
  Ga  Ga6  1  0.001284  0.337147  0.578347  1
  Ga  Ga7  1  0.999944  0.666450  0.421049  1
  Ga  Ga8  1  0.999944  0.666450  0.078951  1
  Ga  Ga9  1  0.331434  0.997807  0.921909  1
  Ga  Ga10  1  0.001284  0.337147  0.921653  1
  Ga  Ga11  1  0.665489  0.999653  0.079362  1
  Ga  Ga12  1  0.665489  0.999653  0.420638  1
  Ga  Ga13  1  0.331434  0.997807  0.578091  1
  Ga  Ga14  1  0.333794  0.334045  0.067436  1
  Ga  Ga15  1  0.669140  0.666103  0.935122  1
  Ga  Ga16  1  0.669140  0.666103  0.564878  1
  Ga  Ga17  1  0.333794  0.334045  0.432564  1
  Ga  Ga18  1  0.341648  0.547334  0.750000  1
  Ga  Ga19  1  0.662000  0.458013  0.250000  1
  Ga  Ga20  1  0.543867  0.333942  0.750000  1
  Ga  Ga21  1  0.456403  0.661949  0.250000  1
  Ir  Ir22  1  0.667636  0.325269  0.495607  1
  Ir  Ir23  1  0.332468  0.670809  0.495933  1
  Ir  Ir24  1  0.332468  0.670809  0.004067  1
  Ir  Ir25  1  0.667636  0.325269  0.004393  1
  Ir  Ir26  1  0.000251  0.004716  0.495472  1
  Ir  Ir27  1  0.000251  0.004716  0.004528  1
