# generated using pymatgen
data_Ti10BeSn6Ge
_symmetry_space_group_name_H-M   'P 1'
_cell_length_a   8.23646600
_cell_length_b   8.23646568
_cell_length_c   5.51219300
_cell_angle_alpha   90.00000000
_cell_angle_beta   90.00000000
_cell_angle_gamma   119.99999326
_symmetry_Int_Tables_number   1
_chemical_formula_structural   Ti10BeSn6Ge
_chemical_formula_sum   'Ti10 Be1 Sn6 Ge1'
_cell_volume   323.84476390
_cell_formula_units_Z   1
loop_
 _symmetry_equiv_pos_site_id
 _symmetry_equiv_pos_as_xyz
  1  'x, y, z'
loop_
 _atom_site_type_symbol
 _atom_site_label
 _atom_site_symmetry_multiplicity
 _atom_site_fract_x
 _atom_site_fract_y
 _atom_site_fract_z
 _atom_site_occupancy
  Ti  Ti0  1  0.256596  0.000000  0.762227  1
  Ti  Ti1  1  0.743404  0.000000  0.237773  1
  Ti  Ti2  1  0.000000  0.256596  0.762227  1
  Ti  Ti3  1  0.000000  0.743404  0.237773  1
  Ti  Ti4  1  0.743404  0.743404  0.762227  1
  Ti  Ti5  1  0.256596  0.256596  0.237773  1
  Ti  Ti6  1  0.333333  0.666667  0.500000  1
  Ti  Ti7  1  0.666667  0.333333  0.500000  1
  Ti  Ti8  1  0.666667  0.333333  0.000000  1
  Ti  Ti9  1  0.333333  0.666667  0.000000  1
  Be  Be10  1  0.000000  0.000000  0.000000  1
  Sn  Sn11  1  0.608052  0.000000  0.748434  1
  Sn  Sn12  1  0.391948  0.000000  0.251566  1
  Sn  Sn13  1  0.000000  0.608052  0.748434  1
  Sn  Sn14  1  0.000000  0.391948  0.251566  1
  Sn  Sn15  1  0.391948  0.391948  0.748434  1
  Sn  Sn16  1  0.608052  0.608052  0.251566  1
  Ge  Ge17  1  0.000000  0.000000  0.500000  1
