# generated using pymatgen
data_DyHo7(Er3Pt4)4
_symmetry_space_group_name_H-M   'P 1'
_cell_length_a   7.43071013
_cell_length_b   7.50944254
_cell_length_c   14.68376971
_cell_angle_alpha   89.97779950
_cell_angle_beta   89.94920732
_cell_angle_gamma   90.03743269
_symmetry_Int_Tables_number   1
_chemical_formula_structural   DyHo7(Er3Pt4)4
_chemical_formula_sum   'Dy1 Ho7 Er12 Pt16'
_cell_volume   819.36099770
_cell_formula_units_Z   1
loop_
 _symmetry_equiv_pos_site_id
 _symmetry_equiv_pos_as_xyz
  1  'x, y, z'
loop_
 _atom_site_type_symbol
 _atom_site_label
 _atom_site_symmetry_multiplicity
 _atom_site_fract_x
 _atom_site_fract_y
 _atom_site_fract_z
 _atom_site_occupancy
  Dy  Dy0  1  0.501317  0.679133  0.592970  1
  Ho  Ho1  1  0.001739  0.820521  0.907170  1
  Ho  Ho2  1  0.498407  0.320562  0.092929  1
  Ho  Ho3  1  0.998289  0.179442  0.407007  1
  Ho  Ho4  1  0.498194  0.320276  0.406868  1
  Ho  Ho5  1  0.998396  0.179512  0.092938  1
  Ho  Ho6  1  0.501750  0.679395  0.907055  1
  Ho  Ho7  1  0.001673  0.820728  0.592976  1
  Er  Er8  1  0.656039  0.167537  0.622182  1
  Er  Er9  1  0.155928  0.332441  0.877819  1
  Er  Er10  1  0.344066  0.832363  0.122263  1
  Er  Er11  1  0.844000  0.667685  0.377743  1
  Er  Er12  1  0.343700  0.832554  0.377668  1
  Er  Er13  1  0.844109  0.667541  0.122327  1
  Er  Er14  1  0.656043  0.167545  0.877846  1
  Er  Er15  1  0.155762  0.332201  0.622272  1
  Er  Er16  1  0.819203  0.511150  0.750086  1
  Er  Er17  1  0.319127  0.988925  0.750123  1
  Er  Er18  1  0.180931  0.488861  0.250023  1
  Er  Er19  1  0.680893  0.011088  0.249981  1
  Pt  Pt20  1  0.683893  0.967743  0.457888  1
  Pt  Pt21  1  0.183979  0.532493  0.041873  1
  Pt  Pt22  1  0.316099  0.032560  0.958218  1
  Pt  Pt23  1  0.816692  0.466969  0.541724  1
  Pt  Pt24  1  0.315909  0.033196  0.541565  1
  Pt  Pt25  1  0.816079  0.467516  0.958254  1
  Pt  Pt26  1  0.683864  0.967500  0.041929  1
  Pt  Pt27  1  0.183671  0.532235  0.457849  1
  Pt  Pt28  1  0.453338  0.385900  0.750175  1
  Pt  Pt29  1  0.953446  0.113948  0.750157  1
  Pt  Pt30  1  0.546673  0.613831  0.249968  1
  Pt  Pt31  1  0.046642  0.886281  0.249866  1
  Pt  Pt32  1  0.682454  0.856939  0.750376  1
  Pt  Pt33  1  0.181933  0.643367  0.750220  1
  Pt  Pt34  1  0.317874  0.143345  0.249829  1
  Pt  Pt35  1  0.817887  0.356716  0.249864  1
