# generated using pymatgen
data_SrNd2Zn(Ir2O7)2
_symmetry_space_group_name_H-M   'P 1'
_cell_length_a   7.23671722
_cell_length_b   7.24434036
_cell_length_c   7.23671641
_cell_angle_alpha   61.59193698
_cell_angle_beta   61.89882814
_cell_angle_gamma   61.59192936
_symmetry_Int_Tables_number   1
_chemical_formula_structural   SrNd2Zn(Ir2O7)2
_chemical_formula_sum   'Sr1 Nd2 Zn1 Ir4 O14'
_cell_volume   278.45029987
_cell_formula_units_Z   1
loop_
 _symmetry_equiv_pos_site_id
 _symmetry_equiv_pos_as_xyz
  1  'x, y, z'
loop_
 _atom_site_type_symbol
 _atom_site_label
 _atom_site_symmetry_multiplicity
 _atom_site_fract_x
 _atom_site_fract_y
 _atom_site_fract_z
 _atom_site_occupancy
  Sr  Sr0  1  0.125000  0.625000  0.125000  1
  Nd  Nd1  1  0.625000  0.125000  0.125000  1
  Nd  Nd2  1  0.125000  0.125000  0.625000  1
  Zn  Zn3  1  0.125000  0.125000  0.125000  1
  Ir  Ir4  1  0.125000  0.625000  0.625000  1
  Ir  Ir5  1  0.625000  0.125000  0.625000  1
  Ir  Ir6  1  0.625000  0.625000  0.125000  1
  Ir  Ir7  1  0.625000  0.625000  0.625000  1
  O  O8  1  0.699612  0.712990  0.296154  1
  O  O9  1  0.303897  0.302302  0.693708  1
  O  O10  1  0.709047  0.292697  0.709047  1
  O  O11  1  0.304607  0.702359  0.304607  1
  O  O12  1  0.296154  0.712990  0.699612  1
  O  O13  1  0.693708  0.302302  0.303897  1
  O  O14  1  0.550388  0.537010  0.953846  1
  O  O15  1  0.946103  0.947698  0.556292  1
  O  O16  1  0.540953  0.957303  0.540953  1
  O  O17  1  0.945393  0.547641  0.945393  1
  O  O18  1  0.953846  0.537010  0.550388  1
  O  O19  1  0.556292  0.947698  0.946103  1
  O  O20  1  0.240505  0.219589  0.240505  1
  O  O21  1  0.009495  0.030411  0.009495  1
