# generated using pymatgen
data_Cs3KZn4(SiAs2)4
_symmetry_space_group_name_H-M   'P 1'
_cell_length_a   8.65809156
_cell_length_b   8.33436038
_cell_length_c   8.51073400
_cell_angle_alpha   71.31906656
_cell_angle_beta   76.66190632
_cell_angle_gamma   73.31755310
_symmetry_Int_Tables_number   1
_chemical_formula_structural   Cs3KZn4(SiAs2)4
_chemical_formula_sum   'Cs3 K1 Zn4 Si4 As8'
_cell_volume   550.73761300
_cell_formula_units_Z   1
loop_
 _symmetry_equiv_pos_site_id
 _symmetry_equiv_pos_as_xyz
  1  'x, y, z'
loop_
 _atom_site_type_symbol
 _atom_site_label
 _atom_site_symmetry_multiplicity
 _atom_site_fract_x
 _atom_site_fract_y
 _atom_site_fract_z
 _atom_site_occupancy
  Cs  Cs0  1  0.453670  0.772205  0.320451  1
  Cs  Cs1  1  0.546510  0.232848  0.679020  1
  Cs  Cs2  1  0.439433  0.795254  0.819462  1
  K  K3  1  0.564698  0.208171  0.178531  1
  Zn  Zn4  1  0.996844  0.893908  0.685713  1
  Zn  Zn5  1  0.002406  0.106981  0.312222  1
  Zn  Zn6  1  0.966352  0.808291  0.175727  1
  Zn  Zn7  1  0.040450  0.190555  0.825059  1
  Si  Si8  1  0.959091  0.587796  0.593301  1
  Si  Si9  1  0.033029  0.409981  0.406989  1
  Si  Si10  1  0.139307  0.447893  0.980216  1
  Si  Si11  1  0.859845  0.553594  0.019680  1
  As  As12  1  0.827404  0.879121  0.450005  1
  As  As13  1  0.170629  0.123362  0.547902  1
  As  As14  1  0.794874  0.400975  0.308640  1
  As  As15  1  0.198541  0.596934  0.687762  1
  As  As16  1  0.796409  0.866148  0.956109  1
  As  As17  1  0.208341  0.136574  0.046474  1
  As  As18  1  0.787188  0.439702  0.826288  1
  As  As19  1  0.214981  0.549708  0.180450  1
