# generated using pymatgen
data_TbY3Ga18Ru5Rh
_symmetry_space_group_name_H-M   'P 1'
_cell_length_a   7.52591291
_cell_length_b   7.52655504
_cell_length_c   9.71344721
_cell_angle_alpha   89.89639456
_cell_angle_beta   89.89752522
_cell_angle_gamma   119.78879665
_symmetry_Int_Tables_number   1
_chemical_formula_structural   TbY3Ga18Ru5Rh
_chemical_formula_sum   'Tb1 Y3 Ga18 Ru5 Rh1'
_cell_volume   477.50398740
_cell_formula_units_Z   1
loop_
 _symmetry_equiv_pos_site_id
 _symmetry_equiv_pos_as_xyz
  1  'x, y, z'
loop_
 _atom_site_type_symbol
 _atom_site_label
 _atom_site_symmetry_multiplicity
 _atom_site_fract_x
 _atom_site_fract_y
 _atom_site_fract_z
 _atom_site_occupancy
  Tb  Tb0  1  0.332283  0.003221  0.750394  1
  Y  Y1  1  0.996937  0.667639  0.249616  1
  Y  Y2  1  0.003113  0.332421  0.750421  1
  Y  Y3  1  0.667566  0.996859  0.249574  1
  Ga  Ga4  1  0.125918  0.125916  0.249253  1
  Ga  Ga5  1  0.874009  0.873856  0.750768  1
  Ga  Ga6  1  0.004025  0.334502  0.076331  1
  Ga  Ga7  1  0.995983  0.665388  0.923520  1
  Ga  Ga8  1  0.996595  0.664547  0.577151  1
  Ga  Ga9  1  0.335398  0.003537  0.423083  1
  Ga  Ga10  1  0.003465  0.335400  0.422979  1
  Ga  Ga11  1  0.664698  0.996620  0.577155  1
  Ga  Ga12  1  0.665604  0.996066  0.923520  1
  Ga  Ga13  1  0.334539  0.004089  0.076264  1
  Ga  Ga14  1  0.338013  0.338067  0.561034  1
  Ga  Ga15  1  0.661930  0.661891  0.439038  1
  Ga  Ga16  1  0.663639  0.663583  0.060199  1
  Ga  Ga17  1  0.336248  0.336337  0.939771  1
  Ga  Ga18  1  0.336860  0.547576  0.250240  1
  Ga  Ga19  1  0.662925  0.452304  0.749753  1
  Ga  Ga20  1  0.547672  0.336853  0.250237  1
  Ga  Ga21  1  0.452390  0.663181  0.749740  1
  Ru  Ru22  1  0.673401  0.326747  0.000027  1
  Ru  Ru23  1  0.326773  0.673394  0.000051  1
  Ru  Ru24  1  0.326633  0.673560  0.499909  1
  Ru  Ru25  1  0.673597  0.326597  0.499950  1
  Ru  Ru26  1  0.999897  0.999904  0.000069  1
  Rh  Rh27  1  0.999890  0.999947  0.499954  1
