# generated using pymatgen
data_Ho3Th11Ru6
_symmetry_space_group_name_H-M   'P 1'
_cell_length_a   9.82341968
_cell_length_b   9.88989081
_cell_length_c   6.39309910
_cell_angle_alpha   90.16805846
_cell_angle_beta   89.90448281
_cell_angle_gamma   120.36776314
_symmetry_Int_Tables_number   1
_chemical_formula_structural   Ho3Th11Ru6
_chemical_formula_sum   'Ho3 Th11 Ru6'
_cell_volume   535.88673637
_cell_formula_units_Z   1
loop_
 _symmetry_equiv_pos_site_id
 _symmetry_equiv_pos_as_xyz
  1  'x, y, z'
loop_
 _atom_site_type_symbol
 _atom_site_label
 _atom_site_symmetry_multiplicity
 _atom_site_fract_x
 _atom_site_fract_y
 _atom_site_fract_z
 _atom_site_occupancy
  Ho  Ho0  1  0.460310  0.536769  0.296627  1
  Ho  Ho1  1  0.074300  0.536347  0.301013  1
  Ho  Ho2  1  0.925683  0.462353  0.800127  1
  Th  Th3  1  0.249513  0.126446  0.509176  1
  Th  Th4  1  0.542553  0.083443  0.796869  1
  Th  Th5  1  0.747545  0.873608  0.010853  1
  Th  Th6  1  0.666501  0.333542  0.280040  1
  Th  Th7  1  0.125050  0.870316  0.007865  1
  Th  Th8  1  0.458992  0.916631  0.297272  1
  Th  Th9  1  0.539800  0.463160  0.798914  1
  Th  Th10  1  0.876552  0.129154  0.509741  1
  Th  Th11  1  0.124524  0.252960  0.012508  1
  Th  Th12  1  0.874037  0.748213  0.507773  1
  Th  Th13  1  0.333714  0.665572  0.776000  1
  Ru  Ru14  1  0.812049  0.630377  0.048341  1
  Ru  Ru15  1  0.814762  0.182710  0.046099  1
  Ru  Ru16  1  0.631449  0.815584  0.545645  1
  Ru  Ru17  1  0.370621  0.187799  0.042808  1
  Ru  Ru18  1  0.184095  0.366526  0.551842  1
  Ru  Ru19  1  0.187950  0.818490  0.544483  1
