# generated using pymatgen
data_Dy3ErSi4RuRh3
_symmetry_space_group_name_H-M   'P 1'
_cell_length_a   4.28157500
_cell_length_b   6.92455690
_cell_length_c   7.28440720
_cell_angle_alpha   89.87519712
_cell_angle_beta   90.00000000
_cell_angle_gamma   90.00000000
_symmetry_Int_Tables_number   1
_chemical_formula_structural   Dy3ErSi4RuRh3
_chemical_formula_sum   'Dy3 Er1 Si4 Ru1 Rh3'
_cell_volume   215.96766322
_cell_formula_units_Z   1
loop_
 _symmetry_equiv_pos_site_id
 _symmetry_equiv_pos_as_xyz
  1  'x, y, z'
loop_
 _atom_site_type_symbol
 _atom_site_label
 _atom_site_symmetry_multiplicity
 _atom_site_fract_x
 _atom_site_fract_y
 _atom_site_fract_z
 _atom_site_occupancy
  Dy  Dy0  1  0.250000  0.494271  0.690122  1
  Dy  Dy1  1  0.750000  0.507640  0.311539  1
  Dy  Dy2  1  0.750000  0.002721  0.186168  1
  Er  Er3  1  0.250000  0.995971  0.811617  1
  Si  Si4  1  0.250000  0.297425  0.106400  1
  Si  Si5  1  0.750000  0.703790  0.887996  1
  Si  Si6  1  0.250000  0.799278  0.401730  1
  Si  Si7  1  0.750000  0.198662  0.604167  1
  Ru  Ru8  1  0.750000  0.847153  0.568047  1
  Rh  Rh9  1  0.250000  0.154560  0.432326  1
  Rh  Rh10  1  0.750000  0.342997  0.930551  1
  Rh  Rh11  1  0.250000  0.655535  0.069338  1
