# generated using pymatgen
data_Er2Lu2TcOs7
_symmetry_space_group_name_H-M   'P 1'
_cell_length_a   5.32774200
_cell_length_b   5.25974119
_cell_length_c   8.88037602
_cell_angle_alpha   89.99406045
_cell_angle_beta   90.00000000
_cell_angle_gamma   120.42858976
_symmetry_Int_Tables_number   1
_chemical_formula_structural   Er2Lu2TcOs7
_chemical_formula_sum   'Er2 Lu2 Tc1 Os7'
_cell_volume   214.57429075
_cell_formula_units_Z   1
loop_
 _symmetry_equiv_pos_site_id
 _symmetry_equiv_pos_as_xyz
  1  'x, y, z'
loop_
 _atom_site_type_symbol
 _atom_site_label
 _atom_site_symmetry_multiplicity
 _atom_site_fract_x
 _atom_site_fract_y
 _atom_site_fract_z
 _atom_site_occupancy
  Er  Er0  1  0.335300  0.670602  0.434514  1
  Er  Er1  1  0.670033  0.340065  0.564739  1
  Lu  Lu2  1  0.670170  0.340339  0.936158  1
  Lu  Lu3  1  0.335165  0.670330  0.064347  1
  Tc  Tc4  1  0.161976  0.323954  0.751286  1
  Os  Os5  1  0.173048  0.821889  0.751485  1
  Os  Os6  1  0.334526  0.164623  0.248702  1
  Os  Os7  1  0.822425  0.644849  0.248589  1
  Os  Os8  1  0.648840  0.821889  0.751485  1
  Os  Os9  1  0.009239  0.018479  0.999899  1
  Os  Os10  1  0.830098  0.164623  0.248702  1
  Os  Os11  1  0.009179  0.018358  0.500092  1
