# generated using pymatgen
data_TaTi5(SiRu)6
_symmetry_space_group_name_H-M   'P 1'
_cell_length_a   7.38699159
_cell_length_b   7.38998160
_cell_length_c   7.38699139
_cell_angle_alpha   127.77357413
_cell_angle_beta   122.34347234
_cell_angle_gamma   81.50493455
_symmetry_Int_Tables_number   1
_chemical_formula_structural   TaTi5(SiRu)6
_chemical_formula_sum   'Ta1 Ti5 Si6 Ru6'
_cell_volume   259.33062958
_cell_formula_units_Z   1
loop_
 _symmetry_equiv_pos_site_id
 _symmetry_equiv_pos_as_xyz
  1  'x, y, z'
loop_
 _atom_site_type_symbol
 _atom_site_label
 _atom_site_symmetry_multiplicity
 _atom_site_fract_x
 _atom_site_fract_y
 _atom_site_fract_z
 _atom_site_occupancy
  Ta  Ta0  1  0.246494  0.915303  0.168809  1
  Ti  Ti1  1  0.974596  0.496584  0.021987  1
  Ti  Ti2  1  0.027579  0.044542  0.516963  1
  Ti  Ti3  1  0.443180  0.481851  0.538671  1
  Ti  Ti4  1  0.754084  0.918613  0.664529  1
  Ti  Ti5  1  0.550792  0.101665  0.050873  1
  Si  Si6  1  0.785015  0.552651  0.267637  1
  Si  Si7  1  0.170517  0.164596  0.998432  1
  Si  Si8  1  0.666164  0.164596  0.494078  1
  Si  Si9  1  0.341833  0.826953  0.506742  1
  Si  Si10  1  0.221574  0.461654  0.740081  1
  Si  Si11  1  0.820212  0.826953  0.985120  1
  Ru  Ru12  1  0.518908  0.245125  0.765663  1
  Ru  Ru13  1  0.979462  0.245125  0.226217  1
  Ru  Ru14  1  0.840489  0.497707  0.589936  1
  Ru  Ru15  1  0.588621  0.750292  0.087583  1
  Ru  Ru16  1  0.407770  0.497707  0.157218  1
  Ru  Ru17  1  0.162709  0.750292  0.661673  1
