# generated using pymatgen
data_CeRe2NiC
_symmetry_space_group_name_H-M   'P 1'
_cell_length_a   5.62654557
_cell_length_b   5.62654511
_cell_length_c   7.74466000
_cell_angle_alpha   90.00000000
_cell_angle_beta   90.00000000
_cell_angle_gamma   140.40497501
_symmetry_Int_Tables_number   1
_chemical_formula_structural   CeRe2NiC
_chemical_formula_sum   'Ce2 Re4 Ni2 C2'
_cell_volume   156.26755574
_cell_formula_units_Z   2
loop_
 _symmetry_equiv_pos_site_id
 _symmetry_equiv_pos_as_xyz
  1  'x, y, z'
loop_
 _atom_site_type_symbol
 _atom_site_label
 _atom_site_symmetry_multiplicity
 _atom_site_fract_x
 _atom_site_fract_y
 _atom_site_fract_z
 _atom_site_occupancy
  Ce  Ce0  1  0.529908  0.470092  0.250000  1
  Ce  Ce1  1  0.470092  0.529908  0.750000  1
  Re  Re2  1  0.820948  0.179052  0.063133  1
  Re  Re3  1  0.179052  0.820948  0.936867  1
  Re  Re4  1  0.179052  0.820948  0.563133  1
  Re  Re5  1  0.820948  0.179052  0.436867  1
  Ni  Ni6  1  0.250436  0.749564  0.250000  1
  Ni  Ni7  1  0.749564  0.250436  0.750000  1
  C  C8  1  0.000000  0.000000  0.000000  1
  C  C9  1  0.000000  0.000000  0.500000  1
