# generated using pymatgen
data_YMn4MoP3
_symmetry_space_group_name_H-M   'P 1'
_cell_length_a   3.67448800
_cell_length_b   10.80062000
_cell_length_c   12.28299500
_cell_angle_alpha   90.00000000
_cell_angle_beta   90.00000000
_cell_angle_gamma   90.00000000
_symmetry_Int_Tables_number   1
_chemical_formula_structural   YMn4MoP3
_chemical_formula_sum   'Y4 Mn16 Mo4 P12'
_cell_volume   487.47213441
_cell_formula_units_Z   4
loop_
 _symmetry_equiv_pos_site_id
 _symmetry_equiv_pos_as_xyz
  1  'x, y, z'
loop_
 _atom_site_type_symbol
 _atom_site_label
 _atom_site_symmetry_multiplicity
 _atom_site_fract_x
 _atom_site_fract_y
 _atom_site_fract_z
 _atom_site_occupancy
  Y  Y0  1  0.250000  0.588032  0.706458  1
  Y  Y1  1  0.250000  0.911968  0.206458  1
  Y  Y2  1  0.750000  0.411968  0.293542  1
  Y  Y3  1  0.750000  0.088032  0.793542  1
  Mn  Mn4  1  0.250000  0.411121  0.494509  1
  Mn  Mn5  1  0.250000  0.088879  0.994509  1
  Mn  Mn6  1  0.750000  0.588879  0.505491  1
  Mn  Mn7  1  0.750000  0.911121  0.005491  1
  Mn  Mn8  1  0.250000  0.210434  0.182721  1
  Mn  Mn9  1  0.250000  0.289566  0.682721  1
  Mn  Mn10  1  0.750000  0.789566  0.817279  1
  Mn  Mn11  1  0.750000  0.710434  0.317279  1
  Mn  Mn12  1  0.250000  0.884427  0.692406  1
  Mn  Mn13  1  0.250000  0.615573  0.192406  1
  Mn  Mn14  1  0.750000  0.115573  0.307594  1
  Mn  Mn15  1  0.750000  0.384427  0.807594  1
  Mn  Mn16  1  0.250000  0.466162  0.935102  1
  Mn  Mn17  1  0.250000  0.033838  0.435102  1
  Mn  Mn18  1  0.750000  0.533838  0.064898  1
  Mn  Mn19  1  0.750000  0.966162  0.564898  1
  Mo  Mo20  1  0.250000  0.711258  0.981337  1
  Mo  Mo21  1  0.250000  0.788742  0.481337  1
  Mo  Mo22  1  0.750000  0.288742  0.018663  1
  Mo  Mo23  1  0.750000  0.211258  0.518663  1
  P  P24  1  0.250000  0.413558  0.117296  1
  P  P25  1  0.250000  0.086442  0.617296  1
  P  P26  1  0.750000  0.586442  0.882704  1
  P  P27  1  0.750000  0.913558  0.382704  1
  P  P28  1  0.250000  0.265245  0.873244  1
  P  P29  1  0.250000  0.234755  0.373244  1
  P  P30  1  0.750000  0.734755  0.126756  1
  P  P31  1  0.750000  0.765245  0.626756  1
  P  P32  1  0.250000  0.590099  0.382845  1
  P  P33  1  0.250000  0.909901  0.882845  1
  P  P34  1  0.750000  0.409901  0.617155  1
  P  P35  1  0.750000  0.090099  0.117155  1
