# generated using pymatgen
data_Nd3Sb3Au2
_symmetry_space_group_name_H-M   'P 1'
_cell_length_a   4.63879000
_cell_length_b   4.63879138
_cell_length_c   23.88381400
_cell_angle_alpha   90.00000000
_cell_angle_beta   90.00000000
_cell_angle_gamma   120.00000441
_symmetry_Int_Tables_number   1
_chemical_formula_structural   Nd3Sb3Au2
_chemical_formula_sum   'Nd6 Sb6 Au4'
_cell_volume   445.08591045
_cell_formula_units_Z   2
loop_
 _symmetry_equiv_pos_site_id
 _symmetry_equiv_pos_as_xyz
  1  'x, y, z'
loop_
 _atom_site_type_symbol
 _atom_site_label
 _atom_site_symmetry_multiplicity
 _atom_site_fract_x
 _atom_site_fract_y
 _atom_site_fract_z
 _atom_site_occupancy
  Nd  Nd0  1  0.666667  0.333333  0.924960  1
  Nd  Nd1  1  0.333333  0.666667  0.075040  1
  Nd  Nd2  1  0.333333  0.666667  0.424960  1
  Nd  Nd3  1  0.666667  0.333333  0.575040  1
  Nd  Nd4  1  0.333333  0.666667  0.250000  1
  Nd  Nd5  1  0.666667  0.333333  0.750000  1
  Sb  Sb6  1  0.333333  0.666667  0.652794  1
  Sb  Sb7  1  0.000000  0.000000  0.500000  1
  Sb  Sb8  1  0.666667  0.333333  0.347206  1
  Sb  Sb9  1  0.333333  0.666667  0.847206  1
  Sb  Sb10  1  0.666667  0.333333  0.152794  1
  Sb  Sb11  1  0.000000  0.000000  0.000000  1
  Au  Au12  1  0.000000  0.000000  0.813270  1
  Au  Au13  1  0.000000  0.000000  0.186730  1
  Au  Au14  1  0.000000  0.000000  0.313270  1
  Au  Au15  1  0.000000  0.000000  0.686730  1
