# generated using pymatgen
data_Hf4Nb5WN12
_symmetry_space_group_name_H-M   'P 1'
_cell_length_a   5.30764100
_cell_length_b   5.28500226
_cell_length_c   10.59353600
_cell_angle_alpha   90.00000000
_cell_angle_beta   90.00000000
_cell_angle_gamma   120.14180744
_symmetry_Int_Tables_number   1
_chemical_formula_structural   Hf4Nb5WN12
_chemical_formula_sum   'Hf4 Nb5 W1 N12'
_cell_volume   256.97799592
_cell_formula_units_Z   1
loop_
 _symmetry_equiv_pos_site_id
 _symmetry_equiv_pos_as_xyz
  1  'x, y, z'
loop_
 _atom_site_type_symbol
 _atom_site_label
 _atom_site_symmetry_multiplicity
 _atom_site_fract_x
 _atom_site_fract_y
 _atom_site_fract_z
 _atom_site_occupancy
  Hf  Hf0  1  0.331453  0.664943  0.498841  1
  Hf  Hf1  1  0.666511  0.335057  0.001159  1
  Hf  Hf2  1  0.666511  0.335057  0.498841  1
  Hf  Hf3  1  0.331453  0.664943  0.001159  1
  Nb  Nb4  1  0.678979  0.678954  0.250000  1
  Nb  Nb5  1  0.000025  0.321046  0.250000  1
  Nb  Nb6  1  0.999347  0.675872  0.750000  1
  Nb  Nb7  1  0.323474  0.324128  0.750000  1
  Nb  Nb8  1  0.321914  0.000000  0.250000  1
  W  W9  1  0.677213  0.000000  0.750000  1
  N  N10  1  0.344878  0.344591  0.375286  1
  N  N11  1  0.653954  0.000000  0.375921  1
  N  N12  1  0.000287  0.655409  0.375286  1
  N  N13  1  0.994578  0.338061  0.873239  1
  N  N14  1  0.653954  0.000000  0.124079  1
  N  N15  1  0.656517  0.661939  0.873239  1
  N  N16  1  0.351346  0.000000  0.872643  1
  N  N17  1  0.656517  0.661939  0.626761  1
  N  N18  1  0.994578  0.338061  0.626761  1
  N  N19  1  0.000287  0.655409  0.124714  1
  N  N20  1  0.351346  0.000000  0.627357  1
  N  N21  1  0.344878  0.344591  0.124714  1
