# generated using pymatgen
data_NaGa6IrAu3
_symmetry_space_group_name_H-M   'P 1'
_cell_length_a   7.90955800
_cell_length_b   7.90955699
_cell_length_c   3.77611100
_cell_angle_alpha   90.00000000
_cell_angle_beta   90.00000000
_cell_angle_gamma   120.00000420
_symmetry_Int_Tables_number   1
_chemical_formula_structural   NaGa6IrAu3
_chemical_formula_sum   'Na1 Ga6 Ir1 Au3'
_cell_volume   204.58780375
_cell_formula_units_Z   1
loop_
 _symmetry_equiv_pos_site_id
 _symmetry_equiv_pos_as_xyz
  1  'x, y, z'
loop_
 _atom_site_type_symbol
 _atom_site_label
 _atom_site_symmetry_multiplicity
 _atom_site_fract_x
 _atom_site_fract_y
 _atom_site_fract_z
 _atom_site_occupancy
  Na  Na0  1  0.000000  0.000000  0.000000  1
  Ga  Ga1  1  0.958389  0.479195  0.000000  1
  Ga  Ga2  1  0.198160  0.801840  0.500000  1
  Ga  Ga3  1  0.520805  0.041611  0.000000  1
  Ga  Ga4  1  0.520805  0.479195  0.000000  1
  Ga  Ga5  1  0.198160  0.396321  0.500000  1
  Ga  Ga6  1  0.603679  0.801840  0.500000  1
  Ir  Ir7  1  0.333333  0.666667  0.000000  1
  Au  Au8  1  0.389892  0.194946  0.500000  1
  Au  Au9  1  0.805054  0.194946  0.500000  1
  Au  Au10  1  0.805054  0.610108  0.500000  1
