# generated using pymatgen
data_Dy5Ho5(Pb3Cl)2
_symmetry_space_group_name_H-M   'P 1'
_cell_length_a   9.18396402
_cell_length_b   9.18396388
_cell_length_c   6.59947100
_cell_angle_alpha   90.00000000
_cell_angle_beta   90.00000000
_cell_angle_gamma   119.99263853
_symmetry_Int_Tables_number   1
_chemical_formula_structural   Dy5Ho5(Pb3Cl)2
_chemical_formula_sum   'Dy5 Ho5 Pb6 Cl2'
_cell_volume   482.09464555
_cell_formula_units_Z   1
loop_
 _symmetry_equiv_pos_site_id
 _symmetry_equiv_pos_as_xyz
  1  'x, y, z'
loop_
 _atom_site_type_symbol
 _atom_site_label
 _atom_site_symmetry_multiplicity
 _atom_site_fract_x
 _atom_site_fract_y
 _atom_site_fract_z
 _atom_site_occupancy
  Dy  Dy0  1  0.260453  0.000016  0.750000  1
  Dy  Dy1  1  0.739451  0.999990  0.250000  1
  Dy  Dy2  1  0.000016  0.260453  0.750000  1
  Dy  Dy3  1  0.999990  0.739451  0.250000  1
  Dy  Dy4  1  0.739522  0.739522  0.750000  1
  Ho  Ho5  1  0.260679  0.260679  0.250000  1
  Ho  Ho6  1  0.333328  0.666618  0.499973  1
  Ho  Ho7  1  0.666618  0.333328  0.499973  1
  Ho  Ho8  1  0.666618  0.333328  0.000027  1
  Ho  Ho9  1  0.333328  0.666618  0.000027  1
  Pb  Pb10  1  0.610038  0.999999  0.750000  1
  Pb  Pb11  1  0.389811  0.000244  0.250000  1
  Pb  Pb12  1  0.999999  0.610038  0.750000  1
  Pb  Pb13  1  0.000244  0.389811  0.250000  1
  Pb  Pb14  1  0.389897  0.389897  0.750000  1
  Pb  Pb15  1  0.609773  0.609773  0.250000  1
  Cl  Cl16  1  0.000118  0.000118  0.499825  1
  Cl  Cl17  1  0.000118  0.000118  0.000175  1
