# generated using pymatgen
data_Tm3Al3ZnSiRh
_symmetry_space_group_name_H-M   'P 1'
_cell_length_a   6.86374900
_cell_length_b   6.86374788
_cell_length_c   4.19546900
_cell_angle_alpha   90.00000000
_cell_angle_beta   90.00000000
_cell_angle_gamma   120.00000056
_symmetry_Int_Tables_number   1
_chemical_formula_structural   Tm3Al3ZnSiRh
_chemical_formula_sum   'Tm3 Al3 Zn1 Si1 Rh1'
_cell_volume   171.17244813
_cell_formula_units_Z   1
loop_
 _symmetry_equiv_pos_site_id
 _symmetry_equiv_pos_as_xyz
  1  'x, y, z'
loop_
 _atom_site_type_symbol
 _atom_site_label
 _atom_site_symmetry_multiplicity
 _atom_site_fract_x
 _atom_site_fract_y
 _atom_site_fract_z
 _atom_site_occupancy
  Tm  Tm0  1  0.416648  0.998024  0.000000  1
  Tm  Tm1  1  0.001976  0.418624  0.000000  1
  Tm  Tm2  1  0.581376  0.583352  0.000000  1
  Al  Al3  1  0.765935  0.002010  0.500000  1
  Al  Al4  1  0.236074  0.234066  0.500000  1
  Al  Al5  1  0.997990  0.763926  0.500000  1
  Zn  Zn6  1  0.666666  0.333333  0.500000  1
  Si  Si7  1  0.333333  0.666667  0.500000  1
  Rh  Rh8  1  0.000000  0.000000  0.000000  1
