# generated using pymatgen
data_Tb2Ho3Nb3(Co4P3)4
_symmetry_space_group_name_H-M   'P 1'
_cell_length_a   12.19272500
_cell_length_b   12.19272510
_cell_length_c   3.70451400
_cell_angle_alpha   90.00000000
_cell_angle_beta   90.00000000
_cell_angle_gamma   119.99999701
_symmetry_Int_Tables_number   1
_chemical_formula_structural   Tb2Ho3Nb3(Co4P3)4
_chemical_formula_sum   'Tb2 Ho3 Nb3 Co16 P12'
_cell_volume   476.93966925
_cell_formula_units_Z   1
loop_
 _symmetry_equiv_pos_site_id
 _symmetry_equiv_pos_as_xyz
  1  'x, y, z'
loop_
 _atom_site_type_symbol
 _atom_site_label
 _atom_site_symmetry_multiplicity
 _atom_site_fract_x
 _atom_site_fract_y
 _atom_site_fract_z
 _atom_site_occupancy
  Tb  Tb0  1  0.333333  0.666667  0.000000  1
  Tb  Tb1  1  0.666667  0.333333  0.000000  1
  Ho  Ho2  1  0.816189  0.000000  0.500000  1
  Ho  Ho3  1  0.000000  0.816189  0.500000  1
  Ho  Ho4  1  0.183811  0.183811  0.500000  1
  Nb  Nb5  1  0.444182  0.000000  0.000000  1
  Nb  Nb6  1  0.000000  0.444182  0.000000  1
  Nb  Nb7  1  0.555818  0.555818  0.000000  1
  Co  Co8  1  0.278336  0.000000  0.500000  1
  Co  Co9  1  0.000000  0.278336  0.500000  1
  Co  Co10  1  0.721664  0.721664  0.500000  1
  Co  Co11  1  0.626843  0.803750  0.000000  1
  Co  Co12  1  0.196250  0.823094  0.000000  1
  Co  Co13  1  0.176906  0.373157  0.000000  1
  Co  Co14  1  0.373157  0.176906  0.000000  1
  Co  Co15  1  0.803750  0.626843  0.000000  1
  Co  Co16  1  0.823094  0.196250  0.000000  1
  Co  Co17  1  0.519764  0.873611  0.500000  1
  Co  Co18  1  0.126389  0.646153  0.500000  1
  Co  Co19  1  0.353847  0.480236  0.500000  1
  Co  Co20  1  0.480236  0.353847  0.500000  1
  Co  Co21  1  0.873611  0.519764  0.500000  1
  Co  Co22  1  0.646153  0.126389  0.500000  1
  Co  Co23  1  0.000000  0.000000  0.000000  1
  P  P24  1  0.177923  0.000000  0.000000  1
  P  P25  1  0.000000  0.177923  0.000000  1
  P  P26  1  0.822077  0.822077  0.000000  1
  P  P27  1  0.521502  0.689057  0.500000  1
  P  P28  1  0.310943  0.832446  0.500000  1
  P  P29  1  0.167554  0.478498  0.500000  1
  P  P30  1  0.478498  0.167554  0.500000  1
  P  P31  1  0.689057  0.521502  0.500000  1
  P  P32  1  0.832446  0.310943  0.500000  1
  P  P33  1  0.643709  0.000000  0.000000  1
  P  P34  1  0.000000  0.643709  0.000000  1
  P  P35  1  0.356291  0.356291  0.000000  1
