# generated using pymatgen
data_Rb4HfZr5BI18
_symmetry_space_group_name_H-M   'P 1'
_cell_length_a   11.64281865
_cell_length_b   11.64281896
_cell_length_c   11.29547004
_cell_angle_alpha   77.44771318
_cell_angle_beta   77.44771359
_cell_angle_gamma   117.77744837
_symmetry_Int_Tables_number   1
_chemical_formula_structural   Rb4HfZr5BI18
_chemical_formula_sum   'Rb4 Hf1 Zr5 B1 I18'
_cell_volume   1229.05403080
_cell_formula_units_Z   1
loop_
 _symmetry_equiv_pos_site_id
 _symmetry_equiv_pos_as_xyz
  1  'x, y, z'
loop_
 _atom_site_type_symbol
 _atom_site_label
 _atom_site_symmetry_multiplicity
 _atom_site_fract_x
 _atom_site_fract_y
 _atom_site_fract_z
 _atom_site_occupancy
  Rb  Rb0  1  0.771169  0.445763  0.677820  1
  Rb  Rb1  1  0.554315  0.228882  0.322181  1
  Rb  Rb2  1  0.228882  0.554315  0.322181  1
  Rb  Rb3  1  0.445763  0.771169  0.677820  1
  Hf  Hf4  1  0.115849  0.115849  0.131765  1
  Zr  Zr5  1  0.883839  0.883839  0.868137  1
  Zr  Zr6  1  0.954060  0.780152  0.137104  1
  Zr  Zr7  1  0.219449  0.045498  0.862394  1
  Zr  Zr8  1  0.045498  0.219449  0.862394  1
  Zr  Zr9  1  0.780152  0.954060  0.137104  1
  B  B10  1  0.001283  0.001283  0.001438  1
  I  I11  1  0.807485  0.600814  0.008319  1
  I  I12  1  0.397193  0.192130  0.993001  1
  I  I13  1  0.192130  0.397193  0.993001  1
  I  I14  1  0.600813  0.807485  0.008319  1
  I  I15  1  0.205929  0.794095  0.000025  1
  I  I16  1  0.794095  0.205929  0.000025  1
  I  I17  1  0.316662  0.316662  0.674696  1
  I  I18  1  0.683376  0.683376  0.325334  1
  I  I19  1  0.889199  0.492624  0.324437  1
  I  I20  1  0.507557  0.110985  0.675733  1
  I  I21  1  0.110985  0.507557  0.675733  1
  I  I22  1  0.492624  0.889199  0.324437  1
  I  I23  1  0.262790  0.262790  0.299841  1
  I  I24  1  0.736290  0.736290  0.699124  1
  I  I25  1  0.079530  0.877746  0.318252  1
  I  I26  1  0.124375  0.920962  0.680567  1
  I  I27  1  0.920962  0.124375  0.680567  1
  I  I28  1  0.877746  0.079530  0.318252  1
