# generated using pymatgen
data_Ta2B2PRu5
_symmetry_space_group_name_H-M   'P 1'
_cell_length_a   9.27563600
_cell_length_b   9.27563600
_cell_length_c   2.94194800
_cell_angle_alpha   90.00000000
_cell_angle_beta   90.00000000
_cell_angle_gamma   90.00000000
_symmetry_Int_Tables_number   1
_chemical_formula_structural   Ta2B2PRu5
_chemical_formula_sum   'Ta4 B4 P2 Ru10'
_cell_volume   253.11762512
_cell_formula_units_Z   2
loop_
 _symmetry_equiv_pos_site_id
 _symmetry_equiv_pos_as_xyz
  1  'x, y, z'
loop_
 _atom_site_type_symbol
 _atom_site_label
 _atom_site_symmetry_multiplicity
 _atom_site_fract_x
 _atom_site_fract_y
 _atom_site_fract_z
 _atom_site_occupancy
  Ta  Ta0  1  0.823226  0.676774  0.000000  1
  Ta  Ta1  1  0.176774  0.323226  0.000000  1
  Ta  Ta2  1  0.323226  0.823226  0.000000  1
  Ta  Ta3  1  0.676774  0.176774  0.000000  1
  B  B4  1  0.624914  0.875086  0.000000  1
  B  B5  1  0.375086  0.124914  0.000000  1
  B  B6  1  0.124914  0.624914  0.000000  1
  B  B7  1  0.875086  0.375086  0.000000  1
  P  P8  1  0.500000  0.500000  0.000000  1
  P  P9  1  0.000000  0.000000  0.000000  1
  Ru  Ru10  1  0.566869  0.708984  0.500000  1
  Ru  Ru11  1  0.433131  0.291016  0.500000  1
  Ru  Ru12  1  0.066869  0.791016  0.500000  1
  Ru  Ru13  1  0.933131  0.208984  0.500000  1
  Ru  Ru14  1  0.291016  0.566869  0.500000  1
  Ru  Ru15  1  0.708984  0.433131  0.500000  1
  Ru  Ru16  1  0.208984  0.066869  0.500000  1
  Ru  Ru17  1  0.791016  0.933131  0.500000  1
  Ru  Ru18  1  0.500000  0.000000  0.500000  1
  Ru  Ru19  1  0.000000  0.500000  0.500000  1
