# generated using pymatgen
data_Tb3Fe(P3Ru4)2
_symmetry_space_group_name_H-M   'P 1'
_cell_length_a   3.91982400
_cell_length_b   11.14351600
_cell_length_c   12.61281900
_cell_angle_alpha   90.00000000
_cell_angle_beta   90.00000000
_cell_angle_gamma   90.00000000
_symmetry_Int_Tables_number   1
_chemical_formula_structural   Tb3Fe(P3Ru4)2
_chemical_formula_sum   'Tb6 Fe2 P12 Ru16'
_cell_volume   550.93577230
_cell_formula_units_Z   2
loop_
 _symmetry_equiv_pos_site_id
 _symmetry_equiv_pos_as_xyz
  1  'x, y, z'
loop_
 _atom_site_type_symbol
 _atom_site_label
 _atom_site_symmetry_multiplicity
 _atom_site_fract_x
 _atom_site_fract_y
 _atom_site_fract_z
 _atom_site_occupancy
  Tb  Tb0  1  0.000000  0.500000  0.526030  1
  Tb  Tb1  1  0.500000  0.000000  0.473970  1
  Tb  Tb2  1  0.500000  0.819791  0.203360  1
  Tb  Tb3  1  0.500000  0.180209  0.203360  1
  Tb  Tb4  1  0.000000  0.680209  0.796640  1
  Tb  Tb5  1  0.000000  0.319791  0.796640  1
  Fe  Fe6  1  0.000000  0.500000  0.986268  1
  Fe  Fe7  1  0.500000  0.000000  0.013732  1
  P  P8  1  0.500000  0.500000  0.883169  1
  P  P9  1  0.000000  0.000000  0.116831  1
  P  P10  1  0.500000  0.500000  0.336677  1
  P  P11  1  0.000000  0.000000  0.663323  1
  P  P12  1  0.500000  0.302245  0.617379  1
  P  P13  1  0.500000  0.697755  0.617379  1
  P  P14  1  0.000000  0.197755  0.382621  1
  P  P15  1  0.000000  0.802245  0.382621  1
  P  P16  1  0.500000  0.851192  0.898769  1
  P  P17  1  0.500000  0.148808  0.898769  1
  P  P18  1  0.000000  0.648808  0.101231  1
  P  P19  1  0.000000  0.351192  0.101231  1
  Ru  Ru20  1  0.500000  0.500000  0.152481  1
  Ru  Ru21  1  0.000000  0.000000  0.847519  1
  Ru  Ru22  1  0.500000  0.500000  0.694318  1
  Ru  Ru23  1  0.000000  0.000000  0.305682  1
  Ru  Ru24  1  0.500000  0.333909  0.990150  1
  Ru  Ru25  1  0.500000  0.666091  0.990150  1
  Ru  Ru26  1  0.000000  0.166091  0.009850  1
  Ru  Ru27  1  0.000000  0.833909  0.009850  1
  Ru  Ru28  1  0.500000  0.301688  0.430078  1
  Ru  Ru29  1  0.500000  0.698312  0.430078  1
  Ru  Ru30  1  0.000000  0.198312  0.569922  1
  Ru  Ru31  1  0.000000  0.801688  0.569922  1
  Ru  Ru32  1  0.500000  0.878774  0.715499  1
  Ru  Ru33  1  0.500000  0.121226  0.715499  1
  Ru  Ru34  1  0.000000  0.621226  0.284501  1
  Ru  Ru35  1  0.000000  0.378774  0.284501  1
