# generated using pymatgen
data_Tb8Hf7Ta(Si4W)4
_symmetry_space_group_name_H-M   'P 1'
_cell_length_a   7.14701794
_cell_length_b   7.14511896
_cell_length_c   13.09451716
_cell_angle_alpha   89.87584578
_cell_angle_beta   89.90301749
_cell_angle_gamma   90.00896353
_symmetry_Int_Tables_number   1
_chemical_formula_structural   Tb8Hf7Ta(Si4W)4
_chemical_formula_sum   'Tb8 Hf7 Ta1 Si16 W4'
_cell_volume   668.68591912
_cell_formula_units_Z   1
loop_
 _symmetry_equiv_pos_site_id
 _symmetry_equiv_pos_as_xyz
  1  'x, y, z'
loop_
 _atom_site_type_symbol
 _atom_site_label
 _atom_site_symmetry_multiplicity
 _atom_site_fract_x
 _atom_site_fract_y
 _atom_site_fract_z
 _atom_site_occupancy
  Tb  Tb0  1  0.998772  0.344870  0.217622  1
  Tb  Tb1  1  0.002494  0.655050  0.714606  1
  Tb  Tb2  1  0.154398  0.498446  0.465862  1
  Tb  Tb3  1  0.500694  0.845624  0.035448  1
  Tb  Tb4  1  0.845111  0.501996  0.965396  1
  Tb  Tb5  1  0.498507  0.154189  0.532734  1
  Tb  Tb6  1  0.346534  0.998784  0.784637  1
  Tb  Tb7  1  0.654855  0.001554  0.284007  1
  Hf  Hf8  1  0.852806  0.006089  0.873603  1
  Hf  Hf9  1  0.505376  0.648419  0.621771  1
  Hf  Hf10  1  0.353198  0.493828  0.876519  1
  Hf  Hf11  1  0.492725  0.351443  0.125231  1
  Hf  Hf12  1  0.646334  0.508071  0.376682  1
  Hf  Hf13  1  0.994313  0.148223  0.626263  1
  Hf  Hf14  1  0.005192  0.853341  0.126257  1
  Ta  Ta15  1  0.145546  0.991410  0.373274  1
  Si  Si16  1  0.360514  0.292848  0.319250  1
  Si  Si17  1  0.640192  0.700211  0.814878  1
  Si  Si18  1  0.199993  0.862101  0.563081  1
  Si  Si19  1  0.139902  0.798712  0.933945  1
  Si  Si20  1  0.798995  0.140644  0.066402  1
  Si  Si21  1  0.864790  0.199246  0.431570  1
  Si  Si22  1  0.300990  0.360110  0.683694  1
  Si  Si23  1  0.701121  0.638961  0.183813  1
  Si  Si24  1  0.294160  0.049556  0.185964  1
  Si  Si25  1  0.706013  0.948950  0.682902  1
  Si  Si26  1  0.443700  0.796122  0.431856  1
  Si  Si27  1  0.204500  0.550593  0.067034  1
  Si  Si28  1  0.551305  0.205083  0.934132  1
  Si  Si29  1  0.794800  0.448175  0.566707  1
  Si  Si30  1  0.051813  0.295038  0.816860  1
  Si  Si31  1  0.950633  0.707914  0.317246  1
  W  W32  1  0.174259  0.174782  0.001185  1
  W  W33  1  0.827628  0.827841  0.498781  1
  W  W34  1  0.321665  0.677002  0.250839  1
  W  W35  1  0.676172  0.324774  0.749950  1
