# generated using pymatgen
data_YTm3Mg2(Ni7B2)2
_symmetry_space_group_name_H-M   'P 1'
_cell_length_a   4.97564700
_cell_length_b   4.97564751
_cell_length_c   14.21110200
_cell_angle_alpha   90.00000000
_cell_angle_beta   90.00000000
_cell_angle_gamma   120.00000327
_symmetry_Int_Tables_number   1
_chemical_formula_structural   YTm3Mg2(Ni7B2)2
_chemical_formula_sum   'Y1 Tm3 Mg2 Ni14 B4'
_cell_volume   304.68953733
_cell_formula_units_Z   1
loop_
 _symmetry_equiv_pos_site_id
 _symmetry_equiv_pos_as_xyz
  1  'x, y, z'
loop_
 _atom_site_type_symbol
 _atom_site_label
 _atom_site_symmetry_multiplicity
 _atom_site_fract_x
 _atom_site_fract_y
 _atom_site_fract_z
 _atom_site_occupancy
  Y  Y0  1  0.666667  0.333333  0.469243  1
  Tm  Tm1  1  0.333333  0.666667  0.969682  1
  Tm  Tm2  1  0.333333  0.666667  0.745440  1
  Tm  Tm3  1  0.666667  0.333333  0.243741  1
  Mg  Mg4  1  0.333333  0.666667  0.534259  1
  Mg  Mg5  1  0.666667  0.333333  0.032777  1
  Ni  Ni6  1  0.000000  0.000000  0.000933  1
  Ni  Ni7  1  0.000000  0.000000  0.501529  1
  Ni  Ni8  1  0.165786  0.331573  0.146287  1
  Ni  Ni9  1  0.834643  0.669286  0.647894  1
  Ni  Ni10  1  0.668427  0.834214  0.146287  1
  Ni  Ni11  1  0.165786  0.834214  0.146287  1
  Ni  Ni12  1  0.834643  0.165357  0.647894  1
  Ni  Ni13  1  0.330714  0.165357  0.647894  1
  Ni  Ni14  1  0.833655  0.667310  0.853270  1
  Ni  Ni15  1  0.833655  0.166345  0.853270  1
  Ni  Ni16  1  0.332690  0.166345  0.853270  1
  Ni  Ni17  1  0.667594  0.833797  0.351854  1
  Ni  Ni18  1  0.166203  0.833797  0.351854  1
  Ni  Ni19  1  0.166203  0.332406  0.351854  1
  B  B20  1  0.333333  0.666667  0.249720  1
  B  B21  1  0.666667  0.333333  0.750481  1
  B  B22  1  0.000000  0.000000  0.251370  1
  B  B23  1  0.000000  0.000000  0.752909  1
