# generated using pymatgen
data_Dy2HoLu(CrB4)4
_symmetry_space_group_name_H-M   'P 1'
_cell_length_a   3.44763600
_cell_length_b   5.94001631
_cell_length_c   11.47889400
_cell_angle_alpha   89.89324102
_cell_angle_beta   90.00000000
_cell_angle_gamma   90.00000000
_symmetry_Int_Tables_number   1
_chemical_formula_structural   Dy2HoLu(CrB4)4
_chemical_formula_sum   'Dy2 Ho1 Lu1 Cr4 B16'
_cell_volume   235.07602373
_cell_formula_units_Z   1
loop_
 _symmetry_equiv_pos_site_id
 _symmetry_equiv_pos_as_xyz
  1  'x, y, z'
loop_
 _atom_site_type_symbol
 _atom_site_label
 _atom_site_symmetry_multiplicity
 _atom_site_fract_x
 _atom_site_fract_y
 _atom_site_fract_z
 _atom_site_occupancy
  Dy  Dy0  1  0.000000  0.375381  0.651243  1
  Dy  Dy1  1  0.000000  0.124570  0.150362  1
  Ho  Ho2  1  0.000000  0.624797  0.349431  1
  Lu  Lu3  1  0.000000  0.875467  0.849467  1
  Cr  Cr4  1  0.000000  0.624096  0.079403  1
  Cr  Cr5  1  0.000000  0.376304  0.918724  1
  Cr  Cr6  1  0.000000  0.123835  0.420016  1
  Cr  Cr7  1  0.000000  0.875978  0.581681  1
  B  B8  1  0.500000  0.780533  0.183478  1
  B  B9  1  0.500000  0.217305  0.815959  1
  B  B10  1  0.500000  0.281299  0.316121  1
  B  B11  1  0.500000  0.719438  0.685387  1
  B  B12  1  0.500000  0.863190  0.030851  1
  B  B13  1  0.500000  0.136541  0.966687  1
  B  B14  1  0.500000  0.362975  0.468132  1
  B  B15  1  0.500000  0.637463  0.532968  1
  B  B16  1  0.500000  0.886339  0.453700  1
  B  B17  1  0.500000  0.112457  0.547541  1
  B  B18  1  0.500000  0.387348  0.045877  1
  B  B19  1  0.500000  0.614938  0.951937  1
  B  B20  1  0.500000  0.974651  0.308790  1
  B  B21  1  0.500000  0.023857  0.692945  1
  B  B22  1  0.500000  0.475226  0.191033  1
  B  B23  1  0.500000  0.526012  0.808267  1
