# generated using pymatgen
data_CeMgNi3P4
_symmetry_space_group_name_H-M   'P 1'
_cell_length_a   3.83492000
_cell_length_b   3.91103500
_cell_length_c   9.13074400
_cell_angle_alpha   90.00000000
_cell_angle_beta   90.00000000
_cell_angle_gamma   90.00000000
_symmetry_Int_Tables_number   1
_chemical_formula_structural   CeMgNi3P4
_chemical_formula_sum   'Ce1 Mg1 Ni3 P4'
_cell_volume   136.94752179
_cell_formula_units_Z   1
loop_
 _symmetry_equiv_pos_site_id
 _symmetry_equiv_pos_as_xyz
  1  'x, y, z'
loop_
 _atom_site_type_symbol
 _atom_site_label
 _atom_site_symmetry_multiplicity
 _atom_site_fract_x
 _atom_site_fract_y
 _atom_site_fract_z
 _atom_site_occupancy
  Ce  Ce0  1  0.000000  0.500000  0.234190  1
  Mg  Mg1  1  0.500000  0.000000  0.762302  1
  Ni  Ni2  1  0.000000  0.000000  0.516305  1
  Ni  Ni3  1  0.000000  0.000000  0.983230  1
  Ni  Ni4  1  0.500000  0.500000  0.503402  1
  P  P5  1  0.000000  0.500000  0.873834  1
  P  P6  1  0.500000  0.000000  0.371909  1
  P  P7  1  0.500000  0.000000  0.121226  1
  P  P8  1  0.000000  0.500000  0.633601  1
