# generated using pymatgen
data_Pr4DyHo3Au4
_symmetry_space_group_name_H-M   'P 1'
_cell_length_a   5.03198400
_cell_length_b   7.33265748
_cell_length_c   9.10908000
_cell_angle_alpha   90.03634971
_cell_angle_beta   90.00000000
_cell_angle_gamma   90.00000000
_symmetry_Int_Tables_number   1
_chemical_formula_structural   Pr4DyHo3Au4
_chemical_formula_sum   'Pr4 Dy1 Ho3 Au4'
_cell_volume   336.10508189
_cell_formula_units_Z   1
loop_
 _symmetry_equiv_pos_site_id
 _symmetry_equiv_pos_as_xyz
  1  'x, y, z'
loop_
 _atom_site_type_symbol
 _atom_site_label
 _atom_site_symmetry_multiplicity
 _atom_site_fract_x
 _atom_site_fract_y
 _atom_site_fract_z
 _atom_site_occupancy
  Pr  Pr0  1  0.250000  0.488242  0.177086  1
  Pr  Pr1  1  0.750000  0.511297  0.822723  1
  Pr  Pr2  1  0.250000  0.989121  0.323242  1
  Pr  Pr3  1  0.750000  0.011815  0.677569  1
  Dy  Dy4  1  0.750000  0.648842  0.417695  1
  Ho  Ho5  1  0.250000  0.351338  0.582095  1
  Ho  Ho6  1  0.750000  0.148979  0.081298  1
  Ho  Ho7  1  0.250000  0.851311  0.918898  1
  Au  Au8  1  0.250000  0.244003  0.900925  1
  Au  Au9  1  0.750000  0.756457  0.097245  1
  Au  Au10  1  0.250000  0.744317  0.600533  1
  Au  Au11  1  0.750000  0.254277  0.400688  1
