# generated using pymatgen
data_Ce(AlFe)6
_symmetry_space_group_name_H-M   'P 1'
_cell_length_a   6.58926159
_cell_length_b   6.58926196
_cell_length_c   6.58926256
_cell_angle_alpha   135.65733095
_cell_angle_beta   98.90910614
_cell_angle_gamma   97.46728856
_symmetry_Int_Tables_number   1
_chemical_formula_structural   Ce(AlFe)6
_chemical_formula_sum   'Ce1 Al6 Fe6'
_cell_volume   185.16050690
_cell_formula_units_Z   1
loop_
 _symmetry_equiv_pos_site_id
 _symmetry_equiv_pos_as_xyz
  1  'x, y, z'
loop_
 _atom_site_type_symbol
 _atom_site_label
 _atom_site_symmetry_multiplicity
 _atom_site_fract_x
 _atom_site_fract_y
 _atom_site_fract_z
 _atom_site_occupancy
  Ce  Ce0  1  0.000000  0.000000  0.000000  1
  Al  Al1  1  0.348134  0.348134  0.000000  1
  Al  Al2  1  0.651866  0.651866  0.000000  1
  Al  Al3  1  0.659152  0.000000  0.659152  1
  Al  Al4  1  0.340848  0.000000  0.340848  1
  Al  Al5  1  0.803333  0.303333  0.500000  1
  Al  Al6  1  0.196667  0.696667  0.500000  1
  Fe  Fe7  1  0.500000  0.000000  0.000000  1
  Fe  Fe8  1  0.500000  0.500000  0.500000  1
  Fe  Fe9  1  0.000000  0.000000  0.500000  1
  Fe  Fe10  1  0.000000  0.500000  0.000000  1
  Fe  Fe11  1  0.238961  0.500000  0.738961  1
  Fe  Fe12  1  0.761039  0.500000  0.261039  1
