# generated using pymatgen
data_HfNb7(GaC3)2
_symmetry_space_group_name_H-M   'P 1'
_cell_length_a   3.17443800
_cell_length_b   3.17443754
_cell_length_c   24.20557900
_cell_angle_alpha   90.00000000
_cell_angle_beta   90.00000000
_cell_angle_gamma   119.99998392
_symmetry_Int_Tables_number   1
_chemical_formula_structural   HfNb7(GaC3)2
_chemical_formula_sum   'Hf1 Nb7 Ga2 C6'
_cell_volume   211.24177764
_cell_formula_units_Z   1
loop_
 _symmetry_equiv_pos_site_id
 _symmetry_equiv_pos_as_xyz
  1  'x, y, z'
loop_
 _atom_site_type_symbol
 _atom_site_label
 _atom_site_symmetry_multiplicity
 _atom_site_fract_x
 _atom_site_fract_y
 _atom_site_fract_z
 _atom_site_occupancy
  Hf  Hf0  1  0.333333  0.666667  0.054937  1
  Nb  Nb1  1  0.000000  0.000000  0.342131  1
  Nb  Nb2  1  0.000000  0.000000  0.658149  1
  Nb  Nb3  1  0.000000  0.000000  0.840385  1
  Nb  Nb4  1  0.000000  0.000000  0.162302  1
  Nb  Nb5  1  0.333333  0.666667  0.444088  1
  Nb  Nb6  1  0.666667  0.333333  0.555782  1
  Nb  Nb7  1  0.666667  0.333333  0.943180  1
  Ga  Ga8  1  0.333333  0.666667  0.251121  1
  Ga  Ga9  1  0.666667  0.333333  0.749730  1
  C  C10  1  0.000000  0.000000  0.499958  1
  C  C11  1  0.000000  0.000000  0.997612  1
  C  C12  1  0.666667  0.333333  0.390596  1
  C  C13  1  0.333333  0.666667  0.609280  1
  C  C14  1  0.333333  0.666667  0.889435  1
  C  C15  1  0.666667  0.333333  0.111313  1
