# generated using pymatgen
data_La20CoTc3Bi8
_symmetry_space_group_name_H-M   'P 1'
_cell_length_a   8.53604032
_cell_length_b   9.30968600
_cell_length_c   13.02893103
_cell_angle_alpha   90.00000000
_cell_angle_beta   90.27635276
_cell_angle_gamma   90.00000000
_symmetry_Int_Tables_number   1
_chemical_formula_structural   La20CoTc3Bi8
_chemical_formula_sum   'La20 Co1 Tc3 Bi8'
_cell_volume   1035.36915966
_cell_formula_units_Z   1
loop_
 _symmetry_equiv_pos_site_id
 _symmetry_equiv_pos_as_xyz
  1  'x, y, z'
loop_
 _atom_site_type_symbol
 _atom_site_label
 _atom_site_symmetry_multiplicity
 _atom_site_fract_x
 _atom_site_fract_y
 _atom_site_fract_z
 _atom_site_occupancy
  La  La0  1  0.851282  0.750000  0.800630  1
  La  La1  1  0.146449  0.250000  0.199191  1
  La  La2  1  0.348311  0.250000  0.704800  1
  La  La3  1  0.645957  0.750000  0.302242  1
  La  La4  1  0.377723  0.750000  0.696123  1
  La  La5  1  0.620185  0.250000  0.304891  1
  La  La6  1  0.879415  0.250000  0.807914  1
  La  La7  1  0.119969  0.750000  0.190323  1
  La  La8  1  0.954945  0.750000  0.503213  1
  La  La9  1  0.056087  0.250000  0.496859  1
  La  La10  1  0.447057  0.250000  0.994960  1
  La  La11  1  0.564607  0.750000  0.005935  1
  La  La12  1  0.677516  0.028713  0.563046  1
  La  La13  1  0.319948  0.967562  0.435272  1
  La  La14  1  0.179039  0.965846  0.936214  1
  La  La15  1  0.319948  0.532438  0.435272  1
  La  La16  1  0.816066  0.032568  0.063822  1
  La  La17  1  0.677516  0.471287  0.563046  1
  La  La18  1  0.816066  0.467432  0.063822  1
  La  La19  1  0.179039  0.534154  0.936214  1
  Co  Co20  1  0.925802  0.750000  0.009109  1
  Tc  Tc21  1  0.586841  0.750000  0.515835  1
  Tc  Tc22  1  0.414975  0.250000  0.483548  1
  Tc  Tc23  1  0.079471  0.250000  0.986478  1
  Bi  Bi24  1  0.574345  0.494712  0.827856  1
  Bi  Bi25  1  0.424499  0.506545  0.172529  1
  Bi  Bi26  1  0.073819  0.506281  0.673523  1
  Bi  Bi27  1  0.424499  0.993455  0.172529  1
  Bi  Bi28  1  0.925232  0.494021  0.326711  1
  Bi  Bi29  1  0.574345  0.005288  0.827856  1
  Bi  Bi30  1  0.925232  0.005979  0.326711  1
  Bi  Bi31  1  0.073819  0.993719  0.673523  1
