# generated using pymatgen
data_La2Tb2LuSi4
_symmetry_space_group_name_H-M   'P 1'
_cell_length_a   7.83253300
_cell_length_b   7.83253300
_cell_length_c   14.44819100
_cell_angle_alpha   90.00000000
_cell_angle_beta   90.00000000
_cell_angle_gamma   90.00000000
_symmetry_Int_Tables_number   1
_chemical_formula_structural   La2Tb2LuSi4
_chemical_formula_sum   'La8 Tb8 Lu4 Si16'
_cell_volume   886.37590311
_cell_formula_units_Z   4
loop_
 _symmetry_equiv_pos_site_id
 _symmetry_equiv_pos_as_xyz
  1  'x, y, z'
loop_
 _atom_site_type_symbol
 _atom_site_label
 _atom_site_symmetry_multiplicity
 _atom_site_fract_x
 _atom_site_fract_y
 _atom_site_fract_z
 _atom_site_occupancy
  La  La0  1  0.991999  0.643580  0.040255  1
  La  La1  1  0.008001  0.356420  0.540255  1
  La  La2  1  0.643580  0.991999  0.959745  1
  La  La3  1  0.143580  0.508001  0.790255  1
  La  La4  1  0.856420  0.491999  0.290255  1
  La  La5  1  0.508001  0.143580  0.209745  1
  La  La6  1  0.491999  0.856420  0.709745  1
  La  La7  1  0.356420  0.008001  0.459745  1
  Tb  Tb8  1  0.360534  0.493398  0.374914  1
  Tb  Tb9  1  0.860534  0.006602  0.375086  1
  Tb  Tb10  1  0.993398  0.139466  0.124914  1
  Tb  Tb11  1  0.006602  0.860534  0.624914  1
  Tb  Tb12  1  0.639466  0.506602  0.874914  1
  Tb  Tb13  1  0.493398  0.360534  0.625086  1
  Tb  Tb14  1  0.506602  0.639466  0.125086  1
  Tb  Tb15  1  0.139466  0.993398  0.875086  1
  Lu  Lu16  1  0.682385  0.682385  0.500000  1
  Lu  Lu17  1  0.817615  0.182385  0.750000  1
  Lu  Lu18  1  0.182385  0.817615  0.250000  1
  Lu  Lu19  1  0.317615  0.317615  0.000000  1
  Si  Si20  1  0.063974  0.711006  0.436660  1
  Si  Si21  1  0.936026  0.288994  0.936660  1
  Si  Si22  1  0.711006  0.063974  0.563340  1
  Si  Si23  1  0.211007  0.436026  0.186660  1
  Si  Si24  1  0.788994  0.563974  0.686660  1
  Si  Si25  1  0.436026  0.211007  0.813340  1
  Si  Si26  1  0.563974  0.788994  0.313340  1
  Si  Si27  1  0.288994  0.936026  0.063340  1
  Si  Si28  1  0.848292  0.795999  0.809744  1
  Si  Si29  1  0.151708  0.204001  0.309744  1
  Si  Si30  1  0.795999  0.848292  0.190256  1
  Si  Si31  1  0.295999  0.651708  0.559744  1
  Si  Si32  1  0.704001  0.348292  0.059744  1
  Si  Si33  1  0.651708  0.295999  0.440256  1
  Si  Si34  1  0.348292  0.704001  0.940256  1
  Si  Si35  1  0.204001  0.151708  0.690256  1
