# generated using pymatgen
data_Li6Si5Rh12W
_symmetry_space_group_name_H-M   'P 1'
_cell_length_a   4.14683300
_cell_length_b   5.87355200
_cell_length_c   12.37768800
_cell_angle_alpha   90.00011871
_cell_angle_beta   90.00215632
_cell_angle_gamma   90.00000000
_symmetry_Int_Tables_number   1
_chemical_formula_structural   Li6Si5Rh12W
_chemical_formula_sum   'Li6 Si5 Rh12 W1'
_cell_volume   301.47888139
_cell_formula_units_Z   1
loop_
 _symmetry_equiv_pos_site_id
 _symmetry_equiv_pos_as_xyz
  1  'x, y, z'
loop_
 _atom_site_type_symbol
 _atom_site_label
 _atom_site_symmetry_multiplicity
 _atom_site_fract_x
 _atom_site_fract_y
 _atom_site_fract_z
 _atom_site_occupancy
  Li  Li0  1  0.000000  0.500001  0.000000  1
  Li  Li1  1  0.499905  0.000001  0.167321  1
  Li  Li2  1  0.999876  0.500000  0.337174  1
  Li  Li3  1  0.500001  0.000000  0.500000  1
  Li  Li4  1  0.000124  0.500002  0.662826  1
  Li  Li5  1  0.500094  0.999999  0.832679  1
  Si  Si6  1  0.499897  0.500002  0.172592  1
  Si  Si7  1  0.999874  0.000000  0.336387  1
  Si  Si8  1  0.500001  0.500001  0.500000  1
  Si  Si9  1  0.000126  0.000000  0.663613  1
  Si  Si10  1  0.500103  0.500000  0.827409  1
  Rh  Rh11  1  0.499999  0.261627  0.000000  1
  Rh  Rh12  1  0.499999  0.738373  0.000000  1
  Rh  Rh13  1  0.999910  0.254129  0.169746  1
  Rh  Rh14  1  0.999910  0.745871  0.169747  1
  Rh  Rh15  1  0.499905  0.249353  0.334468  1
  Rh  Rh16  1  0.499906  0.750648  0.334467  1
  Rh  Rh17  1  0.000000  0.249353  0.500000  1
  Rh  Rh18  1  0.000000  0.750647  0.500000  1
  Rh  Rh19  1  0.500093  0.249352  0.665533  1
  Rh  Rh20  1  0.500094  0.750647  0.665532  1
  Rh  Rh21  1  0.000090  0.254129  0.830253  1
  Rh  Rh22  1  0.000090  0.745871  0.830254  1
  W  W23  1  0.000000  0.000000  0.000000  1
