# generated using pymatgen
data_NaTm3P6N13
_symmetry_space_group_name_H-M   'P 1'
_cell_length_a   7.29608293
_cell_length_b   7.29608382
_cell_length_c   7.29608500
_cell_angle_alpha   108.94634266
_cell_angle_beta   108.94635337
_cell_angle_gamma   108.94634937
_symmetry_Int_Tables_number   1
_chemical_formula_structural   NaTm3P6N13
_chemical_formula_sum   'Na1 Tm3 P6 N13'
_cell_volume   304.65532427
_cell_formula_units_Z   1
loop_
 _symmetry_equiv_pos_site_id
 _symmetry_equiv_pos_as_xyz
  1  'x, y, z'
loop_
 _atom_site_type_symbol
 _atom_site_label
 _atom_site_symmetry_multiplicity
 _atom_site_fract_x
 _atom_site_fract_y
 _atom_site_fract_z
 _atom_site_occupancy
  Na  Na0  1  0.297692  0.297692  0.297692  1
  Tm  Tm1  1  0.694520  0.003724  0.003724  1
  Tm  Tm2  1  0.003724  0.003724  0.694520  1
  Tm  Tm3  1  0.003724  0.694520  0.003724  1
  P  P4  1  0.248677  0.752775  0.503656  1
  P  P5  1  0.752775  0.248677  0.503656  1
  P  P6  1  0.752775  0.503656  0.248677  1
  P  P7  1  0.248677  0.503656  0.752775  1
  P  P8  1  0.503656  0.752775  0.248677  1
  P  P9  1  0.503656  0.248677  0.752775  1
  N  N10  1  0.966025  0.966025  0.966025  1
  N  N11  1  0.735223  0.296063  0.296063  1
  N  N12  1  0.296063  0.735223  0.296063  1
  N  N13  1  0.282947  0.573221  0.573221  1
  N  N14  1  0.573221  0.573221  0.282947  1
  N  N15  1  0.410133  0.726622  0.996926  1
  N  N16  1  0.996926  0.726622  0.410133  1
  N  N17  1  0.573221  0.282947  0.573221  1
  N  N18  1  0.726622  0.996926  0.410133  1
  N  N19  1  0.410133  0.996926  0.726622  1
  N  N20  1  0.726622  0.410133  0.996926  1
  N  N21  1  0.296063  0.296063  0.735223  1
  N  N22  1  0.996926  0.410133  0.726622  1
