# generated using pymatgen
data_Li4SmUSe6
_symmetry_space_group_name_H-M   'P 1'
_cell_length_a   7.08295969
_cell_length_b   7.08296020
_cell_length_c   6.86166500
_cell_angle_alpha   100.05122566
_cell_angle_beta   100.05123461
_cell_angle_gamma   120.00915773
_symmetry_Int_Tables_number   1
_chemical_formula_structural   Li4SmUSe6
_chemical_formula_sum   'Li4 Sm1 U1 Se6'
_cell_volume   279.33661356
_cell_formula_units_Z   1
loop_
 _symmetry_equiv_pos_site_id
 _symmetry_equiv_pos_as_xyz
  1  'x, y, z'
loop_
 _atom_site_type_symbol
 _atom_site_label
 _atom_site_symmetry_multiplicity
 _atom_site_fract_x
 _atom_site_fract_y
 _atom_site_fract_z
 _atom_site_occupancy
  Li  Li0  1  0.499011  0.500990  0.000000  1
  Li  Li1  1  0.009805  0.990194  0.499998  1
  Li  Li2  1  0.666545  0.333455  0.500001  1
  Li  Li3  1  0.322732  0.677268  0.500001  1
  Sm  Sm4  1  0.834727  0.165273  0.000000  1
  U  U5  1  0.166965  0.833035  0.000000  1
  Se  Se6  1  0.927758  0.596199  0.245201  1
  Se  Se7  1  0.569119  0.916129  0.251236  1
  Se  Se8  1  0.251671  0.236006  0.253168  1
  Se  Se9  1  0.763996  0.748332  0.746835  1
  Se  Se10  1  0.083873  0.430884  0.748767  1
  Se  Se11  1  0.403804  0.072245  0.754800  1
