# generated using pymatgen
data_ErZr(SiMo)2
_symmetry_space_group_name_H-M   'P 1'
_cell_length_a   3.59402200
_cell_length_b   7.12280400
_cell_length_c   8.36955100
_cell_angle_alpha   90.00000000
_cell_angle_beta   90.00000000
_cell_angle_gamma   90.00000000
_symmetry_Int_Tables_number   1
_chemical_formula_structural   ErZr(SiMo)2
_chemical_formula_sum   'Er2 Zr2 Si4 Mo4'
_cell_volume   214.25644032
_cell_formula_units_Z   2
loop_
 _symmetry_equiv_pos_site_id
 _symmetry_equiv_pos_as_xyz
  1  'x, y, z'
loop_
 _atom_site_type_symbol
 _atom_site_label
 _atom_site_symmetry_multiplicity
 _atom_site_fract_x
 _atom_site_fract_y
 _atom_site_fract_z
 _atom_site_occupancy
  Er  Er0  1  0.250000  0.042798  0.335469  1
  Er  Er1  1  0.250000  0.542798  0.164531  1
  Zr  Zr2  1  0.750000  0.956881  0.670263  1
  Zr  Zr3  1  0.750000  0.456881  0.829737  1
  Si  Si4  1  0.250000  0.258870  0.637968  1
  Si  Si5  1  0.250000  0.758870  0.862032  1
  Si  Si6  1  0.750000  0.737597  0.368319  1
  Si  Si7  1  0.750000  0.237597  0.131681  1
  Mo  Mo8  1  0.250000  0.128861  0.935846  1
  Mo  Mo9  1  0.250000  0.628861  0.564154  1
  Mo  Mo10  1  0.750000  0.874993  0.054654  1
  Mo  Mo11  1  0.750000  0.374993  0.445346  1
