# generated using pymatgen
data_Hf16Ta2Nb2Si15Ge
_symmetry_space_group_name_H-M   'P 1'
_cell_length_a   6.78054835
_cell_length_b   6.95243453
_cell_length_c   13.37035712
_cell_angle_alpha   90.01458029
_cell_angle_beta   89.82177139
_cell_angle_gamma   90.00193926
_symmetry_Int_Tables_number   1
_chemical_formula_structural   Hf16Ta2Nb2Si15Ge
_chemical_formula_sum   'Hf16 Ta2 Nb2 Si15 Ge1'
_cell_volume   630.29319288
_cell_formula_units_Z   1
loop_
 _symmetry_equiv_pos_site_id
 _symmetry_equiv_pos_as_xyz
  1  'x, y, z'
loop_
 _atom_site_type_symbol
 _atom_site_label
 _atom_site_symmetry_multiplicity
 _atom_site_fract_x
 _atom_site_fract_y
 _atom_site_fract_z
 _atom_site_occupancy
  Hf  Hf0  1  0.337801  0.675893  0.875910  1
  Hf  Hf1  1  0.837353  0.824686  0.875747  1
  Hf  Hf2  1  0.660105  0.328453  0.374484  1
  Hf  Hf3  1  0.998485  0.675720  0.094471  1
  Hf  Hf4  1  0.492064  0.820259  0.403118  1
  Hf  Hf5  1  0.501769  0.176099  0.904265  1
  Hf  Hf6  1  0.501239  0.179173  0.597500  1
  Hf  Hf7  1  0.001947  0.324310  0.904944  1
  Hf  Hf8  1  0.163163  0.175462  0.124010  1
  Hf  Hf9  1  0.162222  0.174306  0.375507  1
  Hf  Hf10  1  0.997914  0.673141  0.404648  1
  Hf  Hf11  1  0.662882  0.324900  0.124013  1
  Hf  Hf12  1  0.498407  0.824485  0.095109  1
  Hf  Hf13  1  0.004704  0.325762  0.596608  1
  Hf  Hf14  1  0.338032  0.674174  0.624792  1
  Hf  Hf15  1  0.840766  0.823311  0.625573  1
  Ta  Ta16  1  0.665397  0.501417  0.750268  1
  Ta  Ta17  1  0.165723  0.998846  0.750276  1
  Nb  Nb18  1  0.334828  0.498413  0.249686  1
  Nb  Nb19  1  0.834718  0.001927  0.248038  1
  Si  Si20  1  0.675143  0.530904  0.538906  1
  Si  Si21  1  0.172601  0.970484  0.960517  1
  Si  Si22  1  0.298463  0.360034  0.751039  1
  Si  Si23  1  0.827816  0.029968  0.038854  1
  Si  Si24  1  0.327585  0.470095  0.038742  1
  Si  Si25  1  0.460591  0.104438  0.249777  1
  Si  Si26  1  0.702527  0.641337  0.249141  1
  Si  Si27  1  0.960855  0.394809  0.249853  1
  Si  Si28  1  0.799306  0.140791  0.750333  1
  Si  Si29  1  0.672992  0.530035  0.960739  1
  Si  Si30  1  0.179178  0.969866  0.539702  1
  Si  Si31  1  0.039954  0.604983  0.750919  1
  Si  Si32  1  0.324576  0.468126  0.461865  1
  Si  Si33  1  0.539969  0.894471  0.749847  1
  Si  Si34  1  0.200335  0.859126  0.249514  1
  Ge  Ge35  1  0.818593  0.029800  0.461284  1
