# generated using pymatgen
data_LiTbTlCd
_symmetry_space_group_name_H-M   'P 1'
_cell_length_a   5.10817944
_cell_length_b   5.10817943
_cell_length_c   5.10817900
_cell_angle_alpha   59.99999630
_cell_angle_beta   59.99999637
_cell_angle_gamma   60.00000125
_symmetry_Int_Tables_number   1
_chemical_formula_structural   LiTbTlCd
_chemical_formula_sum   'Li1 Tb1 Tl1 Cd1'
_cell_volume   94.25043822
_cell_formula_units_Z   1
loop_
 _symmetry_equiv_pos_site_id
 _symmetry_equiv_pos_as_xyz
  1  'x, y, z'
loop_
 _atom_site_type_symbol
 _atom_site_label
 _atom_site_symmetry_multiplicity
 _atom_site_fract_x
 _atom_site_fract_y
 _atom_site_fract_z
 _atom_site_occupancy
  Li  Li0  1  0.250000  0.250000  0.250000  1
  Tb  Tb1  1  0.750000  0.750000  0.750000  1
  Tl  Tl2  1  0.000000  0.000000  0.000000  1
  Cd  Cd3  1  0.500000  0.500000  0.500000  1
