# generated using pymatgen
data_CeGd5OsO12
_symmetry_space_group_name_H-M   'P 1'
_cell_length_a   6.55061704
_cell_length_b   6.57952185
_cell_length_c   6.57402212
_cell_angle_alpha   98.77517702
_cell_angle_beta   98.68150945
_cell_angle_gamma   98.89168427
_symmetry_Int_Tables_number   1
_chemical_formula_structural   CeGd5OsO12
_chemical_formula_sum   'Ce1 Gd5 Os1 O12'
_cell_volume   272.20296333
_cell_formula_units_Z   1
loop_
 _symmetry_equiv_pos_site_id
 _symmetry_equiv_pos_as_xyz
  1  'x, y, z'
loop_
 _atom_site_type_symbol
 _atom_site_label
 _atom_site_symmetry_multiplicity
 _atom_site_fract_x
 _atom_site_fract_y
 _atom_site_fract_z
 _atom_site_occupancy
  Ce  Ce0  1  0.859537  0.394331  0.694927  1
  Gd  Gd1  1  0.606457  0.303870  0.141317  1
  Gd  Gd2  1  0.303380  0.135646  0.607929  1
  Gd  Gd3  1  0.694143  0.857794  0.389379  1
  Gd  Gd4  1  0.391875  0.701246  0.862016  1
  Gd  Gd5  1  0.142123  0.610830  0.303568  1
  Os  Os6  1  0.998942  0.001699  0.000301  1
  O  O7  1  0.930488  0.040753  0.701995  1
  O  O8  1  0.959547  0.298429  0.068448  1
  O  O9  1  0.595486  0.178968  0.439363  1
  O  O10  1  0.822896  0.562582  0.414948  1
  O  O11  1  0.298950  0.069345  0.959703  1
  O  O12  1  0.571165  0.410605  0.817948  1
  O  O13  1  0.436744  0.587879  0.174919  1
  O  O14  1  0.701212  0.930891  0.039276  1
  O  O15  1  0.170754  0.432987  0.595037  1
  O  O16  1  0.408031  0.820201  0.562431  1
  O  O17  1  0.037950  0.701417  0.929401  1
  O  O18  1  0.070318  0.960527  0.297096  1
