# generated using pymatgen
data_Ce3LuHfIr3
_symmetry_space_group_name_H-M   'P 1'
_cell_length_a   6.39358101
_cell_length_b   8.12451524
_cell_length_c   8.12446501
_cell_angle_alpha   120.00020560
_cell_angle_beta   90.00270900
_cell_angle_gamma   89.99459094
_symmetry_Int_Tables_number   1
_chemical_formula_structural   Ce3LuHfIr3
_chemical_formula_sum   'Ce6 Lu2 Hf2 Ir6'
_cell_volume   365.48211770
_cell_formula_units_Z   2
loop_
 _symmetry_equiv_pos_site_id
 _symmetry_equiv_pos_as_xyz
  1  'x, y, z'
loop_
 _atom_site_type_symbol
 _atom_site_label
 _atom_site_symmetry_multiplicity
 _atom_site_fract_x
 _atom_site_fract_y
 _atom_site_fract_z
 _atom_site_occupancy
  Ce  Ce0  1  0.750030  0.256820  0.000000  1
  Ce  Ce1  1  0.750135  0.743290  0.743143  1
  Ce  Ce2  1  0.750135  0.000147  0.256857  1
  Ce  Ce3  1  0.249796  0.743151  0.000000  1
  Ce  Ce4  1  0.249914  0.256761  0.256841  1
  Ce  Ce5  1  0.249914  0.999920  0.743159  1
  Lu  Lu6  1  0.000027  0.666559  0.333195  1
  Lu  Lu7  1  0.000027  0.333364  0.666805  1
  Hf  Hf8  1  0.500000  0.333371  0.666723  1
  Hf  Hf9  1  0.500000  0.666647  0.333277  1
  Ir  Ir10  1  0.714213  0.604014  0.000000  1
  Ir  Ir11  1  0.714223  0.395986  0.395940  1
  Ir  Ir12  1  0.714223  0.000046  0.604060  1
  Ir  Ir13  1  0.285772  0.395907  0.000000  1
  Ir  Ir14  1  0.285796  0.604023  0.604028  1
  Ir  Ir15  1  0.285796  0.999995  0.395972  1
