# generated using pymatgen
data_Y6TmRhO12
_symmetry_space_group_name_H-M   'P 1'
_cell_length_a   6.60347209
_cell_length_b   6.60347111
_cell_length_c   6.60347100
_cell_angle_alpha   93.97934420
_cell_angle_beta   93.97934361
_cell_angle_gamma   93.97933450
_symmetry_Int_Tables_number   1
_chemical_formula_structural   Y6TmRhO12
_chemical_formula_sum   'Y6 Tm1 Rh1 O12'
_cell_volume   285.76524640
_cell_formula_units_Z   1
loop_
 _symmetry_equiv_pos_site_id
 _symmetry_equiv_pos_as_xyz
  1  'x, y, z'
loop_
 _atom_site_type_symbol
 _atom_site_label
 _atom_site_symmetry_multiplicity
 _atom_site_fract_x
 _atom_site_fract_y
 _atom_site_fract_z
 _atom_site_occupancy
  Y  Y0  1  0.738114  0.918712  0.431654  1
  Y  Y1  1  0.918712  0.431654  0.738114  1
  Y  Y2  1  0.431654  0.738114  0.918712  1
  Y  Y3  1  0.261886  0.081288  0.568346  1
  Y  Y4  1  0.081288  0.568346  0.261886  1
  Y  Y5  1  0.568346  0.261886  0.081288  1
  Tm  Tm6  1  0.000000  0.000000  0.000000  1
  Rh  Rh7  1  0.500000  0.500000  0.500000  1
  O  O8  1  0.588529  0.459424  0.804192  1
  O  O9  1  0.459424  0.804192  0.588529  1
  O  O10  1  0.804192  0.588529  0.459424  1
  O  O11  1  0.411471  0.540576  0.195808  1
  O  O12  1  0.540576  0.195808  0.411471  1
  O  O13  1  0.195808  0.411471  0.540576  1
  O  O14  1  0.068142  0.911818  0.315937  1
  O  O15  1  0.911818  0.315937  0.068142  1
  O  O16  1  0.684063  0.931858  0.088182  1
  O  O17  1  0.088182  0.684063  0.931858  1
  O  O18  1  0.931858  0.088182  0.684063  1
  O  O19  1  0.315937  0.068142  0.911818  1
