# generated using pymatgen
data_Ta12Si7Tc4IrC4
_symmetry_space_group_name_H-M   'P 1'
_cell_length_a   8.20565144
_cell_length_b   8.20585220
_cell_length_c   8.20576965
_cell_angle_alpha   60.37331644
_cell_angle_beta   60.37457559
_cell_angle_gamma   60.37400935
_symmetry_Int_Tables_number   1
_chemical_formula_structural   Ta12Si7Tc4IrC4
_chemical_formula_sum   'Ta12 Si7 Tc4 Ir1 C4'
_cell_volume   394.00263750
_cell_formula_units_Z   1
loop_
 _symmetry_equiv_pos_site_id
 _symmetry_equiv_pos_as_xyz
  1  'x, y, z'
loop_
 _atom_site_type_symbol
 _atom_site_label
 _atom_site_symmetry_multiplicity
 _atom_site_fract_x
 _atom_site_fract_y
 _atom_site_fract_z
 _atom_site_occupancy
  Ta  Ta0  1  0.557463  0.944559  0.557436  1
  Ta  Ta1  1  0.305725  0.693451  0.693485  1
  Ta  Ta2  1  0.696266  0.307522  0.307545  1
  Ta  Ta3  1  0.307456  0.696326  0.307383  1
  Ta  Ta4  1  0.693453  0.693446  0.305735  1
  Ta  Ta5  1  0.307513  0.307414  0.696314  1
  Ta  Ta6  1  0.557494  0.557437  0.944547  1
  Ta  Ta7  1  0.944562  0.557438  0.557473  1
  Ta  Ta8  1  0.556306  0.941722  0.941691  1
  Ta  Ta9  1  0.941735  0.941808  0.556220  1
  Ta  Ta10  1  0.693412  0.305741  0.693433  1
  Ta  Ta11  1  0.941792  0.556174  0.941843  1
  Si  Si12  1  0.912713  0.912744  0.912708  1
  Si  Si13  1  0.996127  0.336079  0.336107  1
  Si  Si14  1  0.336055  0.996123  0.336056  1
  Si  Si15  1  0.336081  0.336056  0.996130  1
  Si  Si16  1  0.912691  0.257714  0.912687  1
  Si  Si17  1  0.912690  0.912684  0.257737  1
  Si  Si18  1  0.257753  0.912684  0.912682  1
  Tc  Tc19  1  0.124617  0.124697  0.124667  1
  Tc  Tc20  1  0.629319  0.118738  0.118760  1
  Tc  Tc21  1  0.118738  0.629332  0.118732  1
  Tc  Tc22  1  0.118763  0.118728  0.629320  1
  Ir  Ir23  1  0.339668  0.339721  0.339687  1
  C  C24  1  0.624994  0.625000  0.624994  1
  C  C25  1  0.125106  0.625768  0.625780  1
  C  C26  1  0.625741  0.125145  0.625719  1
  C  C27  1  0.625770  0.625749  0.125127  1
