# generated using pymatgen
data_Ac3LaP4IrRh3
_symmetry_space_group_name_H-M   'P 1'
_cell_length_a   6.42530507
_cell_length_b   6.41600784
_cell_length_c   6.43276454
_cell_angle_alpha   90.78872378
_cell_angle_beta   90.74393153
_cell_angle_gamma   89.40041551
_symmetry_Int_Tables_number   1
_chemical_formula_structural   Ac3LaP4IrRh3
_chemical_formula_sum   'Ac3 La1 P4 Ir1 Rh3'
_cell_volume   265.12797278
_cell_formula_units_Z   1
loop_
 _symmetry_equiv_pos_site_id
 _symmetry_equiv_pos_as_xyz
  1  'x, y, z'
loop_
 _atom_site_type_symbol
 _atom_site_label
 _atom_site_symmetry_multiplicity
 _atom_site_fract_x
 _atom_site_fract_y
 _atom_site_fract_z
 _atom_site_occupancy
  Ac  Ac0  1  0.896971  0.606257  0.397108  1
  Ac  Ac1  1  0.603873  0.397600  0.893649  1
  Ac  Ac2  1  0.107220  0.105038  0.103249  1
  La  La3  1  0.405418  0.903418  0.594703  1
  P  P4  1  0.669732  0.170866  0.330111  1
  P  P5  1  0.175310  0.320186  0.671796  1
  P  P6  1  0.327024  0.673391  0.179874  1
  P  P7  1  0.819927  0.827776  0.825828  1
  Ir  Ir8  1  0.410497  0.411369  0.415168  1
  Rh  Rh9  1  0.089226  0.589529  0.909836  1
  Rh  Rh10  1  0.584150  0.910172  0.089479  1
  Rh  Rh11  1  0.910653  0.084397  0.589198  1
