# generated using pymatgen
data_Tm4Lu6In8PtRh3
_symmetry_space_group_name_H-M   'P 1'
_cell_length_a   3.56310100
_cell_length_b   7.98684414
_cell_length_c   18.06468041
_cell_angle_alpha   89.97082318
_cell_angle_beta   90.00000000
_cell_angle_gamma   90.00000000
_symmetry_Int_Tables_number   1
_chemical_formula_structural   Tm4Lu6In8PtRh3
_chemical_formula_sum   'Tm4 Lu6 In8 Pt1 Rh3'
_cell_volume   514.08338659
_cell_formula_units_Z   1
loop_
 _symmetry_equiv_pos_site_id
 _symmetry_equiv_pos_as_xyz
  1  'x, y, z'
loop_
 _atom_site_type_symbol
 _atom_site_label
 _atom_site_symmetry_multiplicity
 _atom_site_fract_x
 _atom_site_fract_y
 _atom_site_fract_z
 _atom_site_occupancy
  Tm  Tm0  1  0.000000  0.255977  0.721285  1
  Tm  Tm1  1  0.000000  0.747906  0.279220  1
  Tm  Tm2  1  0.000000  0.999596  0.999951  1
  Tm  Tm3  1  0.000000  0.500318  0.500159  1
  Lu  Lu4  1  0.000000  0.115701  0.412779  1
  Lu  Lu5  1  0.000000  0.883204  0.587856  1
  Lu  Lu6  1  0.000000  0.383840  0.912239  1
  Lu  Lu7  1  0.000000  0.617199  0.086156  1
  Lu  Lu8  1  0.000000  0.240809  0.221377  1
  Lu  Lu9  1  0.000000  0.755824  0.778850  1
  In  In10  1  0.500000  0.422606  0.351989  1
  In  In11  1  0.500000  0.573988  0.649994  1
  In  In12  1  0.500000  0.074322  0.850365  1
  In  In13  1  0.500000  0.928885  0.148950  1
  In  In14  1  0.500000  0.292569  0.065279  1
  In  In15  1  0.500000  0.706279  0.932687  1
  In  In16  1  0.500000  0.205537  0.566625  1
  In  In17  1  0.500000  0.793860  0.433241  1
  Pt  Pt18  1  0.500000  0.523212  0.195982  1
  Rh  Rh19  1  0.500000  0.025579  0.304590  1
  Rh  Rh20  1  0.500000  0.975729  0.695506  1
  Rh  Rh21  1  0.500000  0.477058  0.804921  1
