# generated using pymatgen
data_Tb20Ir2Pt3Rh7
_symmetry_space_group_name_H-M   'P 1'
_cell_length_a   11.04165688
_cell_length_b   11.04648242
_cell_length_c   6.36530400
_cell_angle_alpha   89.99832749
_cell_angle_beta   89.99709417
_cell_angle_gamma   90.18677354
_symmetry_Int_Tables_number   1
_chemical_formula_structural   Tb20Ir2Pt3Rh7
_chemical_formula_sum   'Tb20 Ir2 Pt3 Rh7'
_cell_volume   776.38135090
_cell_formula_units_Z   1
loop_
 _symmetry_equiv_pos_site_id
 _symmetry_equiv_pos_as_xyz
  1  'x, y, z'
loop_
 _atom_site_type_symbol
 _atom_site_label
 _atom_site_symmetry_multiplicity
 _atom_site_fract_x
 _atom_site_fract_y
 _atom_site_fract_z
 _atom_site_occupancy
  Tb  Tb0  1  0.292888  0.087894  0.374174  1
  Tb  Tb1  1  0.292701  0.906682  0.878521  1
  Tb  Tb2  1  0.706512  0.090001  0.874833  1
  Tb  Tb3  1  0.705287  0.910263  0.375189  1
  Tb  Tb4  1  0.585965  0.790821  0.879525  1
  Tb  Tb5  1  0.587949  0.208850  0.380346  1
  Tb  Tb6  1  0.409554  0.790252  0.380961  1
  Tb  Tb7  1  0.411609  0.208783  0.879229  1
  Tb  Tb8  1  0.208153  0.414361  0.619084  1
  Tb  Tb9  1  0.209190  0.590829  0.120933  1
  Tb  Tb10  1  0.791750  0.411698  0.121510  1
  Tb  Tb11  1  0.792136  0.588051  0.619372  1
  Tb  Tb12  1  0.911572  0.706746  0.127385  1
  Tb  Tb13  1  0.910269  0.294225  0.623501  1
  Tb  Tb14  1  0.093010  0.706568  0.620070  1
  Tb  Tb15  1  0.090140  0.295081  0.126354  1
  Tb  Tb16  1  0.000939  0.997945  0.499952  1
  Tb  Tb17  1  0.002088  0.999088  0.000200  1
  Tb  Tb18  1  0.499574  0.500091  0.000664  1
  Tb  Tb19  1  0.499836  0.500334  0.499389  1
  Ir  Ir20  1  0.346347  0.653934  0.749765  1
  Ir  Ir21  1  0.999693  0.499857  0.376326  1
  Pt  Pt22  1  0.845254  0.153121  0.249861  1
  Pt  Pt23  1  0.844793  0.845528  0.749989  1
  Pt  Pt24  1  0.154735  0.154993  0.749453  1
  Rh  Rh25  1  0.153488  0.848522  0.249818  1
  Rh  Rh26  1  0.654105  0.345315  0.749601  1
  Rh  Rh27  1  0.654820  0.655616  0.249479  1
  Rh  Rh28  1  0.346258  0.343227  0.249750  1
  Rh  Rh29  1  0.500230  0.000422  0.123485  1
  Rh  Rh30  1  0.500309  0.001198  0.624037  1
  Rh  Rh31  1  0.998847  0.499706  0.877242  1
