# generated using pymatgen
data_MgRh4Pb3O14
_symmetry_space_group_name_H-M   'P 1'
_cell_length_a   7.25670536
_cell_length_b   7.18851316
_cell_length_c   7.25670500
_cell_angle_alpha   59.68569438
_cell_angle_beta   59.99999706
_cell_angle_gamma   59.68569803
_symmetry_Int_Tables_number   1
_chemical_formula_structural   MgRh4Pb3O14
_chemical_formula_sum   'Mg1 Rh4 Pb3 O14'
_cell_volume   266.39336319
_cell_formula_units_Z   1
loop_
 _symmetry_equiv_pos_site_id
 _symmetry_equiv_pos_as_xyz
  1  'x, y, z'
loop_
 _atom_site_type_symbol
 _atom_site_label
 _atom_site_symmetry_multiplicity
 _atom_site_fract_x
 _atom_site_fract_y
 _atom_site_fract_z
 _atom_site_occupancy
  Mg  Mg0  1  0.125000  0.625000  0.125000  1
  Rh  Rh1  1  0.625000  0.625000  0.625000  1
  Rh  Rh2  1  0.625000  0.625000  0.125000  1
  Rh  Rh3  1  0.125000  0.625000  0.625000  1
  Rh  Rh4  1  0.625000  0.125000  0.625000  1
  Pb  Pb5  1  0.125000  0.125000  0.125000  1
  Pb  Pb6  1  0.625000  0.125000  0.125000  1
  Pb  Pb7  1  0.125000  0.125000  0.625000  1
  O  O8  1  0.238433  0.284702  0.238433  1
  O  O9  1  0.295795  0.709025  0.295795  1
  O  O10  1  0.958119  0.961507  0.540187  1
  O  O11  1  0.540187  0.961507  0.540187  1
  O  O12  1  0.699383  0.709025  0.295795  1
  O  O13  1  0.954205  0.540975  0.550617  1
  O  O14  1  0.709813  0.288493  0.709813  1
  O  O15  1  0.291881  0.288493  0.709813  1
  O  O16  1  0.709813  0.288493  0.291881  1
  O  O17  1  0.295795  0.709025  0.699383  1
  O  O18  1  0.954205  0.540975  0.954205  1
  O  O19  1  0.550617  0.540975  0.954205  1
  O  O20  1  0.011567  0.965298  0.011567  1
  O  O21  1  0.540187  0.961507  0.958119  1
