# generated using pymatgen
data_Tm2AlNiRu
_symmetry_space_group_name_H-M   'P 1'
_cell_length_a   5.40141514
_cell_length_b   5.40141472
_cell_length_c   5.40141511
_cell_angle_alpha   135.44128063
_cell_angle_beta   117.87928070
_cell_angle_gamma   79.62196584
_symmetry_Int_Tables_number   1
_chemical_formula_structural   Tm2AlNiRu
_chemical_formula_sum   'Tm2 Al1 Ni1 Ru1'
_cell_volume   94.71408854
_cell_formula_units_Z   1
loop_
 _symmetry_equiv_pos_site_id
 _symmetry_equiv_pos_as_xyz
  1  'x, y, z'
loop_
 _atom_site_type_symbol
 _atom_site_label
 _atom_site_symmetry_multiplicity
 _atom_site_fract_x
 _atom_site_fract_y
 _atom_site_fract_z
 _atom_site_occupancy
  Tm  Tm0  1  0.697174  0.202229  0.494945  1
  Tm  Tm1  1  0.292716  0.797771  0.494945  1
  Al  Al2  1  0.997840  0.000000  0.997840  1
  Ni  Ni3  1  0.740193  0.500000  0.240193  1
  Ru  Ru4  1  0.272078  0.500000  0.772078  1
