# generated using pymatgen
data_Tb4Zn8Cd3In
_symmetry_space_group_name_H-M   'P 1'
_cell_length_a   4.47712700
_cell_length_b   7.23603540
_cell_length_c   10.09911804
_cell_angle_alpha   89.94952755
_cell_angle_beta   90.00000000
_cell_angle_gamma   90.00000000
_symmetry_Int_Tables_number   1
_chemical_formula_structural   Tb4Zn8Cd3In
_chemical_formula_sum   'Tb4 Zn8 Cd3 In1'
_cell_volume   327.17746017
_cell_formula_units_Z   1
loop_
 _symmetry_equiv_pos_site_id
 _symmetry_equiv_pos_as_xyz
  1  'x, y, z'
loop_
 _atom_site_type_symbol
 _atom_site_label
 _atom_site_symmetry_multiplicity
 _atom_site_fract_x
 _atom_site_fract_y
 _atom_site_fract_z
 _atom_site_occupancy
  Tb  Tb0  1  0.250000  0.307132  0.673554  1
  Tb  Tb1  1  0.250000  0.806843  0.827181  1
  Tb  Tb2  1  0.750000  0.692621  0.325177  1
  Tb  Tb3  1  0.750000  0.193754  0.171535  1
  Zn  Zn4  1  0.250000  0.910042  0.146558  1
  Zn  Zn5  1  0.250000  0.411439  0.354969  1
  Zn  Zn6  1  0.750000  0.090837  0.856068  1
  Zn  Zn7  1  0.750000  0.586870  0.645602  1
  Zn  Zn8  1  0.250000  0.187337  0.962956  1
  Zn  Zn9  1  0.250000  0.685366  0.536278  1
  Zn  Zn10  1  0.750000  0.812609  0.037187  1
  Zn  Zn11  1  0.750000  0.313147  0.462902  1
  Cd  Cd12  1  0.250000  0.530292  0.097690  1
  Cd  Cd13  1  0.250000  0.032018  0.401952  1
  Cd  Cd14  1  0.750000  0.469842  0.901963  1
  In  In15  1  0.750000  0.969851  0.598428  1
