# generated using pymatgen
data_Sr2TmCu6Ni7B2
_symmetry_space_group_name_H-M   'P 1'
_cell_length_a   5.11067717
_cell_length_b   5.12280105
_cell_length_c   10.96410500
_cell_angle_alpha   90.00000000
_cell_angle_beta   90.00000000
_cell_angle_gamma   120.07849633
_symmetry_Int_Tables_number   1
_chemical_formula_structural   Sr2TmCu6Ni7B2
_chemical_formula_sum   'Sr2 Tm1 Cu6 Ni7 B2'
_cell_volume   248.39662651
_cell_formula_units_Z   1
loop_
 _symmetry_equiv_pos_site_id
 _symmetry_equiv_pos_as_xyz
  1  'x, y, z'
loop_
 _atom_site_type_symbol
 _atom_site_label
 _atom_site_symmetry_multiplicity
 _atom_site_fract_x
 _atom_site_fract_y
 _atom_site_fract_z
 _atom_site_occupancy
  Sr  Sr0  1  0.000000  0.000000  0.677888  1
  Sr  Sr1  1  0.000000  0.000000  0.322112  1
  Tm  Tm2  1  0.000000  0.000000  0.000000  1
  Cu  Cu3  1  0.500000  0.500000  0.500000  1
  Cu  Cu4  1  0.500000  0.000000  0.500000  1
  Cu  Cu5  1  0.672379  0.336189  0.686177  1
  Cu  Cu6  1  0.327621  0.663811  0.686177  1
  Cu  Cu7  1  0.327621  0.663811  0.313823  1
  Cu  Cu8  1  0.672379  0.336189  0.313823  1
  Ni  Ni9  1  0.000000  0.500000  0.500000  1
  Ni  Ni10  1  0.500000  0.500000  0.874598  1
  Ni  Ni11  1  0.500000  0.000000  0.874598  1
  Ni  Ni12  1  0.000000  0.500000  0.874934  1
  Ni  Ni13  1  0.500000  0.500000  0.125402  1
  Ni  Ni14  1  0.500000  0.000000  0.125402  1
  Ni  Ni15  1  0.000000  0.500000  0.125066  1
  B  B16  1  0.665746  0.332873  0.000000  1
  B  B17  1  0.334254  0.667127  0.000000  1
