# generated using pymatgen
data_YbYHoZn11
_symmetry_space_group_name_H-M   'P 1'
_cell_length_a   8.17192499
_cell_length_b   8.17149895
_cell_length_c   8.17192483
_cell_angle_alpha   148.25657775
_cell_angle_beta   115.78611525
_cell_angle_gamma   73.41748076
_symmetry_Int_Tables_number   1
_chemical_formula_structural   YbYHoZn11
_chemical_formula_sum   'Yb1 Y1 Ho1 Zn11'
_cell_volume   254.36107642
_cell_formula_units_Z   1
loop_
 _symmetry_equiv_pos_site_id
 _symmetry_equiv_pos_as_xyz
  1  'x, y, z'
loop_
 _atom_site_type_symbol
 _atom_site_label
 _atom_site_symmetry_multiplicity
 _atom_site_fract_x
 _atom_site_fract_y
 _atom_site_fract_z
 _atom_site_occupancy
  Yb  Yb0  1  0.000037  0.000044  0.000007  1
  Y  Y1  1  0.702347  0.702339  0.999992  1
  Ho  Ho2  1  0.297963  0.297943  0.999981  1
  Zn  Zn3  1  0.499978  0.999981  0.500002  1
  Zn  Zn4  1  0.678428  0.499582  0.178850  1
  Zn  Zn5  1  0.320733  0.499582  0.821154  1
  Zn  Zn6  1  0.695065  0.338851  0.356245  1
  Zn  Zn7  1  0.304374  0.661457  0.642888  1
  Zn  Zn8  1  0.982606  0.338851  0.643786  1
  Zn  Zn9  1  0.018570  0.661457  0.357082  1
  Zn  Zn10  1  0.419662  0.136889  0.282750  1
  Zn  Zn11  1  0.579064  0.863066  0.716032  1
  Zn  Zn12  1  0.854138  0.136889  0.717227  1
  Zn  Zn13  1  0.147036  0.863066  0.284003  1
