# generated using pymatgen
data_Tm2Th3IrRu2
_symmetry_space_group_name_H-M   'P 1'
_cell_length_a   8.29740151
_cell_length_b   8.29740329
_cell_length_c   6.44361600
_cell_angle_alpha   90.00000000
_cell_angle_beta   90.00000000
_cell_angle_gamma   120.11944220
_symmetry_Int_Tables_number   1
_chemical_formula_structural   Tm2Th3IrRu2
_chemical_formula_sum   'Tm4 Th6 Ir2 Ru4'
_cell_volume   383.72546496
_cell_formula_units_Z   2
loop_
 _symmetry_equiv_pos_site_id
 _symmetry_equiv_pos_as_xyz
  1  'x, y, z'
loop_
 _atom_site_type_symbol
 _atom_site_label
 _atom_site_symmetry_multiplicity
 _atom_site_fract_x
 _atom_site_fract_y
 _atom_site_fract_z
 _atom_site_occupancy
  Tm  Tm0  1  0.334368  0.665632  0.000000  1
  Tm  Tm1  1  0.665632  0.334368  0.000000  1
  Tm  Tm2  1  0.665632  0.334368  0.500000  1
  Tm  Tm3  1  0.334368  0.665632  0.500000  1
  Th  Th4  1  0.251470  0.994183  0.250000  1
  Th  Th5  1  0.748530  0.005817  0.750000  1
  Th  Th6  1  0.994183  0.251470  0.250000  1
  Th  Th7  1  0.005817  0.748530  0.750000  1
  Th  Th8  1  0.748018  0.748018  0.250000  1
  Th  Th9  1  0.251982  0.251982  0.750000  1
  Ir  Ir10  1  0.384228  0.384228  0.250000  1
  Ir  Ir11  1  0.615772  0.615772  0.750000  1
  Ru  Ru12  1  0.620479  0.998058  0.250000  1
  Ru  Ru13  1  0.379521  0.001942  0.750000  1
  Ru  Ru14  1  0.998058  0.620479  0.250000  1
  Ru  Ru15  1  0.001942  0.379521  0.750000  1
