# generated using pymatgen
data_DyY3(HoGa5)2
_symmetry_space_group_name_H-M   'P 1'
_cell_length_a   6.08836900
_cell_length_b   9.63373900
_cell_length_c   11.61756300
_cell_angle_alpha   90.00000000
_cell_angle_beta   90.00000000
_cell_angle_gamma   90.00098450
_symmetry_Int_Tables_number   1
_chemical_formula_structural   DyY3(HoGa5)2
_chemical_formula_sum   'Dy2 Y6 Ho4 Ga20'
_cell_volume   681.41372733
_cell_formula_units_Z   2
loop_
 _symmetry_equiv_pos_site_id
 _symmetry_equiv_pos_as_xyz
  1  'x, y, z'
loop_
 _atom_site_type_symbol
 _atom_site_label
 _atom_site_symmetry_multiplicity
 _atom_site_fract_x
 _atom_site_fract_y
 _atom_site_fract_z
 _atom_site_occupancy
  Dy  Dy0  1  0.890639  0.992992  0.350971  1
  Dy  Dy1  1  0.609361  0.507008  0.850971  1
  Y  Y2  1  0.890365  0.506966  0.350902  1
  Y  Y3  1  0.609635  0.993034  0.850902  1
  Y  Y4  1  0.109540  0.007010  0.649068  1
  Y  Y5  1  0.390460  0.492990  0.149068  1
  Y  Y6  1  0.109525  0.492967  0.649051  1
  Y  Y7  1  0.390475  0.007033  0.149051  1
  Ho  Ho8  1  0.849685  0.749983  0.075597  1
  Ho  Ho9  1  0.650315  0.750017  0.575597  1
  Ho  Ho10  1  0.150402  0.249998  0.924361  1
  Ho  Ho11  1  0.349598  0.250002  0.424361  1
  Ga  Ga12  1  0.875809  0.053905  0.090069  1
  Ga  Ga13  1  0.624191  0.446095  0.590069  1
  Ga  Ga14  1  0.124349  0.553805  0.910044  1
  Ga  Ga15  1  0.375651  0.946195  0.410044  1
  Ga  Ga16  1  0.124239  0.946036  0.910151  1
  Ga  Ga17  1  0.375761  0.553964  0.410151  1
  Ga  Ga18  1  0.875718  0.446059  0.089689  1
  Ga  Ga19  1  0.624282  0.053941  0.589689  1
  Ga  Ga20  1  0.169803  0.750206  0.254615  1
  Ga  Ga21  1  0.330197  0.749794  0.754615  1
  Ga  Ga22  1  0.829723  0.250280  0.745646  1
  Ga  Ga23  1  0.670277  0.249720  0.245646  1
  Ga  Ga24  1  0.375612  0.749908  0.002584  1
  Ga  Ga25  1  0.124388  0.750092  0.502584  1
  Ga  Ga26  1  0.624749  0.250225  0.997072  1
  Ga  Ga27  1  0.875251  0.249775  0.497072  1
  Ga  Ga28  1  0.603542  0.750276  0.300024  1
  Ga  Ga29  1  0.896458  0.749724  0.800024  1
  Ga  Ga30  1  0.396953  0.250075  0.700157  1
  Ga  Ga31  1  0.103047  0.249925  0.200157  1
