# generated using pymatgen
data_Nb6ReSi6Mo4W
_symmetry_space_group_name_H-M   'P 1'
_cell_length_a   7.70278927
_cell_length_b   7.70516104
_cell_length_c   7.70274590
_cell_angle_alpha   126.58433769
_cell_angle_beta   128.15153940
_cell_angle_gamma   77.65071528
_symmetry_Int_Tables_number   1
_chemical_formula_structural   Nb6ReSi6Mo4W
_chemical_formula_sum   'Nb6 Re1 Si6 Mo4 W1'
_cell_volume   279.92503556
_cell_formula_units_Z   1
loop_
 _symmetry_equiv_pos_site_id
 _symmetry_equiv_pos_as_xyz
  1  'x, y, z'
loop_
 _atom_site_type_symbol
 _atom_site_label
 _atom_site_symmetry_multiplicity
 _atom_site_fract_x
 _atom_site_fract_y
 _atom_site_fract_z
 _atom_site_occupancy
  Nb  Nb0  1  0.548326  0.090731  0.041869  1
  Nb  Nb1  1  0.451098  0.495770  0.546402  1
  Nb  Nb2  1  0.949369  0.495765  0.044671  1
  Nb  Nb3  1  0.048878  0.090731  0.542422  1
  Nb  Nb4  1  0.751137  0.903646  0.652272  1
  Nb  Nb5  1  0.251364  0.903647  0.152501  1
  Re  Re6  1  0.371475  0.496760  0.125274  1
  Si  Si7  1  0.749823  0.498578  0.250405  1
  Si  Si8  1  0.248174  0.498589  0.748740  1
  Si  Si9  1  0.333452  0.826071  0.492625  1
  Si  Si10  1  0.667265  0.163604  0.496350  1
  Si  Si11  1  0.833413  0.829501  0.996092  1
  Si  Si12  1  0.168855  0.166316  0.997462  1
  Mo  Mo13  1  0.000491  0.239461  0.238954  1
  Mo  Mo14  1  0.129316  0.754750  0.625449  1
  Mo  Mo15  1  0.870130  0.496186  0.626053  1
  Mo  Mo16  1  0.628254  0.753740  0.125469  1
  W  W17  1  0.499178  0.238352  0.739189  1
