# generated using pymatgen
data_Eu6YTmSb6
_symmetry_space_group_name_H-M   'P 1'
_cell_length_a   8.24716449
_cell_length_b   8.24082451
_cell_length_c   8.31385400
_cell_angle_alpha   70.62661959
_cell_angle_beta   70.58117624
_cell_angle_gamma   108.96911845
_symmetry_Int_Tables_number   1
_chemical_formula_structural   Eu6YTmSb6
_chemical_formula_sum   'Eu6 Y1 Tm1 Sb6'
_cell_volume   438.42720363
_cell_formula_units_Z   1
loop_
 _symmetry_equiv_pos_site_id
 _symmetry_equiv_pos_as_xyz
  1  'x, y, z'
loop_
 _atom_site_type_symbol
 _atom_site_label
 _atom_site_symmetry_multiplicity
 _atom_site_fract_x
 _atom_site_fract_y
 _atom_site_fract_z
 _atom_site_occupancy
  Eu  Eu0  1  0.001019  0.362467  0.492880  1
  Eu  Eu1  1  0.494197  0.494378  0.147971  1
  Eu  Eu2  1  0.642119  0.146829  0.360230  1
  Eu  Eu3  1  0.362360  0.001044  0.994058  1
  Eu  Eu4  1  0.495550  0.495038  0.647462  1
  Eu  Eu5  1  0.146292  0.642585  0.859872  1
  Y  Y6  1  0.857920  0.002397  0.997238  1
  Tm  Tm7  1  0.002280  0.857948  0.497224  1
  Sb  Sb8  1  0.642901  0.875128  0.747345  1
  Sb  Sb9  1  0.875185  0.641744  0.249065  1
  Sb  Sb10  1  0.231266  0.113026  0.631745  1
  Sb  Sb11  1  0.758661  0.378048  0.870347  1
  Sb  Sb12  1  0.376599  0.758438  0.371024  1
  Sb  Sb13  1  0.113651  0.230927  0.133536  1
