# generated using pymatgen
data_BaAlZnGa2
_symmetry_space_group_name_H-M   'P 1'
_cell_length_a   6.45513783
_cell_length_b   6.45513784
_cell_length_c   6.45513706
_cell_angle_alpha   139.11621293
_cell_angle_beta   139.11621527
_cell_angle_gamma   59.19769005
_symmetry_Int_Tables_number   1
_chemical_formula_structural   BaAlZnGa2
_chemical_formula_sum   'Ba1 Al1 Zn1 Ga2'
_cell_volume   114.11413097
_cell_formula_units_Z   1
loop_
 _symmetry_equiv_pos_site_id
 _symmetry_equiv_pos_as_xyz
  1  'x, y, z'
loop_
 _atom_site_type_symbol
 _atom_site_label
 _atom_site_symmetry_multiplicity
 _atom_site_fract_x
 _atom_site_fract_y
 _atom_site_fract_z
 _atom_site_occupancy
  Ba  Ba0  1  0.000000  0.000000  0.000000  1
  Al  Al1  1  0.250000  0.750000  0.500000  1
  Zn  Zn2  1  0.750000  0.250000  0.500000  1
  Ga  Ga3  1  0.379169  0.379169  0.000000  1
  Ga  Ga4  1  0.620831  0.620831  0.000000  1
