# generated using pymatgen
data_Hf18Ta7TcAs2
_symmetry_space_group_name_H-M   'P 1'
_cell_length_a   8.75967920
_cell_length_b   8.75967904
_cell_length_c   8.88680401
_cell_angle_alpha   89.99026599
_cell_angle_beta   90.00973172
_cell_angle_gamma   120.03126394
_symmetry_Int_Tables_number   1
_chemical_formula_structural   Hf18Ta7TcAs2
_chemical_formula_sum   'Hf18 Ta7 Tc1 As2'
_cell_volume   590.35835854
_cell_formula_units_Z   1
loop_
 _symmetry_equiv_pos_site_id
 _symmetry_equiv_pos_as_xyz
  1  'x, y, z'
loop_
 _atom_site_type_symbol
 _atom_site_label
 _atom_site_symmetry_multiplicity
 _atom_site_fract_x
 _atom_site_fract_y
 _atom_site_fract_z
 _atom_site_occupancy
  Hf  Hf0  1  0.802678  0.605434  0.546832  1
  Hf  Hf1  1  0.802361  0.197639  0.546424  1
  Hf  Hf2  1  0.394566  0.197322  0.546832  1
  Hf  Hf3  1  0.197322  0.394566  0.453168  1
  Hf  Hf4  1  0.197639  0.802361  0.453576  1
  Hf  Hf5  1  0.605434  0.802678  0.453168  1
  Hf  Hf6  1  0.195828  0.391662  0.048003  1
  Hf  Hf7  1  0.196109  0.803891  0.047851  1
  Hf  Hf8  1  0.608338  0.804172  0.048003  1
  Hf  Hf9  1  0.804172  0.608338  0.951997  1
  Hf  Hf10  1  0.803891  0.196109  0.952149  1
  Hf  Hf11  1  0.391662  0.195828  0.951997  1
  Hf  Hf12  1  0.461026  0.922045  0.751188  1
  Hf  Hf13  1  0.460990  0.539010  0.751295  1
  Hf  Hf14  1  0.077955  0.538974  0.751188  1
  Hf  Hf15  1  0.538974  0.077955  0.248812  1
  Hf  Hf16  1  0.539010  0.460990  0.248705  1
  Hf  Hf17  1  0.922045  0.461026  0.248812  1
  Ta  Ta18  1  0.111409  0.223105  0.753008  1
  Ta  Ta19  1  0.111548  0.888452  0.752998  1
  Ta  Ta20  1  0.776895  0.888591  0.753008  1
  Ta  Ta21  1  0.888591  0.776895  0.246992  1
  Ta  Ta22  1  0.888452  0.111548  0.247002  1
  Ta  Ta23  1  0.223105  0.111409  0.246992  1
  Ta  Ta24  1  0.000000  0.000000  0.500000  1
  Tc  Tc25  1  0.000000  0.000000  0.000000  1
  As  As26  1  0.666587  0.333413  0.751778  1
  As  As27  1  0.333413  0.666587  0.248222  1
