# generated using pymatgen
data_Pr8Tm10Sc2Si15Os
_symmetry_space_group_name_H-M   'P 1'
_cell_length_a   7.40839857
_cell_length_b   7.74194043
_cell_length_c   14.70349700
_cell_angle_alpha   90.00000000
_cell_angle_beta   90.00000000
_cell_angle_gamma   90.30721638
_symmetry_Int_Tables_number   1
_chemical_formula_structural   Pr8Tm10Sc2Si15Os
_chemical_formula_sum   'Pr8 Tm10 Sc2 Si15 Os1'
_cell_volume   843.31254081
_cell_formula_units_Z   1
loop_
 _symmetry_equiv_pos_site_id
 _symmetry_equiv_pos_as_xyz
  1  'x, y, z'
loop_
 _atom_site_type_symbol
 _atom_site_label
 _atom_site_symmetry_multiplicity
 _atom_site_fract_x
 _atom_site_fract_y
 _atom_site_fract_z
 _atom_site_occupancy
  Pr  Pr0  1  0.019168  0.176678  0.402292  1
  Pr  Pr1  1  0.518502  0.325572  0.403739  1
  Pr  Pr2  1  0.474139  0.683221  0.898152  1
  Pr  Pr3  1  0.474139  0.683221  0.601848  1
  Pr  Pr4  1  0.983857  0.822071  0.600653  1
  Pr  Pr5  1  0.983857  0.822071  0.899347  1
  Pr  Pr6  1  0.518502  0.325572  0.096261  1
  Pr  Pr7  1  0.019168  0.176678  0.097708  1
  Tm  Tm8  1  0.321502  0.171205  0.627777  1
  Tm  Tm9  1  0.678911  0.821892  0.377909  1
  Tm  Tm10  1  0.177688  0.677283  0.376956  1
  Tm  Tm11  1  0.824393  0.322486  0.875105  1
  Tm  Tm12  1  0.824393  0.322486  0.624895  1
  Tm  Tm13  1  0.844870  0.494025  0.250000  1
  Tm  Tm14  1  0.345741  0.010565  0.250000  1
  Tm  Tm15  1  0.321502  0.171205  0.872223  1
  Tm  Tm16  1  0.177688  0.677283  0.123044  1
  Tm  Tm17  1  0.678911  0.821892  0.122091  1
  Sc  Sc18  1  0.638116  0.984415  0.750000  1
  Sc  Sc19  1  0.160231  0.514735  0.750000  1
  Si  Si20  1  0.471229  0.619427  0.250000  1
  Si  Si21  1  0.022240  0.108223  0.750000  1
  Si  Si22  1  0.530435  0.388174  0.750000  1
  Si  Si23  1  0.148374  0.465142  0.540375  1
  Si  Si24  1  0.972166  0.883134  0.250000  1
  Si  Si25  1  0.723984  0.121915  0.250000  1
  Si  Si26  1  0.854451  0.530040  0.039443  1
  Si  Si27  1  0.354931  0.968929  0.039636  1
  Si  Si28  1  0.148374  0.465142  0.959625  1
  Si  Si29  1  0.650132  0.036828  0.539430  1
  Si  Si30  1  0.354931  0.968929  0.460364  1
  Si  Si31  1  0.854451  0.530040  0.460557  1
  Si  Si32  1  0.777388  0.614703  0.750000  1
  Si  Si33  1  0.225635  0.379880  0.250000  1
  Si  Si34  1  0.650132  0.036828  0.960570  1
  Os  Os35  1  0.275870  0.878117  0.750000  1
