# generated using pymatgen
data_PrNd4PdRuO12
_symmetry_space_group_name_H-M   'P 1'
_cell_length_a   7.12023860
_cell_length_b   7.12023692
_cell_length_c   7.58309103
_cell_angle_alpha   74.53514283
_cell_angle_beta   74.53514511
_cell_angle_gamma   50.62175992
_symmetry_Int_Tables_number   1
_chemical_formula_structural   PrNd4PdRuO12
_chemical_formula_sum   'Pr1 Nd4 Pd1 Ru1 O12'
_cell_volume   283.94554551
_cell_formula_units_Z   1
loop_
 _symmetry_equiv_pos_site_id
 _symmetry_equiv_pos_as_xyz
  1  'x, y, z'
loop_
 _atom_site_type_symbol
 _atom_site_label
 _atom_site_symmetry_multiplicity
 _atom_site_fract_x
 _atom_site_fract_y
 _atom_site_fract_z
 _atom_site_occupancy
  Pr  Pr0  1  0.001466  0.998534  0.500000  1
  Nd  Nd1  1  0.309959  0.296842  0.358014  1
  Nd  Nd2  1  0.703158  0.690041  0.641986  1
  Nd  Nd3  1  0.697632  0.691252  0.164605  1
  Nd  Nd4  1  0.308748  0.302368  0.835395  1
  Pd  Pd5  1  0.748094  0.251906  0.000000  1
  Ru  Ru6  1  0.239273  0.760727  0.000000  1
  O  O7  1  0.100109  0.595373  0.574589  1
  O  O8  1  0.001785  0.997404  0.174286  1
  O  O9  1  0.404627  0.899891  0.425411  1
  O  O10  1  0.492380  0.508342  0.176057  1
  O  O11  1  0.102261  0.582356  0.079622  1
  O  O12  1  0.907928  0.402723  0.422200  1
  O  O13  1  0.002596  0.998215  0.825714  1
  O  O14  1  0.597277  0.092071  0.577800  1
  O  O15  1  0.491658  0.507620  0.823943  1
  O  O16  1  0.570644  0.097241  0.081971  1
  O  O17  1  0.417644  0.897739  0.920378  1
  O  O18  1  0.902759  0.429356  0.918029  1
