# generated using pymatgen
data_La12AlCo4Hg
_symmetry_space_group_name_H-M   'P 1'
_cell_length_a   8.73187634
_cell_length_b   8.73202542
_cell_length_c   8.73187748
_cell_angle_alpha   114.73478865
_cell_angle_beta   108.29224707
_cell_angle_gamma   105.52778515
_symmetry_Int_Tables_number   1
_chemical_formula_structural   La12AlCo4Hg
_chemical_formula_sum   'La12 Al1 Co4 Hg1'
_cell_volume   508.97727952
_cell_formula_units_Z   1
loop_
 _symmetry_equiv_pos_site_id
 _symmetry_equiv_pos_as_xyz
  1  'x, y, z'
loop_
 _atom_site_type_symbol
 _atom_site_label
 _atom_site_symmetry_multiplicity
 _atom_site_fract_x
 _atom_site_fract_y
 _atom_site_fract_z
 _atom_site_occupancy
  La  La0  1  0.574614  0.271427  0.303188  1
  La  La1  1  0.170697  0.204786  0.375509  1
  La  La2  1  0.170723  0.795214  0.965912  1
  La  La3  1  0.669490  0.484883  0.815393  1
  La  La4  1  0.669471  0.854059  0.184588  1
  La  La5  1  0.968239  0.271427  0.696814  1
  La  La6  1  0.031761  0.728573  0.303186  1
  La  La7  1  0.330510  0.515117  0.184607  1
  La  La8  1  0.330529  0.145941  0.815412  1
  La  La9  1  0.829277  0.204786  0.034088  1
  La  La10  1  0.829303  0.795214  0.624491  1
  La  La11  1  0.425386  0.728573  0.696812  1
  Al  Al12  1  0.000000  0.500000  0.500000  1
  Co  Co13  1  0.854793  0.854790  0.999997  1
  Co  Co14  1  0.264450  0.500000  0.764450  1
  Co  Co15  1  0.735550  0.500000  0.235550  1
  Co  Co16  1  0.145207  0.145210  0.000003  1
  Hg  Hg17  1  0.500000  0.000000  0.500000  1
