# generated using pymatgen
data_Zr6Mn2Co16Si7P5
_symmetry_space_group_name_H-M   'P 1'
_cell_length_a   12.06018245
_cell_length_b   12.10224344
_cell_length_c   3.64578700
_cell_angle_alpha   90.00000000
_cell_angle_beta   90.00000000
_cell_angle_gamma   120.15154111
_symmetry_Int_Tables_number   1
_chemical_formula_structural   Zr6Mn2Co16Si7P5
_chemical_formula_sum   'Zr6 Mn2 Co16 Si7 P5'
_cell_volume   460.12568687
_cell_formula_units_Z   1
loop_
 _symmetry_equiv_pos_site_id
 _symmetry_equiv_pos_as_xyz
  1  'x, y, z'
loop_
 _atom_site_type_symbol
 _atom_site_label
 _atom_site_symmetry_multiplicity
 _atom_site_fract_x
 _atom_site_fract_y
 _atom_site_fract_z
 _atom_site_occupancy
  Zr  Zr0  1  0.002339  0.558624  0.000000  1
  Zr  Zr1  1  0.665937  0.330453  0.000000  1
  Zr  Zr2  1  0.332058  0.665504  0.000000  1
  Zr  Zr3  1  0.819189  0.817368  0.500000  1
  Zr  Zr4  1  0.181174  0.000744  0.500000  1
  Zr  Zr5  1  0.999033  0.175791  0.500000  1
  Mn  Mn6  1  0.442349  0.443217  0.000000  1
  Mn  Mn7  1  0.558142  0.000481  0.000000  1
  Co  Co8  1  0.202316  0.373499  0.000000  1
  Co  Co9  1  0.181272  0.809176  0.000000  1
  Co  Co10  1  0.820712  0.630695  0.000000  1
  Co  Co11  1  0.801309  0.168122  0.000000  1
  Co  Co12  1  0.372366  0.199400  0.000000  1
  Co  Co13  1  0.131672  0.482567  0.500000  1
  Co  Co14  1  0.357817  0.879702  0.500000  1
  Co  Co15  1  0.512151  0.639954  0.500000  1
  Co  Co16  1  0.638214  0.522584  0.500000  1
  Co  Co17  1  0.876311  0.351601  0.500000  1
  Co  Co18  1  0.480657  0.124625  0.500000  1
  Co  Co19  1  0.000676  0.001324  0.000000  1
  Co  Co20  1  0.720353  0.996200  0.500000  1
  Co  Co21  1  0.003228  0.726516  0.500000  1
  Co  Co22  1  0.624750  0.823377  0.000000  1
  Co  Co23  1  0.279413  0.281481  0.500000  1
  Si  Si24  1  0.638233  0.643736  0.000000  1
  Si  Si25  1  0.361534  0.005683  0.000000  1
  Si  Si26  1  0.999797  0.345324  0.000000  1
  Si  Si27  1  0.482248  0.315805  0.500000  1
  Si  Si28  1  0.685456  0.163802  0.500000  1
  Si  Si29  1  0.821756  0.516038  0.500000  1
  Si  Si30  1  0.517293  0.833723  0.500000  1
  P  P31  1  0.177281  0.695127  0.500000  1
  P  P32  1  0.820595  0.995739  0.000000  1
  P  P33  1  0.000280  0.824587  0.000000  1
  P  P34  1  0.313835  0.479910  0.500000  1
  P  P35  1  0.178257  0.177521  0.000000  1
