# generated using pymatgen
data_Y2SbRhO7
_symmetry_space_group_name_H-M   'P 1'
_cell_length_a   7.31971431
_cell_length_b   7.29573645
_cell_length_c   7.39677800
_cell_angle_alpha   90.00014671
_cell_angle_beta   59.65308757
_cell_angle_gamma   119.89208322
_symmetry_Int_Tables_number   1
_chemical_formula_structural   Y2SbRhO7
_chemical_formula_sum   'Y4 Sb2 Rh2 O14'
_cell_volume   278.29674736
_cell_formula_units_Z   2
loop_
 _symmetry_equiv_pos_site_id
 _symmetry_equiv_pos_as_xyz
  1  'x, y, z'
loop_
 _atom_site_type_symbol
 _atom_site_label
 _atom_site_symmetry_multiplicity
 _atom_site_fract_x
 _atom_site_fract_y
 _atom_site_fract_z
 _atom_site_occupancy
  Y  Y0  1  0.500001  0.500007  0.000000  1
  Y  Y1  1  0.499987  0.000000  0.000006  1
  Y  Y2  1  0.999997  0.000001  0.500002  1
  Y  Y3  1  0.999997  0.000000  0.999999  1
  Sb  Sb4  1  0.999998  0.500023  0.000001  1
  Sb  Sb5  1  0.999997  0.500019  0.499997  1
  Rh  Rh6  1  0.500130  0.999993  0.499934  1
  Rh  Rh7  1  0.499927  0.499916  0.500030  1
  O  O8  1  0.257123  0.128573  0.121443  1
  O  O9  1  0.742865  0.871438  0.878562  1
  O  O10  1  0.698091  0.849043  0.400959  1
  O  O11  1  0.841847  0.420925  0.829092  1
  O  O12  1  0.251622  0.832910  0.840878  1
  O  O13  1  0.251633  0.418746  0.407491  1
  O  O14  1  0.251618  0.418721  0.840887  1
  O  O15  1  0.251641  0.832903  0.407495  1
  O  O16  1  0.301913  0.150954  0.599041  1
  O  O17  1  0.158143  0.579071  0.170918  1
  O  O18  1  0.748378  0.167102  0.159116  1
  O  O19  1  0.748357  0.581258  0.592512  1
  O  O20  1  0.748369  0.581281  0.159125  1
  O  O21  1  0.748366  0.167115  0.592512  1
