# generated using pymatgen
data_Pr3Bi(As4O9)2
_symmetry_space_group_name_H-M   'P 1'
_cell_length_a   7.04235329
_cell_length_b   7.77640075
_cell_length_c   9.95080353
_cell_angle_alpha   95.83112717
_cell_angle_beta   104.08843404
_cell_angle_gamma   104.32105218
_symmetry_Int_Tables_number   1
_chemical_formula_structural   Pr3Bi(As4O9)2
_chemical_formula_sum   'Pr3 Bi1 As8 O18'
_cell_volume   504.48303979
_cell_formula_units_Z   1
loop_
 _symmetry_equiv_pos_site_id
 _symmetry_equiv_pos_as_xyz
  1  'x, y, z'
loop_
 _atom_site_type_symbol
 _atom_site_label
 _atom_site_symmetry_multiplicity
 _atom_site_fract_x
 _atom_site_fract_y
 _atom_site_fract_z
 _atom_site_occupancy
  Pr  Pr0  1  0.779600  0.458852  0.092518  1
  Pr  Pr1  1  0.252516  0.057498  0.880262  1
  Pr  Pr2  1  0.218224  0.531707  0.904020  1
  Bi  Bi3  1  0.742079  0.922317  0.123194  1
  As  As4  1  0.825592  0.228020  0.437744  1
  As  As5  1  0.319991  0.242537  0.583859  1
  As  As6  1  0.683099  0.761065  0.417658  1
  As  As7  1  0.177006  0.775773  0.565391  1
  As  As8  1  0.696864  0.654376  0.797936  1
  As  As9  1  0.307170  0.348873  0.201790  1
  As  As10  1  0.244906  0.919048  0.207937  1
  As  As11  1  0.753145  0.081144  0.790152  1
  O  O12  1  0.866888  0.895137  0.853322  1
  O  O13  1  0.128248  0.458392  0.125674  1
  O  O14  1  0.638867  0.668826  0.238236  1
  O  O15  1  0.657263  0.131788  0.937355  1
  O  O16  1  0.105046  0.317281  0.491119  1
  O  O17  1  0.873081  0.543607  0.874983  1
  O  O18  1  0.002735  0.224411  0.831198  1
  O  O19  1  0.140368  0.103960  0.141656  1
  O  O20  1  0.594270  0.668894  0.950817  1
  O  O21  1  0.816749  0.984327  0.385254  1
  O  O22  1  0.362794  0.339581  0.759508  1
  O  O23  1  0.992478  0.776851  0.169647  1
  O  O24  1  0.221979  0.748383  0.742854  1
  O  O25  1  0.409090  0.335048  0.050830  1
  O  O26  1  0.186037  0.017109  0.617757  1
  O  O27  1  0.330123  0.861424  0.056411  1
  O  O28  1  0.776397  0.259901  0.262935  1
  O  O29  1  0.897396  0.683873  0.507983  1
