# generated using pymatgen
data_CsLa(CO3)2
_symmetry_space_group_name_H-M   'P 1'
_cell_length_a   6.78822457
_cell_length_b   6.78822393
_cell_length_c   7.63108098
_cell_angle_alpha   75.22952448
_cell_angle_beta   75.22952620
_cell_angle_gamma   94.06294345
_symmetry_Int_Tables_number   1
_chemical_formula_structural   CsLa(CO3)2
_chemical_formula_sum   'Cs2 La2 C4 O12'
_cell_volume   325.29523206
_cell_formula_units_Z   2
loop_
 _symmetry_equiv_pos_site_id
 _symmetry_equiv_pos_as_xyz
  1  'x, y, z'
loop_
 _atom_site_type_symbol
 _atom_site_label
 _atom_site_symmetry_multiplicity
 _atom_site_fract_x
 _atom_site_fract_y
 _atom_site_fract_z
 _atom_site_occupancy
  Cs  Cs0  1  0.616299  0.383701  0.750000  1
  Cs  Cs1  1  0.383701  0.616299  0.250000  1
  La  La2  1  0.102272  0.897728  0.750000  1
  La  La3  1  0.897728  0.102272  0.250000  1
  C  C4  1  0.653117  0.892729  0.748516  1
  C  C5  1  0.346883  0.107271  0.251484  1
  C  C6  1  0.107271  0.346883  0.751484  1
  C  C7  1  0.892729  0.653117  0.248516  1
  O  O8  1  0.459428  0.891786  0.767028  1
  O  O9  1  0.540572  0.108214  0.232972  1
  O  O10  1  0.108214  0.540572  0.732972  1
  O  O11  1  0.891786  0.459428  0.267028  1
  O  O12  1  0.721484  0.770303  0.872717  1
  O  O13  1  0.278516  0.229697  0.127283  1
  O  O14  1  0.229697  0.278516  0.627283  1
  O  O15  1  0.770303  0.721484  0.372717  1
  O  O16  1  0.792551  0.021766  0.603684  1
  O  O17  1  0.207449  0.978234  0.396316  1
  O  O18  1  0.978234  0.207449  0.896316  1
  O  O19  1  0.021766  0.792551  0.103684  1
