# generated using pymatgen
data_Pr2Cr(Co3As2)3
_symmetry_space_group_name_H-M   'P 1'
_cell_length_a   3.85468300
_cell_length_b   10.83994000
_cell_length_c   12.36238900
_cell_angle_alpha   90.00000000
_cell_angle_beta   90.00000000
_cell_angle_gamma   90.00000000
_symmetry_Int_Tables_number   1
_chemical_formula_structural   Pr2Cr(Co3As2)3
_chemical_formula_sum   'Pr4 Cr2 Co18 As12'
_cell_volume   516.55664419
_cell_formula_units_Z   2
loop_
 _symmetry_equiv_pos_site_id
 _symmetry_equiv_pos_as_xyz
  1  'x, y, z'
loop_
 _atom_site_type_symbol
 _atom_site_label
 _atom_site_symmetry_multiplicity
 _atom_site_fract_x
 _atom_site_fract_y
 _atom_site_fract_z
 _atom_site_occupancy
  Pr  Pr0  1  0.250000  0.579821  0.701222  1
  Pr  Pr1  1  0.250000  0.920179  0.201222  1
  Pr  Pr2  1  0.750000  0.418104  0.296715  1
  Pr  Pr3  1  0.750000  0.081896  0.796715  1
  Cr  Cr4  1  0.250000  0.701508  0.991115  1
  Cr  Cr5  1  0.250000  0.798492  0.491115  1
  Co  Co6  1  0.750000  0.296243  0.009590  1
  Co  Co7  1  0.750000  0.203757  0.509590  1
  Co  Co8  1  0.250000  0.404765  0.490114  1
  Co  Co9  1  0.250000  0.095235  0.990114  1
  Co  Co10  1  0.750000  0.595594  0.510358  1
  Co  Co11  1  0.750000  0.904406  0.010358  1
  Co  Co12  1  0.250000  0.217493  0.175788  1
  Co  Co13  1  0.250000  0.282507  0.675788  1
  Co  Co14  1  0.750000  0.782539  0.825457  1
  Co  Co15  1  0.750000  0.717461  0.325457  1
  Co  Co16  1  0.250000  0.883962  0.696701  1
  Co  Co17  1  0.250000  0.616038  0.196701  1
  Co  Co18  1  0.750000  0.117826  0.303955  1
  Co  Co19  1  0.750000  0.382174  0.803955  1
  Co  Co20  1  0.250000  0.467262  0.933283  1
  Co  Co21  1  0.250000  0.032738  0.433283  1
  Co  Co22  1  0.750000  0.531415  0.065984  1
  Co  Co23  1  0.750000  0.968585  0.565984  1
  As  As24  1  0.250000  0.416455  0.111812  1
  As  As25  1  0.250000  0.083545  0.611812  1
  As  As26  1  0.750000  0.581497  0.886037  1
  As  As27  1  0.750000  0.918503  0.386037  1
  As  As28  1  0.250000  0.271844  0.868604  1
  As  As29  1  0.250000  0.228156  0.368604  1
  As  As30  1  0.750000  0.726826  0.134145  1
  As  As31  1  0.750000  0.773174  0.634145  1
  As  As32  1  0.250000  0.599632  0.392670  1
  As  As33  1  0.250000  0.900368  0.892670  1
  As  As34  1  0.750000  0.393165  0.606448  1
  As  As35  1  0.750000  0.106835  0.106448  1
