# generated using pymatgen
data_La4Sn4GeRh9
_symmetry_space_group_name_H-M   'P 1'
_cell_length_a   12.59371685
_cell_length_b   12.59371611
_cell_length_c   12.59371700
_cell_angle_alpha   26.69725230
_cell_angle_beta   26.69724881
_cell_angle_gamma   26.69725239
_symmetry_Int_Tables_number   1
_chemical_formula_structural   La4Sn4GeRh9
_chemical_formula_sum   'La4 Sn4 Ge1 Rh9'
_cell_volume   355.46717725
_cell_formula_units_Z   1
loop_
 _symmetry_equiv_pos_site_id
 _symmetry_equiv_pos_as_xyz
  1  'x, y, z'
loop_
 _atom_site_type_symbol
 _atom_site_label
 _atom_site_symmetry_multiplicity
 _atom_site_fract_x
 _atom_site_fract_y
 _atom_site_fract_z
 _atom_site_occupancy
  La  La0  1  0.951958  0.951958  0.951958  1
  La  La1  1  0.855433  0.855433  0.855433  1
  La  La2  1  0.144567  0.144567  0.144567  1
  La  La3  1  0.048042  0.048042  0.048042  1
  Sn  Sn4  1  0.275866  0.275866  0.275866  1
  Sn  Sn5  1  0.391061  0.391061  0.391061  1
  Sn  Sn6  1  0.724134  0.724134  0.724134  1
  Sn  Sn7  1  0.608939  0.608939  0.608939  1
  Ge  Ge8  1  0.500000  0.500000  0.500000  1
  Rh  Rh9  1  0.616826  0.616826  0.110538  1
  Rh  Rh10  1  0.889462  0.383174  0.383174  1
  Rh  Rh11  1  0.500000  0.000000  0.500000  1
  Rh  Rh12  1  0.383174  0.889462  0.383174  1
  Rh  Rh13  1  0.500000  0.500000  0.000000  1
  Rh  Rh14  1  0.110538  0.616826  0.616826  1
  Rh  Rh15  1  0.000000  0.500000  0.500000  1
  Rh  Rh16  1  0.383174  0.383174  0.889462  1
  Rh  Rh17  1  0.616826  0.110538  0.616826  1
