# generated using pymatgen
data_NdTh4Sn3Se
_symmetry_space_group_name_H-M   'P 1'
_cell_length_a   9.49169900
_cell_length_b   9.50998464
_cell_length_c   6.70913800
_cell_angle_alpha   90.00000000
_cell_angle_beta   90.00000000
_cell_angle_gamma   119.93640477
_symmetry_Int_Tables_number   1
_chemical_formula_structural   NdTh4Sn3Se
_chemical_formula_sum   'Nd2 Th8 Sn6 Se2'
_cell_volume   524.80634977
_cell_formula_units_Z   2
loop_
 _symmetry_equiv_pos_site_id
 _symmetry_equiv_pos_as_xyz
  1  'x, y, z'
loop_
 _atom_site_type_symbol
 _atom_site_label
 _atom_site_symmetry_multiplicity
 _atom_site_fract_x
 _atom_site_fract_y
 _atom_site_fract_z
 _atom_site_occupancy
  Nd  Nd0  1  0.000096  0.737385  0.750000  1
  Nd  Nd1  1  0.262710  0.262615  0.750000  1
  Th  Th2  1  0.334742  0.667690  0.497788  1
  Th  Th3  1  0.667053  0.332310  0.497788  1
  Th  Th4  1  0.737758  0.737826  0.250000  1
  Th  Th5  1  0.736938  0.000000  0.750000  1
  Th  Th6  1  0.999932  0.262174  0.250000  1
  Th  Th7  1  0.261340  0.000000  0.250000  1
  Th  Th8  1  0.334742  0.667690  0.002212  1
  Th  Th9  1  0.667053  0.332310  0.002212  1
  Sn  Sn10  1  0.611925  0.611246  0.750000  1
  Sn  Sn11  1  0.000678  0.388754  0.750000  1
  Sn  Sn12  1  0.387391  0.000000  0.750000  1
  Sn  Sn13  1  0.611308  0.000000  0.250000  1
  Sn  Sn14  1  0.388467  0.388385  0.250000  1
  Sn  Sn15  1  0.000083  0.611615  0.250000  1
  Se  Se16  1  0.998893  0.000000  0.000841  1
  Se  Se17  1  0.998893  0.000000  0.499159  1
