# generated using pymatgen
data_Pr3Tm(AsPt)4
_symmetry_space_group_name_H-M   'P 1'
_cell_length_a   4.32270100
_cell_length_b   4.32270185
_cell_length_c   16.15728600
_cell_angle_alpha   90.00000000
_cell_angle_beta   90.00000000
_cell_angle_gamma   120.00001642
_symmetry_Int_Tables_number   1
_chemical_formula_structural   Pr3Tm(AsPt)4
_chemical_formula_sum   'Pr3 Tm1 As4 Pt4'
_cell_volume   261.46252523
_cell_formula_units_Z   1
loop_
 _symmetry_equiv_pos_site_id
 _symmetry_equiv_pos_as_xyz
  1  'x, y, z'
loop_
 _atom_site_type_symbol
 _atom_site_label
 _atom_site_symmetry_multiplicity
 _atom_site_fract_x
 _atom_site_fract_y
 _atom_site_fract_z
 _atom_site_occupancy
  Pr  Pr0  1  0.000000  0.000000  0.508435  1
  Pr  Pr1  1  0.000000  0.000000  0.991565  1
  Pr  Pr2  1  0.000000  0.000000  0.250000  1
  Tm  Tm3  1  0.000000  0.000000  0.750000  1
  As  As4  1  0.333333  0.666667  0.875735  1
  As  As5  1  0.666667  0.333333  0.120345  1
  As  As6  1  0.666667  0.333333  0.379655  1
  As  As7  1  0.333333  0.666667  0.624265  1
  Pt  Pt8  1  0.333333  0.666667  0.377911  1
  Pt  Pt9  1  0.666667  0.333333  0.649712  1
  Pt  Pt10  1  0.666667  0.333333  0.850288  1
  Pt  Pt11  1  0.333333  0.666667  0.122089  1
