# generated using pymatgen
data_Dy3Ho3TiAl23Os8
_symmetry_space_group_name_H-M   'P 1'
_cell_length_a   8.85908405
_cell_length_b   8.86081081
_cell_length_c   9.57056000
_cell_angle_alpha   89.99888656
_cell_angle_beta   89.99891185
_cell_angle_gamma   119.98148706
_symmetry_Int_Tables_number   1
_chemical_formula_structural   Dy3Ho3TiAl23Os8
_chemical_formula_sum   'Dy3 Ho3 Ti1 Al23 Os8'
_cell_volume   650.74562110
_cell_formula_units_Z   1
loop_
 _symmetry_equiv_pos_site_id
 _symmetry_equiv_pos_as_xyz
  1  'x, y, z'
loop_
 _atom_site_type_symbol
 _atom_site_label
 _atom_site_symmetry_multiplicity
 _atom_site_fract_x
 _atom_site_fract_y
 _atom_site_fract_z
 _atom_site_occupancy
  Dy  Dy0  1  0.386081  0.193066  0.748231  1
  Dy  Dy1  1  0.193911  0.806092  0.249753  1
  Dy  Dy2  1  0.806994  0.193043  0.748216  1
  Ho  Ho3  1  0.194137  0.388225  0.249755  1
  Ho  Ho4  1  0.806759  0.613528  0.748123  1
  Ho  Ho5  1  0.611821  0.805890  0.249753  1
  Ti  Ti6  1  0.333393  0.666632  0.992072  1
  Al  Al7  1  0.666718  0.333421  0.980885  1
  Al  Al8  1  0.666731  0.333416  0.516544  1
  Al  Al9  1  0.333400  0.666643  0.481770  1
  Al  Al10  1  0.162448  0.324919  0.575030  1
  Al  Al11  1  0.837280  0.674733  0.424369  1
  Al  Al12  1  0.675117  0.837467  0.575060  1
  Al  Al13  1  0.836768  0.673689  0.076904  1
  Al  Al14  1  0.325297  0.162740  0.424239  1
  Al  Al15  1  0.159605  0.319245  0.925786  1
  Al  Al16  1  0.162353  0.837445  0.575169  1
  Al  Al17  1  0.326336  0.163246  0.077013  1
  Al  Al18  1  0.837371  0.162631  0.424211  1
  Al  Al19  1  0.680803  0.840322  0.925751  1
  Al  Al20  1  0.836859  0.163141  0.077032  1
  Al  Al21  1  0.159517  0.840294  0.925613  1
  Al  Al22  1  0.561725  0.123207  0.253265  1
  Al  Al23  1  0.440964  0.881894  0.750251  1
  Al  Al24  1  0.876797  0.438290  0.253267  1
  Al  Al25  1  0.117897  0.559063  0.750260  1
  Al  Al26  1  0.561524  0.438507  0.253270  1
  Al  Al27  1  0.441176  0.559089  0.750250  1
  Al  Al28  1  0.999885  0.000156  0.250312  1
  Al  Al29  1  0.999870  0.999728  0.749699  1
  Os  Os30  1  0.499248  0.998239  0.002994  1
  Os  Os31  1  0.001727  0.500851  0.002895  1
  Os  Os32  1  0.499677  0.999148  0.502853  1
  Os  Os33  1  0.499236  0.500999  0.002990  1
  Os  Os34  1  0.000823  0.500434  0.502950  1
  Os  Os35  1  0.499717  0.500534  0.502891  1
  Os  Os36  1  0.000022  0.000016  0.000607  1
  Os  Os37  1  0.000013  0.000019  0.499965  1
