# generated using pymatgen
data_YbCu3AgPt
_symmetry_space_group_name_H-M   'P 1'
_cell_length_a   5.04946032
_cell_length_b   5.04946027
_cell_length_c   5.16930775
_cell_angle_alpha   60.76401501
_cell_angle_beta   60.76401343
_cell_angle_gamma   59.99999732
_symmetry_Int_Tables_number   1
_chemical_formula_structural   YbCu3AgPt
_chemical_formula_sum   'Yb1 Cu3 Ag1 Pt1'
_cell_volume   94.25995026
_cell_formula_units_Z   1
loop_
 _symmetry_equiv_pos_site_id
 _symmetry_equiv_pos_as_xyz
  1  'x, y, z'
loop_
 _atom_site_type_symbol
 _atom_site_label
 _atom_site_symmetry_multiplicity
 _atom_site_fract_x
 _atom_site_fract_y
 _atom_site_fract_z
 _atom_site_occupancy
  Yb  Yb0  1  0.998746  0.998746  0.003761  1
  Cu  Cu1  1  0.625762  0.127292  0.621183  1
  Cu  Cu2  1  0.127292  0.625762  0.621183  1
  Cu  Cu3  1  0.625762  0.625762  0.621183  1
  Ag  Ag4  1  0.246043  0.246043  0.261871  1
  Pt  Pt5  1  0.626393  0.626393  0.120819  1
