# generated using pymatgen
data_Y5CoSeO12
_symmetry_space_group_name_H-M   'P 1'
_cell_length_a   6.82184991
_cell_length_b   6.82185112
_cell_length_c   7.25251900
_cell_angle_alpha   74.50123255
_cell_angle_beta   74.50124716
_cell_angle_gamma   50.07397075
_symmetry_Int_Tables_number   1
_chemical_formula_structural   Y5CoSeO12
_chemical_formula_sum   'Y5 Co1 Se1 O12'
_cell_volume   247.31830136
_cell_formula_units_Z   1
loop_
 _symmetry_equiv_pos_site_id
 _symmetry_equiv_pos_as_xyz
  1  'x, y, z'
loop_
 _atom_site_type_symbol
 _atom_site_label
 _atom_site_symmetry_multiplicity
 _atom_site_fract_x
 _atom_site_fract_y
 _atom_site_fract_z
 _atom_site_occupancy
  Y  Y0  1  0.693871  0.696424  0.663726  1
  Y  Y1  1  0.682558  0.711303  0.142245  1
  Y  Y2  1  0.987567  0.012433  0.000000  1
  Y  Y3  1  0.288697  0.317442  0.857755  1
  Y  Y4  1  0.303576  0.306129  0.336274  1
  Co  Co5  1  0.256851  0.743149  0.500000  1
  Se  Se6  1  0.767748  0.232252  0.500000  1
  O  O7  1  0.395054  0.912982  0.920007  1
  O  O8  1  0.593176  0.100578  0.577932  1
  O  O9  1  0.899422  0.406824  0.422068  1
  O  O10  1  0.087018  0.604946  0.079993  1
  O  O11  1  0.996200  0.004314  0.327725  1
  O  O12  1  0.520489  0.479918  0.673022  1
  O  O13  1  0.892706  0.408677  0.928329  1
  O  O14  1  0.099887  0.571908  0.578858  1
  O  O15  1  0.428092  0.900113  0.421142  1
  O  O16  1  0.591323  0.107294  0.071671  1
  O  O17  1  0.520082  0.479511  0.326978  1
  O  O18  1  0.995686  0.003800  0.672275  1
