# generated using pymatgen
data_Ni4Mo6As2CN
_symmetry_space_group_name_H-M   'P 1'
_cell_length_a   7.89408772
_cell_length_b   7.90344463
_cell_length_c   7.90344525
_cell_angle_alpha   60.11045536
_cell_angle_beta   60.03916442
_cell_angle_gamma   60.03916093
_symmetry_Int_Tables_number   1
_chemical_formula_structural   Ni4Mo6As2CN
_chemical_formula_sum   'Ni8 Mo12 As4 C2 N2'
_cell_volume   349.17110069
_cell_formula_units_Z   2
loop_
 _symmetry_equiv_pos_site_id
 _symmetry_equiv_pos_as_xyz
  1  'x, y, z'
loop_
 _atom_site_type_symbol
 _atom_site_label
 _atom_site_symmetry_multiplicity
 _atom_site_fract_x
 _atom_site_fract_y
 _atom_site_fract_z
 _atom_site_occupancy
  Ni  Ni0  1  0.917870  0.917200  0.247058  1
  Ni  Ni1  1  0.331818  0.332549  0.332549  1
  Ni  Ni2  1  0.246916  0.917451  0.917451  1
  Ni  Ni3  1  0.332130  0.002942  0.332800  1
  Ni  Ni4  1  0.003084  0.332549  0.332549  1
  Ni  Ni5  1  0.332130  0.332800  0.002942  1
  Ni  Ni6  1  0.918182  0.917451  0.917451  1
  Ni  Ni7  1  0.917870  0.247058  0.917200  1
  Mo  Mo8  1  0.689128  0.310872  0.310872  1
  Mo  Mo9  1  0.938351  0.938460  0.562226  1
  Mo  Mo10  1  0.689037  0.687774  0.311540  1
  Mo  Mo11  1  0.689037  0.311540  0.687774  1
  Mo  Mo12  1  0.311649  0.687774  0.311540  1
  Mo  Mo13  1  0.560963  0.938460  0.562226  1
  Mo  Mo14  1  0.560872  0.939128  0.939128  1
  Mo  Mo15  1  0.937529  0.562471  0.562471  1
  Mo  Mo16  1  0.938351  0.562226  0.938460  1
  Mo  Mo17  1  0.311649  0.311540  0.687774  1
  Mo  Mo18  1  0.560963  0.562226  0.938460  1
  Mo  Mo19  1  0.312471  0.687529  0.687529  1
  As  As20  1  0.125000  0.125000  0.125000  1
  As  As21  1  0.625000  0.125000  0.125000  1
  As  As22  1  0.125000  0.125000  0.625000  1
  As  As23  1  0.125000  0.625000  0.125000  1
  C  C24  1  0.625000  0.625000  0.125000  1
  C  C25  1  0.625000  0.125000  0.625000  1
  N  N26  1  0.625000  0.625000  0.625000  1
  N  N27  1  0.125000  0.625000  0.625000  1
