# generated using pymatgen
data_KPaF6
_symmetry_space_group_name_H-M   'P 1'
_cell_length_a   5.57246900
_cell_length_b   5.57246900
_cell_length_c   10.26809600
_cell_angle_alpha   90.00000000
_cell_angle_beta   90.00000000
_cell_angle_gamma   90.00000000
_symmetry_Int_Tables_number   1
_chemical_formula_structural   KPaF6
_chemical_formula_sum   'K2 Pa2 F12'
_cell_volume   318.84913467
_cell_formula_units_Z   2
loop_
 _symmetry_equiv_pos_site_id
 _symmetry_equiv_pos_as_xyz
  1  'x, y, z'
loop_
 _atom_site_type_symbol
 _atom_site_label
 _atom_site_symmetry_multiplicity
 _atom_site_fract_x
 _atom_site_fract_y
 _atom_site_fract_z
 _atom_site_occupancy
  K  K0  1  0.500000  0.500000  0.250000  1
  K  K1  1  0.500000  0.500000  0.750000  1
  Pa  Pa2  1  0.000000  0.000000  0.500000  1
  Pa  Pa3  1  0.000000  0.000000  0.000000  1
  F  F4  1  0.730810  0.269190  0.000000  1
  F  F5  1  0.191938  0.808062  0.356380  1
  F  F6  1  0.191938  0.808062  0.643620  1
  F  F7  1  0.191938  0.191938  0.143620  1
  F  F8  1  0.730810  0.730810  0.500000  1
  F  F9  1  0.808062  0.191938  0.643620  1
  F  F10  1  0.808062  0.808062  0.143620  1
  F  F11  1  0.808062  0.808062  0.856380  1
  F  F12  1  0.269190  0.730810  0.000000  1
  F  F13  1  0.808062  0.191938  0.356380  1
  F  F14  1  0.269190  0.269190  0.500000  1
  F  F15  1  0.191938  0.191938  0.856380  1
