# generated using pymatgen
data_Dy12TlTc2Ni3
_symmetry_space_group_name_H-M   'P 1'
_cell_length_a   8.40038714
_cell_length_b   8.40193138
_cell_length_c   8.40038800
_cell_angle_alpha   111.01061443
_cell_angle_beta   111.72410270
_cell_angle_gamma   105.73602271
_symmetry_Int_Tables_number   1
_chemical_formula_structural   Dy12TlTc2Ni3
_chemical_formula_sum   'Dy12 Tl1 Tc2 Ni3'
_cell_volume   454.99078664
_cell_formula_units_Z   1
loop_
 _symmetry_equiv_pos_site_id
 _symmetry_equiv_pos_as_xyz
  1  'x, y, z'
loop_
 _atom_site_type_symbol
 _atom_site_label
 _atom_site_symmetry_multiplicity
 _atom_site_fract_x
 _atom_site_fract_y
 _atom_site_fract_z
 _atom_site_occupancy
  Dy  Dy0  1  0.270572  0.181877  0.452416  1
  Dy  Dy1  1  0.725100  0.819831  0.544964  1
  Dy  Dy2  1  0.274866  0.819831  0.094732  1
  Dy  Dy3  1  0.729462  0.181877  0.911306  1
  Dy  Dy4  1  0.622826  0.311996  0.300592  1
  Dy  Dy5  1  0.377175  0.677674  0.689218  1
  Dy  Dy6  1  0.011404  0.311996  0.689169  1
  Dy  Dy7  1  0.988455  0.677674  0.300499  1
  Dy  Dy8  1  0.226911  0.415812  0.188901  1
  Dy  Dy9  1  0.775574  0.581391  0.805816  1
  Dy  Dy10  1  0.224520  0.030321  0.805801  1
  Dy  Dy11  1  0.773102  0.962048  0.188946  1
  Tl  Tl12  1  0.499999  0.497364  0.997365  1
  Tc  Tc13  1  0.999991  0.376475  0.376484  1
  Tc  Tc14  1  0.000000  0.000470  0.000470  1
  Ni  Ni15  1  0.000147  0.650457  0.650310  1
  Ni  Ni16  1  0.386405  0.887822  0.501418  1
  Ni  Ni17  1  0.613490  0.115083  0.501593  1
