# generated using pymatgen
data_La6Al24Re3Pt5
_symmetry_space_group_name_H-M   'P 1'
_cell_length_a   9.02540900
_cell_length_b   9.06584978
_cell_length_c   9.75492860
_cell_angle_alpha   90.31537959
_cell_angle_beta   90.00000000
_cell_angle_gamma   119.85254425
_symmetry_Int_Tables_number   1
_chemical_formula_structural   La6Al24Re3Pt5
_chemical_formula_sum   'La6 Al24 Re3 Pt5'
_cell_volume   692.25288802
_cell_formula_units_Z   1
loop_
 _symmetry_equiv_pos_site_id
 _symmetry_equiv_pos_as_xyz
  1  'x, y, z'
loop_
 _atom_site_type_symbol
 _atom_site_label
 _atom_site_symmetry_multiplicity
 _atom_site_fract_x
 _atom_site_fract_y
 _atom_site_fract_z
 _atom_site_occupancy
  La  La0  1  0.188554  0.377108  0.250943  1
  La  La1  1  0.811446  0.622892  0.749057  1
  La  La2  1  0.622029  0.813549  0.250603  1
  La  La3  1  0.377971  0.186451  0.749397  1
  La  La4  1  0.191522  0.813549  0.250603  1
  La  La5  1  0.808478  0.186451  0.749397  1
  Al  Al6  1  0.333244  0.666490  0.022266  1
  Al  Al7  1  0.666756  0.333510  0.977734  1
  Al  Al8  1  0.664396  0.328791  0.521298  1
  Al  Al9  1  0.335604  0.671209  0.478702  1
  Al  Al10  1  0.162195  0.324389  0.574239  1
  Al  Al11  1  0.837805  0.675611  0.425761  1
  Al  Al12  1  0.674275  0.842383  0.574300  1
  Al  Al13  1  0.838520  0.677042  0.075367  1
  Al  Al14  1  0.325725  0.157617  0.425700  1
  Al  Al15  1  0.161480  0.322958  0.924633  1
  Al  Al16  1  0.168109  0.842383  0.574300  1
  Al  Al17  1  0.324293  0.162532  0.077633  1
  Al  Al18  1  0.831891  0.157617  0.425700  1
  Al  Al19  1  0.675707  0.837468  0.922367  1
  Al  Al20  1  0.838238  0.162532  0.077633  1
  Al  Al21  1  0.161762  0.837468  0.922367  1
  Al  Al22  1  0.565049  0.130097  0.252901  1
  Al  Al23  1  0.434951  0.869903  0.747099  1
  Al  Al24  1  0.869863  0.434258  0.249477  1
  Al  Al25  1  0.130137  0.565742  0.750523  1
  Al  Al26  1  0.564396  0.434258  0.249477  1
  Al  Al27  1  0.435604  0.565742  0.750523  1
  Al  Al28  1  0.001254  0.002508  0.250200  1
  Al  Al29  1  0.998746  0.997492  0.749800  1
  Re  Re30  1  0.500000  0.000000  0.500000  1
  Re  Re31  1  0.000000  0.000000  0.000000  1
  Re  Re32  1  0.000000  0.000000  0.500000  1
  Pt  Pt33  1  0.500000  0.000000  0.000000  1
  Pt  Pt34  1  0.000000  0.500000  0.000000  1
  Pt  Pt35  1  0.500000  0.500000  0.000000  1
  Pt  Pt36  1  0.000000  0.500000  0.500000  1
  Pt  Pt37  1  0.500000  0.500000  0.500000  1
