# generated using pymatgen
data_LaYb2Pr(Mo2C3)2
_symmetry_space_group_name_H-M   'P 1'
_cell_length_a   6.66700800
_cell_length_b   5.96303767
_cell_length_c   12.04171971
_cell_angle_alpha   67.03291721
_cell_angle_beta   90.00000000
_cell_angle_gamma   90.00000000
_symmetry_Int_Tables_number   1
_chemical_formula_structural   LaYb2Pr(Mo2C3)2
_chemical_formula_sum   'La2 Yb4 Pr2 Mo8 C12'
_cell_volume   440.77702678
_cell_formula_units_Z   2
loop_
 _symmetry_equiv_pos_site_id
 _symmetry_equiv_pos_as_xyz
  1  'x, y, z'
loop_
 _atom_site_type_symbol
 _atom_site_label
 _atom_site_symmetry_multiplicity
 _atom_site_fract_x
 _atom_site_fract_y
 _atom_site_fract_z
 _atom_site_occupancy
  La  La0  1  0.995372  0.719344  0.635201  1
  La  La1  1  0.495372  0.280656  0.864799  1
  Yb  Yb2  1  0.797404  0.691679  0.910293  1
  Yb  Yb3  1  0.297404  0.308321  0.589707  1
  Yb  Yb4  1  0.203089  0.309401  0.090838  1
  Yb  Yb5  1  0.703089  0.690599  0.409162  1
  Pr  Pr6  1  0.005261  0.278366  0.363967  1
  Pr  Pr7  1  0.505261  0.721634  0.136033  1
  Mo  Mo8  1  0.994815  0.819546  0.122606  1
  Mo  Mo9  1  0.494815  0.180454  0.377394  1
  Mo  Mo10  1  0.005589  0.178652  0.879682  1
  Mo  Mo11  1  0.505589  0.821348  0.620318  1
  Mo  Mo12  1  0.756243  0.178493  0.657738  1
  Mo  Mo13  1  0.243222  0.821333  0.341719  1
  Mo  Mo14  1  0.743222  0.178667  0.158281  1
  Mo  Mo15  1  0.256243  0.821507  0.842262  1
  C  C16  1  0.629196  0.504770  0.642506  1
  C  C17  1  0.129196  0.495230  0.857494  1
  C  C18  1  0.369711  0.495778  0.355693  1
  C  C19  1  0.869711  0.504222  0.144307  1
  C  C20  1  0.213277  0.926102  0.988124  1
  C  C21  1  0.713277  0.073898  0.511876  1
  C  C22  1  0.786517  0.069049  0.013952  1
  C  C23  1  0.286517  0.930951  0.486048  1
  C  C24  1  0.480081  0.037960  0.242920  1
  C  C25  1  0.020222  0.040977  0.743236  1
  C  C26  1  0.980081  0.962040  0.257080  1
  C  C27  1  0.520222  0.959023  0.756764  1
