# generated using pymatgen
data_Pr4Dy6Sn5Bi3
_symmetry_space_group_name_H-M   'P 1'
_cell_length_a   8.25561000
_cell_length_b   8.25237090
_cell_length_c   15.57778400
_cell_angle_alpha   90.09730546
_cell_angle_beta   90.00000000
_cell_angle_gamma   90.00000000
_symmetry_Int_Tables_number   1
_chemical_formula_structural   Pr4Dy6Sn5Bi3
_chemical_formula_sum   'Pr8 Dy12 Sn10 Bi6'
_cell_volume   1061.28727938
_cell_formula_units_Z   2
loop_
 _symmetry_equiv_pos_site_id
 _symmetry_equiv_pos_as_xyz
  1  'x, y, z'
loop_
 _atom_site_type_symbol
 _atom_site_label
 _atom_site_symmetry_multiplicity
 _atom_site_fract_x
 _atom_site_fract_y
 _atom_site_fract_z
 _atom_site_occupancy
  Pr  Pr0  1  0.526334  0.324568  0.899634  1
  Pr  Pr1  1  0.026334  0.175432  0.600366  1
  Pr  Pr2  1  0.475981  0.680487  0.398214  1
  Pr  Pr3  1  0.975981  0.819513  0.101786  1
  Pr  Pr4  1  0.481795  0.674894  0.100705  1
  Pr  Pr5  1  0.981795  0.825106  0.399295  1
  Pr  Pr6  1  0.521162  0.320294  0.600747  1
  Pr  Pr7  1  0.021162  0.179706  0.899253  1
  Dy  Dy8  1  0.364102  0.839220  0.873979  1
  Dy  Dy9  1  0.864102  0.660780  0.626021  1
  Dy  Dy10  1  0.630866  0.160369  0.374139  1
  Dy  Dy11  1  0.130866  0.339631  0.125861  1
  Dy  Dy12  1  0.638139  0.165529  0.125057  1
  Dy  Dy13  1  0.138139  0.334471  0.374943  1
  Dy  Dy14  1  0.362941  0.841478  0.624774  1
  Dy  Dy15  1  0.862941  0.658522  0.875226  1
  Dy  Dy16  1  0.195058  0.499489  0.749758  1
  Dy  Dy17  1  0.695058  0.000511  0.750242  1
  Dy  Dy18  1  0.805300  0.499793  0.247491  1
  Dy  Dy19  1  0.305300  0.000207  0.252509  1
  Sn  Sn20  1  0.294519  0.038548  0.457406  1
  Sn  Sn21  1  0.794519  0.461452  0.042594  1
  Sn  Sn22  1  0.560341  0.626000  0.749362  1
  Sn  Sn23  1  0.060341  0.874000  0.750638  1
  Sn  Sn24  1  0.437961  0.375012  0.249634  1
  Sn  Sn25  1  0.937961  0.124988  0.250366  1
  Sn  Sn26  1  0.329612  0.143980  0.750689  1
  Sn  Sn27  1  0.829612  0.356020  0.749311  1
  Sn  Sn28  1  0.671750  0.857525  0.249765  1
  Sn  Sn29  1  0.171750  0.642475  0.250235  1
  Bi  Bi30  1  0.293132  0.039310  0.042786  1
  Bi  Bi31  1  0.793132  0.460690  0.457214  1
  Bi  Bi32  1  0.704706  0.960486  0.542041  1
  Bi  Bi33  1  0.204706  0.539514  0.957959  1
  Bi  Bi34  1  0.706304  0.960874  0.957401  1
  Bi  Bi35  1  0.206304  0.539126  0.542599  1
