# generated using pymatgen
data_Tb4Tm6Si5As
_symmetry_space_group_name_H-M   'P 1'
_cell_length_a   8.38147000
_cell_length_b   8.40825570
_cell_length_c   6.23573700
_cell_angle_alpha   90.00000000
_cell_angle_beta   90.00000000
_cell_angle_gamma   119.89467561
_symmetry_Int_Tables_number   1
_chemical_formula_structural   Tb4Tm6Si5As
_chemical_formula_sum   'Tb4 Tm6 Si5 As1'
_cell_volume   380.98201463
_cell_formula_units_Z   1
loop_
 _symmetry_equiv_pos_site_id
 _symmetry_equiv_pos_as_xyz
  1  'x, y, z'
loop_
 _atom_site_type_symbol
 _atom_site_label
 _atom_site_symmetry_multiplicity
 _atom_site_fract_x
 _atom_site_fract_y
 _atom_site_fract_z
 _atom_site_occupancy
  Tb  Tb0  1  0.996147  0.752250  0.750000  1
  Tb  Tb1  1  0.757709  0.000000  0.750000  1
  Tb  Tb2  1  0.243897  0.247750  0.750000  1
  Tb  Tb3  1  0.243814  0.000000  0.250000  1
  Tm  Tm4  1  0.000085  0.245418  0.250000  1
  Tm  Tm5  1  0.754667  0.754582  0.250000  1
  Tm  Tm6  1  0.332989  0.663501  0.498138  1
  Tm  Tm7  1  0.669490  0.336499  0.001862  1
  Tm  Tm8  1  0.669490  0.336499  0.498138  1
  Tm  Tm9  1  0.332989  0.663501  0.001862  1
  Si  Si10  1  0.394442  0.394994  0.250000  1
  Si  Si11  1  0.999448  0.605006  0.250000  1
  Si  Si12  1  0.999355  0.395204  0.750000  1
  Si  Si13  1  0.604150  0.604796  0.750000  1
  Si  Si14  1  0.609429  0.000000  0.250000  1
  As  As15  1  0.391896  0.000000  0.750000  1
