# generated using pymatgen
data_HoLu3BCl6
_symmetry_space_group_name_H-M   'P 1'
_cell_length_a   3.77696200
_cell_length_b   12.40075554
_cell_length_c   12.84912082
_cell_angle_alpha   90.42340175
_cell_angle_beta   90.00000000
_cell_angle_gamma   90.00000000
_symmetry_Int_Tables_number   1
_chemical_formula_structural   HoLu3BCl6
_chemical_formula_sum   'Ho2 Lu6 B2 Cl12'
_cell_volume   601.80018409
_cell_formula_units_Z   2
loop_
 _symmetry_equiv_pos_site_id
 _symmetry_equiv_pos_as_xyz
  1  'x, y, z'
loop_
 _atom_site_type_symbol
 _atom_site_label
 _atom_site_symmetry_multiplicity
 _atom_site_fract_x
 _atom_site_fract_y
 _atom_site_fract_z
 _atom_site_occupancy
  Ho  Ho0  1  0.500000  0.127004  0.850606  1
  Ho  Ho1  1  0.500000  0.872996  0.149394  1
  Lu  Lu2  1  0.000000  0.104613  0.083006  1
  Lu  Lu3  1  0.000000  0.895387  0.916994  1
  Lu  Lu4  1  0.000000  0.604220  0.417524  1
  Lu  Lu5  1  0.000000  0.395780  0.582476  1
  Lu  Lu6  1  0.500000  0.625715  0.647844  1
  Lu  Lu7  1  0.500000  0.374285  0.352156  1
  B  B8  1  0.500000  0.000000  0.000000  1
  B  B9  1  0.500000  0.500000  0.500000  1
  Cl  Cl10  1  0.500000  0.270365  0.680019  1
  Cl  Cl11  1  0.500000  0.729635  0.319981  1
  Cl  Cl12  1  0.500000  0.767517  0.816644  1
  Cl  Cl13  1  0.500000  0.232483  0.183356  1
  Cl  Cl14  1  0.000000  0.260542  0.932838  1
  Cl  Cl15  1  0.000000  0.739458  0.067162  1
  Cl  Cl16  1  0.000000  0.477740  0.243316  1
  Cl  Cl17  1  0.000000  0.522260  0.756684  1
  Cl  Cl18  1  0.000000  0.982315  0.259795  1
  Cl  Cl19  1  0.000000  0.017685  0.740205  1
  Cl  Cl20  1  0.000000  0.243429  0.429005  1
  Cl  Cl21  1  0.000000  0.756571  0.570995  1
