# generated using pymatgen
data_KInSnO4
_symmetry_space_group_name_H-M   'P 1'
_cell_length_a   3.27323000
_cell_length_b   6.80530534
_cell_length_c   5.61122811
_cell_angle_alpha   71.69580354
_cell_angle_beta   90.00000000
_cell_angle_gamma   90.00000000
_symmetry_Int_Tables_number   1
_chemical_formula_structural   KInSnO4
_chemical_formula_sum   'K1 In1 Sn1 O4'
_cell_volume   118.66767231
_cell_formula_units_Z   1
loop_
 _symmetry_equiv_pos_site_id
 _symmetry_equiv_pos_as_xyz
  1  'x, y, z'
loop_
 _atom_site_type_symbol
 _atom_site_label
 _atom_site_symmetry_multiplicity
 _atom_site_fract_x
 _atom_site_fract_y
 _atom_site_fract_z
 _atom_site_occupancy
  K  K0  1  0.500000  0.501570  0.667699  1
  In  In1  1  0.500000  0.021297  0.490765  1
  Sn  Sn2  1  0.000000  0.982226  0.006097  1
  O  O3  1  0.000000  0.833909  0.393613  1
  O  O4  1  0.500000  0.824765  0.900117  1
  O  O5  1  0.000000  0.175212  0.625105  1
  O  O6  1  0.500000  0.160140  0.083564  1
