# generated using pymatgen
data_Th3Ag3Os
_symmetry_space_group_name_H-M   'P 1'
_cell_length_a   8.39831066
_cell_length_b   8.39831095
_cell_length_c   8.39831123
_cell_angle_alpha   114.37025501
_cell_angle_beta   114.37024878
_cell_angle_gamma   114.37023396
_symmetry_Int_Tables_number   1
_chemical_formula_structural   Th3Ag3Os
_chemical_formula_sum   'Th6 Ag6 Os2'
_cell_volume   349.78186094
_cell_formula_units_Z   2
loop_
 _symmetry_equiv_pos_site_id
 _symmetry_equiv_pos_as_xyz
  1  'x, y, z'
loop_
 _atom_site_type_symbol
 _atom_site_label
 _atom_site_symmetry_multiplicity
 _atom_site_fract_x
 _atom_site_fract_y
 _atom_site_fract_z
 _atom_site_occupancy
  Th  Th0  1  0.053244  0.389821  0.289161  1
  Th  Th1  1  0.389821  0.289161  0.053244  1
  Th  Th2  1  0.710839  0.946756  0.610179  1
  Th  Th3  1  0.289161  0.053244  0.389821  1
  Th  Th4  1  0.610179  0.710839  0.946756  1
  Th  Th5  1  0.946756  0.610179  0.710839  1
  Ag  Ag6  1  0.427133  0.947374  0.778646  1
  Ag  Ag7  1  0.947374  0.778646  0.427133  1
  Ag  Ag8  1  0.221354  0.572867  0.052626  1
  Ag  Ag9  1  0.778646  0.427133  0.947374  1
  Ag  Ag10  1  0.052626  0.221354  0.572867  1
  Ag  Ag11  1  0.572867  0.052626  0.221354  1
  Os  Os12  1  0.000000  0.000000  0.000000  1
  Os  Os13  1  0.500000  0.500000  0.500000  1
