# generated using pymatgen
data_NdGa4Ni9
_symmetry_space_group_name_H-M   'P 1'
_cell_length_a   8.12776975
_cell_length_b   8.12776992
_cell_length_c   8.12776949
_cell_angle_alpha   120.89441425
_cell_angle_beta   120.89441613
_cell_angle_gamma   88.45768870
_symmetry_Int_Tables_number   1
_chemical_formula_structural   NdGa4Ni9
_chemical_formula_sum   'Nd2 Ga8 Ni18'
_cell_volume   374.38387474
_cell_formula_units_Z   2
loop_
 _symmetry_equiv_pos_site_id
 _symmetry_equiv_pos_as_xyz
  1  'x, y, z'
loop_
 _atom_site_type_symbol
 _atom_site_label
 _atom_site_symmetry_multiplicity
 _atom_site_fract_x
 _atom_site_fract_y
 _atom_site_fract_z
 _atom_site_occupancy
  Nd  Nd0  1  0.750000  0.750000  0.000000  1
  Nd  Nd1  1  0.250000  0.250000  0.000000  1
  Ga  Ga2  1  0.801228  0.301227  0.858212  1
  Ga  Ga3  1  0.443014  0.943015  0.141789  1
  Ga  Ga4  1  0.698774  0.556986  0.500000  1
  Ga  Ga5  1  0.056985  0.198773  0.500000  1
  Ga  Ga6  1  0.198774  0.698774  0.141789  1
  Ga  Ga7  1  0.556985  0.056985  0.858212  1
  Ga  Ga8  1  0.943015  0.801227  0.500000  1
  Ga  Ga9  1  0.301227  0.443015  0.500000  1
  Ni  Ni10  1  0.203952  0.064411  0.268362  1
  Ni  Ni11  1  0.796046  0.935590  0.731639  1
  Ni  Ni12  1  0.296047  0.564410  0.860457  1
  Ni  Ni13  1  0.703951  0.435589  0.139542  1
  Ni  Ni14  1  0.435591  0.296047  0.731639  1
  Ni  Ni15  1  0.564410  0.703951  0.268362  1
  Ni  Ni16  1  0.935590  0.203952  0.139544  1
  Ni  Ni17  1  0.064411  0.796047  0.860458  1
  Ni  Ni18  1  0.499999  0.000000  0.499999  1
  Ni  Ni19  1  0.000000  0.499999  0.499999  1
  Ni  Ni20  1  0.295711  0.795710  0.734420  1
  Ni  Ni21  1  0.061290  0.561291  0.265581  1
  Ni  Ni22  1  0.204290  0.938710  0.499999  1
  Ni  Ni23  1  0.438711  0.704291  0.500002  1
  Ni  Ni24  1  0.704291  0.204290  0.265581  1
  Ni  Ni25  1  0.938710  0.438711  0.734420  1
  Ni  Ni26  1  0.561291  0.295711  0.500002  1
  Ni  Ni27  1  0.795710  0.061290  0.499999  1
