# generated using pymatgen
data_HoErCo8(CuP3)2
_symmetry_space_group_name_H-M   'P 1'
_cell_length_a   3.68616900
_cell_length_b   10.23883700
_cell_length_c   11.84698100
_cell_angle_alpha   90.00000000
_cell_angle_beta   90.00000000
_cell_angle_gamma   90.00000000
_symmetry_Int_Tables_number   1
_chemical_formula_structural   HoErCo8(CuP3)2
_chemical_formula_sum   'Ho2 Er2 Co16 Cu4 P12'
_cell_volume   447.12974666
_cell_formula_units_Z   2
loop_
 _symmetry_equiv_pos_site_id
 _symmetry_equiv_pos_as_xyz
  1  'x, y, z'
loop_
 _atom_site_type_symbol
 _atom_site_label
 _atom_site_symmetry_multiplicity
 _atom_site_fract_x
 _atom_site_fract_y
 _atom_site_fract_z
 _atom_site_occupancy
  Ho  Ho0  1  0.750000  0.422374  0.297784  1
  Ho  Ho1  1  0.750000  0.077626  0.797784  1
  Er  Er2  1  0.250000  0.577606  0.702097  1
  Er  Er3  1  0.250000  0.922394  0.202097  1
  Co  Co4  1  0.250000  0.405826  0.483622  1
  Co  Co5  1  0.250000  0.094174  0.983622  1
  Co  Co6  1  0.750000  0.594306  0.516885  1
  Co  Co7  1  0.750000  0.905694  0.016885  1
  Co  Co8  1  0.250000  0.225186  0.172143  1
  Co  Co9  1  0.250000  0.274814  0.672143  1
  Co  Co10  1  0.750000  0.774530  0.827778  1
  Co  Co11  1  0.750000  0.725470  0.327778  1
  Co  Co12  1  0.250000  0.877801  0.700221  1
  Co  Co13  1  0.250000  0.622199  0.200221  1
  Co  Co14  1  0.750000  0.121715  0.299614  1
  Co  Co15  1  0.750000  0.378285  0.799614  1
  Co  Co16  1  0.250000  0.463796  0.933122  1
  Co  Co17  1  0.250000  0.036204  0.433122  1
  Co  Co18  1  0.750000  0.536451  0.066700  1
  Co  Co19  1  0.750000  0.963549  0.566700  1
  Cu  Cu20  1  0.250000  0.710711  0.992758  1
  Cu  Cu21  1  0.250000  0.789289  0.492758  1
  Cu  Cu22  1  0.750000  0.289307  0.007319  1
  Cu  Cu23  1  0.750000  0.210693  0.507319  1
  P  P24  1  0.250000  0.426392  0.116105  1
  P  P25  1  0.250000  0.073608  0.616105  1
  P  P26  1  0.750000  0.573656  0.883542  1
  P  P27  1  0.750000  0.926344  0.383542  1
  P  P28  1  0.250000  0.268048  0.859075  1
  P  P29  1  0.250000  0.231952  0.359075  1
  P  P30  1  0.750000  0.732422  0.141020  1
  P  P31  1  0.750000  0.767578  0.641020  1
  P  P32  1  0.250000  0.600896  0.392378  1
  P  P33  1  0.250000  0.899104  0.892378  1
  P  P34  1  0.750000  0.399481  0.607838  1
  P  P35  1  0.750000  0.100519  0.107838  1
