# generated using pymatgen
data_Ce7NdSi15Ni
_symmetry_space_group_name_H-M   'P 1'
_cell_length_a   8.15975700
_cell_length_b   8.17278960
_cell_length_c   8.30835100
_cell_angle_alpha   89.91524939
_cell_angle_beta   90.00000000
_cell_angle_gamma   119.94726800
_symmetry_Int_Tables_number   1
_chemical_formula_structural   Ce7NdSi15Ni
_chemical_formula_sum   'Ce7 Nd1 Si15 Ni1'
_cell_volume   480.09026709
_cell_formula_units_Z   1
loop_
 _symmetry_equiv_pos_site_id
 _symmetry_equiv_pos_as_xyz
  1  'x, y, z'
loop_
 _atom_site_type_symbol
 _atom_site_label
 _atom_site_symmetry_multiplicity
 _atom_site_fract_x
 _atom_site_fract_y
 _atom_site_fract_z
 _atom_site_occupancy
  Ce  Ce0  1  0.999853  0.999705  0.748873  1
  Ce  Ce1  1  0.000102  0.000203  0.252206  1
  Ce  Ce2  1  0.500561  0.499459  0.746743  1
  Ce  Ce3  1  0.500543  0.001086  0.747180  1
  Ce  Ce4  1  0.998897  0.499459  0.746743  1
  Ce  Ce5  1  0.500969  0.499146  0.253729  1
  Ce  Ce6  1  0.998178  0.499146  0.253729  1
  Nd  Nd7  1  0.501050  0.002098  0.253000  1
  Si  Si8  1  0.667525  0.335049  0.997924  1
  Si  Si9  1  0.667199  0.334396  0.502291  1
  Si  Si10  1  0.332766  0.665532  0.500410  1
  Si  Si11  1  0.835874  0.165318  0.998330  1
  Si  Si12  1  0.835317  0.670634  0.000370  1
  Si  Si13  1  0.329443  0.165318  0.998330  1
  Si  Si14  1  0.834152  0.167207  0.501132  1
  Si  Si15  1  0.832840  0.665681  0.499800  1
  Si  Si16  1  0.333053  0.167207  0.501132  1
  Si  Si17  1  0.165003  0.833054  0.501077  1
  Si  Si18  1  0.668050  0.833054  0.501077  1
  Si  Si19  1  0.166523  0.333046  0.499768  1
  Si  Si20  1  0.171957  0.826975  0.999074  1
  Si  Si21  1  0.655019  0.826975  0.999074  1
  Si  Si22  1  0.172332  0.344661  0.000876  1
  Ni  Ni23  1  0.332795  0.665590  0.997131  1
