# generated using pymatgen
data_Sm6YIrBr12
_symmetry_space_group_name_H-M   'P 1'
_cell_length_a   9.43914950
_cell_length_b   9.43915001
_cell_length_c   9.43915000
_cell_angle_alpha   106.95941059
_cell_angle_beta   106.95941787
_cell_angle_gamma   106.95941906
_symmetry_Int_Tables_number   1
_chemical_formula_structural   Sm6YIrBr12
_chemical_formula_sum   'Sm6 Y1 Ir1 Br12'
_cell_volume   701.17107241
_cell_formula_units_Z   1
loop_
 _symmetry_equiv_pos_site_id
 _symmetry_equiv_pos_as_xyz
  1  'x, y, z'
loop_
 _atom_site_type_symbol
 _atom_site_label
 _atom_site_symmetry_multiplicity
 _atom_site_fract_x
 _atom_site_fract_y
 _atom_site_fract_z
 _atom_site_occupancy
  Sm  Sm0  1  0.898538  0.975956  0.687065  1
  Sm  Sm1  1  0.975956  0.687065  0.898538  1
  Sm  Sm2  1  0.687065  0.898538  0.975956  1
  Sm  Sm3  1  0.101462  0.024044  0.312935  1
  Sm  Sm4  1  0.024044  0.312935  0.101462  1
  Sm  Sm5  1  0.312935  0.101462  0.024044  1
  Y  Y6  1  0.500000  0.500000  0.500000  1
  Ir  Ir7  1  0.000000  0.000000  0.000000  1
  Br  Br8  1  0.535855  0.826064  0.610775  1
  Br  Br9  1  0.826064  0.610775  0.535855  1
  Br  Br10  1  0.610775  0.535855  0.826064  1
  Br  Br11  1  0.464145  0.173936  0.389225  1
  Br  Br12  1  0.173936  0.389225  0.464145  1
  Br  Br13  1  0.389225  0.464145  0.173936  1
  Br  Br14  1  0.679614  0.222987  0.070507  1
  Br  Br15  1  0.222987  0.070507  0.679614  1
  Br  Br16  1  0.070507  0.679614  0.222987  1
  Br  Br17  1  0.320386  0.777013  0.929493  1
  Br  Br18  1  0.777013  0.929493  0.320386  1
  Br  Br19  1  0.929493  0.320386  0.777013  1
