# generated using pymatgen
data_Nb8AgRhS16
_symmetry_space_group_name_H-M   'P 1'
_cell_length_a   6.72893500
_cell_length_b   6.72893505
_cell_length_c   12.93389200
_cell_angle_alpha   90.00000000
_cell_angle_beta   90.00000000
_cell_angle_gamma   119.99999482
_symmetry_Int_Tables_number   1
_chemical_formula_structural   Nb8AgRhS16
_chemical_formula_sum   'Nb8 Ag1 Rh1 S16'
_cell_volume   507.16882971
_cell_formula_units_Z   1
loop_
 _symmetry_equiv_pos_site_id
 _symmetry_equiv_pos_as_xyz
  1  'x, y, z'
loop_
 _atom_site_type_symbol
 _atom_site_label
 _atom_site_symmetry_multiplicity
 _atom_site_fract_x
 _atom_site_fract_y
 _atom_site_fract_z
 _atom_site_occupancy
  Nb  Nb0  1  0.000000  0.000000  0.234815  1
  Nb  Nb1  1  0.000000  0.000000  0.765185  1
  Nb  Nb2  1  0.505394  0.010790  0.231383  1
  Nb  Nb3  1  0.989210  0.494606  0.231383  1
  Nb  Nb4  1  0.505394  0.494606  0.231383  1
  Nb  Nb5  1  0.494606  0.989210  0.768617  1
  Nb  Nb6  1  0.010790  0.505394  0.768617  1
  Nb  Nb7  1  0.494606  0.505394  0.768617  1
  Ag  Ag8  1  0.000000  0.000000  0.500000  1
  Rh  Rh9  1  0.000000  0.000000  0.000000  1
  S  S10  1  0.333333  0.666667  0.892244  1
  S  S11  1  0.666667  0.333333  0.107756  1
  S  S12  1  0.666667  0.333333  0.355862  1
  S  S13  1  0.333333  0.666667  0.644138  1
  S  S14  1  0.168800  0.831200  0.352852  1
  S  S15  1  0.168800  0.337601  0.352852  1
  S  S16  1  0.662399  0.831200  0.352852  1
  S  S17  1  0.831200  0.168800  0.647148  1
  S  S18  1  0.831200  0.662399  0.647148  1
  S  S19  1  0.337601  0.168800  0.647148  1
  S  S20  1  0.833942  0.166058  0.887120  1
  S  S21  1  0.833942  0.667884  0.887120  1
  S  S22  1  0.332116  0.166058  0.887120  1
  S  S23  1  0.166058  0.833942  0.112880  1
  S  S24  1  0.166058  0.332116  0.112880  1
  S  S25  1  0.667884  0.833942  0.112880  1
