# generated using pymatgen
data_LaPr(CdSn)2
_symmetry_space_group_name_H-M   'P 1'
_cell_length_a   4.84142100
_cell_length_b   4.84141988
_cell_length_c   16.87437200
_cell_angle_alpha   90.00000000
_cell_angle_beta   90.00000000
_cell_angle_gamma   120.00001445
_symmetry_Int_Tables_number   1
_chemical_formula_structural   LaPr(CdSn)2
_chemical_formula_sum   'La2 Pr2 Cd4 Sn4'
_cell_volume   342.53407931
_cell_formula_units_Z   2
loop_
 _symmetry_equiv_pos_site_id
 _symmetry_equiv_pos_as_xyz
  1  'x, y, z'
loop_
 _atom_site_type_symbol
 _atom_site_label
 _atom_site_symmetry_multiplicity
 _atom_site_fract_x
 _atom_site_fract_y
 _atom_site_fract_z
 _atom_site_occupancy
  La  La0  1  0.000000  0.000000  0.500000  1
  La  La1  1  0.000000  0.000000  0.000000  1
  Pr  Pr2  1  0.000000  0.000000  0.250000  1
  Pr  Pr3  1  0.000000  0.000000  0.750000  1
  Cd  Cd4  1  0.333333  0.666667  0.344229  1
  Cd  Cd5  1  0.666667  0.333333  0.655771  1
  Cd  Cd6  1  0.666667  0.333333  0.844229  1
  Cd  Cd7  1  0.333333  0.666667  0.155771  1
  Sn  Sn8  1  0.333333  0.666667  0.887778  1
  Sn  Sn9  1  0.666667  0.333333  0.112222  1
  Sn  Sn10  1  0.666667  0.333333  0.387778  1
  Sn  Sn11  1  0.333333  0.666667  0.612222  1
