# generated using pymatgen
data_Ba3Sr(MgP2)2
_symmetry_space_group_name_H-M   'P 1'
_cell_length_a   8.84329351
_cell_length_b   8.84329213
_cell_length_c   7.83491308
_cell_angle_alpha   90.66564970
_cell_angle_beta   89.33435105
_cell_angle_gamma   150.55416089
_symmetry_Int_Tables_number   1
_chemical_formula_structural   Ba3Sr(MgP2)2
_chemical_formula_sum   'Ba3 Sr1 Mg2 P4'
_cell_volume   301.19188716
_cell_formula_units_Z   1
loop_
 _symmetry_equiv_pos_site_id
 _symmetry_equiv_pos_as_xyz
  1  'x, y, z'
loop_
 _atom_site_type_symbol
 _atom_site_label
 _atom_site_symmetry_multiplicity
 _atom_site_fract_x
 _atom_site_fract_y
 _atom_site_fract_z
 _atom_site_occupancy
  Ba  Ba0  1  0.537825  0.462175  0.228435  1
  Ba  Ba1  1  0.704418  0.295582  0.894472  1
  Ba  Ba2  1  0.296762  0.703238  0.398846  1
  Sr  Sr3  1  0.463998  0.536002  0.730236  1
  Mg  Mg4  1  0.091895  0.908105  0.583020  1
  Mg  Mg5  1  0.906719  0.093281  0.073663  1
  P  P6  1  0.053928  0.946072  0.918264  1
  P  P7  1  0.665922  0.334078  0.505530  1
  P  P8  1  0.335688  0.664312  0.000087  1
  P  P9  1  0.942843  0.057157  0.436165  1
