# generated using pymatgen
data_Ta3(S4Cl3)2
_symmetry_space_group_name_H-M   'P 1'
_cell_length_a   7.43483461
_cell_length_b   10.85638556
_cell_length_c   12.50721732
_cell_angle_alpha   70.78703517
_cell_angle_beta   80.15264871
_cell_angle_gamma   83.04754118
_symmetry_Int_Tables_number   1
_chemical_formula_structural   Ta3(S4Cl3)2
_chemical_formula_sum   'Ta6 S16 Cl12'
_cell_volume   936.97338414
_cell_formula_units_Z   2
loop_
 _symmetry_equiv_pos_site_id
 _symmetry_equiv_pos_as_xyz
  1  'x, y, z'
loop_
 _atom_site_type_symbol
 _atom_site_label
 _atom_site_symmetry_multiplicity
 _atom_site_fract_x
 _atom_site_fract_y
 _atom_site_fract_z
 _atom_site_occupancy
  Ta  Ta0  1  0.398043  0.499924  0.245408  1
  Ta  Ta1  1  0.601957  0.500076  0.754592  1
  Ta  Ta2  1  0.998285  0.001337  0.119707  1
  Ta  Ta3  1  0.001715  0.998663  0.880293  1
  Ta  Ta4  1  0.998820  0.001203  0.369902  1
  Ta  Ta5  1  0.001180  0.998797  0.630098  1
  S  S6  1  0.786895  0.893286  0.306760  1
  S  S7  1  0.213105  0.106714  0.693240  1
  S  S8  1  0.241800  0.902826  0.243492  1
  S  S9  1  0.758200  0.097174  0.756508  1
  S  S10  1  0.212672  0.108313  0.202763  1
  S  S11  1  0.787328  0.891687  0.797237  1
  S  S12  1  0.984873  0.803816  0.059188  1
  S  S13  1  0.015127  0.196184  0.940812  1
  S  S14  1  0.751475  0.932108  0.044129  1
  S  S15  1  0.248525  0.067892  0.955871  1
  S  S16  1  0.258721  0.951125  0.486548  1
  S  S17  1  0.741279  0.048875  0.513452  1
  S  S18  1  0.069134  0.809755  0.545966  1
  S  S19  1  0.250549  0.902504  0.762024  1
  S  S20  1  0.930866  0.190245  0.454034  1
  S  S21  1  0.749451  0.097496  0.237976  1
  Cl  Cl22  1  0.804597  0.577177  0.842343  1
  Cl  Cl23  1  0.195403  0.422823  0.157657  1
  Cl  Cl24  1  0.342793  0.596705  0.841890  1
  Cl  Cl25  1  0.634250  0.697205  0.597103  1
  Cl  Cl26  1  0.589601  0.578323  0.335354  1
  Cl  Cl27  1  0.410399  0.421677  0.664646  1
  Cl  Cl28  1  0.141512  0.603063  0.334468  1
  Cl  Cl29  1  0.858488  0.396937  0.665532  1
  Cl  Cl30  1  0.417994  0.692172  0.083303  1
  Cl  Cl31  1  0.582006  0.307828  0.916697  1
  Cl  Cl32  1  0.365750  0.302795  0.402897  1
  Cl  Cl33  1  0.657207  0.403295  0.158110  1
