# generated using pymatgen
data_Sr6FeRu3O14
_symmetry_space_group_name_H-M   'P 1'
_cell_length_a   10.82908455
_cell_length_b   10.82908524
_cell_length_c   5.56933711
_cell_angle_alpha   90.00578590
_cell_angle_beta   90.00578709
_cell_angle_gamma   150.09584554
_symmetry_Int_Tables_number   1
_chemical_formula_structural   Sr6FeRu3O14
_chemical_formula_sum   'Sr6 Fe1 Ru3 O14'
_cell_volume   325.60887192
_cell_formula_units_Z   1
loop_
 _symmetry_equiv_pos_site_id
 _symmetry_equiv_pos_as_xyz
  1  'x, y, z'
loop_
 _atom_site_type_symbol
 _atom_site_label
 _atom_site_symmetry_multiplicity
 _atom_site_fract_x
 _atom_site_fract_y
 _atom_site_fract_z
 _atom_site_occupancy
  Sr  Sr0  1  0.187819  0.812181  0.000000  1
  Sr  Sr1  1  0.815971  0.184029  0.000000  1
  Sr  Sr2  1  0.315754  0.684246  0.500000  1
  Sr  Sr3  1  0.996389  0.003611  0.000000  1
  Sr  Sr4  1  0.688020  0.311980  0.500000  1
  Sr  Sr5  1  0.496311  0.503689  0.500000  1
  Fe  Fe6  1  0.900302  0.099698  0.500000  1
  Ru  Ru7  1  0.403208  0.596792  0.000000  1
  Ru  Ru8  1  0.597457  0.402543  0.000000  1
  Ru  Ru9  1  0.096513  0.903487  0.500000  1
  O  O10  1  0.181867  0.374127  0.275279  1
  O  O11  1  0.302382  0.109428  0.205725  1
  O  O12  1  0.625873  0.818133  0.724721  1
  O  O13  1  0.388959  0.196616  0.706332  1
  O  O14  1  0.803932  0.196068  0.500000  1
  O  O15  1  0.803384  0.611041  0.293668  1
  O  O16  1  0.195488  0.804512  0.500000  1
  O  O17  1  0.694844  0.305156  0.000000  1
  O  O18  1  0.678662  0.870831  0.221830  1
  O  O19  1  0.306568  0.693432  0.000000  1
  O  O20  1  0.000912  0.999088  0.500000  1
  O  O21  1  0.890572  0.697618  0.794275  1
  O  O22  1  0.499643  0.500357  0.000000  1
  O  O23  1  0.129169  0.321338  0.778170  1
