# generated using pymatgen
data_HoErPa2(WC2)4
_symmetry_space_group_name_H-M   'P 1'
_cell_length_a   3.34279900
_cell_length_b   5.73256501
_cell_length_c   10.90710802
_cell_angle_alpha   89.99250652
_cell_angle_beta   90.00000000
_cell_angle_gamma   90.00000000
_symmetry_Int_Tables_number   1
_chemical_formula_structural   HoErPa2(WC2)4
_chemical_formula_sum   'Ho1 Er1 Pa2 W4 C8'
_cell_volume   209.01086517
_cell_formula_units_Z   1
loop_
 _symmetry_equiv_pos_site_id
 _symmetry_equiv_pos_as_xyz
  1  'x, y, z'
loop_
 _atom_site_type_symbol
 _atom_site_label
 _atom_site_symmetry_multiplicity
 _atom_site_fract_x
 _atom_site_fract_y
 _atom_site_fract_z
 _atom_site_occupancy
  Ho  Ho0  1  0.750000  0.913176  0.139487  1
  Er  Er1  1  0.750000  0.413308  0.360526  1
  Pa  Pa2  1  0.250000  0.085969  0.861748  1
  Pa  Pa3  1  0.250000  0.585945  0.638168  1
  W  W4  1  0.250000  0.406126  0.113235  1
  W  W5  1  0.250000  0.905979  0.386915  1
  W  W6  1  0.750000  0.588337  0.897551  1
  W  W7  1  0.750000  0.088440  0.602336  1
  C  C8  1  0.250000  0.162361  0.248230  1
  C  C9  1  0.250000  0.661651  0.252160  1
  C  C10  1  0.750000  0.841008  0.755167  1
  C  C11  1  0.750000  0.340998  0.744813  1
  C  C12  1  0.250000  0.735089  0.987546  1
  C  C13  1  0.250000  0.235428  0.512198  1
  C  C14  1  0.750000  0.268279  0.011979  1
  C  C15  1  0.750000  0.767907  0.487941  1
