# generated using pymatgen
data_Tb3MoO7
_symmetry_space_group_name_H-M   'P 1'
_cell_length_a   6.50131172
_cell_length_b   6.50131187
_cell_length_c   7.50544500
_cell_angle_alpha   90.00000000
_cell_angle_beta   90.00000000
_cell_angle_gamma   108.82082570
_symmetry_Int_Tables_number   1
_chemical_formula_structural   Tb3MoO7
_chemical_formula_sum   'Tb6 Mo2 O14'
_cell_volume   300.27125935
_cell_formula_units_Z   2
loop_
 _symmetry_equiv_pos_site_id
 _symmetry_equiv_pos_as_xyz
  1  'x, y, z'
loop_
 _atom_site_type_symbol
 _atom_site_label
 _atom_site_symmetry_multiplicity
 _atom_site_fract_x
 _atom_site_fract_y
 _atom_site_fract_z
 _atom_site_occupancy
  Tb  Tb0  1  0.464134  0.999731  0.255368  1
  Tb  Tb1  1  0.000269  0.535866  0.244632  1
  Tb  Tb2  1  0.470164  0.470164  0.000000  1
  Tb  Tb3  1  0.529836  0.529836  0.500000  1
  Tb  Tb4  1  0.535866  0.000269  0.755368  1
  Tb  Tb5  1  0.999731  0.464134  0.744632  1
  Mo  Mo6  1  0.001431  0.001431  0.500000  1
  Mo  Mo7  1  0.998569  0.998569  0.000000  1
  O  O8  1  0.927052  0.072948  0.750000  1
  O  O9  1  0.637155  0.362845  0.750000  1
  O  O10  1  0.311498  0.059043  0.536356  1
  O  O11  1  0.940957  0.688502  0.963644  1
  O  O12  1  0.630330  0.369670  0.250000  1
  O  O13  1  0.917684  0.674210  0.525944  1
  O  O14  1  0.325790  0.082316  0.974056  1
  O  O15  1  0.082316  0.325790  0.025944  1
  O  O16  1  0.674210  0.917684  0.474056  1
  O  O17  1  0.369670  0.630330  0.750000  1
  O  O18  1  0.688502  0.940957  0.036356  1
  O  O19  1  0.059043  0.311498  0.463644  1
  O  O20  1  0.362845  0.637155  0.250000  1
  O  O21  1  0.072948  0.927052  0.250000  1
