# generated using pymatgen
data_Ti7V11C15
_symmetry_space_group_name_H-M   'P 1'
_cell_length_a   5.18478946
_cell_length_b   5.17628026
_cell_length_c   14.61435442
_cell_angle_alpha   90.20390268
_cell_angle_beta   89.93920469
_cell_angle_gamma   119.89968812
_symmetry_Int_Tables_number   1
_chemical_formula_structural   Ti7V11C15
_chemical_formula_sum   'Ti7 V11 C15'
_cell_volume   340.01210557
_cell_formula_units_Z   1
loop_
 _symmetry_equiv_pos_site_id
 _symmetry_equiv_pos_as_xyz
  1  'x, y, z'
loop_
 _atom_site_type_symbol
 _atom_site_label
 _atom_site_symmetry_multiplicity
 _atom_site_fract_x
 _atom_site_fract_y
 _atom_site_fract_z
 _atom_site_occupancy
  Ti  Ti0  1  0.773219  0.542018  0.416508  1
  Ti  Ti1  1  0.768194  0.224966  0.084693  1
  Ti  Ti2  1  0.458194  0.233912  0.750058  1
  Ti  Ti3  1  0.767097  0.537271  0.918064  1
  Ti  Ti4  1  0.774485  0.234003  0.581771  1
  Ti  Ti5  1  0.458326  0.226299  0.249432  1
  Ti  Ti6  1  0.105417  0.529385  0.750061  1
  V  V7  1  0.484776  0.588678  0.082585  1
  V  V8  1  0.409991  0.894861  0.414309  1
  V  V9  1  0.484222  0.890663  0.919977  1
  V  V10  1  0.408193  0.514291  0.584273  1
  V  V11  1  0.105317  0.589426  0.251297  1
  V  V12  1  0.134176  0.880606  0.589035  1
  V  V13  1  0.120268  0.249537  0.925631  1
  V  V14  1  0.746936  0.867549  0.257946  1
  V  V15  1  0.120992  0.866642  0.076045  1
  V  V16  1  0.748611  0.881327  0.741517  1
  V  V17  1  0.132388  0.253821  0.408228  1
  C  C18  1  0.445617  0.220542  0.001127  1
  C  C19  1  0.773216  0.555975  0.664489  1
  C  C20  1  0.776977  0.223191  0.333013  1
  C  C21  1  0.128084  0.561327  0.001202  1
  C  C22  1  0.439942  0.876936  0.664688  1
  C  C23  1  0.435873  0.564408  0.333059  1
  C  C24  1  0.792480  0.894301  0.001075  1
  C  C25  1  0.103254  0.206905  0.665259  1
  C  C26  1  0.103703  0.896400  0.332968  1
  C  C27  1  0.427221  0.213985  0.498859  1
  C  C28  1  0.786423  0.572602  0.167030  1
  C  C29  1  0.781150  0.207424  0.835111  1
  C  C30  1  0.114100  0.557841  0.498476  1
  C  C31  1  0.443055  0.885517  0.167041  1
  C  C32  1  0.448101  0.557392  0.835172  1
