# generated using pymatgen
data_DyEr11Co4BiRu
_symmetry_space_group_name_H-M   'P 1'
_cell_length_a   8.25538045
_cell_length_b   8.25538083
_cell_length_c   8.25095446
_cell_angle_alpha   110.65887398
_cell_angle_beta   111.16375028
_cell_angle_gamma   106.65120821
_symmetry_Int_Tables_number   1
_chemical_formula_structural   DyEr11Co4BiRu
_chemical_formula_sum   'Dy1 Er11 Co4 Bi1 Ru1'
_cell_volume   431.95003161
_cell_formula_units_Z   1
loop_
 _symmetry_equiv_pos_site_id
 _symmetry_equiv_pos_as_xyz
  1  'x, y, z'
loop_
 _atom_site_type_symbol
 _atom_site_label
 _atom_site_symmetry_multiplicity
 _atom_site_fract_x
 _atom_site_fract_y
 _atom_site_fract_z
 _atom_site_occupancy
  Dy  Dy0  1  0.285013  0.183151  0.468164  1
  Er  Er1  1  0.715649  0.817747  0.533396  1
  Er  Er2  1  0.284436  0.816867  0.101303  1
  Er  Er3  1  0.715759  0.182543  0.898300  1
  Er  Er4  1  0.620179  0.311310  0.308361  1
  Er  Er5  1  0.380172  0.689194  0.691563  1
  Er  Er6  1  0.002371  0.311392  0.691563  1
  Er  Er7  1  0.997049  0.688182  0.308361  1
  Er  Er8  1  0.211972  0.408618  0.195873  1
  Er  Er9  1  0.788200  0.591902  0.804037  1
  Er  Er10  1  0.212134  0.015837  0.804037  1
  Er  Er11  1  0.787256  0.983901  0.195873  1
  Co  Co12  1  0.999778  0.375479  0.375257  1
  Co  Co13  1  0.999895  0.624712  0.624607  1
  Co  Co14  1  0.388964  0.888177  0.500056  1
  Co  Co15  1  0.611879  0.111092  0.500056  1
  Bi  Bi16  1  0.499988  0.500036  0.000023  1
  Ru  Ru17  1  0.999308  0.999859  0.999167  1
