# generated using pymatgen
data_HfZr3Ga2(SbPt2)2
_symmetry_space_group_name_H-M   'P 1'
_cell_length_a   6.33298363
_cell_length_b   6.32545951
_cell_length_c   7.74250948
_cell_angle_alpha   65.87479018
_cell_angle_beta   65.84431566
_cell_angle_gamma   89.96594880
_symmetry_Int_Tables_number   1
_chemical_formula_structural   HfZr3Ga2(SbPt2)2
_chemical_formula_sum   'Hf1 Zr3 Ga2 Sb2 Pt4'
_cell_volume   253.05456685
_cell_formula_units_Z   1
loop_
 _symmetry_equiv_pos_site_id
 _symmetry_equiv_pos_as_xyz
  1  'x, y, z'
loop_
 _atom_site_type_symbol
 _atom_site_label
 _atom_site_symmetry_multiplicity
 _atom_site_fract_x
 _atom_site_fract_y
 _atom_site_fract_z
 _atom_site_occupancy
  Hf  Hf0  1  0.244581  0.244581  0.510840  1
  Zr  Zr1  1  0.494663  0.994663  0.010675  1
  Zr  Zr2  1  0.755326  0.755326  0.489348  1
  Zr  Zr3  1  0.005285  0.505285  0.989431  1
  Ga  Ga4  1  0.000091  0.000091  0.999819  1
  Ga  Ga5  1  0.249976  0.749976  0.500049  1
  Sb  Sb6  1  0.500227  0.500227  0.999547  1
  Sb  Sb7  1  0.749961  0.249961  0.500080  1
  Pt  Pt8  1  0.621865  0.120608  0.252069  1
  Pt  Pt9  1  0.126066  0.627322  0.252071  1
  Pt  Pt10  1  0.883436  0.877981  0.748035  1
  Pt  Pt11  1  0.368529  0.373984  0.748035  1
