# generated using pymatgen
data_La4Zr3RuF28
_symmetry_space_group_name_H-M   'P 1'
_cell_length_a   5.88520006
_cell_length_b   9.42057419
_cell_length_c   12.64485800
_cell_angle_alpha   62.15552632
_cell_angle_beta   89.99180265
_cell_angle_gamma   89.94176180
_symmetry_Int_Tables_number   1
_chemical_formula_structural   La4Zr3RuF28
_chemical_formula_sum   'La4 Zr3 Ru1 F28'
_cell_volume   619.88624390
_cell_formula_units_Z   1
loop_
 _symmetry_equiv_pos_site_id
 _symmetry_equiv_pos_as_xyz
  1  'x, y, z'
loop_
 _atom_site_type_symbol
 _atom_site_label
 _atom_site_symmetry_multiplicity
 _atom_site_fract_x
 _atom_site_fract_y
 _atom_site_fract_z
 _atom_site_occupancy
  La  La0  1  0.758459  0.811281  0.260428  1
  La  La1  1  0.257992  0.188128  0.234691  1
  La  La2  1  0.242584  0.186367  0.734812  1
  La  La3  1  0.742634  0.810643  0.769561  1
  Zr  Zr4  1  0.245089  0.725665  0.542949  1
  Zr  Zr5  1  0.745872  0.275121  0.956778  1
  Zr  Zr6  1  0.754831  0.274353  0.457014  1
  Ru  Ru7  1  0.256890  0.725051  0.044189  1
  F  F8  1  0.958892  0.717489  0.453227  1
  F  F9  1  0.456894  0.284994  0.043877  1
  F  F10  1  0.043165  0.283845  0.544845  1
  F  F11  1  0.533124  0.716683  0.957605  1
  F  F12  1  0.061653  0.710113  0.923004  1
  F  F13  1  0.549273  0.289913  0.580620  1
  F  F14  1  0.950174  0.289325  0.081042  1
  F  F15  1  0.451769  0.711677  0.419041  1
  F  F16  1  0.734849  0.518467  0.860618  1
  F  F17  1  0.231515  0.481518  0.640360  1
  F  F18  1  0.264351  0.496011  0.136565  1
  F  F19  1  0.768527  0.517932  0.358879  1
  F  F20  1  0.738621  0.031845  0.052834  1
  F  F21  1  0.239121  0.969627  0.444987  1
  F  F22  1  0.258040  0.954157  0.953859  1
  F  F23  1  0.761707  0.031590  0.555860  1
  F  F24  1  0.044883  0.744883  0.668832  1
  F  F25  1  0.546489  0.254383  0.831495  1
  F  F26  1  0.952434  0.255691  0.330503  1
  F  F27  1  0.449747  0.741251  0.166525  1
  F  F28  1  0.022889  0.266343  0.862845  1
  F  F29  1  0.519147  0.732091  0.639612  1
  F  F30  1  0.985863  0.730959  0.133635  1
  F  F31  1  0.478698  0.269601  0.361008  1
  F  F32  1  0.083920  0.970335  0.232431  1
  F  F33  1  0.584144  0.030971  0.265656  1
  F  F34  1  0.912211  0.033400  0.768420  1
  F  F35  1  0.413547  0.968298  0.731390  1
