# generated using pymatgen
data_Sr13La7Sn7Sb9
_symmetry_space_group_name_H-M   'P 1'
_cell_length_a   8.66734665
_cell_length_b   8.66035373
_cell_length_c   16.85208602
_cell_angle_alpha   90.05739912
_cell_angle_beta   90.08800695
_cell_angle_gamma   89.94489486
_symmetry_Int_Tables_number   1
_chemical_formula_structural   Sr13La7Sn7Sb9
_chemical_formula_sum   'Sr13 La7 Sn7 Sb9'
_cell_volume   1264.95342193
_cell_formula_units_Z   1
loop_
 _symmetry_equiv_pos_site_id
 _symmetry_equiv_pos_as_xyz
  1  'x, y, z'
loop_
 _atom_site_type_symbol
 _atom_site_label
 _atom_site_symmetry_multiplicity
 _atom_site_fract_x
 _atom_site_fract_y
 _atom_site_fract_z
 _atom_site_occupancy
  Sr  Sr0  1  0.963938  0.823577  0.902120  1
  Sr  Sr1  1  0.471086  0.678027  0.598193  1
  Sr  Sr2  1  0.534841  0.324025  0.101497  1
  Sr  Sr3  1  0.031680  0.179788  0.399481  1
  Sr  Sr4  1  0.962648  0.821812  0.596353  1
  Sr  Sr5  1  0.469965  0.678472  0.901837  1
  Sr  Sr6  1  0.537214  0.324265  0.398932  1
  Sr  Sr7  1  0.032748  0.177800  0.100974  1
  Sr  Sr8  1  0.884335  0.658790  0.385316  1
  Sr  Sr9  1  0.281530  0.995991  0.749588  1
  Sr  Sr10  1  0.780976  0.504940  0.749850  1
  Sr  Sr11  1  0.215164  0.495574  0.251312  1
  Sr  Sr12  1  0.718505  0.003132  0.251309  1
  La  La13  1  0.383761  0.840178  0.115567  1
  La  La14  1  0.617580  0.156731  0.612717  1
  La  La15  1  0.116691  0.339133  0.886362  1
  La  La16  1  0.117326  0.339722  0.613676  1
  La  La17  1  0.617917  0.157189  0.887776  1
  La  La18  1  0.382655  0.841389  0.384351  1
  La  La19  1  0.884081  0.658854  0.115522  1
  Sn  Sn20  1  0.667102  0.881021  0.750583  1
  Sn  Sn21  1  0.333806  0.121324  0.249879  1
  Sn  Sn22  1  0.829741  0.377654  0.247580  1
  Sn  Sn23  1  0.908325  0.123361  0.750502  1
  Sn  Sn24  1  0.407103  0.378309  0.750427  1
  Sn  Sn25  1  0.586717  0.621955  0.246289  1
  Sn  Sn26  1  0.093623  0.879246  0.247147  1
  Sb  Sb27  1  0.782439  0.465121  0.549601  1
  Sb  Sb28  1  0.280514  0.031619  0.953506  1
  Sb  Sb29  1  0.715439  0.971505  0.456067  1
  Sb  Sb30  1  0.218795  0.533602  0.042642  1
  Sb  Sb31  1  0.226240  0.531475  0.458496  1
  Sb  Sb32  1  0.717986  0.966079  0.044226  1
  Sb  Sb33  1  0.278711  0.030996  0.546297  1
  Sb  Sb34  1  0.782808  0.467296  0.953696  1
  Sb  Sb35  1  0.166014  0.620046  0.750329  1
