# generated using pymatgen
data_K2Be3AlAs4
_symmetry_space_group_name_H-M   'P 1'
_cell_length_a   7.87002804
_cell_length_b   7.87002887
_cell_length_c   5.33721900
_cell_angle_alpha   90.00000000
_cell_angle_beta   90.00000000
_cell_angle_gamma   140.28487471
_symmetry_Int_Tables_number   1
_chemical_formula_structural   K2Be3AlAs4
_chemical_formula_sum   'K2 Be3 Al1 As4'
_cell_volume   211.22665056
_cell_formula_units_Z   1
loop_
 _symmetry_equiv_pos_site_id
 _symmetry_equiv_pos_as_xyz
  1  'x, y, z'
loop_
 _atom_site_type_symbol
 _atom_site_label
 _atom_site_symmetry_multiplicity
 _atom_site_fract_x
 _atom_site_fract_y
 _atom_site_fract_z
 _atom_site_occupancy
  K  K0  1  0.500000  0.000000  0.246050  1
  K  K1  1  0.000000  0.500000  0.753950  1
  Be  Be2  1  0.500000  0.500000  0.500000  1
  Be  Be3  1  0.500000  0.500000  0.000000  1
  Be  Be4  1  0.000000  0.000000  0.500000  1
  Al  Al5  1  0.000000  0.000000  0.000000  1
  As  As6  1  0.639036  0.836526  0.738003  1
  As  As7  1  0.163474  0.360964  0.261997  1
  As  As8  1  0.836526  0.639036  0.261997  1
  As  As9  1  0.360964  0.163474  0.738003  1
