# generated using pymatgen
data_Li(SmIr)2
_symmetry_space_group_name_H-M   'P 1'
_cell_length_a   5.54649102
_cell_length_b   5.54649063
_cell_length_c   5.54649114
_cell_angle_alpha   135.29273097
_cell_angle_beta   115.42375288
_cell_angle_gamma   81.95099719
_symmetry_Int_Tables_number   1
_chemical_formula_structural   Li(SmIr)2
_chemical_formula_sum   'Li1 Sm2 Ir2'
_cell_volume   104.68705410
_cell_formula_units_Z   1
loop_
 _symmetry_equiv_pos_site_id
 _symmetry_equiv_pos_as_xyz
  1  'x, y, z'
loop_
 _atom_site_type_symbol
 _atom_site_label
 _atom_site_symmetry_multiplicity
 _atom_site_fract_x
 _atom_site_fract_y
 _atom_site_fract_z
 _atom_site_occupancy
  Li  Li0  1  0.000000  0.000000  0.000000  1
  Sm  Sm1  1  0.705159  0.205159  0.500000  1
  Sm  Sm2  1  0.294840  0.794841  0.500001  1
  Ir  Ir3  1  0.729293  0.500000  0.229294  1
  Ir  Ir4  1  0.270706  0.500001  0.770706  1
