# generated using pymatgen
data_Dy4Lu(SnPb)2
_symmetry_space_group_name_H-M   'P 1'
_cell_length_a   8.13260600
_cell_length_b   8.14832700
_cell_length_c   15.57606400
_cell_angle_alpha   90.00000000
_cell_angle_beta   90.00000000
_cell_angle_gamma   90.00000000
_symmetry_Int_Tables_number   1
_chemical_formula_structural   Dy4Lu(SnPb)2
_chemical_formula_sum   'Dy16 Lu4 Sn8 Pb8'
_cell_volume   1032.18110549
_cell_formula_units_Z   4
loop_
 _symmetry_equiv_pos_site_id
 _symmetry_equiv_pos_as_xyz
  1  'x, y, z'
loop_
 _atom_site_type_symbol
 _atom_site_label
 _atom_site_symmetry_multiplicity
 _atom_site_fract_x
 _atom_site_fract_y
 _atom_site_fract_z
 _atom_site_occupancy
  Dy  Dy0  1  0.379341  0.838929  0.877207  1
  Dy  Dy1  1  0.879341  0.661071  0.622793  1
  Dy  Dy2  1  0.620659  0.161071  0.377207  1
  Dy  Dy3  1  0.120659  0.338929  0.122793  1
  Dy  Dy4  1  0.620659  0.161071  0.122793  1
  Dy  Dy5  1  0.120659  0.338929  0.377207  1
  Dy  Dy6  1  0.379341  0.838929  0.622793  1
  Dy  Dy7  1  0.879341  0.661071  0.877207  1
  Dy  Dy8  1  0.534583  0.323832  0.896814  1
  Dy  Dy9  1  0.034583  0.176168  0.603186  1
  Dy  Dy10  1  0.465417  0.676168  0.396814  1
  Dy  Dy11  1  0.965417  0.823832  0.103186  1
  Dy  Dy12  1  0.465417  0.676168  0.103186  1
  Dy  Dy13  1  0.965417  0.823832  0.396814  1
  Dy  Dy14  1  0.534583  0.323832  0.603186  1
  Dy  Dy15  1  0.034583  0.176168  0.896814  1
  Lu  Lu16  1  0.209853  0.503759  0.750000  1
  Lu  Lu17  1  0.709853  0.996241  0.750000  1
  Lu  Lu18  1  0.790147  0.496241  0.250000  1
  Lu  Lu19  1  0.290147  0.003759  0.250000  1
  Sn  Sn20  1  0.575117  0.622597  0.750000  1
  Sn  Sn21  1  0.075117  0.877403  0.750000  1
  Sn  Sn22  1  0.424883  0.377403  0.250000  1
  Sn  Sn23  1  0.924883  0.122597  0.250000  1
  Sn  Sn24  1  0.342815  0.149356  0.750000  1
  Sn  Sn25  1  0.842815  0.350644  0.750000  1
  Sn  Sn26  1  0.657185  0.850644  0.250000  1
  Sn  Sn27  1  0.157185  0.649356  0.250000  1
  Pb  Pb28  1  0.281962  0.032736  0.042174  1
  Pb  Pb29  1  0.781962  0.467264  0.457826  1
  Pb  Pb30  1  0.718038  0.967264  0.542174  1
  Pb  Pb31  1  0.218038  0.532736  0.957826  1
  Pb  Pb32  1  0.718038  0.967264  0.957826  1
  Pb  Pb33  1  0.218038  0.532736  0.542174  1
  Pb  Pb34  1  0.281962  0.032736  0.457826  1
  Pb  Pb35  1  0.781962  0.467264  0.042174  1
