# generated using pymatgen
data_DyTh3(Si5Rh3)2
_symmetry_space_group_name_H-M   'P 1'
_cell_length_a   8.23729874
_cell_length_b   8.22170086
_cell_length_c   5.90297202
_cell_angle_alpha   68.96708488
_cell_angle_beta   69.00787916
_cell_angle_gamma   90.57682193
_symmetry_Int_Tables_number   1
_chemical_formula_structural   DyTh3(Si5Rh3)2
_chemical_formula_sum   'Dy1 Th3 Si10 Rh6'
_cell_volume   343.93836501
_cell_formula_units_Z   1
loop_
 _symmetry_equiv_pos_site_id
 _symmetry_equiv_pos_as_xyz
  1  'x, y, z'
loop_
 _atom_site_type_symbol
 _atom_site_label
 _atom_site_symmetry_multiplicity
 _atom_site_fract_x
 _atom_site_fract_y
 _atom_site_fract_z
 _atom_site_occupancy
  Dy  Dy0  1  0.601526  0.862094  0.268673  1
  Th  Th1  1  0.862962  0.602311  0.767236  1
  Th  Th2  1  0.136047  0.397601  0.233149  1
  Th  Th3  1  0.400171  0.136223  0.731634  1
  Si  Si4  1  0.774229  0.223075  0.753352  1
  Si  Si5  1  0.227148  0.774381  0.247997  1
  Si  Si6  1  0.499610  0.503040  0.746038  1
  Si  Si7  1  0.499687  0.503068  0.251278  1
  Si  Si8  1  0.226767  0.774348  0.751027  1
  Si  Si9  1  0.774357  0.222922  0.248965  1
  Si  Si10  1  0.261474  0.042310  0.347733  1
  Si  Si11  1  0.739507  0.955515  0.653048  1
  Si  Si12  1  0.951591  0.743026  0.153102  1
  Si  Si13  1  0.044045  0.258899  0.848091  1
  Rh  Rh14  1  0.527972  0.250830  0.110411  1
  Rh  Rh15  1  0.748601  0.472488  0.389281  1
  Rh  Rh16  1  0.473360  0.749659  0.888586  1
  Rh  Rh17  1  0.249398  0.527887  0.611396  1
  Rh  Rh18  1  0.000616  0.000363  0.250759  1
  Rh  Rh19  1  0.000930  0.999961  0.748245  1
