# generated using pymatgen
data_NaCe4SnSe8
_symmetry_space_group_name_H-M   'P 1'
_cell_length_a   7.75599694
_cell_length_b   7.75599773
_cell_length_c   7.75599848
_cell_angle_alpha   109.59519348
_cell_angle_beta   109.59519732
_cell_angle_gamma   109.22355495
_symmetry_Int_Tables_number   1
_chemical_formula_structural   NaCe4SnSe8
_chemical_formula_sum   'Na1 Ce4 Sn1 Se8'
_cell_volume   359.15758433
_cell_formula_units_Z   1
loop_
 _symmetry_equiv_pos_site_id
 _symmetry_equiv_pos_as_xyz
  1  'x, y, z'
loop_
 _atom_site_type_symbol
 _atom_site_label
 _atom_site_symmetry_multiplicity
 _atom_site_fract_x
 _atom_site_fract_y
 _atom_site_fract_z
 _atom_site_occupancy
  Na  Na0  1  0.500000  0.500000  0.000000  1
  Ce  Ce1  1  0.004241  0.620900  0.879828  1
  Ce  Ce2  1  0.875587  0.995759  0.616659  1
  Ce  Ce3  1  0.741072  0.124413  0.120172  1
  Ce  Ce4  1  0.379100  0.258928  0.383341  1
  Sn  Sn5  1  0.250000  0.750000  0.500000  1
  Se  Se6  1  0.114592  0.364971  0.100922  1
  Se  Se7  1  0.118454  0.368223  0.598946  1
  Se  Se8  1  0.769277  0.519508  0.401054  1
  Se  Se9  1  0.635029  0.735951  0.749620  1
  Se  Se10  1  0.264049  0.013669  0.899078  1
  Se  Se11  1  0.480492  0.881546  0.249769  1
  Se  Se12  1  0.986331  0.885408  0.250380  1
  Se  Se13  1  0.631777  0.230723  0.750231  1
