# generated using pymatgen
data_CsRb2MoSe4
_symmetry_space_group_name_H-M   'P 1'
_cell_length_a   10.25152600
_cell_length_b   10.39574900
_cell_length_c   11.44042600
_cell_angle_alpha   90.00000000
_cell_angle_beta   90.00000000
_cell_angle_gamma   90.00000000
_symmetry_Int_Tables_number   1
_chemical_formula_structural   CsRb2MoSe4
_chemical_formula_sum   'Cs4 Rb8 Mo4 Se16'
_cell_volume   1219.23241070
_cell_formula_units_Z   4
loop_
 _symmetry_equiv_pos_site_id
 _symmetry_equiv_pos_as_xyz
  1  'x, y, z'
loop_
 _atom_site_type_symbol
 _atom_site_label
 _atom_site_symmetry_multiplicity
 _atom_site_fract_x
 _atom_site_fract_y
 _atom_site_fract_z
 _atom_site_occupancy
  Cs  Cs0  1  0.643482  0.915426  0.250000  1
  Cs  Cs1  1  0.143482  0.584574  0.250000  1
  Cs  Cs2  1  0.856518  0.415426  0.750000  1
  Cs  Cs3  1  0.356518  0.084574  0.750000  1
  Rb  Rb4  1  0.052128  0.793886  0.954760  1
  Rb  Rb5  1  0.552128  0.706114  0.545240  1
  Rb  Rb6  1  0.447872  0.293886  0.045240  1
  Rb  Rb7  1  0.947872  0.206114  0.454760  1
  Rb  Rb8  1  0.947872  0.206114  0.045240  1
  Rb  Rb9  1  0.447872  0.293886  0.454760  1
  Rb  Rb10  1  0.552128  0.706114  0.954760  1
  Rb  Rb11  1  0.052128  0.793886  0.545240  1
  Mo  Mo12  1  0.780912  0.982492  0.750000  1
  Mo  Mo13  1  0.219088  0.017508  0.250000  1
  Mo  Mo14  1  0.719088  0.482492  0.250000  1
  Mo  Mo15  1  0.280912  0.517508  0.750000  1
  Se  Se16  1  0.332371  0.952975  0.078680  1
  Se  Se17  1  0.832371  0.547025  0.421320  1
  Se  Se18  1  0.167629  0.452975  0.921320  1
  Se  Se19  1  0.667629  0.047025  0.578680  1
  Se  Se20  1  0.005278  0.925469  0.250000  1
  Se  Se21  1  0.505278  0.574531  0.250000  1
  Se  Se22  1  0.494722  0.425469  0.750000  1
  Se  Se23  1  0.994722  0.074531  0.750000  1
  Se  Se24  1  0.667629  0.047025  0.921320  1
  Se  Se25  1  0.332371  0.952975  0.421320  1
  Se  Se26  1  0.832371  0.547025  0.078680  1
  Se  Se27  1  0.167629  0.452975  0.578680  1
  Se  Se28  1  0.799267  0.754062  0.750000  1
  Se  Se29  1  0.299267  0.745938  0.750000  1
  Se  Se30  1  0.700733  0.254062  0.250000  1
  Se  Se31  1  0.200733  0.245938  0.250000  1
