# generated using pymatgen
data_Cs2MnWS4
_symmetry_space_group_name_H-M   'P 1'
_cell_length_a   14.51111703
_cell_length_b   12.90645140
_cell_length_c   7.71406164
_cell_angle_alpha   85.53238718
_cell_angle_beta   62.46341365
_cell_angle_gamma   32.00420468
_symmetry_Int_Tables_number   1
_chemical_formula_structural   Cs2MnWS4
_chemical_formula_sum   'Cs4 Mn2 W2 S8'
_cell_volume   504.94788181
_cell_formula_units_Z   2
loop_
 _symmetry_equiv_pos_site_id
 _symmetry_equiv_pos_as_xyz
  1  'x, y, z'
loop_
 _atom_site_type_symbol
 _atom_site_label
 _atom_site_symmetry_multiplicity
 _atom_site_fract_x
 _atom_site_fract_y
 _atom_site_fract_z
 _atom_site_occupancy
  Cs  Cs0  1  0.573440  0.573440  0.926560  1
  Cs  Cs1  1  0.926560  0.926560  0.573440  1
  Cs  Cs2  1  0.323440  0.323440  0.676560  1
  Cs  Cs3  1  0.676560  0.676560  0.323440  1
  Mn  Mn4  1  0.000000  0.000000  0.000000  1
  Mn  Mn5  1  0.250000  0.250000  0.250000  1
  W  W6  1  0.750000  0.750000  0.750000  1
  W  W7  1  0.500000  0.500000  0.500000  1
  S  S8  1  0.213392  0.887449  0.607192  1
  S  S9  1  0.291967  0.607192  0.887449  1
  S  S10  1  0.607192  0.291967  0.213392  1
  S  S11  1  0.887449  0.213392  0.291967  1
  S  S12  1  0.362551  0.036608  0.958033  1
  S  S13  1  0.958033  0.642808  0.362551  1
  S  S14  1  0.642808  0.958033  0.036608  1
  S  S15  1  0.036608  0.362551  0.642808  1
