# generated using pymatgen
data_CaTb(Al5Ru)4
_symmetry_space_group_name_H-M   'P 1'
_cell_length_a   6.87615667
_cell_length_b   6.87615742
_cell_length_c   9.15102000
_cell_angle_alpha   90.00000000
_cell_angle_beta   90.00000000
_cell_angle_gamma   96.76221570
_symmetry_Int_Tables_number   1
_chemical_formula_structural   CaTb(Al5Ru)4
_chemical_formula_sum   'Ca1 Tb1 Al20 Ru4'
_cell_volume   429.66432612
_cell_formula_units_Z   1
loop_
 _symmetry_equiv_pos_site_id
 _symmetry_equiv_pos_as_xyz
  1  'x, y, z'
loop_
 _atom_site_type_symbol
 _atom_site_label
 _atom_site_symmetry_multiplicity
 _atom_site_fract_x
 _atom_site_fract_y
 _atom_site_fract_z
 _atom_site_occupancy
  Ca  Ca0  1  0.874145  0.125855  0.750000  1
  Tb  Tb1  1  0.125286  0.874714  0.250000  1
  Al  Al2  1  0.623424  0.376576  0.545024  1
  Al  Al3  1  0.377025  0.622975  0.449961  1
  Al  Al4  1  0.377025  0.622975  0.050039  1
  Al  Al5  1  0.623424  0.376576  0.954976  1
  Al  Al6  1  0.225317  0.226492  0.499682  1
  Al  Al7  1  0.773508  0.774683  0.499682  1
  Al  Al8  1  0.773508  0.774683  0.000318  1
  Al  Al9  1  0.225317  0.226492  0.000318  1
  Al  Al10  1  0.845037  0.154963  0.098667  1
  Al  Al11  1  0.158387  0.841613  0.900649  1
  Al  Al12  1  0.158387  0.841613  0.599351  1
  Al  Al13  1  0.845037  0.154963  0.401333  1
  Al  Al14  1  0.859932  0.588028  0.750000  1
  Al  Al15  1  0.139590  0.413496  0.250000  1
  Al  Al16  1  0.411972  0.140068  0.750000  1
  Al  Al17  1  0.586504  0.860410  0.250000  1
  Al  Al18  1  0.220085  0.476764  0.750000  1
  Al  Al19  1  0.779234  0.521103  0.250000  1
  Al  Al20  1  0.523236  0.779915  0.750000  1
  Al  Al21  1  0.478897  0.220766  0.250000  1
  Ru  Ru22  1  0.999811  0.501949  0.499104  1
  Ru  Ru23  1  0.999811  0.501949  0.000896  1
  Ru  Ru24  1  0.498051  0.000189  0.000896  1
  Ru  Ru25  1  0.498051  0.000189  0.499104  1
