# generated using pymatgen
data_Dy8Nb12Si15As
_symmetry_space_group_name_H-M   'P 1'
_cell_length_a   6.89187975
_cell_length_b   7.08790889
_cell_length_c   13.44024015
_cell_angle_alpha   90.04272510
_cell_angle_beta   89.80687886
_cell_angle_gamma   90.06945251
_symmetry_Int_Tables_number   1
_chemical_formula_structural   Dy8Nb12Si15As
_chemical_formula_sum   'Dy8 Nb12 Si15 As1'
_cell_volume   656.53811036
_cell_formula_units_Z   1
loop_
 _symmetry_equiv_pos_site_id
 _symmetry_equiv_pos_as_xyz
  1  'x, y, z'
loop_
 _atom_site_type_symbol
 _atom_site_label
 _atom_site_symmetry_multiplicity
 _atom_site_fract_x
 _atom_site_fract_y
 _atom_site_fract_z
 _atom_site_occupancy
  Dy  Dy0  1  0.503091  0.328525  0.096304  1
  Dy  Dy1  1  0.001548  0.172797  0.403949  1
  Dy  Dy2  1  0.501016  0.673758  0.597218  1
  Dy  Dy3  1  0.996741  0.828291  0.904231  1
  Dy  Dy4  1  0.496919  0.671443  0.904125  1
  Dy  Dy5  1  0.997609  0.827508  0.596197  1
  Dy  Dy6  1  0.502529  0.326902  0.402628  1
  Dy  Dy7  1  0.003146  0.171781  0.095903  1
  Nb  Nb8  1  0.663357  0.007587  0.749744  1
  Nb  Nb9  1  0.163965  0.491526  0.751266  1
  Nb  Nb10  1  0.336527  0.992352  0.250293  1
  Nb  Nb11  1  0.836451  0.507383  0.250135  1
  Nb  Nb12  1  0.838286  0.325844  0.625001  1
  Nb  Nb13  1  0.337607  0.174784  0.874339  1
  Nb  Nb14  1  0.161612  0.675107  0.125863  1
  Nb  Nb15  1  0.660286  0.826231  0.373820  1
  Nb  Nb16  1  0.160118  0.675686  0.373509  1
  Nb  Nb17  1  0.661466  0.825069  0.125626  1
  Nb  Nb18  1  0.838151  0.325253  0.874156  1
  Nb  Nb19  1  0.340946  0.171017  0.626776  1
  Si  Si20  1  0.797300  0.626471  0.750495  1
  Si  Si21  1  0.296987  0.873055  0.750880  1
  Si  Si22  1  0.203078  0.373645  0.249531  1
  Si  Si23  1  0.703365  0.126173  0.249355  1
  Si  Si24  1  0.543046  0.375998  0.750405  1
  Si  Si25  1  0.041866  0.123336  0.750150  1
  Si  Si26  1  0.457330  0.623285  0.249786  1
  Si  Si27  1  0.956819  0.876575  0.249401  1
  Si  Si28  1  0.664316  0.037809  0.540586  1
  Si  Si29  1  0.162478  0.462770  0.959121  1
  Si  Si30  1  0.337070  0.963118  0.041050  1
  Si  Si31  1  0.827015  0.540202  0.456990  1
  Si  Si32  1  0.336468  0.962483  0.458989  1
  Si  Si33  1  0.837275  0.537175  0.041179  1
  Si  Si34  1  0.662634  0.037295  0.959221  1
  As  As35  1  0.171581  0.461768  0.541777  1
