# generated using pymatgen
data_YTm3Lu4(CoB6)4
_symmetry_space_group_name_H-M   'P 1'
_cell_length_a   3.51166000
_cell_length_b   8.99775500
_cell_length_c   11.35642105
_cell_angle_alpha   90.00334694
_cell_angle_beta   90.00000000
_cell_angle_gamma   90.00000000
_symmetry_Int_Tables_number   1
_chemical_formula_structural   YTm3Lu4(CoB6)4
_chemical_formula_sum   'Y1 Tm3 Lu4 Co4 B24'
_cell_volume   358.82947495
_cell_formula_units_Z   1
loop_
 _symmetry_equiv_pos_site_id
 _symmetry_equiv_pos_as_xyz
  1  'x, y, z'
loop_
 _atom_site_type_symbol
 _atom_site_label
 _atom_site_symmetry_multiplicity
 _atom_site_fract_x
 _atom_site_fract_y
 _atom_site_fract_z
 _atom_site_occupancy
  Y  Y0  1  0.000000  0.675943  0.585376  1
  Tm  Tm1  1  0.000000  0.823921  0.085314  1
  Tm  Tm2  1  0.000000  0.175902  0.914677  1
  Tm  Tm3  1  0.000000  0.324034  0.414678  1
  Lu  Lu4  1  0.000000  0.443712  0.129338  1
  Lu  Lu5  1  0.000000  0.556000  0.870877  1
  Lu  Lu6  1  0.000000  0.944159  0.370550  1
  Lu  Lu7  1  0.000000  0.056541  0.629323  1
  Co  Co8  1  0.000000  0.140176  0.180075  1
  Co  Co9  1  0.000000  0.859863  0.820130  1
  Co  Co10  1  0.000000  0.640324  0.319457  1
  Co  Co11  1  0.000000  0.359366  0.680179  1
  B  B12  1  0.500000  0.053657  0.067051  1
  B  B13  1  0.500000  0.946120  0.932947  1
  B  B14  1  0.500000  0.553360  0.432324  1
  B  B15  1  0.500000  0.445537  0.567021  1
  B  B16  1  0.500000  0.247984  0.081949  1
  B  B17  1  0.500000  0.751759  0.918214  1
  B  B18  1  0.500000  0.748392  0.417247  1
  B  B19  1  0.500000  0.251846  0.581893  1
  B  B20  1  0.500000  0.292730  0.236015  1
  B  B21  1  0.500000  0.707554  0.764795  1
  B  B22  1  0.500000  0.792798  0.263873  1
  B  B23  1  0.500000  0.207303  0.736016  1
  B  B24  1  0.500000  0.133671  0.316137  1
  B  B25  1  0.500000  0.867169  0.684352  1
  B  B26  1  0.500000  0.633569  0.183896  1
  B  B27  1  0.500000  0.366364  0.816203  1
  B  B28  1  0.500000  0.485379  0.288253  1
  B  B29  1  0.500000  0.513728  0.712042  1
  B  B30  1  0.500000  0.985527  0.211578  1
  B  B31  1  0.500000  0.014625  0.788408  1
  B  B32  1  0.500000  0.106181  0.471450  1
  B  B33  1  0.500000  0.895016  0.528334  1
  B  B34  1  0.500000  0.605874  0.028586  1
  B  B35  1  0.500000  0.393916  0.971442  1
