# generated using pymatgen
data_Tb3Al2Co6Ni3B4
_symmetry_space_group_name_H-M   'P 1'
_cell_length_a   5.16298220
_cell_length_b   5.14807622
_cell_length_c   9.57603800
_cell_angle_alpha   89.99983708
_cell_angle_beta   89.99999835
_cell_angle_gamma   120.13915090
_symmetry_Int_Tables_number   1
_chemical_formula_structural   Tb3Al2Co6Ni3B4
_chemical_formula_sum   'Tb3 Al2 Co6 Ni3 B4'
_cell_volume   220.11590364
_cell_formula_units_Z   1
loop_
 _symmetry_equiv_pos_site_id
 _symmetry_equiv_pos_as_xyz
  1  'x, y, z'
loop_
 _atom_site_type_symbol
 _atom_site_label
 _atom_site_symmetry_multiplicity
 _atom_site_fract_x
 _atom_site_fract_y
 _atom_site_fract_z
 _atom_site_occupancy
  Tb  Tb0  1  0.000000  0.000017  0.996403  1
  Tb  Tb1  1  0.000014  0.000027  0.341357  1
  Tb  Tb2  1  0.000003  0.000016  0.659125  1
  Al  Al3  1  0.332929  0.662188  0.999155  1
  Al  Al4  1  0.667072  0.337842  0.999158  1
  Co  Co5  1  0.500009  0.000024  0.499736  1
  Co  Co6  1  0.500011  0.500022  0.499971  1
  Co  Co7  1  0.000005  0.500021  0.500160  1
  Co  Co8  1  0.500010  0.500028  0.208716  1
  Co  Co9  1  0.499994  0.500019  0.791655  1
  Co  Co10  1  0.000013  0.500020  0.792785  1
  Ni  Ni11  1  0.500040  0.999927  0.205346  1
  Ni  Ni12  1  0.000023  0.499994  0.207020  1
  Ni  Ni13  1  0.499757  0.999774  0.794903  1
  B  B14  1  0.335991  0.664763  0.351757  1
  B  B15  1  0.664028  0.335282  0.351760  1
  B  B16  1  0.669683  0.338468  0.650495  1
  B  B17  1  0.330321  0.661566  0.650501  1
