# generated using pymatgen
data_Dy16ZnCd(Co2Hg)2
_symmetry_space_group_name_H-M   'P 1'
_cell_length_a   9.43233702
_cell_length_b   9.42863438
_cell_length_c   9.42534878
_cell_angle_alpha   59.98846188
_cell_angle_beta   60.07883799
_cell_angle_gamma   60.01297505
_symmetry_Int_Tables_number   1
_chemical_formula_structural   Dy16ZnCd(Co2Hg)2
_chemical_formula_sum   'Dy16 Zn1 Cd1 Co4 Hg2'
_cell_volume   593.08004517
_cell_formula_units_Z   1
loop_
 _symmetry_equiv_pos_site_id
 _symmetry_equiv_pos_as_xyz
  1  'x, y, z'
loop_
 _atom_site_type_symbol
 _atom_site_label
 _atom_site_symmetry_multiplicity
 _atom_site_fract_x
 _atom_site_fract_y
 _atom_site_fract_z
 _atom_site_occupancy
  Dy  Dy0  1  0.151692  0.541959  0.153050  1
  Dy  Dy1  1  0.690000  0.310152  0.689695  1
  Dy  Dy2  1  0.690340  0.308606  0.312125  1
  Dy  Dy3  1  0.938681  0.565797  0.558078  1
  Dy  Dy4  1  0.546099  0.151442  0.151016  1
  Dy  Dy5  1  0.150836  0.152768  0.543626  1
  Dy  Dy6  1  0.938681  0.937443  0.558078  1
  Dy  Dy7  1  0.310745  0.688800  0.311654  1
  Dy  Dy8  1  0.561854  0.938082  0.938578  1
  Dy  Dy9  1  0.565645  0.938329  0.557697  1
  Dy  Dy10  1  0.690340  0.688929  0.312125  1
  Dy  Dy11  1  0.561854  0.561484  0.938578  1
  Dy  Dy12  1  0.938849  0.561607  0.937936  1
  Dy  Dy13  1  0.312604  0.688110  0.689288  1
  Dy  Dy14  1  0.151692  0.153298  0.153050  1
  Dy  Dy15  1  0.312604  0.309998  0.689288  1
  Zn  Zn16  1  0.918849  0.918373  0.244407  1
  Cd  Cd17  1  0.238102  0.919116  0.923666  1
  Co  Co18  1  0.357988  0.359219  0.923577  1
  Co  Co19  1  0.358818  0.923021  0.358069  1
  Co  Co20  1  0.922273  0.359973  0.357783  1
  Co  Co21  1  0.358818  0.360092  0.358069  1
  Hg  Hg22  1  0.916316  0.248690  0.920281  1
  Hg  Hg23  1  0.916316  0.914712  0.920281  1
