# generated using pymatgen
data_KBr37
_symmetry_space_group_name_H-M   'P 1'
_cell_length_a   13.96322865
_cell_length_b   14.40356431
_cell_length_c   11.69842787
_cell_angle_alpha   108.16788192
_cell_angle_beta   58.85007499
_cell_angle_gamma   86.99016738
_symmetry_Int_Tables_number   1
_chemical_formula_structural   KBr37
_chemical_formula_sum   'K1 Br37'
_cell_volume   1845.86417571
_cell_formula_units_Z   1
loop_
 _symmetry_equiv_pos_site_id
 _symmetry_equiv_pos_as_xyz
  1  'x, y, z'
loop_
 _atom_site_type_symbol
 _atom_site_label
 _atom_site_symmetry_multiplicity
 _atom_site_fract_x
 _atom_site_fract_y
 _atom_site_fract_z
 _atom_site_occupancy
  K  K0  1  0.500000  0.000000  0.000000  1
  Br  Br1  1  0.762329  0.292598  0.127672  1
  Br  Br2  1  0.237671  0.707402  0.872328  1
  Br  Br3  1  0.686556  0.098414  0.383213  1
  Br  Br4  1  0.313444  0.901586  0.616787  1
  Br  Br5  1  0.062656  0.328975  0.175958  1
  Br  Br6  1  0.937344  0.671025  0.824042  1
  Br  Br7  1  0.835926  0.533680  0.261955  1
  Br  Br8  1  0.164074  0.466320  0.738045  1
  Br  Br9  1  0.661390  0.306172  0.529901  1
  Br  Br10  1  0.338610  0.693828  0.470099  1
  Br  Br11  1  0.937616  0.183574  0.469782  1
  Br  Br12  1  0.062384  0.816426  0.530218  1
  Br  Br13  1  0.881729  0.029575  0.330055  1
  Br  Br14  1  0.118271  0.970425  0.669945  1
  Br  Br15  1  0.002725  0.309243  0.585283  1
  Br  Br16  1  0.997275  0.690757  0.414717  1
  Br  Br17  1  0.574279  0.404078  0.231306  1
  Br  Br18  1  0.425721  0.595922  0.768694  1
  Br  Br19  1  0.125046  0.470173  0.302703  1
  Br  Br20  1  0.874954  0.529827  0.697297  1
  Br  Br21  1  0.000000  0.500000  0.000000  1
  Br  Br22  1  0.473861  0.862590  0.174549  1
  Br  Br23  1  0.526139  0.137410  0.825451  1
  Br  Br24  1  0.236064  0.983025  0.279854  1
  Br  Br25  1  0.763936  0.016975  0.720146  1
  Br  Br26  1  0.487689  0.140519  0.407478  1
  Br  Br27  1  0.512311  0.859481  0.592522  1
  Br  Br28  1  0.009028  0.186112  0.055105  1
  Br  Br29  1  0.990972  0.813888  0.944895  1
  Br  Br30  1  0.671728  0.694210  0.406985  1
  Br  Br31  1  0.328272  0.305790  0.593015  1
  Br  Br32  1  0.767839  0.145654  0.914169  1
  Br  Br33  1  0.232161  0.854346  0.085831  1
  Br  Br34  1  0.323822  0.221906  0.968364  1
  Br  Br35  1  0.676178  0.778094  0.031636  1
  Br  Br36  1  0.644445  0.479373  0.652303  1
  Br  Br37  1  0.355555  0.520627  0.347697  1
