# generated using pymatgen
data_Tb5CeAl24(FeRu3)2
_symmetry_space_group_name_H-M   'P 1'
_cell_length_a   8.80275571
_cell_length_b   8.81736369
_cell_length_c   9.49880500
_cell_angle_alpha   90.00000000
_cell_angle_beta   90.00000000
_cell_angle_gamma   120.05490842
_symmetry_Int_Tables_number   1
_chemical_formula_structural   Tb5CeAl24(FeRu3)2
_chemical_formula_sum   'Tb5 Ce1 Al24 Fe2 Ru6'
_cell_volume   638.14070780
_cell_formula_units_Z   1
loop_
 _symmetry_equiv_pos_site_id
 _symmetry_equiv_pos_as_xyz
  1  'x, y, z'
loop_
 _atom_site_type_symbol
 _atom_site_label
 _atom_site_symmetry_multiplicity
 _atom_site_fract_x
 _atom_site_fract_y
 _atom_site_fract_z
 _atom_site_occupancy
  Tb  Tb0  1  0.804687  0.192189  0.250000  1
  Tb  Tb1  1  0.804687  0.612498  0.250000  1
  Tb  Tb2  1  0.614998  0.807499  0.750000  1
  Tb  Tb3  1  0.193571  0.806007  0.750000  1
  Tb  Tb4  1  0.193571  0.387563  0.750000  1
  Ce  Ce5  1  0.387937  0.193969  0.250000  1
  Al  Al6  1  0.438183  0.875457  0.250000  1
  Al  Al7  1  0.121187  0.560594  0.250000  1
  Al  Al8  1  0.438183  0.562727  0.250000  1
  Al  Al9  1  0.560798  0.121300  0.750000  1
  Al  Al10  1  0.877434  0.438717  0.750000  1
  Al  Al11  1  0.560798  0.439498  0.750000  1
  Al  Al12  1  0.158261  0.840246  0.423657  1
  Al  Al13  1  0.158261  0.318016  0.423657  1
  Al  Al14  1  0.682105  0.841052  0.424200  1
  Al  Al15  1  0.841059  0.158463  0.576661  1
  Al  Al16  1  0.841059  0.682595  0.576661  1
  Al  Al17  1  0.317371  0.158684  0.577344  1
  Al  Al18  1  0.841059  0.158463  0.923339  1
  Al  Al19  1  0.841059  0.682595  0.923339  1
  Al  Al20  1  0.317371  0.158684  0.922656  1
  Al  Al21  1  0.158261  0.840246  0.076343  1
  Al  Al22  1  0.158261  0.318016  0.076343  1
  Al  Al23  1  0.682105  0.841052  0.075800  1
  Al  Al24  1  0.333963  0.666981  0.512166  1
  Al  Al25  1  0.668682  0.334341  0.490258  1
  Al  Al26  1  0.668682  0.334341  0.009742  1
  Al  Al27  1  0.333963  0.666981  0.987834  1
  Al  Al28  1  0.999230  0.999615  0.250000  1
  Al  Al29  1  0.001189  0.000595  0.750000  1
  Fe  Fe30  1  0.999603  0.999802  0.500011  1
  Fe  Fe31  1  0.999603  0.999802  0.999989  1
  Ru  Ru32  1  0.500189  0.000607  0.498979  1
  Ru  Ru33  1  0.001032  0.500516  0.500722  1
  Ru  Ru34  1  0.500189  0.499582  0.498979  1
  Ru  Ru35  1  0.500189  0.000607  0.001021  1
  Ru  Ru36  1  0.001032  0.500516  0.999278  1
  Ru  Ru37  1  0.500189  0.499582  0.001021  1
