# generated using pymatgen
data_Ce2Mn3Cr3P7Ir6
_symmetry_space_group_name_H-M   'P 1'
_cell_length_a   9.43063700
_cell_length_b   9.43063656
_cell_length_c   3.83980200
_cell_angle_alpha   90.00000000
_cell_angle_beta   90.00000000
_cell_angle_gamma   119.99999802
_symmetry_Int_Tables_number   1
_chemical_formula_structural   Ce2Mn3Cr3P7Ir6
_chemical_formula_sum   'Ce2 Mn3 Cr3 P7 Ir6'
_cell_volume   295.74778979
_cell_formula_units_Z   1
loop_
 _symmetry_equiv_pos_site_id
 _symmetry_equiv_pos_as_xyz
  1  'x, y, z'
loop_
 _atom_site_type_symbol
 _atom_site_label
 _atom_site_symmetry_multiplicity
 _atom_site_fract_x
 _atom_site_fract_y
 _atom_site_fract_z
 _atom_site_occupancy
  Ce  Ce0  1  0.000000  0.000000  0.000000  1
  Ce  Ce1  1  0.333333  0.666667  0.500000  1
  Mn  Mn2  1  0.823020  0.602124  0.000000  1
  Mn  Mn3  1  0.779105  0.176980  0.000000  1
  Mn  Mn4  1  0.397876  0.220895  0.000000  1
  Cr  Cr5  1  0.875635  0.431320  0.500000  1
  Cr  Cr6  1  0.555685  0.124365  0.500000  1
  Cr  Cr7  1  0.568680  0.444315  0.500000  1
  P  P8  1  0.069073  0.629025  0.000000  1
  P  P9  1  0.559952  0.930927  0.000000  1
  P  P10  1  0.370975  0.440048  0.000000  1
  P  P11  1  0.781262  0.723463  0.500000  1
  P  P12  1  0.942200  0.218738  0.500000  1
  P  P13  1  0.276537  0.057800  0.500000  1
  P  P14  1  0.666667  0.333333  0.000000  1
  Ir  Ir15  1  0.094906  0.398643  0.000000  1
  Ir  Ir16  1  0.303736  0.905094  0.000000  1
  Ir  Ir17  1  0.601357  0.696264  0.000000  1
  Ir  Ir18  1  0.053125  0.774335  0.500000  1
  Ir  Ir19  1  0.721208  0.946875  0.500000  1
  Ir  Ir20  1  0.225665  0.278792  0.500000  1
