# generated using pymatgen
data_Cs2Rb6Y6BeBr20
_symmetry_space_group_name_H-M   'P 1'
_cell_length_a   12.43928630
_cell_length_b   12.43928648
_cell_length_c   12.43928631
_cell_angle_alpha   59.72343090
_cell_angle_beta   59.72343179
_cell_angle_gamma   59.72343064
_symmetry_Int_Tables_number   1
_chemical_formula_structural   Cs2Rb6Y6BeBr20
_chemical_formula_sum   'Cs2 Rb6 Y6 Be1 Br20'
_cell_volume   1352.49245335
_cell_formula_units_Z   1
loop_
 _symmetry_equiv_pos_site_id
 _symmetry_equiv_pos_as_xyz
  1  'x, y, z'
loop_
 _atom_site_type_symbol
 _atom_site_label
 _atom_site_symmetry_multiplicity
 _atom_site_fract_x
 _atom_site_fract_y
 _atom_site_fract_z
 _atom_site_occupancy
  Cs  Cs0  1  0.356421  0.356421  0.356421  1
  Cs  Cs1  1  0.643579  0.643579  0.643579  1
  Rb  Rb2  1  0.359313  0.359313  0.921179  1
  Rb  Rb3  1  0.359313  0.921179  0.359313  1
  Rb  Rb4  1  0.640687  0.640687  0.078821  1
  Rb  Rb5  1  0.640687  0.078821  0.640687  1
  Rb  Rb6  1  0.921179  0.359313  0.359313  1
  Rb  Rb7  1  0.078821  0.640687  0.640687  1
  Y  Y8  1  0.844868  0.155035  0.155035  1
  Y  Y9  1  0.155132  0.844965  0.844965  1
  Y  Y10  1  0.155035  0.844868  0.155035  1
  Y  Y11  1  0.844965  0.155132  0.844965  1
  Y  Y12  1  0.155035  0.155035  0.844868  1
  Y  Y13  1  0.844965  0.844965  0.155132  1
  Be  Be14  1  0.000000  0.000000  0.000000  1
  Br  Br15  1  0.329776  0.998575  0.998575  1
  Br  Br16  1  0.670224  0.001425  0.001425  1
  Br  Br17  1  0.000000  0.330318  0.669682  1
  Br  Br18  1  0.000000  0.669682  0.330318  1
  Br  Br19  1  0.998575  0.329776  0.998575  1
  Br  Br20  1  0.669682  0.000000  0.330318  1
  Br  Br21  1  0.001425  0.670224  0.001425  1
  Br  Br22  1  0.330318  0.000000  0.669682  1
  Br  Br23  1  0.998575  0.998575  0.329776  1
  Br  Br24  1  0.001425  0.001425  0.670224  1
  Br  Br25  1  0.669682  0.330318  0.000000  1
  Br  Br26  1  0.330318  0.669682  0.000000  1
  Br  Br27  1  0.684030  0.319662  0.319662  1
  Br  Br28  1  0.315970  0.680338  0.680338  1
  Br  Br29  1  0.319662  0.684030  0.319662  1
  Br  Br30  1  0.680338  0.315970  0.680338  1
  Br  Br31  1  0.319662  0.319662  0.684030  1
  Br  Br32  1  0.680338  0.680338  0.315970  1
  Br  Br33  1  0.244712  0.244712  0.244712  1
  Br  Br34  1  0.755288  0.755288  0.755288  1
