# generated using pymatgen
data_La8Y2Ru3Rh
_symmetry_space_group_name_H-M   'P 1'
_cell_length_a   6.66662978
_cell_length_b   7.29647071
_cell_length_c   9.13894419
_cell_angle_alpha   94.67041515
_cell_angle_beta   111.37024233
_cell_angle_gamma   89.85695003
_symmetry_Int_Tables_number   1
_chemical_formula_structural   La8Y2Ru3Rh
_chemical_formula_sum   'La8 Y2 Ru3 Rh1'
_cell_volume   412.42843273
_cell_formula_units_Z   1
loop_
 _symmetry_equiv_pos_site_id
 _symmetry_equiv_pos_as_xyz
  1  'x, y, z'
loop_
 _atom_site_type_symbol
 _atom_site_label
 _atom_site_symmetry_multiplicity
 _atom_site_fract_x
 _atom_site_fract_y
 _atom_site_fract_z
 _atom_site_occupancy
  La  La0  1  0.985828  0.911812  0.180588  1
  La  La1  1  0.800009  0.594556  0.815850  1
  La  La2  1  0.016436  0.093499  0.816713  1
  La  La3  1  0.203720  0.405269  0.182458  1
  La  La4  1  0.633138  0.819525  0.424678  1
  La  La5  1  0.214589  0.682301  0.579830  1
  La  La6  1  0.363199  0.182805  0.575755  1
  La  La7  1  0.789077  0.315304  0.426474  1
  Y  Y8  1  0.430588  0.750943  0.999263  1
  Y  Y9  1  0.567715  0.247896  0.998333  1
  Ru  Ru10  1  0.605927  0.918601  0.780899  1
  Ru  Ru11  1  0.175297  0.421376  0.779712  1
  Ru  Ru12  1  0.395970  0.079254  0.221065  1
  Rh  Rh13  1  0.818507  0.576858  0.218381  1
