# generated using pymatgen
data_GdCrF7
_symmetry_space_group_name_H-M   'P 1'
_cell_length_a   5.56177800
_cell_length_b   8.90253549
_cell_length_c   11.84592178
_cell_angle_alpha   62.79226932
_cell_angle_beta   90.00000000
_cell_angle_gamma   90.00000000
_symmetry_Int_Tables_number   1
_chemical_formula_structural   GdCrF7
_chemical_formula_sum   'Gd4 Cr4 F28'
_cell_volume   521.64040553
_cell_formula_units_Z   4
loop_
 _symmetry_equiv_pos_site_id
 _symmetry_equiv_pos_as_xyz
  1  'x, y, z'
loop_
 _atom_site_type_symbol
 _atom_site_label
 _atom_site_symmetry_multiplicity
 _atom_site_fract_x
 _atom_site_fract_y
 _atom_site_fract_z
 _atom_site_occupancy
  Gd  Gd0  1  0.765912  0.808666  0.765833  1
  Gd  Gd1  1  0.265912  0.191334  0.734167  1
  Gd  Gd2  1  0.234088  0.191334  0.234167  1
  Gd  Gd3  1  0.734088  0.808666  0.265833  1
  Cr  Cr4  1  0.756834  0.274124  0.956279  1
  Cr  Cr5  1  0.256834  0.725876  0.543721  1
  Cr  Cr6  1  0.243166  0.725876  0.043721  1
  Cr  Cr7  1  0.743166  0.274124  0.456279  1
  F  F8  1  0.433586  0.707981  0.923271  1
  F  F9  1  0.933586  0.292019  0.576729  1
  F  F10  1  0.566414  0.292019  0.076729  1
  F  F11  1  0.066414  0.707981  0.423271  1
  F  F12  1  0.459426  0.283652  0.542930  1
  F  F13  1  0.959426  0.716348  0.957070  1
  F  F14  1  0.540574  0.716348  0.457070  1
  F  F15  1  0.040574  0.283652  0.042930  1
  F  F16  1  0.765605  0.506848  0.863161  1
  F  F17  1  0.265605  0.493152  0.636839  1
  F  F18  1  0.234395  0.493152  0.136839  1
  F  F19  1  0.734395  0.506848  0.363161  1
  F  F20  1  0.757972  0.043429  0.046595  1
  F  F21  1  0.257972  0.956571  0.453405  1
  F  F22  1  0.242028  0.956571  0.953405  1
  F  F23  1  0.742028  0.043429  0.546595  1
  F  F24  1  0.981392  0.730271  0.635399  1
  F  F25  1  0.481392  0.269729  0.864601  1
  F  F26  1  0.018608  0.269729  0.364601  1
  F  F27  1  0.518608  0.730271  0.135399  1
  F  F28  1  0.052557  0.743721  0.166604  1
  F  F29  1  0.552557  0.256279  0.333396  1
  F  F30  1  0.947443  0.256279  0.833396  1
  F  F31  1  0.447443  0.743721  0.666604  1
  F  F32  1  0.407994  0.972070  0.227462  1
  F  F33  1  0.907994  0.027930  0.272538  1
  F  F34  1  0.592006  0.027930  0.772538  1
  F  F35  1  0.092006  0.972070  0.727462  1
