# generated using pymatgen
data_Er5Tl3InPdAu
_symmetry_space_group_name_H-M   'P 1'
_cell_length_a   3.62200300
_cell_length_b   8.22794334
_cell_length_c   18.37498960
_cell_angle_alpha   89.87615098
_cell_angle_beta   90.00000000
_cell_angle_gamma   90.00000000
_symmetry_Int_Tables_number   1
_chemical_formula_structural   Er5Tl3InPdAu
_chemical_formula_sum   'Er10 Tl6 In2 Pd2 Au2'
_cell_volume   547.60346240
_cell_formula_units_Z   2
loop_
 _symmetry_equiv_pos_site_id
 _symmetry_equiv_pos_as_xyz
  1  'x, y, z'
loop_
 _atom_site_type_symbol
 _atom_site_label
 _atom_site_symmetry_multiplicity
 _atom_site_fract_x
 _atom_site_fract_y
 _atom_site_fract_z
 _atom_site_occupancy
  Er  Er0  1  0.000000  0.500000  0.500000  1
  Er  Er1  1  0.000000  0.000000  0.000000  1
  Er  Er2  1  0.000000  0.747782  0.283164  1
  Er  Er3  1  0.000000  0.252218  0.716836  1
  Er  Er4  1  0.000000  0.766221  0.780330  1
  Er  Er5  1  0.000000  0.233779  0.219670  1
  Er  Er6  1  0.000000  0.620011  0.081540  1
  Er  Er7  1  0.000000  0.379989  0.918460  1
  Er  Er8  1  0.000000  0.887290  0.584426  1
  Er  Er9  1  0.000000  0.112710  0.415574  1
  Tl  Tl10  1  0.500000  0.712356  0.933737  1
  Tl  Tl11  1  0.500000  0.287644  0.066263  1
  Tl  Tl12  1  0.500000  0.792289  0.435214  1
  Tl  Tl13  1  0.500000  0.207711  0.564786  1
  Tl  Tl14  1  0.500000  0.585998  0.646087  1
  Tl  Tl15  1  0.500000  0.414002  0.353913  1
  In  In16  1  0.500000  0.919519  0.148463  1
  In  In17  1  0.500000  0.080481  0.851537  1
  Pd  Pd18  1  0.500000  0.974688  0.697773  1
  Pd  Pd19  1  0.500000  0.025312  0.302227  1
  Au  Au20  1  0.500000  0.530821  0.197639  1
  Au  Au21  1  0.500000  0.469179  0.802361  1
