# generated using pymatgen
data_KRb3(SnAs)12
_symmetry_space_group_name_H-M   'P 1'
_cell_length_a   4.17297300
_cell_length_b   10.58464791
_cell_length_c   20.07709122
_cell_angle_alpha   90.30902752
_cell_angle_beta   90.00000000
_cell_angle_gamma   90.00000000
_symmetry_Int_Tables_number   1
_chemical_formula_structural   KRb3(SnAs)12
_chemical_formula_sum   'K1 Rb3 Sn12 As12'
_cell_volume   886.78117673
_cell_formula_units_Z   1
loop_
 _symmetry_equiv_pos_site_id
 _symmetry_equiv_pos_as_xyz
  1  'x, y, z'
loop_
 _atom_site_type_symbol
 _atom_site_label
 _atom_site_symmetry_multiplicity
 _atom_site_fract_x
 _atom_site_fract_y
 _atom_site_fract_z
 _atom_site_occupancy
  K  K0  1  0.250000  0.219875  0.458528  1
  Rb  Rb1  1  0.750000  0.284243  0.958949  1
  Rb  Rb2  1  0.750000  0.784814  0.541016  1
  Rb  Rb3  1  0.250000  0.715806  0.041205  1
  Sn  Sn4  1  0.750000  0.173435  0.651770  1
  Sn  Sn5  1  0.750000  0.674386  0.847408  1
  Sn  Sn6  1  0.250000  0.828096  0.349018  1
  Sn  Sn7  1  0.250000  0.325619  0.153248  1
  Sn  Sn8  1  0.750000  0.109866  0.259414  1
  Sn  Sn9  1  0.750000  0.609713  0.241920  1
  Sn  Sn10  1  0.250000  0.890237  0.740556  1
  Sn  Sn11  1  0.250000  0.389995  0.758271  1
  Sn  Sn12  1  0.750000  0.986480  0.126005  1
  Sn  Sn13  1  0.750000  0.485294  0.374386  1
  Sn  Sn14  1  0.250000  0.013465  0.874046  1
  Sn  Sn15  1  0.250000  0.509940  0.624017  1
  As  As16  1  0.750000  0.478479  0.125512  1
  As  As17  1  0.750000  0.982750  0.376260  1
  As  As18  1  0.250000  0.521253  0.874612  1
  As  As19  1  0.250000  0.020377  0.624617  1
  As  As20  1  0.750000  0.368633  0.571094  1
  As  As21  1  0.750000  0.873991  0.926469  1
  As  As22  1  0.250000  0.626991  0.426320  1
  As  As23  1  0.250000  0.126445  0.073862  1
  As  As24  1  0.750000  0.230267  0.780976  1
  As  As25  1  0.750000  0.729669  0.718314  1
  As  As26  1  0.250000  0.769894  0.219673  1
  As  As27  1  0.250000  0.269988  0.282537  1
