# generated using pymatgen
data_Tc3Ir2OsRu2
_symmetry_space_group_name_H-M   'P 1'
_cell_length_a   5.51731923
_cell_length_b   5.51660183
_cell_length_c   4.35943000
_cell_angle_alpha   90.00000000
_cell_angle_beta   90.00000000
_cell_angle_gamma   120.18998973
_symmetry_Int_Tables_number   1
_chemical_formula_structural   Tc3Ir2OsRu2
_chemical_formula_sum   'Tc3 Ir2 Os1 Ru2'
_cell_volume   114.68997674
_cell_formula_units_Z   1
loop_
 _symmetry_equiv_pos_site_id
 _symmetry_equiv_pos_as_xyz
  1  'x, y, z'
loop_
 _atom_site_type_symbol
 _atom_site_label
 _atom_site_symmetry_multiplicity
 _atom_site_fract_x
 _atom_site_fract_y
 _atom_site_fract_z
 _atom_site_occupancy
  Tc  Tc0  1  0.671605  0.835933  0.250000  1
  Tc  Tc1  1  0.837098  0.673250  0.750000  1
  Tc  Tc2  1  0.325911  0.163666  0.750000  1
  Ir  Ir3  1  0.333900  0.665098  0.750000  1
  Ir  Ir4  1  0.666329  0.333650  0.250000  1
  Os  Os5  1  0.163450  0.328770  0.250000  1
  Ru  Ru6  1  0.163437  0.835902  0.250000  1
  Ru  Ru7  1  0.838272  0.163731  0.750000  1
