# generated using pymatgen
data_Y2Lu2MoRu7
_symmetry_space_group_name_H-M   'P 1'
_cell_length_a   5.45139100
_cell_length_b   5.18044481
_cell_length_c   8.98720046
_cell_angle_alpha   89.96885704
_cell_angle_beta   90.00000000
_cell_angle_gamma   121.74574454
_symmetry_Int_Tables_number   1
_chemical_formula_structural   Y2Lu2MoRu7
_chemical_formula_sum   'Y2 Lu2 Mo1 Ru7'
_cell_volume   215.83284498
_cell_formula_units_Z   1
loop_
 _symmetry_equiv_pos_site_id
 _symmetry_equiv_pos_as_xyz
  1  'x, y, z'
loop_
 _atom_site_type_symbol
 _atom_site_label
 _atom_site_symmetry_multiplicity
 _atom_site_fract_x
 _atom_site_fract_y
 _atom_site_fract_z
 _atom_site_occupancy
  Y  Y0  1  0.335703  0.671407  0.431482  1
  Y  Y1  1  0.672110  0.344220  0.563673  1
  Lu  Lu2  1  0.672953  0.345905  0.937440  1
  Lu  Lu3  1  0.335101  0.670203  0.067329  1
  Mo  Mo4  1  0.162967  0.325937  0.752645  1
  Ru  Ru5  1  0.169555  0.820525  0.753314  1
  Ru  Ru6  1  0.330009  0.162428  0.246945  1
  Ru  Ru7  1  0.819885  0.639769  0.246890  1
  Ru  Ru8  1  0.650969  0.820525  0.753314  1
  Ru  Ru9  1  0.009374  0.018746  0.001740  1
  Ru  Ru10  1  0.832421  0.162428  0.246945  1
  Ru  Ru11  1  0.008954  0.017906  0.498284  1
