# generated using pymatgen
data_EuThV2O8
_symmetry_space_group_name_H-M   'P 1'
_cell_length_a   6.16558953
_cell_length_b   6.16558901
_cell_length_c   6.16559010
_cell_angle_alpha   106.31524775
_cell_angle_beta   106.31524939
_cell_angle_gamma   115.98626294
_symmetry_Int_Tables_number   1
_chemical_formula_structural   EuThV2O8
_chemical_formula_sum   'Eu1 Th1 V2 O8'
_cell_volume   178.65811866
_cell_formula_units_Z   1
loop_
 _symmetry_equiv_pos_site_id
 _symmetry_equiv_pos_as_xyz
  1  'x, y, z'
loop_
 _atom_site_type_symbol
 _atom_site_label
 _atom_site_symmetry_multiplicity
 _atom_site_fract_x
 _atom_site_fract_y
 _atom_site_fract_z
 _atom_site_occupancy
  Eu  Eu0  1  0.750000  0.250000  0.500000  1
  Th  Th1  1  0.500000  0.500000  0.000000  1
  V  V2  1  0.250000  0.750000  0.500000  1
  V  V3  1  0.000000  0.000000  0.000000  1
  O  O4  1  0.822686  0.999861  0.177175  1
  O  O5  1  0.897523  0.583478  0.314044  1
  O  O6  1  0.269434  0.583478  0.685956  1
  O  O7  1  0.822686  0.645511  0.822825  1
  O  O8  1  0.354489  0.177314  0.177175  1
  O  O9  1  0.416522  0.730566  0.314044  1
  O  O10  1  0.416522  0.102477  0.685956  1
  O  O11  1  0.000139  0.177314  0.822825  1
