# generated using pymatgen
data_ZrTa4Nb5N12
_symmetry_space_group_name_H-M   'P 1'
_cell_length_a   5.27041368
_cell_length_b   5.28280278
_cell_length_c   10.47867802
_cell_angle_alpha   90.00433531
_cell_angle_beta   90.00197526
_cell_angle_gamma   120.05768097
_symmetry_Int_Tables_number   1
_chemical_formula_structural   ZrTa4Nb5N12
_chemical_formula_sum   'Zr1 Ta4 Nb5 N12'
_cell_volume   252.51867879
_cell_formula_units_Z   1
loop_
 _symmetry_equiv_pos_site_id
 _symmetry_equiv_pos_as_xyz
  1  'x, y, z'
loop_
 _atom_site_type_symbol
 _atom_site_label
 _atom_site_symmetry_multiplicity
 _atom_site_fract_x
 _atom_site_fract_y
 _atom_site_fract_z
 _atom_site_occupancy
  Zr  Zr0  1  0.664897  0.331248  0.000233  1
  Ta  Ta1  1  0.998653  0.677170  0.252048  1
  Ta  Ta2  1  0.334854  0.666367  0.999665  1
  Ta  Ta3  1  0.335501  0.666812  0.499982  1
  Ta  Ta4  1  0.664525  0.331262  0.499908  1
  Nb  Nb5  1  0.677197  0.675713  0.747811  1
  Nb  Nb6  1  0.324082  0.001262  0.747723  1
  Nb  Nb7  1  0.998562  0.322981  0.747770  1
  Nb  Nb8  1  0.324682  0.323751  0.252382  1
  Nb  Nb9  1  0.676739  0.001685  0.252414  1
  N  N10  1  0.662994  0.659366  0.381134  1
  N  N11  1  0.336865  0.996279  0.381059  1
  N  N12  1  0.999989  0.347089  0.380348  1
  N  N13  1  0.341399  0.341326  0.618325  1
  N  N14  1  0.658560  0.999863  0.618346  1
  N  N15  1  0.999871  0.656564  0.618230  1
  N  N16  1  0.336676  0.346565  0.876067  1
  N  N17  1  0.653286  0.989928  0.876023  1
  N  N18  1  0.009972  0.661746  0.876119  1
  N  N19  1  0.657859  0.663949  0.124595  1
  N  N20  1  0.332693  0.986487  0.124554  1
  N  N21  1  0.010141  0.352589  0.125263  1
