# generated using pymatgen
data_Tm4Pt3Au
_symmetry_space_group_name_H-M   'P 1'
_cell_length_a   4.57151900
_cell_length_b   5.56150191
_cell_length_c   6.89248552
_cell_angle_alpha   89.88738790
_cell_angle_beta   90.00000000
_cell_angle_gamma   90.00000000
_symmetry_Int_Tables_number   1
_chemical_formula_structural   Tm4Pt3Au
_chemical_formula_sum   'Tm4 Pt3 Au1'
_cell_volume   175.23774009
_cell_formula_units_Z   1
loop_
 _symmetry_equiv_pos_site_id
 _symmetry_equiv_pos_as_xyz
  1  'x, y, z'
loop_
 _atom_site_type_symbol
 _atom_site_label
 _atom_site_symmetry_multiplicity
 _atom_site_fract_x
 _atom_site_fract_y
 _atom_site_fract_z
 _atom_site_occupancy
  Tm  Tm0  1  0.500000  0.645814  0.686079  1
  Tm  Tm1  1  0.500000  0.853765  0.179010  1
  Tm  Tm2  1  0.000000  0.364136  0.309472  1
  Tm  Tm3  1  0.000000  0.139309  0.826782  1
  Pt  Pt4  1  0.500000  0.340168  0.041171  1
  Pt  Pt5  1  0.000000  0.844022  0.460706  1
  Pt  Pt6  1  0.000000  0.656642  0.956340  1
  Au  Au7  1  0.500000  0.156142  0.540440  1
