# generated using pymatgen
data_Hf7CoCu9
_symmetry_space_group_name_H-M   'P 1'
_cell_length_a   7.84994311
_cell_length_b   7.74460881
_cell_length_c   9.24980778
_cell_angle_alpha   90.08628686
_cell_angle_beta   89.72158226
_cell_angle_gamma   107.46941565
_symmetry_Int_Tables_number   1
_chemical_formula_structural   Hf7CoCu9
_chemical_formula_sum   'Hf14 Co2 Cu18'
_cell_volume   536.39670731
_cell_formula_units_Z   2
loop_
 _symmetry_equiv_pos_site_id
 _symmetry_equiv_pos_as_xyz
  1  'x, y, z'
loop_
 _atom_site_type_symbol
 _atom_site_label
 _atom_site_symmetry_multiplicity
 _atom_site_fract_x
 _atom_site_fract_y
 _atom_site_fract_z
 _atom_site_occupancy
  Hf  Hf0  1  0.693866  0.305832  0.004046  1
  Hf  Hf1  1  0.306134  0.694168  0.995954  1
  Hf  Hf2  1  0.813138  0.188561  0.491110  1
  Hf  Hf3  1  0.186862  0.811439  0.508890  1
  Hf  Hf4  1  0.000000  0.000000  0.000000  1
  Hf  Hf5  1  0.500000  0.500000  0.500000  1
  Hf  Hf6  1  0.008247  0.499785  0.250422  1
  Hf  Hf7  1  0.991753  0.500215  0.749578  1
  Hf  Hf8  1  0.483379  0.986493  0.750623  1
  Hf  Hf9  1  0.516621  0.013507  0.249377  1
  Hf  Hf10  1  0.310396  0.310106  0.191695  1
  Hf  Hf11  1  0.689604  0.689894  0.808305  1
  Hf  Hf12  1  0.185894  0.178636  0.698857  1
  Hf  Hf13  1  0.814106  0.821364  0.301143  1
  Co  Co14  1  0.860812  0.153597  0.210155  1
  Co  Co15  1  0.139188  0.846403  0.789845  1
  Cu  Cu16  1  0.631769  0.340560  0.705598  1
  Cu  Cu17  1  0.658553  0.373381  0.293732  1
  Cu  Cu18  1  0.368231  0.659440  0.294402  1
  Cu  Cu19  1  0.341447  0.626619  0.706268  1
  Cu  Cu20  1  0.837006  0.130459  0.792264  1
  Cu  Cu21  1  0.162994  0.869541  0.207736  1
  Cu  Cu22  1  0.940773  0.648601  0.009315  1
  Cu  Cu23  1  0.059227  0.351399  0.990685  1
  Cu  Cu24  1  0.555884  0.849705  0.507738  1
  Cu  Cu25  1  0.150884  0.441396  0.495539  1
  Cu  Cu26  1  0.444116  0.150295  0.492262  1
  Cu  Cu27  1  0.849116  0.558604  0.504461  1
  Cu  Cu28  1  0.350158  0.059794  0.994455  1
  Cu  Cu29  1  0.649842  0.940206  0.005545  1
  Cu  Cu30  1  0.109057  0.106362  0.399286  1
  Cu  Cu31  1  0.890943  0.893638  0.600714  1
  Cu  Cu32  1  0.396719  0.394553  0.898829  1
  Cu  Cu33  1  0.603281  0.605447  0.101171  1
