# generated using pymatgen
data_Mg2Zr2Ge6Ir7
_symmetry_space_group_name_H-M   'P 1'
_cell_length_a   7.05123978
_cell_length_b   7.16340949
_cell_length_c   7.05123918
_cell_angle_alpha   109.47759090
_cell_angle_beta   108.81510256
_cell_angle_gamma   109.47758065
_symmetry_Int_Tables_number   1
_chemical_formula_structural   Mg2Zr2Ge6Ir7
_chemical_formula_sum   'Mg2 Zr2 Ge6 Ir7'
_cell_volume   276.32195147
_cell_formula_units_Z   1
loop_
 _symmetry_equiv_pos_site_id
 _symmetry_equiv_pos_as_xyz
  1  'x, y, z'
loop_
 _atom_site_type_symbol
 _atom_site_label
 _atom_site_symmetry_multiplicity
 _atom_site_fract_x
 _atom_site_fract_y
 _atom_site_fract_z
 _atom_site_occupancy
  Mg  Mg0  1  0.000000  0.500000  0.000000  1
  Mg  Mg1  1  0.500000  0.500000  0.500000  1
  Zr  Zr2  1  0.000000  0.000000  0.500000  1
  Zr  Zr3  1  0.500000  0.000000  0.000000  1
  Ge  Ge4  1  0.688622  0.681612  0.992990  1
  Ge  Ge5  1  0.310923  0.000000  0.310923  1
  Ge  Ge6  1  0.007010  0.318388  0.311378  1
  Ge  Ge7  1  0.311378  0.318388  0.007010  1
  Ge  Ge8  1  0.689077  0.000000  0.689077  1
  Ge  Ge9  1  0.992990  0.681612  0.688622  1
  Ir  Ir10  1  0.749367  0.248629  0.499262  1
  Ir  Ir11  1  0.750000  0.500000  0.250000  1
  Ir  Ir12  1  0.499262  0.248629  0.749367  1
  Ir  Ir13  1  0.250000  0.500000  0.750000  1
  Ir  Ir14  1  0.250633  0.751371  0.500738  1
  Ir  Ir15  1  0.500738  0.751371  0.250633  1
  Ir  Ir16  1  0.000000  0.000000  0.000000  1
