# generated using pymatgen
data_Ho8MgSc(BiAu2)2
_symmetry_space_group_name_H-M   'P 1'
_cell_length_a   8.66504935
_cell_length_b   8.66504953
_cell_length_c   8.66505010
_cell_angle_alpha   125.62392864
_cell_angle_beta   125.62392501
_cell_angle_gamma   80.50712346
_symmetry_Int_Tables_number   1
_chemical_formula_structural   Ho8MgSc(BiAu2)2
_chemical_formula_sum   'Ho8 Mg1 Sc1 Bi2 Au4'
_cell_volume   414.64139883
_cell_formula_units_Z   1
loop_
 _symmetry_equiv_pos_site_id
 _symmetry_equiv_pos_as_xyz
  1  'x, y, z'
loop_
 _atom_site_type_symbol
 _atom_site_label
 _atom_site_symmetry_multiplicity
 _atom_site_fract_x
 _atom_site_fract_y
 _atom_site_fract_z
 _atom_site_occupancy
  Ho  Ho0  1  0.010807  0.523009  0.813448  1
  Ho  Ho1  1  0.709560  0.197358  0.186552  1
  Ho  Ho2  1  0.523009  0.709560  0.512202  1
  Ho  Ho3  1  0.197358  0.010807  0.487798  1
  Ho  Ho4  1  0.989193  0.476991  0.186552  1
  Ho  Ho5  1  0.290440  0.802642  0.813448  1
  Ho  Ho6  1  0.476991  0.290440  0.487798  1
  Ho  Ho7  1  0.802642  0.989193  0.512202  1
  Mg  Mg8  1  0.000000  0.000000  0.000000  1
  Sc  Sc9  1  0.500000  0.500000  0.000000  1
  Bi  Bi10  1  0.743047  0.743047  0.000000  1
  Bi  Bi11  1  0.256953  0.256953  0.000000  1
  Au  Au12  1  0.633530  0.144163  0.777691  1
  Au  Au13  1  0.366470  0.855837  0.222309  1
  Au  Au14  1  0.144163  0.366470  0.510633  1
  Au  Au15  1  0.855837  0.633530  0.489367  1
