# generated using pymatgen
data_Tm3(Cu2Ni)4
_symmetry_space_group_name_H-M   'P 1'
_cell_length_a   4.90969143
_cell_length_b   4.90969025
_cell_length_c   10.41901400
_cell_angle_alpha   94.67259259
_cell_angle_beta   94.67257976
_cell_angle_gamma   119.27287948
_symmetry_Int_Tables_number   1
_chemical_formula_structural   Tm3(Cu2Ni)4
_chemical_formula_sum   'Tm3 Cu8 Ni4'
_cell_volume   216.21564922
_cell_formula_units_Z   1
loop_
 _symmetry_equiv_pos_site_id
 _symmetry_equiv_pos_as_xyz
  1  'x, y, z'
loop_
 _atom_site_type_symbol
 _atom_site_label
 _atom_site_symmetry_multiplicity
 _atom_site_fract_x
 _atom_site_fract_y
 _atom_site_fract_z
 _atom_site_occupancy
  Tm  Tm0  1  0.003050  0.003050  0.009210  1
  Tm  Tm1  1  0.125406  0.125406  0.346559  1
  Tm  Tm2  1  0.870815  0.870815  0.646015  1
  Cu  Cu3  1  0.571249  0.571249  0.198473  1
  Cu  Cu4  1  0.805648  0.468086  0.403964  1
  Cu  Cu5  1  0.468086  0.805648  0.403964  1
  Cu  Cu6  1  0.527229  0.194370  0.591855  1
  Cu  Cu7  1  0.194370  0.527229  0.591855  1
  Cu  Cu8  1  0.430835  0.430835  0.802535  1
  Cu  Cu9  1  0.932948  0.431495  0.806258  1
  Cu  Cu10  1  0.431495  0.932948  0.806258  1
  Ni  Ni11  1  0.666677  0.334955  0.001832  1
  Ni  Ni12  1  0.334955  0.666677  0.001832  1
  Ni  Ni13  1  0.569018  0.068220  0.194695  1
  Ni  Ni14  1  0.068220  0.569018  0.194695  1
