# generated using pymatgen
data_Pr6CuSiPd10
_symmetry_space_group_name_H-M   'P 1'
_cell_length_a   8.44469567
_cell_length_b   8.44469524
_cell_length_c   8.44469422
_cell_angle_alpha   126.60721434
_cell_angle_beta   126.15206202
_cell_angle_gamma   79.26561591
_symmetry_Int_Tables_number   1
_chemical_formula_structural   Pr6CuSiPd10
_chemical_formula_sum   'Pr6 Cu1 Si1 Pd10'
_cell_volume   377.39872065
_cell_formula_units_Z   1
loop_
 _symmetry_equiv_pos_site_id
 _symmetry_equiv_pos_as_xyz
  1  'x, y, z'
loop_
 _atom_site_type_symbol
 _atom_site_label
 _atom_site_symmetry_multiplicity
 _atom_site_fract_x
 _atom_site_fract_y
 _atom_site_fract_z
 _atom_site_occupancy
  Pr  Pr0  1  0.213519  0.443988  0.769531  1
  Pr  Pr1  1  0.774947  0.547079  0.227868  1
  Pr  Pr2  1  0.825542  0.056012  0.769531  1
  Pr  Pr3  1  0.180790  0.952921  0.227868  1
  Pr  Pr4  1  0.413265  0.250000  0.163265  1
  Pr  Pr5  1  0.610637  0.750000  0.860637  1
  Cu  Cu6  1  0.790759  0.250000  0.540759  1
  Si  Si7  1  0.211510  0.750000  0.461510  1
  Pd  Pd8  1  0.175714  0.412094  0.363158  1
  Pd  Pd9  1  0.838908  0.183953  0.224100  1
  Pd  Pd10  1  0.451064  0.087906  0.763620  1
  Pd  Pd11  1  0.540147  0.316047  0.654955  1
  Pd  Pd12  1  0.983684  0.529089  0.012772  1
  Pd  Pd13  1  0.983684  0.970911  0.454595  1
  Pd  Pd14  1  0.451064  0.687444  0.363158  1
  Pd  Pd15  1  0.540147  0.885192  0.224100  1
  Pd  Pd16  1  0.175714  0.812556  0.763620  1
  Pd  Pd17  1  0.838908  0.614808  0.654955  1
