# generated using pymatgen
data_La9PrAl2(CdRu3)2
_symmetry_space_group_name_H-M   'P 1'
_cell_length_a   8.73839239
_cell_length_b   8.79428749
_cell_length_c   8.68187797
_cell_angle_alpha   110.07188990
_cell_angle_beta   109.29806741
_cell_angle_gamma   109.77075813
_symmetry_Int_Tables_number   1
_chemical_formula_structural   La9PrAl2(CdRu3)2
_chemical_formula_sum   'La9 Pr1 Al2 Cd2 Ru6'
_cell_volume   508.92058322
_cell_formula_units_Z   1
loop_
 _symmetry_equiv_pos_site_id
 _symmetry_equiv_pos_as_xyz
  1  'x, y, z'
loop_
 _atom_site_type_symbol
 _atom_site_label
 _atom_site_symmetry_multiplicity
 _atom_site_fract_x
 _atom_site_fract_y
 _atom_site_fract_z
 _atom_site_occupancy
  La  La0  1  0.748463  0.806893  0.063761  1
  La  La1  1  0.434449  0.246698  0.688013  1
  La  La2  1  0.695838  0.444815  0.250130  1
  La  La3  1  0.059172  0.745452  0.810417  1
  La  La4  1  0.816191  0.066317  0.748742  1
  La  La5  1  0.206651  0.208659  0.203452  1
  La  La6  1  0.501848  0.001326  0.294669  1
  La  La7  1  0.285985  0.500845  0.998768  1
  La  La8  1  0.002584  0.287134  0.501939  1
  Pr  Pr9  1  0.244049  0.680957  0.433857  1
  Al  Al10  1  0.915887  0.503395  0.003139  1
  Al  Al11  1  0.000795  0.911278  0.497947  1
  Cd  Cd12  1  0.501855  0.999699  0.912361  1
  Cd  Cd13  1  0.584520  0.587344  0.584928  1
  Ru  Ru14  1  0.234686  0.121812  0.863584  1
  Ru  Ru15  1  0.758382  0.371570  0.637362  1
  Ru  Ru16  1  0.898299  0.271840  0.129094  1
  Ru  Ru17  1  0.111653  0.869387  0.246986  1
  Ru  Ru18  1  0.639808  0.768363  0.373682  1
  Ru  Ru19  1  0.358886  0.606220  0.757170  1
