# generated using pymatgen
data_Dy5Tm7InCo4Cu
_symmetry_space_group_name_H-M   'P 1'
_cell_length_a   8.22448244
_cell_length_b   8.22428528
_cell_length_c   8.21718375
_cell_angle_alpha   111.27653397
_cell_angle_beta   110.66961961
_cell_angle_gamma   106.54609572
_symmetry_Int_Tables_number   1
_chemical_formula_structural   Dy5Tm7InCo4Cu
_chemical_formula_sum   'Dy5 Tm7 In1 Co4 Cu1'
_cell_volume   426.81121077
_cell_formula_units_Z   1
loop_
 _symmetry_equiv_pos_site_id
 _symmetry_equiv_pos_as_xyz
  1  'x, y, z'
loop_
 _atom_site_type_symbol
 _atom_site_label
 _atom_site_symmetry_multiplicity
 _atom_site_fract_x
 _atom_site_fract_y
 _atom_site_fract_z
 _atom_site_occupancy
  Dy  Dy0  1  0.420455  0.220047  0.199338  1
  Dy  Dy1  1  0.581137  0.781024  0.801098  1
  Dy  Dy2  1  0.020100  0.219950  0.801135  1
  Dy  Dy3  1  0.979318  0.778871  0.199379  1
  Dy  Dy4  1  0.184812  0.289294  0.474046  1
  Tm  Tm5  1  0.815657  0.710402  0.526011  1
  Tm  Tm6  1  0.184562  0.711094  0.895609  1
  Tm  Tm7  1  0.814647  0.289510  0.104105  1
  Tm  Tm8  1  0.316488  0.622150  0.305038  1
  Tm  Tm9  1  0.684440  0.378404  0.695076  1
  Tm  Tm10  1  0.316547  0.010371  0.694941  1
  Tm  Tm11  1  0.682770  0.988303  0.304907  1
  In  In12  1  0.500048  0.500047  0.000077  1
  Co  Co13  1  0.376197  0.999474  0.375684  1
  Co  Co14  1  0.623997  0.999841  0.623852  1
  Co  Co15  1  0.112564  0.613973  0.500152  1
  Co  Co16  1  0.886355  0.387768  0.500151  1
  Cu  Cu17  1  0.999907  0.999478  0.999400  1
