# generated using pymatgen
data_Pu4AlRe3B16
_symmetry_space_group_name_H-M   'P 1'
_cell_length_a   5.97486730
_cell_length_b   11.55831069
_cell_length_c   3.59527600
_cell_angle_alpha   90.00000000
_cell_angle_beta   90.00000000
_cell_angle_gamma   90.09613183
_symmetry_Int_Tables_number   1
_chemical_formula_structural   Pu4AlRe3B16
_chemical_formula_sum   'Pu4 Al1 Re3 B16'
_cell_volume   248.28715549
_cell_formula_units_Z   1
loop_
 _symmetry_equiv_pos_site_id
 _symmetry_equiv_pos_as_xyz
  1  'x, y, z'
loop_
 _atom_site_type_symbol
 _atom_site_label
 _atom_site_symmetry_multiplicity
 _atom_site_fract_x
 _atom_site_fract_y
 _atom_site_fract_z
 _atom_site_occupancy
  Pu  Pu0  1  0.625503  0.348499  0.000000  1
  Pu  Pu1  1  0.371784  0.652192  0.000000  1
  Pu  Pu2  1  0.127501  0.148836  0.000000  1
  Pu  Pu3  1  0.873912  0.850958  0.000000  1
  Al  Al4  1  0.638191  0.091057  0.000000  1
  Re  Re5  1  0.372115  0.913680  0.000000  1
  Re  Re6  1  0.137486  0.411580  0.000000  1
  Re  Re7  1  0.863088  0.589706  0.000000  1
  B  B8  1  0.788827  0.186423  0.500000  1
  B  B9  1  0.213120  0.814404  0.500000  1
  B  B10  1  0.285781  0.312258  0.500000  1
  B  B11  1  0.712849  0.686841  0.500000  1
  B  B12  1  0.866588  0.031000  0.500000  1
  B  B13  1  0.134684  0.967615  0.500000  1
  B  B14  1  0.364847  0.467951  0.500000  1
  B  B15  1  0.634308  0.531757  0.500000  1
  B  B16  1  0.884370  0.452633  0.500000  1
  B  B17  1  0.113869  0.547172  0.500000  1
  B  B18  1  0.383018  0.045538  0.500000  1
  B  B19  1  0.613243  0.951014  0.500000  1
  B  B20  1  0.973056  0.306799  0.500000  1
  B  B21  1  0.025448  0.692362  0.500000  1
  B  B22  1  0.472300  0.192070  0.500000  1
  B  B23  1  0.524110  0.807657  0.500000  1
