# generated using pymatgen
data_NaTb6CuBr12
_symmetry_space_group_name_H-M   'P 1'
_cell_length_a   9.18489986
_cell_length_b   9.18489684
_cell_length_c   9.18489800
_cell_angle_alpha   106.66334509
_cell_angle_beta   106.66333293
_cell_angle_gamma   106.66334098
_symmetry_Int_Tables_number   1
_chemical_formula_structural   NaTb6CuBr12
_chemical_formula_sum   'Na1 Tb6 Cu1 Br12'
_cell_volume   651.14599223
_cell_formula_units_Z   1
loop_
 _symmetry_equiv_pos_site_id
 _symmetry_equiv_pos_as_xyz
  1  'x, y, z'
loop_
 _atom_site_type_symbol
 _atom_site_label
 _atom_site_symmetry_multiplicity
 _atom_site_fract_x
 _atom_site_fract_y
 _atom_site_fract_z
 _atom_site_occupancy
  Na  Na0  1  0.500000  0.500000  0.500000  1
  Tb  Tb1  1  0.892499  0.970070  0.681884  1
  Tb  Tb2  1  0.970070  0.681884  0.892499  1
  Tb  Tb3  1  0.681884  0.892499  0.970070  1
  Tb  Tb4  1  0.107501  0.029930  0.318116  1
  Tb  Tb5  1  0.029930  0.318116  0.107501  1
  Tb  Tb6  1  0.318116  0.107501  0.029930  1
  Cu  Cu7  1  0.000000  0.000000  0.000000  1
  Br  Br8  1  0.550074  0.855328  0.629972  1
  Br  Br9  1  0.855328  0.629972  0.550074  1
  Br  Br10  1  0.629972  0.550074  0.855328  1
  Br  Br11  1  0.449926  0.144672  0.370028  1
  Br  Br12  1  0.144672  0.370028  0.449926  1
  Br  Br13  1  0.370028  0.449926  0.144672  1
  Br  Br14  1  0.681150  0.221694  0.073404  1
  Br  Br15  1  0.221694  0.073404  0.681150  1
  Br  Br16  1  0.073404  0.681150  0.221694  1
  Br  Br17  1  0.318850  0.778306  0.926596  1
  Br  Br18  1  0.778306  0.926596  0.318850  1
  Br  Br19  1  0.926596  0.318850  0.778306  1
