# generated using pymatgen
data_La3Pr2Tc6P12Ir13
_symmetry_space_group_name_H-M   'P 1'
_cell_length_a   12.80856400
_cell_length_b   12.80856416
_cell_length_c   4.04599300
_cell_angle_alpha   90.00000000
_cell_angle_beta   90.00000000
_cell_angle_gamma   119.99999958
_symmetry_Int_Tables_number   1
_chemical_formula_structural   La3Pr2Tc6P12Ir13
_chemical_formula_sum   'La3 Pr2 Tc6 P12 Ir13'
_cell_volume   574.85280053
_cell_formula_units_Z   1
loop_
 _symmetry_equiv_pos_site_id
 _symmetry_equiv_pos_as_xyz
  1  'x, y, z'
loop_
 _atom_site_type_symbol
 _atom_site_label
 _atom_site_symmetry_multiplicity
 _atom_site_fract_x
 _atom_site_fract_y
 _atom_site_fract_z
 _atom_site_occupancy
  La  La0  1  0.000577  0.812439  0.000000  1
  La  La1  1  0.187561  0.188137  0.000000  1
  La  La2  1  0.811863  0.999423  0.000000  1
  Pr  Pr3  1  0.333333  0.666667  0.500000  1
  Pr  Pr4  1  0.666667  0.333333  0.500000  1
  Tc  Tc5  1  0.991067  0.446387  0.500000  1
  Tc  Tc6  1  0.553613  0.544681  0.500000  1
  Tc  Tc7  1  0.455319  0.008933  0.500000  1
  Tc  Tc8  1  0.618662  0.797522  0.500000  1
  Tc  Tc9  1  0.202478  0.821141  0.500000  1
  Tc  Tc10  1  0.178859  0.381338  0.500000  1
  P  P11  1  0.007557  0.634776  0.500000  1
  P  P12  1  0.365224  0.372783  0.500000  1
  P  P13  1  0.627217  0.992443  0.500000  1
  P  P14  1  0.522581  0.695425  0.000000  1
  P  P15  1  0.304575  0.827155  0.000000  1
  P  P16  1  0.172845  0.477419  0.000000  1
  P  P17  1  0.481385  0.168761  0.000000  1
  P  P18  1  0.687376  0.518615  0.000000  1
  P  P19  1  0.831239  0.312624  0.000000  1
  P  P20  1  0.002992  0.186719  0.500000  1
  P  P21  1  0.813281  0.816273  0.500000  1
  P  P22  1  0.183727  0.997008  0.500000  1
  Ir  Ir23  1  0.507657  0.877281  0.000000  1
  Ir  Ir24  1  0.122719  0.630376  0.000000  1
  Ir  Ir25  1  0.369624  0.492343  0.000000  1
  Ir  Ir26  1  0.493371  0.360042  0.000000  1
  Ir  Ir27  1  0.866672  0.506629  0.000000  1
  Ir  Ir28  1  0.639958  0.133328  0.000000  1
  Ir  Ir29  1  0.995822  0.285892  0.000000  1
  Ir  Ir30  1  0.714108  0.709931  0.000000  1
  Ir  Ir31  1  0.290069  0.004178  0.000000  1
  Ir  Ir32  1  0.377949  0.184842  0.500000  1
  Ir  Ir33  1  0.806893  0.622051  0.500000  1
  Ir  Ir34  1  0.815158  0.193107  0.500000  1
  Ir  Ir35  1  0.000000  0.000000  0.500000  1
