# generated using pymatgen
data_Nd2Dy4Ir13Rh5
_symmetry_space_group_name_H-M   'P 1'
_cell_length_a   5.33137900
_cell_length_b   5.33137819
_cell_length_c   17.49990100
_cell_angle_alpha   90.00000000
_cell_angle_beta   90.00000000
_cell_angle_gamma   119.99999885
_symmetry_Int_Tables_number   1
_chemical_formula_structural   Nd2Dy4Ir13Rh5
_chemical_formula_sum   'Nd2 Dy4 Ir13 Rh5'
_cell_volume   430.76982742
_cell_formula_units_Z   1
loop_
 _symmetry_equiv_pos_site_id
 _symmetry_equiv_pos_as_xyz
  1  'x, y, z'
loop_
 _atom_site_type_symbol
 _atom_site_label
 _atom_site_symmetry_multiplicity
 _atom_site_fract_x
 _atom_site_fract_y
 _atom_site_fract_z
 _atom_site_occupancy
  Nd  Nd0  1  0.333333  0.666667  0.750159  1
  Nd  Nd1  1  0.666667  0.333333  0.249841  1
  Dy  Dy2  1  0.333333  0.666667  0.541531  1
  Dy  Dy3  1  0.666667  0.333333  0.041138  1
  Dy  Dy4  1  0.666667  0.333333  0.458469  1
  Dy  Dy5  1  0.333333  0.666667  0.958862  1
  Ir  Ir6  1  0.167469  0.334937  0.125620  1
  Ir  Ir7  1  0.832461  0.664921  0.625702  1
  Ir  Ir8  1  0.665063  0.832531  0.125620  1
  Ir  Ir9  1  0.167469  0.832531  0.125620  1
  Ir  Ir10  1  0.832461  0.167539  0.625702  1
  Ir  Ir11  1  0.335079  0.167539  0.625702  1
  Ir  Ir12  1  0.832531  0.665063  0.874380  1
  Ir  Ir13  1  0.832531  0.167469  0.874380  1
  Ir  Ir14  1  0.334937  0.167469  0.874380  1
  Ir  Ir15  1  0.664921  0.832461  0.374298  1
  Ir  Ir16  1  0.167539  0.832461  0.374298  1
  Ir  Ir17  1  0.167539  0.335079  0.374298  1
  Ir  Ir18  1  0.000000  0.000000  0.000000  1
  Rh  Rh19  1  0.000000  0.000000  0.250239  1
  Rh  Rh20  1  0.000000  0.000000  0.749761  1
  Rh  Rh21  1  0.333333  0.666667  0.250424  1
  Rh  Rh22  1  0.666667  0.333333  0.749576  1
  Rh  Rh23  1  0.000000  0.000000  0.500000  1
