# generated using pymatgen
data_Rb3NaSmUTe6
_symmetry_space_group_name_H-M   'P 1'
_cell_length_a   8.01591636
_cell_length_b   8.01591576
_cell_length_c   8.91023093
_cell_angle_alpha   81.40139317
_cell_angle_beta   81.40139256
_cell_angle_gamma   120.04046459
_symmetry_Int_Tables_number   1
_chemical_formula_structural   Rb3NaSmUTe6
_chemical_formula_sum   'Rb3 Na1 Sm1 U1 Te6'
_cell_volume   472.91483183
_cell_formula_units_Z   1
loop_
 _symmetry_equiv_pos_site_id
 _symmetry_equiv_pos_as_xyz
  1  'x, y, z'
loop_
 _atom_site_type_symbol
 _atom_site_label
 _atom_site_symmetry_multiplicity
 _atom_site_fract_x
 _atom_site_fract_y
 _atom_site_fract_z
 _atom_site_occupancy
  Rb  Rb0  1  0.657665  0.342335  0.500000  1
  Rb  Rb1  1  0.342966  0.657034  0.500000  1
  Rb  Rb2  1  0.999505  0.000495  0.500000  1
  Na  Na3  1  0.499978  0.500022  0.000000  1
  Sm  Sm4  1  0.832258  0.167742  0.000000  1
  U  U5  1  0.167633  0.832367  0.000000  1
  Te  Te6  1  0.794804  0.781628  0.196421  1
  Te  Te7  1  0.218372  0.205196  0.803579  1
  Te  Te8  1  0.418771  0.068448  0.201633  1
  Te  Te9  1  0.554412  0.917915  0.798180  1
  Te  Te10  1  0.931552  0.581229  0.798367  1
  Te  Te11  1  0.082085  0.445588  0.201820  1
