# generated using pymatgen
data_MgHgBi3Sb3O14
_symmetry_space_group_name_H-M   'P 1'
_cell_length_a   7.37688838
_cell_length_b   7.37689546
_cell_length_c   7.37689219
_cell_angle_alpha   62.16566021
_cell_angle_beta   62.16562226
_cell_angle_gamma   62.16556639
_symmetry_Int_Tables_number   1
_chemical_formula_structural   MgHgBi3Sb3O14
_chemical_formula_sum   'Mg1 Hg1 Bi3 Sb3 O14'
_cell_volume   297.59420511
_cell_formula_units_Z   1
loop_
 _symmetry_equiv_pos_site_id
 _symmetry_equiv_pos_as_xyz
  1  'x, y, z'
loop_
 _atom_site_type_symbol
 _atom_site_label
 _atom_site_symmetry_multiplicity
 _atom_site_fract_x
 _atom_site_fract_y
 _atom_site_fract_z
 _atom_site_occupancy
  Mg  Mg0  1  0.999997  0.499998  0.999998  1
  Hg  Hg1  1  0.499997  0.999983  0.500026  1
  Bi  Bi2  1  0.000005  0.000034  0.499963  1
  Bi  Bi3  1  0.500038  0.000016  0.999991  1
  Bi  Bi4  1  0.499983  0.500009  0.499985  1
  Sb  Sb5  1  0.499994  0.500006  0.999997  1
  Sb  Sb6  1  0.999997  0.499998  0.500009  1
  Sb  Sb7  1  0.000006  0.999992  0.999998  1
  O  O8  1  0.619536  0.119538  0.619524  1
  O  O9  1  0.380475  0.880479  0.380464  1
  O  O10  1  0.068820  0.180983  0.680989  1
  O  O11  1  0.680978  0.180978  0.068817  1
  O  O12  1  0.680987  0.568819  0.680990  1
  O  O13  1  0.931176  0.819013  0.319019  1
  O  O14  1  0.319009  0.819008  0.931175  1
  O  O15  1  0.319017  0.431180  0.319017  1
  O  O16  1  0.658689  0.584736  0.084758  1
  O  O17  1  0.084759  0.584743  0.658683  1
  O  O18  1  0.084730  0.158687  0.084763  1
  O  O19  1  0.341315  0.415238  0.915260  1
  O  O20  1  0.915262  0.415243  0.341310  1
  O  O21  1  0.915232  0.841315  0.915263  1
