# generated using pymatgen
data_HoEr11GaCo4Os
_symmetry_space_group_name_H-M   'P 1'
_cell_length_a   8.15740809
_cell_length_b   8.15574739
_cell_length_c   8.15481566
_cell_angle_alpha   111.69214399
_cell_angle_beta   109.93707501
_cell_angle_gamma   106.81716714
_symmetry_Int_Tables_number   1
_chemical_formula_structural   HoEr11GaCo4Os
_chemical_formula_sum   'Ho1 Er11 Ga1 Co4 Os1'
_cell_volume   416.89884227
_cell_formula_units_Z   1
loop_
 _symmetry_equiv_pos_site_id
 _symmetry_equiv_pos_as_xyz
  1  'x, y, z'
loop_
 _atom_site_type_symbol
 _atom_site_label
 _atom_site_symmetry_multiplicity
 _atom_site_fract_x
 _atom_site_fract_y
 _atom_site_fract_z
 _atom_site_occupancy
  Ho  Ho0  1  0.821985  0.225335  0.047348  1
  Er  Er1  1  0.956898  0.267453  0.689248  1
  Er  Er2  1  0.043188  0.732736  0.310711  1
  Er  Er3  1  0.674422  0.864174  0.189844  1
  Er  Er4  1  0.325679  0.515450  0.189876  1
  Er  Er5  1  0.325272  0.135675  0.810020  1
  Er  Er6  1  0.674370  0.484817  0.810054  1
  Er  Er7  1  0.577748  0.267395  0.310635  1
  Er  Er8  1  0.421566  0.732177  0.689139  1
  Er  Er9  1  0.177526  0.773978  0.951500  1
  Er  Er10  1  0.822458  0.774067  0.596504  1
  Er  Er11  1  0.177811  0.226058  0.403867  1
  Ga  Ga12  1  0.499942  0.000067  0.500010  1
  Co  Co13  1  0.114242  0.113750  0.000099  1
  Co  Co14  1  0.886389  0.885881  0.000115  1
  Co  Co15  1  0.654670  0.500341  0.154991  1
  Co  Co16  1  0.345225  0.500051  0.845299  1
  Os  Os17  1  0.000607  0.500594  0.500740  1
