# generated using pymatgen
data_Be3Ni3Mo6C
_symmetry_space_group_name_H-M   'P 1'
_cell_length_a   7.56873630
_cell_length_b   7.57844974
_cell_length_c   7.57844920
_cell_angle_alpha   60.14093402
_cell_angle_beta   60.04239511
_cell_angle_gamma   60.04239006
_symmetry_Int_Tables_number   1
_chemical_formula_structural   Be3Ni3Mo6C
_chemical_formula_sum   'Be6 Ni6 Mo12 C2'
_cell_volume   307.89887927
_cell_formula_units_Z   2
loop_
 _symmetry_equiv_pos_site_id
 _symmetry_equiv_pos_as_xyz
  1  'x, y, z'
loop_
 _atom_site_type_symbol
 _atom_site_label
 _atom_site_symmetry_multiplicity
 _atom_site_fract_x
 _atom_site_fract_y
 _atom_site_fract_z
 _atom_site_occupancy
  Be  Be0  1  0.329840  0.332111  0.008207  1
  Be  Be1  1  0.327096  0.328940  0.328940  1
  Be  Be2  1  0.229421  0.924558  0.924558  1
  Be  Be3  1  0.921464  0.924558  0.924558  1
  Be  Be4  1  0.015022  0.328940  0.328940  1
  Be  Be5  1  0.329840  0.008207  0.332111  1
  Ni  Ni6  1  0.131448  0.617091  0.120012  1
  Ni  Ni7  1  0.131448  0.120012  0.617091  1
  Ni  Ni8  1  0.607329  0.127794  0.127794  1
  Ni  Ni9  1  0.137082  0.127794  0.127794  1
  Ni  Ni10  1  0.918418  0.918413  0.244753  1
  Ni  Ni11  1  0.918418  0.244753  0.918413  1
  Mo  Mo12  1  0.301779  0.698221  0.698221  1
  Mo  Mo13  1  0.700791  0.697904  0.299180  1
  Mo  Mo14  1  0.700791  0.299180  0.697904  1
  Mo  Mo15  1  0.302125  0.697904  0.299180  1
  Mo  Mo16  1  0.548344  0.950200  0.553853  1
  Mo  Mo17  1  0.551100  0.948900  0.948900  1
  Mo  Mo18  1  0.949934  0.550066  0.550066  1
  Mo  Mo19  1  0.947603  0.553853  0.950200  1
  Mo  Mo20  1  0.302125  0.299180  0.697904  1
  Mo  Mo21  1  0.548344  0.553853  0.950200  1
  Mo  Mo22  1  0.947603  0.950200  0.553853  1
  Mo  Mo23  1  0.700878  0.299122  0.299122  1
  C  C24  1  0.501622  0.498378  0.498378  1
  C  C25  1  0.750135  0.749865  0.749865  1
