# generated using pymatgen
data_Ta9Tc8Ru
_symmetry_space_group_name_H-M   'P 1'
_cell_length_a   7.81129163
_cell_length_b   7.80829126
_cell_length_c   5.55979000
_cell_angle_alpha   90.04601543
_cell_angle_beta   89.97699746
_cell_angle_gamma   119.98728775
_symmetry_Int_Tables_number   1
_chemical_formula_structural   Ta9Tc8Ru
_chemical_formula_sum   'Ta9 Tc8 Ru1'
_cell_volume   293.71312497
_cell_formula_units_Z   1
loop_
 _symmetry_equiv_pos_site_id
 _symmetry_equiv_pos_as_xyz
  1  'x, y, z'
loop_
 _atom_site_type_symbol
 _atom_site_label
 _atom_site_symmetry_multiplicity
 _atom_site_fract_x
 _atom_site_fract_y
 _atom_site_fract_z
 _atom_site_occupancy
  Ta  Ta0  1  0.666442  0.000044  0.225593  1
  Ta  Ta1  1  0.333558  0.333602  0.225593  1
  Ta  Ta2  1  0.000000  0.666454  0.225103  1
  Ta  Ta3  1  0.665206  0.331865  0.558035  1
  Ta  Ta4  1  0.334794  0.666659  0.558035  1
  Ta  Ta5  1  0.000000  0.001396  0.558420  1
  Ta  Ta6  1  0.334579  0.001514  0.892777  1
  Ta  Ta7  1  0.000000  0.331619  0.892744  1
  Ta  Ta8  1  0.665422  0.666937  0.892777  1
  Tc  Tc9  1  0.667577  0.334277  0.058263  1
  Tc  Tc10  1  0.332423  0.666701  0.058263  1
  Tc  Tc11  1  0.000000  0.999062  0.058694  1
  Tc  Tc12  1  0.332266  0.999059  0.392489  1
  Tc  Tc13  1  0.000000  0.334182  0.392426  1
  Tc  Tc14  1  0.667735  0.666795  0.392489  1
  Tc  Tc15  1  0.666584  0.000020  0.725492  1
  Tc  Tc16  1  0.333416  0.333437  0.725492  1
  Ru  Ru17  1  0.000000  0.666374  0.725160  1
