# generated using pymatgen
data_Nd3Er(ScIr)4
_symmetry_space_group_name_H-M   'P 1'
_cell_length_a   4.30301100
_cell_length_b   7.20316108
_cell_length_c   8.86793894
_cell_angle_alpha   89.58790225
_cell_angle_beta   90.00000000
_cell_angle_gamma   90.00000000
_symmetry_Int_Tables_number   1
_chemical_formula_structural   Nd3Er(ScIr)4
_chemical_formula_sum   'Nd3 Er1 Sc4 Ir4'
_cell_volume   274.85715291
_cell_formula_units_Z   1
loop_
 _symmetry_equiv_pos_site_id
 _symmetry_equiv_pos_as_xyz
  1  'x, y, z'
loop_
 _atom_site_type_symbol
 _atom_site_label
 _atom_site_symmetry_multiplicity
 _atom_site_fract_x
 _atom_site_fract_y
 _atom_site_fract_z
 _atom_site_occupancy
  Nd  Nd0  1  0.250000  0.983613  0.323039  1
  Nd  Nd1  1  0.250000  0.482488  0.175855  1
  Nd  Nd2  1  0.750000  0.017419  0.679511  1
  Er  Er3  1  0.750000  0.519918  0.826306  1
  Sc  Sc4  1  0.250000  0.363530  0.568478  1
  Sc  Sc5  1  0.250000  0.858757  0.935011  1
  Sc  Sc6  1  0.750000  0.635840  0.440095  1
  Sc  Sc7  1  0.750000  0.138537  0.060182  1
  Ir  Ir8  1  0.250000  0.239207  0.893106  1
  Ir  Ir9  1  0.250000  0.733033  0.604473  1
  Ir  Ir10  1  0.750000  0.762869  0.096571  1
  Ir  Ir11  1  0.750000  0.264789  0.397375  1
