# generated using pymatgen
data_NaSr2La(CrN3)2
_symmetry_space_group_name_H-M   'P 1'
_cell_length_a   6.16374103
_cell_length_b   6.16373597
_cell_length_c   12.27707685
_cell_angle_alpha   90.17113628
_cell_angle_beta   89.82894709
_cell_angle_gamma   125.58582326
_symmetry_Int_Tables_number   1
_chemical_formula_structural   NaSr2La(CrN3)2
_chemical_formula_sum   'Na2 Sr4 La2 Cr4 N12'
_cell_volume   379.31692082
_cell_formula_units_Z   2
loop_
 _symmetry_equiv_pos_site_id
 _symmetry_equiv_pos_as_xyz
  1  'x, y, z'
loop_
 _atom_site_type_symbol
 _atom_site_label
 _atom_site_symmetry_multiplicity
 _atom_site_fract_x
 _atom_site_fract_y
 _atom_site_fract_z
 _atom_site_occupancy
  Na  Na0  1  0.552739  0.447260  0.626482  1
  Na  Na1  1  0.447261  0.552740  0.373518  1
  Sr  Sr2  1  0.952006  0.047993  0.149615  1
  Sr  Sr3  1  0.047994  0.952007  0.850385  1
  Sr  Sr4  1  0.854929  0.145070  0.582106  1
  Sr  Sr5  1  0.145071  0.854930  0.417894  1
  La  La6  1  0.648712  0.351286  0.081900  1
  La  La7  1  0.351288  0.648714  0.918100  1
  Cr  Cr8  1  0.731782  0.268219  0.836349  1
  Cr  Cr9  1  0.268218  0.731781  0.163651  1
  Cr  Cr10  1  0.760665  0.239336  0.336292  1
  Cr  Cr11  1  0.239335  0.760664  0.663708  1
  N  N12  1  0.832017  0.167983  0.957517  1
  N  N13  1  0.167983  0.832017  0.042483  1
  N  N14  1  0.666237  0.333762  0.446237  1
  N  N15  1  0.333763  0.666238  0.553763  1
  N  N16  1  0.578956  0.421044  0.879691  1
  N  N17  1  0.421044  0.578956  0.120309  1
  N  N18  1  0.913468  0.086531  0.368574  1
  N  N19  1  0.086532  0.913469  0.631426  1
  N  N20  1  0.517538  0.976680  0.759045  1
  N  N21  1  0.976680  0.517538  0.240955  1
  N  N22  1  0.482462  0.023320  0.240955  1
  N  N23  1  0.023320  0.482462  0.759045  1
