# generated using pymatgen
data_Pr6TmLuO12
_symmetry_space_group_name_H-M   'P 1'
_cell_length_a   6.97816256
_cell_length_b   6.97816220
_cell_length_c   6.97816307
_cell_angle_alpha   92.16179156
_cell_angle_beta   92.16178927
_cell_angle_gamma   92.16177966
_symmetry_Int_Tables_number   1
_chemical_formula_structural   Pr6TmLuO12
_chemical_formula_sum   'Pr6 Tm1 Lu1 O12'
_cell_volume   339.05560204
_cell_formula_units_Z   1
loop_
 _symmetry_equiv_pos_site_id
 _symmetry_equiv_pos_as_xyz
  1  'x, y, z'
loop_
 _atom_site_type_symbol
 _atom_site_label
 _atom_site_symmetry_multiplicity
 _atom_site_fract_x
 _atom_site_fract_y
 _atom_site_fract_z
 _atom_site_occupancy
  Pr  Pr0  1  0.558976  0.065584  0.253294  1
  Pr  Pr1  1  0.065584  0.253294  0.558976  1
  Pr  Pr2  1  0.746706  0.441024  0.934416  1
  Pr  Pr3  1  0.253294  0.558976  0.065584  1
  Pr  Pr4  1  0.934416  0.746706  0.441024  1
  Pr  Pr5  1  0.441024  0.934416  0.746706  1
  Tm  Tm6  1  0.000000  0.000000  0.000000  1
  Lu  Lu7  1  0.500000  0.500000  0.500000  1
  O  O8  1  0.694787  0.086008  0.934542  1
  O  O9  1  0.913992  0.065458  0.305213  1
  O  O10  1  0.407361  0.196268  0.536201  1
  O  O11  1  0.065458  0.305213  0.913992  1
  O  O12  1  0.536201  0.407361  0.196268  1
  O  O13  1  0.803732  0.463799  0.592639  1
  O  O14  1  0.196268  0.536201  0.407361  1
  O  O15  1  0.463799  0.592639  0.803732  1
  O  O16  1  0.934542  0.694787  0.086008  1
  O  O17  1  0.592639  0.803732  0.463799  1
  O  O18  1  0.086008  0.934542  0.694787  1
  O  O19  1  0.305213  0.913992  0.065458  1
