# generated using pymatgen
data_ErScFeSi2Ir
_symmetry_space_group_name_H-M   'P 1'
_cell_length_a   4.16039300
_cell_length_b   6.71558500
_cell_length_c   6.99949200
_cell_angle_alpha   90.00000000
_cell_angle_beta   90.00000000
_cell_angle_gamma   90.00000000
_symmetry_Int_Tables_number   1
_chemical_formula_structural   ErScFeSi2Ir
_chemical_formula_sum   'Er2 Sc2 Fe2 Si4 Ir2'
_cell_volume   195.56211652
_cell_formula_units_Z   2
loop_
 _symmetry_equiv_pos_site_id
 _symmetry_equiv_pos_as_xyz
  1  'x, y, z'
loop_
 _atom_site_type_symbol
 _atom_site_label
 _atom_site_symmetry_multiplicity
 _atom_site_fract_x
 _atom_site_fract_y
 _atom_site_fract_z
 _atom_site_occupancy
  Er  Er0  1  0.250000  0.999890  0.321764  1
  Er  Er1  1  0.250000  0.499890  0.178236  1
  Sc  Sc2  1  0.750000  0.018786  0.697841  1
  Sc  Sc3  1  0.750000  0.518786  0.802159  1
  Fe  Fe4  1  0.250000  0.142729  0.932125  1
  Fe  Fe5  1  0.250000  0.642729  0.567875  1
  Si  Si6  1  0.250000  0.302963  0.634028  1
  Si  Si7  1  0.250000  0.802963  0.865972  1
  Si  Si8  1  0.750000  0.702119  0.409480  1
  Si  Si9  1  0.750000  0.202119  0.090520  1
  Ir  Ir10  1  0.750000  0.833515  0.056220  1
  Ir  Ir11  1  0.750000  0.333515  0.443780  1
