# generated using pymatgen
data_Ho3ErTm4In3Cu
_symmetry_space_group_name_H-M   'P 1'
_cell_length_a   10.43095800
_cell_length_b   10.43095647
_cell_length_c   6.81085100
_cell_angle_alpha   90.00000000
_cell_angle_beta   90.00000000
_cell_angle_gamma   119.99999217
_symmetry_Int_Tables_number   1
_chemical_formula_structural   Ho3ErTm4In3Cu
_chemical_formula_sum   'Ho6 Er2 Tm8 In6 Cu2'
_cell_volume   641.77142337
_cell_formula_units_Z   2
loop_
 _symmetry_equiv_pos_site_id
 _symmetry_equiv_pos_as_xyz
  1  'x, y, z'
loop_
 _atom_site_type_symbol
 _atom_site_label
 _atom_site_symmetry_multiplicity
 _atom_site_fract_x
 _atom_site_fract_y
 _atom_site_fract_z
 _atom_site_occupancy
  Ho  Ho0  1  0.526197  0.052395  0.795807  1
  Ho  Ho1  1  0.947605  0.473803  0.795807  1
  Ho  Ho2  1  0.526197  0.473803  0.795807  1
  Ho  Ho3  1  0.473803  0.947605  0.295807  1
  Ho  Ho4  1  0.052395  0.526197  0.295807  1
  Ho  Ho5  1  0.473803  0.526197  0.295807  1
  Er  Er6  1  0.000000  0.000000  0.775314  1
  Er  Er7  1  0.000000  0.000000  0.275314  1
  Tm  Tm8  1  0.824663  0.649327  0.505883  1
  Tm  Tm9  1  0.350673  0.175337  0.505883  1
  Tm  Tm10  1  0.824663  0.175337  0.505883  1
  Tm  Tm11  1  0.175337  0.350673  0.005883  1
  Tm  Tm12  1  0.649327  0.824663  0.005883  1
  Tm  Tm13  1  0.175337  0.824663  0.005883  1
  Tm  Tm14  1  0.666667  0.333333  0.169702  1
  Tm  Tm15  1  0.333333  0.666667  0.669702  1
  In  In16  1  0.836066  0.672131  0.033550  1
  In  In17  1  0.327869  0.163934  0.033550  1
  In  In18  1  0.836066  0.163934  0.033550  1
  In  In19  1  0.163934  0.327869  0.533550  1
  In  In20  1  0.672131  0.836066  0.533550  1
  In  In21  1  0.163934  0.836066  0.533550  1
  Cu  Cu22  1  0.666667  0.333333  0.567213  1
  Cu  Cu23  1  0.333333  0.666667  0.067213  1
