# generated using pymatgen
data_Ce11Sm(CoSi)8
_symmetry_space_group_name_H-M   'P 1'
_cell_length_a   5.48203800
_cell_length_b   7.85910717
_cell_length_c   12.30211300
_cell_angle_alpha   90.00000000
_cell_angle_beta   90.00000000
_cell_angle_gamma   90.01187601
_symmetry_Int_Tables_number   1
_chemical_formula_structural   Ce11Sm(CoSi)8
_chemical_formula_sum   'Ce11 Sm1 Co8 Si8'
_cell_volume   530.02329194
_cell_formula_units_Z   1
loop_
 _symmetry_equiv_pos_site_id
 _symmetry_equiv_pos_as_xyz
  1  'x, y, z'
loop_
 _atom_site_type_symbol
 _atom_site_label
 _atom_site_symmetry_multiplicity
 _atom_site_fract_x
 _atom_site_fract_y
 _atom_site_fract_z
 _atom_site_occupancy
  Ce  Ce0  1  0.344687  0.752018  0.250000  1
  Ce  Ce1  1  0.657388  0.246970  0.750000  1
  Ce  Ce2  1  0.653809  0.252792  0.250000  1
  Ce  Ce3  1  0.158017  0.400355  0.407219  1
  Ce  Ce4  1  0.157711  0.102465  0.590974  1
  Ce  Ce5  1  0.840368  0.900312  0.092443  1
  Ce  Ce6  1  0.838655  0.597976  0.908444  1
  Ce  Ce7  1  0.838655  0.597976  0.591556  1
  Ce  Ce8  1  0.840368  0.900312  0.407557  1
  Ce  Ce9  1  0.157711  0.102465  0.909026  1
  Ce  Ce10  1  0.158017  0.400355  0.092781  1
  Sm  Sm11  1  0.345420  0.748790  0.750000  1
  Co  Co12  1  0.379109  0.039772  0.412060  1
  Co  Co13  1  0.381630  0.455669  0.586875  1
  Co  Co14  1  0.616965  0.541239  0.088785  1
  Co  Co15  1  0.625440  0.961329  0.914131  1
  Co  Co16  1  0.379109  0.039772  0.087940  1
  Co  Co17  1  0.381630  0.455669  0.913125  1
  Co  Co18  1  0.616965  0.541239  0.411215  1
  Co  Co19  1  0.625440  0.961329  0.585869  1
  Si  Si20  1  0.647175  0.249590  0.499111  1
  Si  Si21  1  0.352986  0.750322  0.999402  1
  Si  Si22  1  0.352986  0.750322  0.500598  1
  Si  Si23  1  0.647175  0.249590  0.000889  1
  Si  Si24  1  0.841240  0.894851  0.750000  1
  Si  Si25  1  0.840182  0.604397  0.250000  1
  Si  Si26  1  0.162399  0.397969  0.750000  1
  Si  Si27  1  0.158766  0.104150  0.250000  1
