# generated using pymatgen
data_Dy2HoTm(Al8Pt3)3
_symmetry_space_group_name_H-M   'P 1'
_cell_length_a   7.52462437
_cell_length_b   7.54731464
_cell_length_c   13.16575209
_cell_angle_alpha   84.58741390
_cell_angle_beta   79.11960012
_cell_angle_gamma   59.98026780
_symmetry_Int_Tables_number   1
_chemical_formula_structural   Dy2HoTm(Al8Pt3)3
_chemical_formula_sum   'Dy2 Ho1 Tm1 Al24 Pt9'
_cell_volume   635.75385941
_cell_formula_units_Z   1
loop_
 _symmetry_equiv_pos_site_id
 _symmetry_equiv_pos_as_xyz
  1  'x, y, z'
loop_
 _atom_site_type_symbol
 _atom_site_label
 _atom_site_symmetry_multiplicity
 _atom_site_fract_x
 _atom_site_fract_y
 _atom_site_fract_z
 _atom_site_occupancy
  Dy  Dy0  1  0.606447  0.831361  0.192279  1
  Dy  Dy1  1  0.733978  0.498654  0.807583  1
  Ho  Ho2  1  0.393552  0.168693  0.807707  1
  Tm  Tm3  1  0.265709  0.501337  0.192952  1
  Al  Al4  1  0.684251  0.833969  0.944361  1
  Al  Al5  1  0.315607  0.166579  0.055863  1
  Al  Al6  1  0.146595  0.832386  0.561389  1
  Al  Al7  1  0.853457  0.167590  0.438511  1
  Al  Al8  1  0.479415  0.166696  0.558590  1
  Al  Al9  1  0.520549  0.833320  0.441396  1
  Al  Al10  1  0.217158  0.165656  0.329136  1
  Al  Al11  1  0.782752  0.834861  0.670615  1
  Al  Al12  1  0.437101  0.506306  0.670756  1
  Al  Al13  1  0.562601  0.493447  0.329022  1
  Al  Al14  1  0.109627  0.159585  0.669644  1
  Al  Al15  1  0.891035  0.840079  0.330092  1
  Al  Al16  1  0.353032  0.499329  0.944641  1
  Al  Al17  1  0.646373  0.500583  0.055834  1
  Al  Al18  1  0.015828  0.167633  0.952595  1
  Al  Al19  1  0.984558  0.831987  0.047696  1
  Al  Al20  1  0.186835  0.499272  0.441279  1
  Al  Al21  1  0.813252  0.500739  0.558495  1
  Al  Al22  1  0.733768  0.164382  0.183364  1
  Al  Al23  1  0.265893  0.836014  0.816638  1
  Al  Al24  1  0.061696  0.631250  0.815515  1
  Al  Al25  1  0.938769  0.368671  0.184466  1
  Al  Al26  1  0.855334  0.041587  0.816093  1
  Al  Al27  1  0.144635  0.957965  0.183898  1
  Pt  Pt28  1  0.119799  0.491389  0.639072  1
  Pt  Pt29  1  0.880663  0.508626  0.360702  1
  Pt  Pt30  1  0.657037  0.171517  0.999901  1
  Pt  Pt31  1  0.342823  0.828524  0.000263  1
  Pt  Pt32  1  0.537331  0.167203  0.360828  1
  Pt  Pt33  1  0.462370  0.833160  0.638955  1
  Pt  Pt34  1  0.778217  0.175249  0.637450  1
  Pt  Pt35  1  0.221898  0.824368  0.362318  1
  Pt  Pt36  1  0.000057  0.500031  0.000101  1
