# generated using pymatgen
data_Tb2TlHgPt
_symmetry_space_group_name_H-M   'P 1'
_cell_length_a   8.14537100
_cell_length_b   8.11353600
_cell_length_c   3.79587200
_cell_angle_alpha   90.00000000
_cell_angle_beta   90.00000000
_cell_angle_gamma   90.00000000
_symmetry_Int_Tables_number   1
_chemical_formula_structural   Tb2TlHgPt
_chemical_formula_sum   'Tb4 Tl2 Hg2 Pt2'
_cell_volume   250.86068092
_cell_formula_units_Z   2
loop_
 _symmetry_equiv_pos_site_id
 _symmetry_equiv_pos_as_xyz
  1  'x, y, z'
loop_
 _atom_site_type_symbol
 _atom_site_label
 _atom_site_symmetry_multiplicity
 _atom_site_fract_x
 _atom_site_fract_y
 _atom_site_fract_z
 _atom_site_occupancy
  Tb  Tb0  1  0.635924  0.175810  0.500000  1
  Tb  Tb1  1  0.193838  0.335075  0.500000  1
  Tb  Tb2  1  0.864076  0.675810  0.500000  1
  Tb  Tb3  1  0.306162  0.835075  0.500000  1
  Tl  Tl4  1  0.005500  0.002311  0.000000  1
  Tl  Tl5  1  0.494500  0.502311  0.000000  1
  Hg  Hg6  1  0.625432  0.865567  0.000000  1
  Hg  Hg7  1  0.874568  0.365567  0.000000  1
  Pt  Pt8  1  0.371183  0.121238  0.000000  1
  Pt  Pt9  1  0.128817  0.621238  0.000000  1
