# generated using pymatgen
data_Yb3CeHo4(B6Os)4
_symmetry_space_group_name_H-M   'P 1'
_cell_length_a   3.65012800
_cell_length_b   9.15756107
_cell_length_c   11.55006828
_cell_angle_alpha   90.16215214
_cell_angle_beta   90.00000000
_cell_angle_gamma   90.00000000
_symmetry_Int_Tables_number   1
_chemical_formula_structural   Yb3CeHo4(B6Os)4
_chemical_formula_sum   'Yb3 Ce1 Ho4 B24 Os4'
_cell_volume   386.07415584
_cell_formula_units_Z   1
loop_
 _symmetry_equiv_pos_site_id
 _symmetry_equiv_pos_as_xyz
  1  'x, y, z'
loop_
 _atom_site_type_symbol
 _atom_site_label
 _atom_site_symmetry_multiplicity
 _atom_site_fract_x
 _atom_site_fract_y
 _atom_site_fract_z
 _atom_site_occupancy
  Yb  Yb0  1  0.000000  0.677772  0.587740  1
  Yb  Yb1  1  0.000000  0.824821  0.084228  1
  Yb  Yb2  1  0.000000  0.174470  0.913825  1
  Ce  Ce3  1  0.000000  0.324321  0.414654  1
  Ho  Ho4  1  0.000000  0.941465  0.370099  1
  Ho  Ho5  1  0.000000  0.055124  0.631540  1
  Ho  Ho6  1  0.000000  0.443063  0.128124  1
  Ho  Ho7  1  0.000000  0.558806  0.869275  1
  B  B8  1  0.500000  0.555129  0.432290  1
  B  B9  1  0.500000  0.446281  0.568364  1
  B  B10  1  0.500000  0.054111  0.067549  1
  B  B11  1  0.500000  0.946344  0.933187  1
  B  B12  1  0.500000  0.748318  0.418211  1
  B  B13  1  0.500000  0.251470  0.582387  1
  B  B14  1  0.500000  0.247589  0.081184  1
  B  B15  1  0.500000  0.752534  0.918181  1
  B  B16  1  0.500000  0.790282  0.265312  1
  B  B17  1  0.500000  0.209091  0.735413  1
  B  B18  1  0.500000  0.290537  0.233584  1
  B  B19  1  0.500000  0.709404  0.765564  1
  B  B20  1  0.500000  0.631684  0.184877  1
  B  B21  1  0.500000  0.368858  0.813654  1
  B  B22  1  0.500000  0.131103  0.314155  1
  B  B23  1  0.500000  0.868249  0.686628  1
  B  B24  1  0.500000  0.983595  0.211430  1
  B  B25  1  0.500000  0.015979  0.789081  1
  B  B26  1  0.500000  0.484872  0.287396  1
  B  B27  1  0.500000  0.516572  0.712264  1
  B  B28  1  0.500000  0.600234  0.027007  1
  B  B29  1  0.500000  0.400157  0.971483  1
  B  B30  1  0.500000  0.100342  0.472424  1
  B  B31  1  0.500000  0.897401  0.528459  1
  Os  Os32  1  0.000000  0.636919  0.320608  1
  Os  Os33  1  0.000000  0.361243  0.677543  1
  Os  Os34  1  0.000000  0.140305  0.181705  1
  Os  Os35  1  0.000000  0.861551  0.820572  1
