# generated using pymatgen
data_DyHo4Cr3(P3Ir4)4
_symmetry_space_group_name_H-M   'P 1'
_cell_length_a   12.62588500
_cell_length_b   12.62572180
_cell_length_c   3.95457900
_cell_angle_alpha   90.00000000
_cell_angle_beta   90.00000000
_cell_angle_gamma   120.00042496
_symmetry_Int_Tables_number   1
_chemical_formula_structural   DyHo4Cr3(P3Ir4)4
_chemical_formula_sum   'Dy1 Ho4 Cr3 P12 Ir16'
_cell_volume   545.94271209
_cell_formula_units_Z   1
loop_
 _symmetry_equiv_pos_site_id
 _symmetry_equiv_pos_as_xyz
  1  'x, y, z'
loop_
 _atom_site_type_symbol
 _atom_site_label
 _atom_site_symmetry_multiplicity
 _atom_site_fract_x
 _atom_site_fract_y
 _atom_site_fract_z
 _atom_site_occupancy
  Dy  Dy0  1  0.810644  0.000000  0.000000  1
  Ho  Ho1  1  0.333339  0.666680  0.500000  1
  Ho  Ho2  1  0.666660  0.333320  0.500000  1
  Ho  Ho3  1  0.999997  0.810628  0.000000  1
  Ho  Ho4  1  0.189368  0.189372  0.000000  1
  Cr  Cr5  1  0.999999  0.453452  0.500000  1
  Cr  Cr6  1  0.546547  0.546548  0.500000  1
  Cr  Cr7  1  0.453440  0.000000  0.500000  1
  P  P8  1  0.999999  0.632386  0.500000  1
  P  P9  1  0.367613  0.367614  0.500000  1
  P  P10  1  0.632312  0.000000  0.500000  1
  P  P11  1  0.516178  0.684183  0.000000  1
  P  P12  1  0.315832  0.832000  0.000000  1
  P  P13  1  0.168008  0.483838  0.000000  1
  P  P14  1  0.483832  0.168000  0.000000  1
  P  P15  1  0.684170  0.516162  0.000000  1
  P  P16  1  0.831996  0.315817  0.000000  1
  P  P17  1  0.000049  0.177684  0.500000  1
  P  P18  1  0.822365  0.822316  0.500000  1
  P  P19  1  0.177642  0.000000  0.500000  1
  Ir  Ir20  1  0.509292  0.868472  0.000000  1
  Ir  Ir21  1  0.131524  0.640829  0.000000  1
  Ir  Ir22  1  0.359172  0.490698  0.000000  1
  Ir  Ir23  1  0.490695  0.359171  0.000000  1
  Ir  Ir24  1  0.868475  0.509302  0.000000  1
  Ir  Ir25  1  0.640820  0.131528  0.000000  1
  Ir  Ir26  1  0.000031  0.287268  0.000000  1
  Ir  Ir27  1  0.712763  0.712732  0.000000  1
  Ir  Ir28  1  0.287219  0.000000  0.000000  1
  Ir  Ir29  1  0.623681  0.802656  0.500000  1
  Ir  Ir30  1  0.197230  0.821010  0.500000  1
  Ir  Ir31  1  0.178989  0.376219  0.500000  1
  Ir  Ir32  1  0.376220  0.178990  0.500000  1
  Ir  Ir33  1  0.802770  0.623781  0.500000  1
  Ir  Ir34  1  0.821024  0.197344  0.500000  1
  Ir  Ir35  1  0.000104  0.000000  0.500000  1
