# generated using pymatgen
data_Li3Ni9As7Pd2
_symmetry_space_group_name_H-M   'P 1'
_cell_length_a   9.46534873
_cell_length_b   9.46358905
_cell_length_c   3.78709600
_cell_angle_alpha   90.00000000
_cell_angle_beta   90.00000000
_cell_angle_gamma   120.26835234
_symmetry_Int_Tables_number   1
_chemical_formula_structural   Li3Ni9As7Pd2
_chemical_formula_sum   'Li3 Ni9 As7 Pd2'
_cell_volume   292.98723674
_cell_formula_units_Z   1
loop_
 _symmetry_equiv_pos_site_id
 _symmetry_equiv_pos_as_xyz
  1  'x, y, z'
loop_
 _atom_site_type_symbol
 _atom_site_label
 _atom_site_symmetry_multiplicity
 _atom_site_fract_x
 _atom_site_fract_y
 _atom_site_fract_z
 _atom_site_occupancy
  Li  Li0  1  0.787187  0.228692  0.500000  1
  Li  Li1  1  0.332876  0.666198  0.000000  1
  Li  Li2  1  0.994364  0.001028  0.500000  1
  Ni  Ni3  1  0.277595  0.379156  0.500000  1
  Ni  Ni4  1  0.624387  0.902801  0.500000  1
  Ni  Ni5  1  0.102153  0.722547  0.500000  1
  Ni  Ni6  1  0.498136  0.452425  0.000000  1
  Ni  Ni7  1  0.549379  0.047574  0.000000  1
  Ni  Ni8  1  0.955505  0.502184  0.000000  1
  Ni  Ni9  1  0.720512  0.760487  0.000000  1
  Ni  Ni10  1  0.239970  0.959061  0.000000  1
  Ni  Ni11  1  0.043443  0.284522  0.000000  1
  As  As12  1  0.967153  0.761014  0.000000  1
  As  As13  1  0.238357  0.205451  0.000000  1
  As  As14  1  0.793257  0.034602  0.000000  1
  As  As15  1  0.667156  0.332300  0.000000  1
  As  As16  1  0.535678  0.625419  0.500000  1
  As  As17  1  0.377852  0.912198  0.500000  1
  As  As18  1  0.086014  0.462649  0.500000  1
  Pd  Pd19  1  0.761697  0.549333  0.500000  1
  Pd  Pd20  1  0.447331  0.210359  0.500000  1
