# generated using pymatgen
data_Ce3SnAuS7
_symmetry_space_group_name_H-M   'P 1'
_cell_length_a   10.33784915
_cell_length_b   10.33405330
_cell_length_c   6.07395733
_cell_angle_alpha   90.01697489
_cell_angle_beta   90.02034414
_cell_angle_gamma   120.01633363
_symmetry_Int_Tables_number   1
_chemical_formula_structural   Ce3SnAuS7
_chemical_formula_sum   'Ce6 Sn2 Au2 S14'
_cell_volume   561.86458703
_cell_formula_units_Z   2
loop_
 _symmetry_equiv_pos_site_id
 _symmetry_equiv_pos_as_xyz
  1  'x, y, z'
loop_
 _atom_site_type_symbol
 _atom_site_label
 _atom_site_symmetry_multiplicity
 _atom_site_fract_x
 _atom_site_fract_y
 _atom_site_fract_z
 _atom_site_occupancy
  Ce  Ce0  1  0.130469  0.358140  0.254774  1
  Ce  Ce1  1  0.641014  0.772221  0.254371  1
  Ce  Ce2  1  0.227255  0.869508  0.255452  1
  Ce  Ce3  1  0.772082  0.130456  0.752966  1
  Ce  Ce4  1  0.358606  0.227854  0.754801  1
  Ce  Ce5  1  0.869380  0.641682  0.754407  1
  Sn  Sn6  1  0.666383  0.332010  0.177828  1
  Sn  Sn7  1  0.334589  0.667751  0.678604  1
  Au  Au8  1  0.999265  0.000220  0.299604  1
  Au  Au9  1  0.000569  0.000330  0.799226  1
  S  S10  1  0.513735  0.089853  0.003920  1
  S  S11  1  0.576183  0.484514  0.005425  1
  S  S12  1  0.908787  0.423074  0.003891  1
  S  S13  1  0.333090  0.666986  0.071630  1
  S  S14  1  0.898542  0.730890  0.281063  1
  S  S15  1  0.831914  0.101935  0.281507  1
  S  S16  1  0.269009  0.167637  0.281089  1
  S  S17  1  0.486130  0.909884  0.504043  1
  S  S18  1  0.423830  0.514937  0.504428  1
  S  S19  1  0.092181  0.576770  0.504899  1
  S  S20  1  0.666562  0.333528  0.570585  1
  S  S21  1  0.102013  0.269597  0.780742  1
  S  S22  1  0.730897  0.832191  0.782876  1
  S  S23  1  0.167516  0.898033  0.779870  1
