# generated using pymatgen
data_ErTm7B24(MoRh)2
_symmetry_space_group_name_H-M   'P 1'
_cell_length_a   3.62767200
_cell_length_b   9.12072353
_cell_length_c   11.51840400
_cell_angle_alpha   90.40336262
_cell_angle_beta   90.00000000
_cell_angle_gamma   90.00000000
_symmetry_Int_Tables_number   1
_chemical_formula_structural   ErTm7B24(MoRh)2
_chemical_formula_sum   'Er1 Tm7 B24 Mo2 Rh2'
_cell_volume   381.09991277
_cell_formula_units_Z   1
loop_
 _symmetry_equiv_pos_site_id
 _symmetry_equiv_pos_as_xyz
  1  'x, y, z'
loop_
 _atom_site_type_symbol
 _atom_site_label
 _atom_site_symmetry_multiplicity
 _atom_site_fract_x
 _atom_site_fract_y
 _atom_site_fract_z
 _atom_site_occupancy
  Er  Er0  1  0.500000  0.318667  0.411690  1
  Tm  Tm1  1  0.500000  0.681432  0.588302  1
  Tm  Tm2  1  0.500000  0.174912  0.916934  1
  Tm  Tm3  1  0.500000  0.825105  0.083084  1
  Tm  Tm4  1  0.500000  0.443592  0.126842  1
  Tm  Tm5  1  0.500000  0.556381  0.873132  1
  Tm  Tm6  1  0.500000  0.054807  0.627937  1
  Tm  Tm7  1  0.500000  0.945086  0.372069  1
  B  B8  1  0.000000  0.106533  0.471866  1
  B  B9  1  0.000000  0.893226  0.528203  1
  B  B10  1  0.000000  0.394901  0.970273  1
  B  B11  1  0.000000  0.605110  0.029714  1
  B  B12  1  0.000000  0.132456  0.317585  1
  B  B13  1  0.000000  0.867376  0.682284  1
  B  B14  1  0.000000  0.368253  0.815876  1
  B  B15  1  0.000000  0.631761  0.184144  1
  B  B16  1  0.000000  0.051757  0.065830  1
  B  B17  1  0.000000  0.948237  0.934164  1
  B  B18  1  0.000000  0.446197  0.565609  1
  B  B19  1  0.000000  0.554075  0.434540  1
  B  B20  1  0.000000  0.483405  0.288162  1
  B  B21  1  0.000000  0.516793  0.711747  1
  B  B22  1  0.000000  0.020669  0.786258  1
  B  B23  1  0.000000  0.979304  0.213750  1
  B  B24  1  0.000000  0.250595  0.079133  1
  B  B25  1  0.000000  0.749416  0.920857  1
  B  B26  1  0.000000  0.250228  0.579226  1
  B  B27  1  0.000000  0.749738  0.420984  1
  B  B28  1  0.000000  0.296046  0.236493  1
  B  B29  1  0.000000  0.703874  0.763320  1
  B  B30  1  0.000000  0.208607  0.734282  1
  B  B31  1  0.000000  0.791396  0.265762  1
  Mo  Mo32  1  0.500000  0.139419  0.181286  1
  Mo  Mo33  1  0.500000  0.860506  0.818626  1
  Rh  Rh34  1  0.500000  0.361655  0.678241  1
  Rh  Rh35  1  0.500000  0.638483  0.321797  1
