# generated using pymatgen
data_Hf16TaCo4Tc3
_symmetry_space_group_name_H-M   'P 1'
_cell_length_a   8.65875209
_cell_length_b   8.65875236
_cell_length_c   8.65875300
_cell_angle_alpha   59.66281282
_cell_angle_beta   59.66281178
_cell_angle_gamma   59.66281321
_symmetry_Int_Tables_number   1
_chemical_formula_structural   Hf16TaCo4Tc3
_chemical_formula_sum   'Hf16 Ta1 Co4 Tc3'
_cell_volume   455.52379634
_cell_formula_units_Z   1
loop_
 _symmetry_equiv_pos_site_id
 _symmetry_equiv_pos_as_xyz
  1  'x, y, z'
loop_
 _atom_site_type_symbol
 _atom_site_label
 _atom_site_symmetry_multiplicity
 _atom_site_fract_x
 _atom_site_fract_y
 _atom_site_fract_z
 _atom_site_occupancy
  Hf  Hf0  1  0.048849  0.650845  0.650845  1
  Hf  Hf1  1  0.650845  0.048849  0.650845  1
  Hf  Hf2  1  0.650845  0.650845  0.048849  1
  Hf  Hf3  1  0.648150  0.648150  0.648150  1
  Hf  Hf4  1  0.797826  0.797826  0.201580  1
  Hf  Hf5  1  0.198733  0.198733  0.801935  1
  Hf  Hf6  1  0.797826  0.201580  0.797826  1
  Hf  Hf7  1  0.198733  0.801935  0.198733  1
  Hf  Hf8  1  0.201580  0.797826  0.797826  1
  Hf  Hf9  1  0.801935  0.198733  0.198733  1
  Hf  Hf10  1  0.435461  0.435461  0.061945  1
  Hf  Hf11  1  0.063944  0.063944  0.435542  1
  Hf  Hf12  1  0.435461  0.061945  0.435461  1
  Hf  Hf13  1  0.063944  0.435542  0.063944  1
  Hf  Hf14  1  0.061945  0.435461  0.435461  1
  Hf  Hf15  1  0.435542  0.063944  0.063944  1
  Ta  Ta16  1  0.423293  0.423293  0.423293  1
  Co  Co17  1  0.422599  0.858589  0.858589  1
  Co  Co18  1  0.858589  0.422599  0.858589  1
  Co  Co19  1  0.858589  0.858589  0.422599  1
  Co  Co20  1  0.859468  0.859468  0.859468  1
  Tc  Tc21  1  0.755853  0.414996  0.414996  1
  Tc  Tc22  1  0.414996  0.755853  0.414996  1
  Tc  Tc23  1  0.414996  0.414996  0.755853  1
