# generated using pymatgen
data_Sr4Te3IrO16
_symmetry_space_group_name_H-M   'P 1'
_cell_length_a   5.12940763
_cell_length_b   5.66228099
_cell_length_c   13.15753900
_cell_angle_alpha   90.00000000
_cell_angle_beta   90.00000000
_cell_angle_gamma   89.60346585
_symmetry_Int_Tables_number   1
_chemical_formula_structural   Sr4Te3IrO16
_chemical_formula_sum   'Sr4 Te3 Ir1 O16'
_cell_volume   382.14034902
_cell_formula_units_Z   1
loop_
 _symmetry_equiv_pos_site_id
 _symmetry_equiv_pos_as_xyz
  1  'x, y, z'
loop_
 _atom_site_type_symbol
 _atom_site_label
 _atom_site_symmetry_multiplicity
 _atom_site_fract_x
 _atom_site_fract_y
 _atom_site_fract_z
 _atom_site_occupancy
  Sr  Sr0  1  0.750000  0.000000  0.663884  1
  Sr  Sr1  1  0.250000  0.500000  0.831458  1
  Sr  Sr2  1  0.250000  0.000000  0.337105  1
  Sr  Sr3  1  0.750000  0.500000  0.165416  1
  Te  Te4  1  0.250000  0.000000  0.070963  1
  Te  Te5  1  0.250000  0.500000  0.568284  1
  Te  Te6  1  0.750000  0.000000  0.930496  1
  Ir  Ir7  1  0.750000  0.500000  0.432130  1
  O  O8  1  0.127753  0.286127  0.666350  1
  O  O9  1  0.630901  0.215559  0.832931  1
  O  O10  1  0.869099  0.784441  0.832931  1
  O  O11  1  0.372247  0.713873  0.666350  1
  O  O12  1  0.873946  0.708740  0.332825  1
  O  O13  1  0.369798  0.785453  0.169822  1
  O  O14  1  0.130202  0.214547  0.169822  1
  O  O15  1  0.626054  0.291260  0.332825  1
  O  O16  1  0.569350  0.309756  0.542223  1
  O  O17  1  0.069568  0.189645  0.958600  1
  O  O18  1  0.430432  0.810355  0.958600  1
  O  O19  1  0.930650  0.690244  0.542223  1
  O  O20  1  0.426205  0.686033  0.453211  1
  O  O21  1  0.930457  0.811122  0.044171  1
  O  O22  1  0.569543  0.188878  0.044171  1
  O  O23  1  0.073795  0.313967  0.453211  1
