# generated using pymatgen
data_ThPd3(SeO3)8
_symmetry_space_group_name_H-M   'P 1'
_cell_length_a   8.29430010
_cell_length_b   8.29430005
_cell_length_c   8.29430010
_cell_angle_alpha   90.99168619
_cell_angle_beta   89.00830673
_cell_angle_gamma   90.99169715
_symmetry_Int_Tables_number   1
_chemical_formula_structural   ThPd3(SeO3)8
_chemical_formula_sum   'Th1 Pd3 Se8 O24'
_cell_volume   570.35632197
_cell_formula_units_Z   1
loop_
 _symmetry_equiv_pos_site_id
 _symmetry_equiv_pos_as_xyz
  1  'x, y, z'
loop_
 _atom_site_type_symbol
 _atom_site_label
 _atom_site_symmetry_multiplicity
 _atom_site_fract_x
 _atom_site_fract_y
 _atom_site_fract_z
 _atom_site_occupancy
  Th  Th0  1  0.000000  0.500000  0.500000  1
  Pd  Pd1  1  0.500000  0.500000  0.000000  1
  Pd  Pd2  1  0.500000  0.000000  0.500000  1
  Pd  Pd3  1  0.000000  0.000000  0.000000  1
  Se  Se4  1  0.815469  0.118582  0.694232  1
  Se  Se5  1  0.184531  0.881418  0.305768  1
  Se  Se6  1  0.618582  0.694232  0.684531  1
  Se  Se7  1  0.194232  0.684531  0.881418  1
  Se  Se8  1  0.325770  0.174230  0.825770  1
  Se  Se9  1  0.805768  0.315469  0.118582  1
  Se  Se10  1  0.674230  0.825770  0.174230  1
  Se  Se11  1  0.381418  0.305768  0.315469  1
  O  O12  1  0.256815  0.421848  0.433636  1
  O  O13  1  0.956449  0.239643  0.984664  1
  O  O14  1  0.066364  0.756815  0.421848  1
  O  O15  1  0.463133  0.259172  0.962605  1
  O  O16  1  0.260357  0.015336  0.456449  1
  O  O17  1  0.484664  0.543551  0.760357  1
  O  O18  1  0.962225  0.984078  0.759322  1
  O  O19  1  0.536867  0.740828  0.037395  1
  O  O20  1  0.537395  0.963133  0.259172  1
  O  O21  1  0.462605  0.036867  0.740828  1
  O  O22  1  0.759172  0.962605  0.036867  1
  O  O23  1  0.259322  0.537775  0.015922  1
  O  O24  1  0.078152  0.566364  0.756815  1
  O  O25  1  0.037775  0.015922  0.240678  1
  O  O26  1  0.240828  0.037395  0.963133  1
  O  O27  1  0.515336  0.456449  0.239643  1
  O  O28  1  0.743185  0.578152  0.566364  1
  O  O29  1  0.921848  0.433636  0.243185  1
  O  O30  1  0.043551  0.760357  0.015336  1
  O  O31  1  0.515922  0.240678  0.462225  1
  O  O32  1  0.484078  0.759322  0.537775  1
  O  O33  1  0.933636  0.243185  0.578152  1
  O  O34  1  0.739643  0.984664  0.543551  1
  O  O35  1  0.740678  0.462225  0.984078  1
