# generated using pymatgen
data_Lu4In3Co2
_symmetry_space_group_name_H-M   'P 1'
_cell_length_a   3.58381700
_cell_length_b   7.22610253
_cell_length_c   8.03465862
_cell_angle_alpha   72.23448844
_cell_angle_beta   90.00000000
_cell_angle_gamma   90.00000000
_symmetry_Int_Tables_number   1
_chemical_formula_structural   Lu4In3Co2
_chemical_formula_sum   'Lu4 In3 Co2'
_cell_volume   198.15142108
_cell_formula_units_Z   1
loop_
 _symmetry_equiv_pos_site_id
 _symmetry_equiv_pos_as_xyz
  1  'x, y, z'
loop_
 _atom_site_type_symbol
 _atom_site_label
 _atom_site_symmetry_multiplicity
 _atom_site_fract_x
 _atom_site_fract_y
 _atom_site_fract_z
 _atom_site_occupancy
  Lu  Lu0  1  0.500000  0.606893  0.178684  1
  Lu  Lu1  1  0.500000  0.393107  0.821316  1
  Lu  Lu2  1  0.500000  0.092355  0.276323  1
  Lu  Lu3  1  0.500000  0.907645  0.723677  1
  In  In4  1  0.000000  0.705746  0.506101  1
  In  In5  1  0.000000  0.000000  0.000000  1
  In  In6  1  0.000000  0.294254  0.493899  1
  Co  Co7  1  0.000000  0.650778  0.894349  1
  Co  Co8  1  0.000000  0.349222  0.105651  1
