# generated using pymatgen
data_CsEuNiS
_symmetry_space_group_name_H-M   'P 1'
_cell_length_a   8.81770700
_cell_length_b   8.81770789
_cell_length_c   33.70310200
_cell_angle_alpha   90.00000000
_cell_angle_beta   90.00000000
_cell_angle_gamma   120.00000043
_symmetry_Int_Tables_number   1
_chemical_formula_structural   CsEuNiS
_chemical_formula_sum   'Cs2 Eu2 Ni2 S2'
_cell_volume   2269.40431195
_cell_formula_units_Z   2
loop_
 _symmetry_equiv_pos_site_id
 _symmetry_equiv_pos_as_xyz
  1  'x, y, z'
loop_
 _atom_site_type_symbol
 _atom_site_label
 _atom_site_symmetry_multiplicity
 _atom_site_fract_x
 _atom_site_fract_y
 _atom_site_fract_z
 _atom_site_occupancy
  Cs  Cs0  1  0.333333  0.666667  0.250968  1
  Cs  Cs1  1  0.666667  0.333333  0.749032  1
  Eu  Eu2  1  0.000000  0.000000  0.500000  1
  Eu  Eu3  1  0.000000  0.000000  0.000000  1
  Ni  Ni4  1  0.333333  0.666667  0.906654  1
  Ni  Ni5  1  0.666667  0.333333  0.093346  1
  S  S6  1  0.666667  0.333333  0.409451  1
  S  S7  1  0.333333  0.666667  0.590549  1
