# generated using pymatgen
data_Cs3Nb2Ag3Se8
_symmetry_space_group_name_H-M   'P 1'
_cell_length_a   13.63827285
_cell_length_b   13.63827187
_cell_length_c   16.00964322
_cell_angle_alpha   61.76564972
_cell_angle_beta   61.76565236
_cell_angle_gamma   26.35182040
_symmetry_Int_Tables_number   1
_chemical_formula_structural   Cs3Nb2Ag3Se8
_chemical_formula_sum   'Cs6 Nb4 Ag6 Se16'
_cell_volume   1155.29985357
_cell_formula_units_Z   2
loop_
 _symmetry_equiv_pos_site_id
 _symmetry_equiv_pos_as_xyz
  1  'x, y, z'
loop_
 _atom_site_type_symbol
 _atom_site_label
 _atom_site_symmetry_multiplicity
 _atom_site_fract_x
 _atom_site_fract_y
 _atom_site_fract_z
 _atom_site_occupancy
  Cs  Cs0  1  0.638657  0.747204  0.401372  1
  Cs  Cs1  1  0.361343  0.252796  0.598628  1
  Cs  Cs2  1  0.747204  0.638657  0.901372  1
  Cs  Cs3  1  0.000000  0.000000  0.500000  1
  Cs  Cs4  1  0.252796  0.361343  0.098628  1
  Cs  Cs5  1  0.000000  0.000000  0.000000  1
  Nb  Nb6  1  0.161409  0.588737  0.778393  1
  Nb  Nb7  1  0.838591  0.411263  0.221607  1
  Nb  Nb8  1  0.588737  0.161409  0.278393  1
  Nb  Nb9  1  0.411263  0.838591  0.721607  1
  Ag  Ag10  1  0.282024  0.717976  0.750000  1
  Ag  Ag11  1  0.717976  0.282024  0.250000  1
  Ag  Ag12  1  0.661110  0.088563  0.783656  1
  Ag  Ag13  1  0.911437  0.338890  0.716344  1
  Ag  Ag14  1  0.338890  0.911437  0.216344  1
  Ag  Ag15  1  0.088563  0.661110  0.283656  1
  Se  Se16  1  0.537471  0.552668  0.340854  1
  Se  Se17  1  0.097332  0.215388  0.311964  1
  Se  Se18  1  0.289402  0.295535  0.384236  1
  Se  Se19  1  0.977729  0.830819  0.878130  1
  Se  Se20  1  0.022271  0.169181  0.121870  1
  Se  Se21  1  0.447332  0.462529  0.159146  1
  Se  Se22  1  0.830819  0.977729  0.378130  1
  Se  Se23  1  0.462529  0.447332  0.659146  1
  Se  Se24  1  0.169181  0.022271  0.621870  1
  Se  Se25  1  0.295535  0.289402  0.884236  1
  Se  Se26  1  0.704465  0.710598  0.115764  1
  Se  Se27  1  0.710598  0.704465  0.615764  1
  Se  Se28  1  0.784612  0.902668  0.188036  1
  Se  Se29  1  0.902668  0.784612  0.688036  1
  Se  Se30  1  0.552668  0.537471  0.840854  1
  Se  Se31  1  0.215388  0.097332  0.811964  1
