# generated using pymatgen
data_Ho5Tm3Ti11Si16W
_symmetry_space_group_name_H-M   'P 1'
_cell_length_a   7.00996459
_cell_length_b   7.00891138
_cell_length_c   12.88559815
_cell_angle_alpha   89.97310163
_cell_angle_beta   90.03420028
_cell_angle_gamma   90.02668976
_symmetry_Int_Tables_number   1
_chemical_formula_structural   Ho5Tm3Ti11Si16W
_chemical_formula_sum   'Ho5 Tm3 Ti11 Si16 W1'
_cell_volume   633.09779939
_cell_formula_units_Z   1
loop_
 _symmetry_equiv_pos_site_id
 _symmetry_equiv_pos_as_xyz
  1  'x, y, z'
loop_
 _atom_site_type_symbol
 _atom_site_label
 _atom_site_symmetry_multiplicity
 _atom_site_fract_x
 _atom_site_fract_y
 _atom_site_fract_z
 _atom_site_occupancy
  Ho  Ho0  1  0.840239  0.496963  0.282586  1
  Ho  Ho1  1  0.159435  0.501385  0.784272  1
  Ho  Ho2  1  0.657953  0.998331  0.967077  1
  Ho  Ho3  1  0.003223  0.340565  0.532947  1
  Ho  Ho4  1  0.998299  0.658131  0.033004  1
  Tm  Tm5  1  0.341153  0.002612  0.466959  1
  Tm  Tm6  1  0.497481  0.840659  0.717290  1
  Tm  Tm7  1  0.500703  0.159038  0.215671  1
  Ti  Ti8  1  0.174162  0.827540  0.249619  1
  Ti  Ti9  1  0.827084  0.173671  0.750411  1
  Ti  Ti10  1  0.672745  0.673357  0.500050  1
  Ti  Ti11  1  0.153719  0.008517  0.876400  1
  Ti  Ti12  1  0.492035  0.651071  0.124413  1
  Ti  Ti13  1  0.506742  0.349087  0.626176  1
  Ti  Ti14  1  0.651035  0.491986  0.875569  1
  Ti  Ti15  1  0.349155  0.507005  0.373733  1
  Ti  Ti16  1  0.848415  0.992782  0.375729  1
  Ti  Ti17  1  0.008821  0.153472  0.123575  1
  Ti  Ti18  1  0.992651  0.848583  0.624217  1
  Si  Si19  1  0.202906  0.130380  0.684112  1
  Si  Si20  1  0.369444  0.701101  0.933976  1
  Si  Si21  1  0.630414  0.296759  0.434002  1
  Si  Si22  1  0.700554  0.368943  0.066146  1
  Si  Si23  1  0.297746  0.631806  0.566039  1
  Si  Si24  1  0.797119  0.869621  0.184235  1
  Si  Si25  1  0.131800  0.201893  0.315886  1
  Si  Si26  1  0.868637  0.797606  0.815605  1
  Si  Si27  1  0.291299  0.954469  0.064951  1
  Si  Si28  1  0.546090  0.792594  0.314926  1
  Si  Si29  1  0.452760  0.207733  0.815346  1
  Si  Si30  1  0.791351  0.546909  0.685138  1
  Si  Si31  1  0.208614  0.452263  0.184507  1
  Si  Si32  1  0.707826  0.046778  0.564989  1
  Si  Si33  1  0.954110  0.290920  0.935263  1
  Si  Si34  1  0.047649  0.709120  0.435079  1
  W  W35  1  0.326633  0.326348  0.000105  1
