# generated using pymatgen
data_Er9LuIrPt5
_symmetry_space_group_name_H-M   'P 1'
_cell_length_a   10.94011800
_cell_length_b   10.94611800
_cell_length_c   6.35988100
_cell_angle_alpha   90.00000000
_cell_angle_beta   90.00000000
_cell_angle_gamma   90.00000000
_symmetry_Int_Tables_number   1
_chemical_formula_structural   Er9LuIrPt5
_chemical_formula_sum   'Er18 Lu2 Ir2 Pt10'
_cell_volume   761.60734103
_cell_formula_units_Z   2
loop_
 _symmetry_equiv_pos_site_id
 _symmetry_equiv_pos_as_xyz
  1  'x, y, z'
loop_
 _atom_site_type_symbol
 _atom_site_label
 _atom_site_symmetry_multiplicity
 _atom_site_fract_x
 _atom_site_fract_y
 _atom_site_fract_z
 _atom_site_occupancy
  Er  Er0  1  0.291807  0.087780  0.377056  1
  Er  Er1  1  0.291807  0.912220  0.877056  1
  Er  Er2  1  0.708193  0.087780  0.877056  1
  Er  Er3  1  0.708193  0.912220  0.377056  1
  Er  Er4  1  0.587835  0.792072  0.876881  1
  Er  Er5  1  0.587835  0.207928  0.376881  1
  Er  Er6  1  0.412165  0.792072  0.376881  1
  Er  Er7  1  0.412165  0.207928  0.876881  1
  Er  Er8  1  0.205591  0.412846  0.623711  1
  Er  Er9  1  0.205591  0.587154  0.123711  1
  Er  Er10  1  0.794409  0.412846  0.123711  1
  Er  Er11  1  0.794409  0.587154  0.623711  1
  Er  Er12  1  0.912878  0.705985  0.123579  1
  Er  Er13  1  0.912878  0.294015  0.623579  1
  Er  Er14  1  0.087122  0.705985  0.623579  1
  Er  Er15  1  0.087122  0.294015  0.123579  1
  Er  Er16  1  0.500000  0.500000  0.000523  1
  Er  Er17  1  0.500000  0.500000  0.500523  1
  Lu  Lu18  1  0.000000  0.000000  0.500602  1
  Lu  Lu19  1  0.000000  0.000000  0.000602  1
  Ir  Ir20  1  0.000000  0.500000  0.879905  1
  Ir  Ir21  1  0.000000  0.500000  0.379905  1
  Pt  Pt22  1  0.846559  0.152302  0.249811  1
  Pt  Pt23  1  0.846559  0.847698  0.749811  1
  Pt  Pt24  1  0.153441  0.152302  0.749811  1
  Pt  Pt25  1  0.153441  0.847698  0.249811  1
  Pt  Pt26  1  0.653093  0.345783  0.749768  1
  Pt  Pt27  1  0.653093  0.654217  0.249768  1
  Pt  Pt28  1  0.346907  0.345783  0.249768  1
  Pt  Pt29  1  0.346907  0.654217  0.749768  1
  Pt  Pt30  1  0.500000  0.000000  0.117354  1
  Pt  Pt31  1  0.500000  0.000000  0.617354  1
