# generated using pymatgen
data_Pr4Ga3Pd4Au
_symmetry_space_group_name_H-M   'P 1'
_cell_length_a   4.59253400
_cell_length_b   7.23751567
_cell_length_c   7.89697216
_cell_angle_alpha   90.61430611
_cell_angle_beta   90.00000000
_cell_angle_gamma   90.00000000
_symmetry_Int_Tables_number   1
_chemical_formula_structural   Pr4Ga3Pd4Au
_chemical_formula_sum   'Pr4 Ga3 Pd4 Au1'
_cell_volume   262.46871312
_cell_formula_units_Z   1
loop_
 _symmetry_equiv_pos_site_id
 _symmetry_equiv_pos_as_xyz
  1  'x, y, z'
loop_
 _atom_site_type_symbol
 _atom_site_label
 _atom_site_symmetry_multiplicity
 _atom_site_fract_x
 _atom_site_fract_y
 _atom_site_fract_z
 _atom_site_occupancy
  Pr  Pr0  1  0.250000  0.011586  0.704265  1
  Pr  Pr1  1  0.250000  0.516280  0.803857  1
  Pr  Pr2  1  0.750000  0.983408  0.298155  1
  Pr  Pr3  1  0.750000  0.477601  0.195400  1
  Ga  Ga4  1  0.250000  0.680814  0.422519  1
  Ga  Ga5  1  0.750000  0.820009  0.923545  1
  Ga  Ga6  1  0.750000  0.328936  0.572419  1
  Pd  Pd7  1  0.250000  0.304311  0.427180  1
  Pd  Pd8  1  0.250000  0.772693  0.095539  1
  Pd  Pd9  1  0.750000  0.709847  0.592535  1
  Pd  Pd10  1  0.750000  0.209454  0.879122  1
  Au  Au11  1  0.250000  0.185061  0.085464  1
