# generated using pymatgen
data_Ce4Hg2PdRu3
_symmetry_space_group_name_H-M   'P 1'
_cell_length_a   7.66614430
_cell_length_b   7.66614372
_cell_length_c   3.69603600
_cell_angle_alpha   90.00000000
_cell_angle_beta   90.00000000
_cell_angle_gamma   89.08970927
_symmetry_Int_Tables_number   1
_chemical_formula_structural   Ce4Hg2PdRu3
_chemical_formula_sum   'Ce4 Hg2 Pd1 Ru3'
_cell_volume   217.18774971
_cell_formula_units_Z   1
loop_
 _symmetry_equiv_pos_site_id
 _symmetry_equiv_pos_as_xyz
  1  'x, y, z'
loop_
 _atom_site_type_symbol
 _atom_site_label
 _atom_site_symmetry_multiplicity
 _atom_site_fract_x
 _atom_site_fract_y
 _atom_site_fract_z
 _atom_site_occupancy
  Ce  Ce0  1  0.652163  0.152163  0.500000  1
  Ce  Ce1  1  0.183816  0.331232  0.500000  1
  Ce  Ce2  1  0.831232  0.683816  0.500000  1
  Ce  Ce3  1  0.321901  0.821901  0.500000  1
  Hg  Hg4  1  0.998859  0.005308  0.000000  1
  Hg  Hg5  1  0.505308  0.498859  0.000000  1
  Pd  Pd6  1  0.868965  0.368965  0.000000  1
  Ru  Ru7  1  0.359571  0.140259  0.000000  1
  Ru  Ru8  1  0.137925  0.637925  0.000000  1
  Ru  Ru9  1  0.640259  0.859571  0.000000  1
