# generated using pymatgen
data_Zr10Cd2InBi5
_symmetry_space_group_name_H-M   'P 1'
_cell_length_a   8.94611527
_cell_length_b   8.91909476
_cell_length_c   6.02718800
_cell_angle_alpha   90.00000000
_cell_angle_beta   90.00000000
_cell_angle_gamma   119.90013547
_symmetry_Int_Tables_number   1
_chemical_formula_structural   Zr10Cd2InBi5
_chemical_formula_sum   'Zr10 Cd2 In1 Bi5'
_cell_volume   416.90469848
_cell_formula_units_Z   1
loop_
 _symmetry_equiv_pos_site_id
 _symmetry_equiv_pos_as_xyz
  1  'x, y, z'
loop_
 _atom_site_type_symbol
 _atom_site_label
 _atom_site_symmetry_multiplicity
 _atom_site_fract_x
 _atom_site_fract_y
 _atom_site_fract_z
 _atom_site_occupancy
  Zr  Zr0  1  0.667882  0.333697  0.002086  1
  Zr  Zr1  1  0.332118  0.665815  0.002086  1
  Zr  Zr2  1  0.332118  0.665815  0.497914  1
  Zr  Zr3  1  0.667882  0.333697  0.497914  1
  Zr  Zr4  1  0.719292  0.719456  0.750000  1
  Zr  Zr5  1  0.280708  0.000165  0.750000  1
  Zr  Zr6  1  0.000000  0.282057  0.750000  1
  Zr  Zr7  1  0.279715  0.282020  0.250000  1
  Zr  Zr8  1  0.720285  0.002306  0.250000  1
  Zr  Zr9  1  0.000000  0.715411  0.250000  1
  Cd  Cd10  1  0.000000  0.001409  0.001647  1
  Cd  Cd11  1  0.000000  0.001409  0.498353  1
  In  In12  1  0.000000  0.377319  0.250000  1
  Bi  Bi13  1  0.379842  0.380486  0.750000  1
  Bi  Bi14  1  0.620158  0.000644  0.750000  1
  Bi  Bi15  1  0.000000  0.617645  0.750000  1
  Bi  Bi16  1  0.619317  0.619983  0.250000  1
  Bi  Bi17  1  0.380683  0.000665  0.250000  1
