# generated using pymatgen
data_Pr2Ga4GePt2Rh
_symmetry_space_group_name_H-M   'P 1'
_cell_length_a   8.64830476
_cell_length_b   8.70226746
_cell_length_c   8.70226707
_cell_angle_alpha   140.10710319
_cell_angle_beta   107.03522919
_cell_angle_gamma   86.63182555
_symmetry_Int_Tables_number   1
_chemical_formula_structural   Pr2Ga4GePt2Rh
_chemical_formula_sum   'Pr4 Ga8 Ge2 Pt4 Rh2'
_cell_volume   386.61483934
_cell_formula_units_Z   2
loop_
 _symmetry_equiv_pos_site_id
 _symmetry_equiv_pos_as_xyz
  1  'x, y, z'
loop_
 _atom_site_type_symbol
 _atom_site_label
 _atom_site_symmetry_multiplicity
 _atom_site_fract_x
 _atom_site_fract_y
 _atom_site_fract_z
 _atom_site_occupancy
  Pr  Pr0  1  0.860544  0.634209  0.226334  1
  Pr  Pr1  1  0.139456  0.365791  0.773666  1
  Pr  Pr2  1  0.587095  0.861594  0.725502  1
  Pr  Pr3  1  0.412905  0.138406  0.274498  1
  Ga  Ga4  1  0.500000  0.752124  0.252124  1
  Ga  Ga5  1  0.500000  0.247876  0.747876  1
  Ga  Ga6  1  0.212392  0.961480  0.747662  1
  Ga  Ga7  1  0.787608  0.535269  0.749088  1
  Ga  Ga8  1  0.787608  0.038520  0.252338  1
  Ga  Ga9  1  0.212392  0.464731  0.250912  1
  Ga  Ga10  1  0.064061  0.905540  0.158522  1
  Ga  Ga11  1  0.935939  0.094460  0.841478  1
  Ge  Ge12  1  0.256031  0.597404  0.658628  1
  Ge  Ge13  1  0.743969  0.402596  0.341372  1
  Pt  Pt14  1  0.249402  0.856094  0.393308  1
  Pt  Pt15  1  0.750598  0.143906  0.606692  1
  Pt  Pt16  1  0.539410  0.643887  0.895521  1
  Pt  Pt17  1  0.460590  0.356113  0.104479  1
  Rh  Rh18  1  0.000000  0.747149  0.747149  1
  Rh  Rh19  1  0.000000  0.252851  0.252851  1
