# generated using pymatgen
data_Th6Np2CrS17
_symmetry_space_group_name_H-M   'P 1'
_cell_length_a   7.98162442
_cell_length_b   7.98162356
_cell_length_c   10.67294200
_cell_angle_alpha   80.59576778
_cell_angle_beta   80.59576152
_cell_angle_gamma   65.19661558
_symmetry_Int_Tables_number   1
_chemical_formula_structural   Th6Np2CrS17
_chemical_formula_sum   'Th6 Np2 Cr1 S17'
_cell_volume   605.49151868
_cell_formula_units_Z   1
loop_
 _symmetry_equiv_pos_site_id
 _symmetry_equiv_pos_as_xyz
  1  'x, y, z'
loop_
 _atom_site_type_symbol
 _atom_site_label
 _atom_site_symmetry_multiplicity
 _atom_site_fract_x
 _atom_site_fract_y
 _atom_site_fract_z
 _atom_site_occupancy
  Th  Th0  1  0.183728  0.697738  0.705410  1
  Th  Th1  1  0.302262  0.816272  0.294590  1
  Th  Th2  1  0.204569  0.205444  0.546362  1
  Th  Th3  1  0.794556  0.795431  0.453638  1
  Th  Th4  1  0.682844  0.680268  0.976798  1
  Th  Th5  1  0.319732  0.317156  0.023202  1
  Np  Np6  1  0.813996  0.301858  0.298402  1
  Np  Np7  1  0.698142  0.186004  0.701598  1
  Cr  Cr8  1  0.998970  0.001030  0.000000  1
  S  S9  1  0.822115  0.427972  0.531591  1
  S  S10  1  0.572028  0.177885  0.468409  1
  S  S11  1  0.178671  0.569204  0.467338  1
  S  S12  1  0.430796  0.821329  0.532662  1
  S  S13  1  0.944201  0.316367  0.030650  1
  S  S14  1  0.683632  0.055799  0.969350  1
  S  S15  1  0.054506  0.681624  0.974064  1
  S  S16  1  0.318376  0.945494  0.025936  1
  S  S17  1  0.210967  0.208943  0.279128  1
  S  S18  1  0.791057  0.789033  0.720872  1
  S  S19  1  0.051803  0.057107  0.776778  1
  S  S20  1  0.942893  0.948197  0.223222  1
  S  S21  1  0.303403  0.301928  0.756848  1
  S  S22  1  0.698072  0.696597  0.243152  1
  S  S23  1  0.519660  0.518228  0.831818  1
  S  S24  1  0.481772  0.480340  0.168182  1
  S  S25  1  0.997251  0.002749  0.500000  1
