# generated using pymatgen
data_Ac8Cd2IrOs
_symmetry_space_group_name_H-M   'P 1'
_cell_length_a   10.54890200
_cell_length_b   10.54890212
_cell_length_c   10.62720500
_cell_angle_alpha   59.75415206
_cell_angle_beta   59.75415168
_cell_angle_gamma   59.61816554
_symmetry_Int_Tables_number   1
_chemical_formula_structural   Ac8Cd2IrOs
_chemical_formula_sum   'Ac16 Cd4 Ir2 Os2'
_cell_volume   830.68258501
_cell_formula_units_Z   2
loop_
 _symmetry_equiv_pos_site_id
 _symmetry_equiv_pos_as_xyz
  1  'x, y, z'
loop_
 _atom_site_type_symbol
 _atom_site_label
 _atom_site_symmetry_multiplicity
 _atom_site_fract_x
 _atom_site_fract_y
 _atom_site_fract_z
 _atom_site_occupancy
  Ac  Ac0  1  0.345193  0.345193  0.346786  1
  Ac  Ac1  1  0.345193  0.345193  0.962827  1
  Ac  Ac2  1  0.344564  0.964095  0.345671  1
  Ac  Ac3  1  0.964095  0.344564  0.345671  1
  Ac  Ac4  1  0.812164  0.189581  0.189552  1
  Ac  Ac5  1  0.189581  0.812164  0.808704  1
  Ac  Ac6  1  0.189581  0.812164  0.189552  1
  Ac  Ac7  1  0.812164  0.189581  0.808704  1
  Ac  Ac8  1  0.189415  0.189415  0.810585  1
  Ac  Ac9  1  0.809641  0.809641  0.190359  1
  Ac  Ac10  1  0.939210  0.558086  0.562435  1
  Ac  Ac11  1  0.558086  0.939210  0.940268  1
  Ac  Ac12  1  0.558086  0.939210  0.562435  1
  Ac  Ac13  1  0.939210  0.558086  0.940268  1
  Ac  Ac14  1  0.561351  0.561351  0.938649  1
  Ac  Ac15  1  0.940725  0.940725  0.559275  1
  Cd  Cd16  1  0.578568  0.578568  0.579362  1
  Cd  Cd17  1  0.578568  0.578568  0.263500  1
  Cd  Cd18  1  0.578404  0.262867  0.579365  1
  Cd  Cd19  1  0.262867  0.578404  0.579365  1
  Ir  Ir20  1  0.141744  0.580492  0.138882  1
  Ir  Ir21  1  0.580492  0.141744  0.138882  1
  Os  Os22  1  0.140550  0.140550  0.137524  1
  Os  Os23  1  0.140550  0.140550  0.581377  1
