# generated using pymatgen
data_Ho8TiTc11Ge16
_symmetry_space_group_name_H-M   'P 1'
_cell_length_a   6.95220733
_cell_length_b   6.96086140
_cell_length_c   12.94293634
_cell_angle_alpha   90.17428323
_cell_angle_beta   90.31566789
_cell_angle_gamma   90.22649293
_symmetry_Int_Tables_number   1
_chemical_formula_structural   Ho8TiTc11Ge16
_chemical_formula_sum   'Ho8 Ti1 Tc11 Ge16'
_cell_volume   626.33473032
_cell_formula_units_Z   1
loop_
 _symmetry_equiv_pos_site_id
 _symmetry_equiv_pos_as_xyz
  1  'x, y, z'
loop_
 _atom_site_type_symbol
 _atom_site_label
 _atom_site_symmetry_multiplicity
 _atom_site_fract_x
 _atom_site_fract_y
 _atom_site_fract_z
 _atom_site_occupancy
  Ho  Ho0  1  0.336885  0.992865  0.469744  1
  Ho  Ho1  1  0.502763  0.836618  0.723748  1
  Ho  Ho2  1  0.493385  0.158830  0.221465  1
  Ho  Ho3  1  0.839064  0.502536  0.276443  1
  Ho  Ho4  1  0.160252  0.488060  0.780014  1
  Ho  Ho5  1  0.659548  0.002957  0.973084  1
  Ho  Ho6  1  0.997356  0.339722  0.526856  1
  Ho  Ho7  1  0.005266  0.657937  0.027890  1
  Ti  Ti8  1  0.993598  0.826442  0.622205  1
  Tc  Tc9  1  0.332161  0.335272  0.000695  1
  Tc  Tc10  1  0.166055  0.833387  0.247999  1
  Tc  Tc11  1  0.837286  0.160223  0.748814  1
  Tc  Tc12  1  0.671340  0.665907  0.502003  1
  Tc  Tc13  1  0.192771  0.973194  0.868771  1
  Tc  Tc14  1  0.521250  0.687761  0.122769  1
  Tc  Tc15  1  0.489172  0.322174  0.625189  1
  Tc  Tc16  1  0.681224  0.509927  0.878668  1
  Tc  Tc17  1  0.318765  0.482163  0.376943  1
  Tc  Tc18  1  0.821290  0.024909  0.375748  1
  Tc  Tc19  1  0.972981  0.190149  0.131307  1
  Ge  Ge20  1  0.195752  0.115942  0.679637  1
  Ge  Ge21  1  0.386021  0.686750  0.934006  1
  Ge  Ge22  1  0.615132  0.313459  0.434383  1
  Ge  Ge23  1  0.686196  0.386464  0.067430  1
  Ge  Ge24  1  0.311019  0.618711  0.567459  1
  Ge  Ge25  1  0.812729  0.885613  0.183556  1
  Ge  Ge26  1  0.117587  0.191350  0.317226  1
  Ge  Ge27  1  0.886942  0.806377  0.819342  1
  Ge  Ge28  1  0.268242  0.983394  0.064088  1
  Ge  Ge29  1  0.524028  0.776579  0.316153  1
  Ge  Ge30  1  0.479336  0.219023  0.816206  1
  Ge  Ge31  1  0.781513  0.519545  0.685295  1
  Ge  Ge32  1  0.226808  0.481183  0.184090  1
  Ge  Ge33  1  0.709029  0.035735  0.566861  1
  Ge  Ge34  1  0.981838  0.265148  0.935624  1
  Ge  Ge35  1  0.025416  0.723694  0.428289  1
