# generated using pymatgen
data_Lu12ZnCo3SiSn
_symmetry_space_group_name_H-M   'P 1'
_cell_length_a   8.16023634
_cell_length_b   8.16023459
_cell_length_c   8.16023560
_cell_angle_alpha   112.57319345
_cell_angle_beta   111.26110960
_cell_angle_gamma   104.68577693
_symmetry_Int_Tables_number   1
_chemical_formula_structural   Lu12ZnCo3SiSn
_chemical_formula_sum   'Lu12 Zn1 Co3 Si1 Sn1'
_cell_volume   416.07436996
_cell_formula_units_Z   1
loop_
 _symmetry_equiv_pos_site_id
 _symmetry_equiv_pos_as_xyz
  1  'x, y, z'
loop_
 _atom_site_type_symbol
 _atom_site_label
 _atom_site_symmetry_multiplicity
 _atom_site_fract_x
 _atom_site_fract_y
 _atom_site_fract_z
 _atom_site_occupancy
  Lu  Lu0  1  0.435573  0.237928  0.197643  1
  Lu  Lu1  1  0.569660  0.771307  0.798356  1
  Lu  Lu2  1  0.027049  0.228693  0.798356  1
  Lu  Lu3  1  0.959715  0.762072  0.197643  1
  Lu  Lu4  1  0.183089  0.288157  0.471247  1
  Lu  Lu5  1  0.815351  0.719766  0.535117  1
  Lu  Lu6  1  0.183089  0.711843  0.894932  1
  Lu  Lu7  1  0.815351  0.280234  0.095585  1
  Lu  Lu8  1  0.313899  0.621977  0.312097  1
  Lu  Lu9  1  0.690120  0.378023  0.691921  1
  Lu  Lu10  1  0.313899  0.001802  0.691921  1
  Lu  Lu11  1  0.690120  0.998198  0.312097  1
  Zn  Zn12  1  0.994338  0.000000  0.994338  1
  Co  Co13  1  0.644970  0.000000  0.644970  1
  Co  Co14  1  0.113640  0.612287  0.501353  1
  Co  Co15  1  0.889066  0.387713  0.501353  1
  Si  Si16  1  0.363667  0.000000  0.363667  1
  Sn  Sn17  1  0.497402  0.500000  0.997402  1
