# generated using pymatgen
data_Y3TmCdPt
_symmetry_space_group_name_H-M   'P 1'
_cell_length_a   9.67637649
_cell_length_b   9.67637602
_cell_length_c   9.67637600
_cell_angle_alpha   60.00000008
_cell_angle_beta   60.00000168
_cell_angle_gamma   60.00000150
_symmetry_Int_Tables_number   1
_chemical_formula_structural   Y3TmCdPt
_chemical_formula_sum   'Y12 Tm4 Cd4 Pt4'
_cell_volume   640.65355863
_cell_formula_units_Z   4
loop_
 _symmetry_equiv_pos_site_id
 _symmetry_equiv_pos_as_xyz
  1  'x, y, z'
loop_
 _atom_site_type_symbol
 _atom_site_label
 _atom_site_symmetry_multiplicity
 _atom_site_fract_x
 _atom_site_fract_y
 _atom_site_fract_z
 _atom_site_occupancy
  Y  Y0  1  0.809304  0.190696  0.190696  1
  Y  Y1  1  0.190696  0.809304  0.809304  1
  Y  Y2  1  0.190696  0.809304  0.190696  1
  Y  Y3  1  0.809304  0.190696  0.809304  1
  Y  Y4  1  0.190696  0.190696  0.809304  1
  Y  Y5  1  0.809304  0.809304  0.190696  1
  Y  Y6  1  0.936431  0.563569  0.563569  1
  Y  Y7  1  0.563569  0.936431  0.936431  1
  Y  Y8  1  0.563569  0.936431  0.563569  1
  Y  Y9  1  0.936431  0.563569  0.936431  1
  Y  Y10  1  0.563569  0.563569  0.936431  1
  Y  Y11  1  0.936431  0.936431  0.563569  1
  Tm  Tm12  1  0.351772  0.351772  0.351772  1
  Tm  Tm13  1  0.351772  0.351772  0.944684  1
  Tm  Tm14  1  0.351772  0.944684  0.351772  1
  Tm  Tm15  1  0.944684  0.351772  0.351772  1
  Cd  Cd16  1  0.581531  0.581531  0.581531  1
  Cd  Cd17  1  0.581531  0.581531  0.255408  1
  Cd  Cd18  1  0.581531  0.255408  0.581531  1
  Cd  Cd19  1  0.255408  0.581531  0.581531  1
  Pt  Pt20  1  0.145001  0.145001  0.145001  1
  Pt  Pt21  1  0.145001  0.145001  0.564997  1
  Pt  Pt22  1  0.145001  0.564997  0.145001  1
  Pt  Pt23  1  0.564997  0.145001  0.145001  1
