# generated using pymatgen
data_BaZr(TaS2)6
_symmetry_space_group_name_H-M   'P 1'
_cell_length_a   5.79777600
_cell_length_b   5.79777574
_cell_length_c   14.12617700
_cell_angle_alpha   90.00000000
_cell_angle_beta   90.00000000
_cell_angle_gamma   120.00000149
_symmetry_Int_Tables_number   1
_chemical_formula_structural   BaZr(TaS2)6
_chemical_formula_sum   'Ba1 Zr1 Ta6 S12'
_cell_volume   411.22367843
_cell_formula_units_Z   1
loop_
 _symmetry_equiv_pos_site_id
 _symmetry_equiv_pos_as_xyz
  1  'x, y, z'
loop_
 _atom_site_type_symbol
 _atom_site_label
 _atom_site_symmetry_multiplicity
 _atom_site_fract_x
 _atom_site_fract_y
 _atom_site_fract_z
 _atom_site_occupancy
  Ba  Ba0  1  0.333333  0.666667  0.250000  1
  Zr  Zr1  1  0.666667  0.333333  0.750000  1
  Ta  Ta2  1  0.000000  0.000000  0.525385  1
  Ta  Ta3  1  0.000000  0.000000  0.974615  1
  Ta  Ta4  1  0.333333  0.666667  0.976201  1
  Ta  Ta5  1  0.666667  0.333333  0.974595  1
  Ta  Ta6  1  0.666667  0.333333  0.525405  1
  Ta  Ta7  1  0.333333  0.666667  0.523799  1
  S  S8  1  0.333368  0.326509  0.414647  1
  S  S9  1  0.673491  0.006858  0.414647  1
  S  S10  1  0.993142  0.666632  0.414647  1
  S  S11  1  0.326712  0.334357  0.635999  1
  S  S12  1  0.007645  0.673288  0.635999  1
  S  S13  1  0.665643  0.992355  0.635999  1
  S  S14  1  0.665643  0.673288  0.864001  1
  S  S15  1  0.326712  0.992355  0.864001  1
  S  S16  1  0.007645  0.334357  0.864001  1
  S  S17  1  0.673491  0.666632  0.085353  1
  S  S18  1  0.993142  0.326509  0.085353  1
  S  S19  1  0.333368  0.006858  0.085353  1
