# generated using pymatgen
data_Sc12Co4SbIr
_symmetry_space_group_name_H-M   'P 1'
_cell_length_a   7.73020487
_cell_length_b   7.73020479
_cell_length_c   7.73020507
_cell_angle_alpha   111.50004709
_cell_angle_beta   110.37551893
_cell_angle_gamma   106.57837154
_symmetry_Int_Tables_number   1
_chemical_formula_structural   Sc12Co4SbIr
_chemical_formula_sum   'Sc12 Co4 Sb1 Ir1'
_cell_volume   354.87966514
_cell_formula_units_Z   1
loop_
 _symmetry_equiv_pos_site_id
 _symmetry_equiv_pos_as_xyz
  1  'x, y, z'
loop_
 _atom_site_type_symbol
 _atom_site_label
 _atom_site_symmetry_multiplicity
 _atom_site_fract_x
 _atom_site_fract_y
 _atom_site_fract_z
 _atom_site_occupancy
  Sc  Sc0  1  0.424485  0.224739  0.199746  1
  Sc  Sc1  1  0.575515  0.775261  0.800254  1
  Sc  Sc2  1  0.024994  0.224739  0.800254  1
  Sc  Sc3  1  0.975006  0.775261  0.199746  1
  Sc  Sc4  1  0.320393  0.627869  0.307474  1
  Sc  Sc5  1  0.679607  0.372131  0.692526  1
  Sc  Sc6  1  0.320393  0.012918  0.692526  1
  Sc  Sc7  1  0.679607  0.987082  0.307474  1
  Sc  Sc8  1  0.181947  0.276600  0.458547  1
  Sc  Sc9  1  0.818053  0.723399  0.541453  1
  Sc  Sc10  1  0.181947  0.723399  0.905348  1
  Sc  Sc11  1  0.818053  0.276600  0.094652  1
  Co  Co12  1  0.348443  0.000000  0.348443  1
  Co  Co13  1  0.651557  0.000000  0.651557  1
  Co  Co14  1  0.119317  0.619317  0.500000  1
  Co  Co15  1  0.880683  0.380683  0.500000  1
  Sb  Sb16  1  0.500000  0.500000  0.000000  1
  Ir  Ir17  1  0.000000  0.000000  0.000000  1
