# generated using pymatgen
data_Y12Al11V8InO48
_symmetry_space_group_name_H-M   'P 1'
_cell_length_a   10.71608728
_cell_length_b   10.71608763
_cell_length_c   10.71608714
_cell_angle_alpha   109.17361221
_cell_angle_beta   109.62022816
_cell_angle_gamma   109.62023027
_symmetry_Int_Tables_number   1
_chemical_formula_structural   Y12Al11V8InO48
_chemical_formula_sum   'Y12 Al11 V8 In1 O48'
_cell_volume   947.27933826
_cell_formula_units_Z   1
loop_
 _symmetry_equiv_pos_site_id
 _symmetry_equiv_pos_as_xyz
  1  'x, y, z'
loop_
 _atom_site_type_symbol
 _atom_site_label
 _atom_site_symmetry_multiplicity
 _atom_site_fract_x
 _atom_site_fract_y
 _atom_site_fract_z
 _atom_site_occupancy
  Y  Y0  1  0.250000  0.369949  0.119949  1
  Y  Y1  1  0.750000  0.625136  0.875136  1
  Y  Y2  1  0.750000  0.124864  0.374864  1
  Y  Y3  1  0.125459  0.245962  0.372738  1
  Y  Y4  1  0.374541  0.747279  0.120503  1
  Y  Y5  1  0.250000  0.880051  0.630051  1
  Y  Y6  1  0.872148  0.748473  0.625007  1
  Y  Y7  1  0.627852  0.252859  0.876325  1
  Y  Y8  1  0.376534  0.123675  0.251527  1
  Y  Y9  1  0.626776  0.879497  0.754038  1
  Y  Y10  1  0.123466  0.374993  0.747141  1
  Y  Y11  1  0.873224  0.627262  0.252721  1
  Al  Al12  1  0.750000  0.375000  0.625000  1
  Al  Al13  1  0.750000  0.875000  0.125000  1
  Al  Al14  1  0.376205  0.251347  0.626929  1
  Al  Al15  1  0.625039  0.750713  0.375438  1
  Al  Al16  1  0.250000  0.125000  0.875000  1
  Al  Al17  1  0.123795  0.750724  0.875142  1
  Al  Al18  1  0.874961  0.250400  0.125674  1
  Al  Al19  1  0.624419  0.373071  0.249276  1
  Al  Al20  1  0.375275  0.624562  0.749600  1
  Al  Al21  1  0.875581  0.124858  0.748653  1
  Al  Al22  1  0.124725  0.874326  0.249287  1
  V  V23  1  0.999416  0.999704  0.999414  1
  V  V24  1  0.503969  0.006394  0.504016  1
  V  V25  1  0.996031  0.500047  0.502425  1
  V  V26  1  0.499709  0.999711  0.000296  1
  V  V27  1  0.500584  0.499998  0.000289  1
  V  V28  1  0.502378  0.495984  0.499953  1
  V  V29  1  0.000291  0.000586  0.500002  1
  V  V30  1  0.997622  0.497575  0.993606  1
  In  In31  1  0.250000  0.625000  0.375000  1
  O  O32  1  0.477469  0.373771  0.291688  1
  O  O33  1  0.522323  0.622716  0.705557  1
  O  O34  1  0.586052  0.184460  0.208873  1
  O  O35  1  0.913948  0.122820  0.598408  1
  O  O36  1  0.288432  0.449604  0.366308  1
  O  O37  1  0.314259  0.912483  0.292945  1
  O  O38  1  0.413763  0.813341  0.793456  1
  O  O39  1  0.086237  0.879693  0.399578  1
  O  O40  1  0.713021  0.525803  0.626022  1
  O  O41  1  0.689740  0.091314  0.712068  1
  O  O42  1  0.022531  0.314219  0.896301  1
  O  O43  1  0.211568  0.577876  0.161172  1
  O  O44  1  0.124081  0.023206  0.208172  1
  O  O45  1  0.977677  0.683234  0.100393  1
  O  O46  1  0.786979  0.413001  0.812782  1
  O  O47  1  0.875624  0.975603  0.789625  1
  O  O48  1  0.600807  0.915306  0.123420  1
  O  O49  1  0.185741  0.478686  0.598224  1
  O  O50  1  0.399865  0.085682  0.878322  1
  O  O51  1  0.810260  0.522328  0.401574  1
  O  O52  1  0.899193  0.022613  0.314500  1
  O  O53  1  0.375919  0.584091  0.899125  1
  O  O54  1  0.100135  0.978457  0.685816  1
  O  O55  1  0.624376  0.414000  0.099979  1
  O  O56  1  0.379246  0.287932  0.477672  1
  O  O57  1  0.582842  0.899607  0.377284  1
  O  O58  1  0.619538  0.707055  0.521314  1
  O  O59  1  0.417918  0.103699  0.626229  1
  O  O60  1  0.120754  0.598426  0.908686  1
  O  O61  1  0.019885  0.206544  0.120307  1
  O  O62  1  0.880462  0.401776  0.087517  1
  O  O63  1  0.975588  0.791127  0.877180  1
  O  O64  1  0.314021  0.900021  0.024397  1
  O  O65  1  0.917158  0.294443  0.316766  1
  O  O66  1  0.684966  0.100875  0.976794  1
  O  O67  1  0.082082  0.708312  0.685781  1
  O  O68  1  0.185979  0.210375  0.586000  1
  O  O69  1  0.480115  0.600422  0.186659  1
  O  O70  1  0.815034  0.791828  0.415909  1
  O  O71  1  0.524412  0.401592  0.815540  1
  O  O72  1  0.292640  0.314184  0.914318  1
  O  O73  1  0.708114  0.685500  0.084694  1
  O  O74  1  0.207360  0.121678  0.021543  1
  O  O75  1  0.791886  0.876580  0.977387  1
  O  O76  1  0.899781  0.373978  0.586999  1
  O  O77  1  0.083296  0.633692  0.422124  1
  O  O78  1  0.600219  0.187218  0.474197  1
  O  O79  1  0.416704  0.838828  0.550396  1
