# generated using pymatgen
data_Er4Al9Si9IrOs5
_symmetry_space_group_name_H-M   'P 1'
_cell_length_a   7.43805079
_cell_length_b   7.43009055
_cell_length_c   9.23336601
_cell_angle_alpha   90.00645853
_cell_angle_beta   90.08907977
_cell_angle_gamma   120.01776552
_symmetry_Int_Tables_number   1
_chemical_formula_structural   Er4Al9Si9IrOs5
_chemical_formula_sum   'Er4 Al9 Si9 Ir1 Os5'
_cell_volume   441.84037666
_cell_formula_units_Z   1
loop_
 _symmetry_equiv_pos_site_id
 _symmetry_equiv_pos_as_xyz
  1  'x, y, z'
loop_
 _atom_site_type_symbol
 _atom_site_label
 _atom_site_symmetry_multiplicity
 _atom_site_fract_x
 _atom_site_fract_y
 _atom_site_fract_z
 _atom_site_occupancy
  Er  Er0  1  0.996739  0.668134  0.251509  1
  Er  Er1  1  0.996701  0.325683  0.750544  1
  Er  Er2  1  0.679126  0.004297  0.251871  1
  Er  Er3  1  0.328516  0.997981  0.748058  1
  Al  Al4  1  0.336329  0.005785  0.073280  1
  Al  Al5  1  0.335862  0.337403  0.563911  1
  Al  Al6  1  0.660751  0.663256  0.436704  1
  Al  Al7  1  0.661496  0.661650  0.059874  1
  Al  Al8  1  0.337947  0.334147  0.937690  1
  Al  Al9  1  0.334061  0.547674  0.249111  1
  Al  Al10  1  0.668840  0.456876  0.751480  1
  Al  Al11  1  0.546795  0.335358  0.248444  1
  Al  Al12  1  0.454778  0.664704  0.749503  1
  Si  Si13  1  0.129027  0.126537  0.248432  1
  Si  Si14  1  0.870675  0.871152  0.749707  1
  Si  Si15  1  0.008946  0.336851  0.067879  1
  Si  Si16  1  0.997749  0.668221  0.934164  1
  Si  Si17  1  0.993718  0.666792  0.571697  1
  Si  Si18  1  0.333968  0.006031  0.424026  1
  Si  Si19  1  0.010718  0.337484  0.429050  1
  Si  Si20  1  0.662869  0.989783  0.572252  1
  Si  Si21  1  0.657353  0.992795  0.934749  1
  Ir  Ir22  1  0.679596  0.320381  0.500649  1
  Os  Os23  1  0.688829  0.327151  0.999882  1
  Os  Os24  1  0.319297  0.671744  0.997524  1
  Os  Os25  1  0.318806  0.680592  0.500224  1
  Os  Os26  1  0.991321  0.000331  0.998218  1
  Os  Os27  1  0.999187  0.001213  0.499569  1
