# generated using pymatgen
data_Zr10Ga4Sb2S
_symmetry_space_group_name_H-M   'P 1'
_cell_length_a   8.36157311
_cell_length_b   8.33836673
_cell_length_c   5.79552506
_cell_angle_alpha   89.99111979
_cell_angle_beta   90.01771797
_cell_angle_gamma   120.09211840
_symmetry_Int_Tables_number   1
_chemical_formula_structural   Zr10Ga4Sb2S
_chemical_formula_sum   'Zr10 Ga4 Sb2 S1'
_cell_volume   349.61374750
_cell_formula_units_Z   1
loop_
 _symmetry_equiv_pos_site_id
 _symmetry_equiv_pos_as_xyz
  1  'x, y, z'
loop_
 _atom_site_type_symbol
 _atom_site_label
 _atom_site_symmetry_multiplicity
 _atom_site_fract_x
 _atom_site_fract_y
 _atom_site_fract_z
 _atom_site_occupancy
  Zr  Zr0  1  0.008263  0.756498  0.237519  1
  Zr  Zr1  1  0.251765  0.243502  0.237519  1
  Zr  Zr2  1  0.742821  0.000000  0.240799  1
  Zr  Zr3  1  0.000228  0.254603  0.756949  1
  Zr  Zr4  1  0.745624  0.745397  0.756949  1
  Zr  Zr5  1  0.255910  0.000000  0.761571  1
  Zr  Zr6  1  0.337629  0.676625  0.504800  1
  Zr  Zr7  1  0.661005  0.323375  0.504800  1
  Zr  Zr8  1  0.661029  0.324029  0.994219  1
  Zr  Zr9  1  0.336999  0.675971  0.994219  1
  Ga  Ga10  1  0.394264  0.000000  0.249243  1
  Ga  Ga11  1  0.998247  0.608249  0.751300  1
  Ga  Ga12  1  0.389999  0.391751  0.751300  1
  Ga  Ga13  1  0.609062  0.000000  0.752577  1
  Sb  Sb14  1  0.002730  0.397469  0.251392  1
  Sb  Sb15  1  0.605261  0.602531  0.251392  1
  S  S16  1  0.999164  0.000000  0.503453  1
