# generated using pymatgen
data_DyY3Zn3Ga5Ag4
_symmetry_space_group_name_H-M   'P 1'
_cell_length_a   4.32521800
_cell_length_b   6.97668603
_cell_length_c   10.34475659
_cell_angle_alpha   89.96274774
_cell_angle_beta   90.00000000
_cell_angle_gamma   90.00000000
_symmetry_Int_Tables_number   1
_chemical_formula_structural   DyY3Zn3Ga5Ag4
_chemical_formula_sum   'Dy1 Y3 Zn3 Ga5 Ag4'
_cell_volume   312.16008127
_cell_formula_units_Z   1
loop_
 _symmetry_equiv_pos_site_id
 _symmetry_equiv_pos_as_xyz
  1  'x, y, z'
loop_
 _atom_site_type_symbol
 _atom_site_label
 _atom_site_symmetry_multiplicity
 _atom_site_fract_x
 _atom_site_fract_y
 _atom_site_fract_z
 _atom_site_occupancy
  Dy  Dy0  1  0.750000  0.720321  0.328351  1
  Y  Y1  1  0.250000  0.780982  0.828303  1
  Y  Y2  1  0.750000  0.215563  0.170510  1
  Y  Y3  1  0.250000  0.282122  0.673161  1
  Zn  Zn4  1  0.250000  0.921908  0.148356  1
  Zn  Zn5  1  0.750000  0.077549  0.850849  1
  Zn  Zn6  1  0.750000  0.579134  0.650619  1
  Ga  Ga7  1  0.250000  0.424442  0.348298  1
  Ga  Ga8  1  0.250000  0.703223  0.537711  1
  Ga  Ga9  1  0.750000  0.297418  0.466429  1
  Ga  Ga10  1  0.750000  0.797438  0.037441  1
  Ga  Ga11  1  0.250000  0.200762  0.963226  1
  Ag  Ag12  1  0.250000  0.541063  0.098448  1
  Ag  Ag13  1  0.750000  0.459074  0.899660  1
  Ag  Ag14  1  0.750000  0.959032  0.600309  1
  Ag  Ag15  1  0.250000  0.039970  0.398329  1
