# generated using pymatgen
data_Er10In3Ru
_symmetry_space_group_name_H-M   'P 1'
_cell_length_a   9.64107600
_cell_length_b   9.63689458
_cell_length_c   9.68388500
_cell_angle_alpha   90.00000000
_cell_angle_beta   90.00000000
_cell_angle_gamma   119.98565072
_symmetry_Int_Tables_number   1
_chemical_formula_structural   Er10In3Ru
_chemical_formula_sum   'Er20 In6 Ru2'
_cell_volume   779.30174254
_cell_formula_units_Z   2
loop_
 _symmetry_equiv_pos_site_id
 _symmetry_equiv_pos_as_xyz
  1  'x, y, z'
loop_
 _atom_site_type_symbol
 _atom_site_label
 _atom_site_symmetry_multiplicity
 _atom_site_fract_x
 _atom_site_fract_y
 _atom_site_fract_z
 _atom_site_occupancy
  Er  Er0  1  0.078905  0.539452  0.750000  1
  Er  Er1  1  0.999966  0.999983  0.499958  1
  Er  Er2  1  0.999966  0.999983  0.000042  1
  Er  Er3  1  0.209921  0.790292  0.438762  1
  Er  Er4  1  0.209921  0.419630  0.438762  1
  Er  Er5  1  0.580298  0.790149  0.438909  1
  Er  Er6  1  0.789957  0.209707  0.561011  1
  Er  Er7  1  0.789957  0.580249  0.561011  1
  Er  Er8  1  0.419728  0.209864  0.561066  1
  Er  Er9  1  0.789957  0.209707  0.938989  1
  Er  Er10  1  0.789957  0.580249  0.938989  1
  Er  Er11  1  0.419728  0.209864  0.938934  1
  Er  Er12  1  0.209921  0.790292  0.061238  1
  Er  Er13  1  0.209921  0.419630  0.061238  1
  Er  Er14  1  0.580298  0.790149  0.061091  1
  Er  Er15  1  0.539462  0.460623  0.250000  1
  Er  Er16  1  0.539462  0.078839  0.250000  1
  Er  Er17  1  0.921169  0.460585  0.250000  1
  Er  Er18  1  0.460736  0.539408  0.750000  1
  Er  Er19  1  0.460736  0.921326  0.750000  1
  In  In20  1  0.884239  0.115805  0.250000  1
  In  In21  1  0.884239  0.768433  0.250000  1
  In  In22  1  0.231617  0.115809  0.250000  1
  In  In23  1  0.115905  0.884696  0.750000  1
  In  In24  1  0.115905  0.231208  0.750000  1
  In  In25  1  0.768285  0.884142  0.750000  1
  Ru  Ru26  1  0.333332  0.666666  0.250000  1
  Ru  Ru27  1  0.666515  0.333258  0.750000  1
