# generated using pymatgen
data_Dy7Er3(Ir2Rh)2
_symmetry_space_group_name_H-M   'P 1'
_cell_length_a   10.84123312
_cell_length_b   10.84098100
_cell_length_c   6.37026007
_cell_angle_alpha   90.00000000
_cell_angle_beta   89.98286679
_cell_angle_gamma   90.00000000
_symmetry_Int_Tables_number   1
_chemical_formula_structural   Dy7Er3(Ir2Rh)2
_chemical_formula_sum   'Dy14 Er6 Ir8 Rh4'
_cell_volume   748.69409914
_cell_formula_units_Z   2
loop_
 _symmetry_equiv_pos_site_id
 _symmetry_equiv_pos_as_xyz
  1  'x, y, z'
loop_
 _atom_site_type_symbol
 _atom_site_label
 _atom_site_symmetry_multiplicity
 _atom_site_fract_x
 _atom_site_fract_y
 _atom_site_fract_z
 _atom_site_occupancy
  Dy  Dy0  1  0.290060  0.088735  0.378755  1
  Dy  Dy1  1  0.290060  0.911265  0.878755  1
  Dy  Dy2  1  0.709868  0.088618  0.878928  1
  Dy  Dy3  1  0.709868  0.911382  0.378928  1
  Dy  Dy4  1  0.588611  0.790159  0.878915  1
  Dy  Dy5  1  0.588611  0.209841  0.378915  1
  Dy  Dy6  1  0.411322  0.790159  0.378968  1
  Dy  Dy7  1  0.411322  0.209841  0.878968  1
  Dy  Dy8  1  0.209671  0.411485  0.621029  1
  Dy  Dy9  1  0.209671  0.588515  0.121029  1
  Dy  Dy10  1  0.790346  0.411356  0.121070  1
  Dy  Dy11  1  0.790346  0.588644  0.621070  1
  Dy  Dy12  1  0.911540  0.709836  0.121074  1
  Dy  Dy13  1  0.911540  0.290164  0.621074  1
  Er  Er14  1  0.088560  0.709550  0.620710  1
  Er  Er15  1  0.088560  0.290450  0.120710  1
  Er  Er16  1  0.000088  0.999831  0.500132  1
  Er  Er17  1  0.000088  0.000169  0.000132  1
  Er  Er18  1  0.499982  0.499951  0.000069  1
  Er  Er19  1  0.499982  0.500049  0.500069  1
  Ir  Ir20  1  0.846690  0.153666  0.249830  1
  Ir  Ir21  1  0.846690  0.846334  0.749830  1
  Ir  Ir22  1  0.153442  0.153745  0.750625  1
  Ir  Ir23  1  0.153442  0.846255  0.250625  1
  Ir  Ir24  1  0.653537  0.346424  0.749983  1
  Ir  Ir25  1  0.653537  0.653576  0.249983  1
  Ir  Ir26  1  0.346093  0.346343  0.249821  1
  Ir  Ir27  1  0.346093  0.653657  0.749821  1
  Rh  Rh28  1  0.499984  0.000000  0.122985  1
  Rh  Rh29  1  0.499984  0.000000  0.622985  1
  Rh  Rh30  1  0.000209  0.499949  0.877106  1
  Rh  Rh31  1  0.000209  0.500051  0.377106  1
