# generated using pymatgen
data_TcSb12Ir2Pt
_symmetry_space_group_name_H-M   'P 1'
_cell_length_a   8.15752132
_cell_length_b   8.14512903
_cell_length_c   8.16290400
_cell_angle_alpha   109.44811528
_cell_angle_beta   109.49709732
_cell_angle_gamma   109.39219326
_symmetry_Int_Tables_number   1
_chemical_formula_structural   TcSb12Ir2Pt
_chemical_formula_sum   'Tc1 Sb12 Ir2 Pt1'
_cell_volume   417.91384020
_cell_formula_units_Z   1
loop_
 _symmetry_equiv_pos_site_id
 _symmetry_equiv_pos_as_xyz
  1  'x, y, z'
loop_
 _atom_site_type_symbol
 _atom_site_label
 _atom_site_symmetry_multiplicity
 _atom_site_fract_x
 _atom_site_fract_y
 _atom_site_fract_z
 _atom_site_occupancy
  Tc  Tc0  1  0.000000  0.500000  0.000000  1
  Sb  Sb1  1  0.845033  0.660352  0.505845  1
  Sb  Sb2  1  0.850309  0.344916  0.187725  1
  Sb  Sb3  1  0.149691  0.655084  0.812275  1
  Sb  Sb4  1  0.336345  0.492371  0.154545  1
  Sb  Sb5  1  0.154967  0.339648  0.494155  1
  Sb  Sb6  1  0.659614  0.809710  0.155988  1
  Sb  Sb7  1  0.181613  0.843889  0.336006  1
  Sb  Sb8  1  0.663655  0.507629  0.845455  1
  Sb  Sb9  1  0.818387  0.156111  0.663994  1
  Sb  Sb10  1  0.340386  0.190290  0.844012  1
  Sb  Sb11  1  0.503886  0.844498  0.654262  1
  Sb  Sb12  1  0.496114  0.155502  0.345738  1
  Ir  Ir13  1  0.000000  0.000000  0.500000  1
  Ir  Ir14  1  0.500000  0.500000  0.500000  1
  Pt  Pt15  1  0.500000  0.000000  0.000000  1
