# generated using pymatgen
data_Dy3ErAl16(SiIr3)2
_symmetry_space_group_name_H-M   'P 1'
_cell_length_a   7.53675112
_cell_length_b   7.53660367
_cell_length_c   9.34431900
_cell_angle_alpha   90.00000000
_cell_angle_beta   90.00000000
_cell_angle_gamma   119.67729844
_symmetry_Int_Tables_number   1
_chemical_formula_structural   Dy3ErAl16(SiIr3)2
_chemical_formula_sum   'Dy3 Er1 Al16 Si2 Ir6'
_cell_volume   461.14891825
_cell_formula_units_Z   1
loop_
 _symmetry_equiv_pos_site_id
 _symmetry_equiv_pos_as_xyz
  1  'x, y, z'
loop_
 _atom_site_type_symbol
 _atom_site_label
 _atom_site_symmetry_multiplicity
 _atom_site_fract_x
 _atom_site_fract_y
 _atom_site_fract_z
 _atom_site_occupancy
  Dy  Dy0  1  0.005063  0.325659  0.250000  1
  Dy  Dy1  1  0.674309  0.994855  0.750000  1
  Dy  Dy2  1  0.325608  0.005058  0.250000  1
  Er  Er3  1  0.994829  0.674322  0.750000  1
  Al  Al4  1  0.001165  0.336328  0.576491  1
  Al  Al5  1  0.998835  0.663857  0.423765  1
  Al  Al6  1  0.998835  0.663857  0.076235  1
  Al  Al7  1  0.335961  0.000986  0.923492  1
  Al  Al8  1  0.001165  0.336328  0.923509  1
  Al  Al9  1  0.663862  0.998844  0.076402  1
  Al  Al10  1  0.663862  0.998844  0.423598  1
  Al  Al11  1  0.335961  0.000986  0.576508  1
  Al  Al12  1  0.335556  0.335554  0.057009  1
  Al  Al13  1  0.664651  0.664473  0.942840  1
  Al  Al14  1  0.664651  0.664473  0.557160  1
  Al  Al15  1  0.335556  0.335554  0.442991  1
  Al  Al16  1  0.335465  0.548342  0.750000  1
  Al  Al17  1  0.664443  0.451707  0.250000  1
  Al  Al18  1  0.548511  0.335749  0.750000  1
  Al  Al19  1  0.451718  0.664434  0.250000  1
  Si  Si20  1  0.128205  0.128131  0.750000  1
  Si  Si21  1  0.871689  0.871707  0.250000  1
  Ir  Ir22  1  0.671871  0.328356  0.500100  1
  Ir  Ir23  1  0.328144  0.671767  0.500094  1
  Ir  Ir24  1  0.328144  0.671767  0.999906  1
  Ir  Ir25  1  0.671871  0.328356  0.999900  1
  Ir  Ir26  1  0.000034  0.999853  0.500102  1
  Ir  Ir27  1  0.000034  0.999853  0.999898  1
