# generated using pymatgen
data_Tb15Ho5(Ir2Rh)4
_symmetry_space_group_name_H-M   'P 1'
_cell_length_a   10.90605905
_cell_length_b   10.90635603
_cell_length_c   6.40307504
_cell_angle_alpha   90.00794465
_cell_angle_beta   89.98940703
_cell_angle_gamma   90.00156591
_symmetry_Int_Tables_number   1
_chemical_formula_structural   Tb15Ho5(Ir2Rh)4
_chemical_formula_sum   'Tb15 Ho5 Ir8 Rh4'
_cell_volume   761.61606355
_cell_formula_units_Z   1
loop_
 _symmetry_equiv_pos_site_id
 _symmetry_equiv_pos_as_xyz
  1  'x, y, z'
loop_
 _atom_site_type_symbol
 _atom_site_label
 _atom_site_symmetry_multiplicity
 _atom_site_fract_x
 _atom_site_fract_y
 _atom_site_fract_z
 _atom_site_occupancy
  Tb  Tb0  1  0.290049  0.088871  0.378863  1
  Tb  Tb1  1  0.290170  0.911306  0.879008  1
  Tb  Tb2  1  0.709862  0.088731  0.879024  1
  Tb  Tb3  1  0.709837  0.911291  0.379024  1
  Tb  Tb4  1  0.588716  0.790151  0.878994  1
  Tb  Tb5  1  0.588714  0.209841  0.379037  1
  Tb  Tb6  1  0.411273  0.790171  0.379017  1
  Tb  Tb7  1  0.411215  0.209861  0.879071  1
  Tb  Tb8  1  0.209745  0.411153  0.620945  1
  Tb  Tb9  1  0.209754  0.588487  0.120936  1
  Tb  Tb10  1  0.790350  0.411231  0.120978  1
  Tb  Tb11  1  0.790156  0.588708  0.620968  1
  Tb  Tb12  1  0.911303  0.709822  0.120981  1
  Tb  Tb13  1  0.911433  0.290148  0.620958  1
  Tb  Tb14  1  0.088700  0.709867  0.620995  1
  Ho  Ho15  1  0.088686  0.290388  0.120666  1
  Ho  Ho16  1  0.000005  0.000033  0.499990  1
  Ho  Ho17  1  0.000089  0.000219  0.000141  1
  Ho  Ho18  1  0.499992  0.499971  0.000060  1
  Ho  Ho19  1  0.500008  0.500004  0.500012  1
  Ir  Ir20  1  0.846722  0.153653  0.249826  1
  Ir  Ir21  1  0.846444  0.846468  0.749974  1
  Ir  Ir22  1  0.153407  0.153726  0.750641  1
  Ir  Ir23  1  0.153549  0.846464  0.250007  1
  Ir  Ir24  1  0.653519  0.346470  0.749982  1
  Ir  Ir25  1  0.653519  0.653555  0.249996  1
  Ir  Ir26  1  0.346112  0.346362  0.249831  1
  Ir  Ir27  1  0.346462  0.653552  0.750003  1
  Rh  Rh28  1  0.499983  0.000009  0.122125  1
  Rh  Rh29  1  0.500009  0.999997  0.622154  1
  Rh  Rh30  1  0.000109  0.499719  0.878150  1
  Rh  Rh31  1  0.000108  0.499772  0.377643  1
