# generated using pymatgen
data_DyHo2Lu5Ga3Co
_symmetry_space_group_name_H-M   'P 1'
_cell_length_a   9.81867400
_cell_length_b   9.82690926
_cell_length_c   6.91091200
_cell_angle_alpha   90.00357422
_cell_angle_beta   90.00000000
_cell_angle_gamma   119.97228202
_symmetry_Int_Tables_number   1
_chemical_formula_structural   DyHo2Lu5Ga3Co
_chemical_formula_sum   'Dy2 Ho4 Lu10 Ga6 Co2'
_cell_volume   577.63967244
_cell_formula_units_Z   2
loop_
 _symmetry_equiv_pos_site_id
 _symmetry_equiv_pos_as_xyz
  1  'x, y, z'
loop_
 _atom_site_type_symbol
 _atom_site_label
 _atom_site_symmetry_multiplicity
 _atom_site_fract_x
 _atom_site_fract_y
 _atom_site_fract_z
 _atom_site_occupancy
  Dy  Dy0  1  0.000029  0.000058  0.231737  1
  Dy  Dy1  1  0.999927  0.999855  0.731736  1
  Ho  Ho2  1  0.463544  0.927089  0.208445  1
  Ho  Ho3  1  0.535571  0.464462  0.708353  1
  Ho  Ho4  1  0.928892  0.464462  0.708353  1
  Ho  Ho5  1  0.535869  0.071738  0.708726  1
  Lu  Lu6  1  0.173633  0.825015  0.511657  1
  Lu  Lu7  1  0.651381  0.825015  0.511657  1
  Lu  Lu8  1  0.174488  0.348976  0.510508  1
  Lu  Lu9  1  0.826844  0.175074  0.013934  1
  Lu  Lu10  1  0.348230  0.175074  0.013934  1
  Lu  Lu11  1  0.825585  0.651171  0.014871  1
  Lu  Lu12  1  0.332777  0.665555  0.826810  1
  Lu  Lu13  1  0.667169  0.334337  0.325621  1
  Lu  Lu14  1  0.462689  0.536944  0.207665  1
  Lu  Lu15  1  0.074254  0.536944  0.207665  1
  Ga  Ga16  1  0.163409  0.835799  0.957140  1
  Ga  Ga17  1  0.672390  0.835799  0.957140  1
  Ga  Ga18  1  0.164363  0.328728  0.958064  1
  Ga  Ga19  1  0.836400  0.163297  0.456428  1
  Ga  Ga20  1  0.326898  0.163297  0.456428  1
  Ga  Ga21  1  0.836476  0.672952  0.455475  1
  Co  Co22  1  0.332519  0.665040  0.445442  1
  Co  Co23  1  0.666661  0.333320  0.947045  1
