# generated using pymatgen
data_Ho2ErSn3Pd2Ru
_symmetry_space_group_name_H-M   'P 1'
_cell_length_a   7.78384367
_cell_length_b   7.78942841
_cell_length_c   3.67065600
_cell_angle_alpha   90.00000000
_cell_angle_beta   90.00000000
_cell_angle_gamma   120.02373704
_symmetry_Int_Tables_number   1
_chemical_formula_structural   Ho2ErSn3Pd2Ru
_chemical_formula_sum   'Ho2 Er1 Sn3 Pd2 Ru1'
_cell_volume   192.69483946
_cell_formula_units_Z   1
loop_
 _symmetry_equiv_pos_site_id
 _symmetry_equiv_pos_as_xyz
  1  'x, y, z'
loop_
 _atom_site_type_symbol
 _atom_site_label
 _atom_site_symmetry_multiplicity
 _atom_site_fract_x
 _atom_site_fract_y
 _atom_site_fract_z
 _atom_site_occupancy
  Ho  Ho0  1  0.394043  0.393655  0.500000  1
  Ho  Ho1  1  0.605957  0.999612  0.500000  1
  Er  Er2  1  0.000000  0.606459  0.500000  1
  Sn  Sn3  1  0.732895  0.732356  0.000000  1
  Sn  Sn4  1  0.267105  0.999461  0.000000  1
  Sn  Sn5  1  0.000000  0.268203  0.000000  1
  Pd  Pd6  1  0.667440  0.333793  0.000000  1
  Pd  Pd7  1  0.332560  0.666353  0.000000  1
  Ru  Ru8  1  0.000000  0.000107  0.500000  1
