# generated using pymatgen
data_Nd3Ho(TmBi)6
_symmetry_space_group_name_H-M   'P 1'
_cell_length_a   8.29664400
_cell_length_b   9.47684300
_cell_length_c   12.21161100
_cell_angle_alpha   90.00000000
_cell_angle_beta   90.00000000
_cell_angle_gamma   90.00000000
_symmetry_Int_Tables_number   1
_chemical_formula_structural   Nd3Ho(TmBi)6
_chemical_formula_sum   'Nd6 Ho2 Tm12 Bi12'
_cell_volume   960.15003630
_cell_formula_units_Z   2
loop_
 _symmetry_equiv_pos_site_id
 _symmetry_equiv_pos_as_xyz
  1  'x, y, z'
loop_
 _atom_site_type_symbol
 _atom_site_label
 _atom_site_symmetry_multiplicity
 _atom_site_fract_x
 _atom_site_fract_y
 _atom_site_fract_z
 _atom_site_occupancy
  Nd  Nd0  1  0.185050  0.750000  0.720517  1
  Nd  Nd1  1  0.685050  0.750000  0.779483  1
  Nd  Nd2  1  0.817183  0.250000  0.279990  1
  Nd  Nd3  1  0.317183  0.250000  0.220010  1
  Nd  Nd4  1  0.351748  0.750000  0.216160  1
  Nd  Nd5  1  0.851748  0.750000  0.283840  1
  Ho  Ho6  1  0.647692  0.250000  0.782835  1
  Ho  Ho7  1  0.147692  0.250000  0.717165  1
  Tm  Tm8  1  0.023874  0.750000  0.987036  1
  Tm  Tm9  1  0.523874  0.750000  0.512964  1
  Tm  Tm10  1  0.976139  0.250000  0.009867  1
  Tm  Tm11  1  0.476139  0.250000  0.490133  1
  Tm  Tm12  1  0.308421  0.434266  0.939753  1
  Tm  Tm13  1  0.808421  0.065734  0.560247  1
  Tm  Tm14  1  0.691314  0.934442  0.057725  1
  Tm  Tm15  1  0.191314  0.565558  0.442275  1
  Tm  Tm16  1  0.691314  0.565558  0.057725  1
  Tm  Tm17  1  0.191314  0.934442  0.442275  1
  Tm  Tm18  1  0.308421  0.065734  0.939753  1
  Tm  Tm19  1  0.808421  0.434266  0.560247  1
  Bi  Bi20  1  0.434645  0.008412  0.670530  1
  Bi  Bi21  1  0.934645  0.491588  0.829470  1
  Bi  Bi22  1  0.564982  0.504054  0.332819  1
  Bi  Bi23  1  0.064982  0.995946  0.167181  1
  Bi  Bi24  1  0.564982  0.995946  0.332819  1
  Bi  Bi25  1  0.064982  0.504054  0.167181  1
  Bi  Bi26  1  0.434645  0.491588  0.670530  1
  Bi  Bi27  1  0.934645  0.008412  0.829470  1
  Bi  Bi28  1  0.404303  0.750000  0.957299  1
  Bi  Bi29  1  0.904303  0.750000  0.542701  1
  Bi  Bi30  1  0.595285  0.250000  0.037712  1
  Bi  Bi31  1  0.095285  0.250000  0.462288  1
