# generated using pymatgen
data_Th(Co3Si2)2
_symmetry_space_group_name_H-M   'P 1'
_cell_length_a   6.64724300
_cell_length_b   6.64724162
_cell_length_c   3.67498700
_cell_angle_alpha   90.00000000
_cell_angle_beta   90.00000000
_cell_angle_gamma   120.00000188
_symmetry_Int_Tables_number   1
_chemical_formula_structural   Th(Co3Si2)2
_chemical_formula_sum   'Th1 Co6 Si4'
_cell_volume   140.62723935
_cell_formula_units_Z   1
loop_
 _symmetry_equiv_pos_site_id
 _symmetry_equiv_pos_as_xyz
  1  'x, y, z'
loop_
 _atom_site_type_symbol
 _atom_site_label
 _atom_site_symmetry_multiplicity
 _atom_site_fract_x
 _atom_site_fract_y
 _atom_site_fract_z
 _atom_site_occupancy
  Th  Th0  1  0.000000  0.000000  0.000000  1
  Co  Co1  1  0.466213  0.533787  0.000000  1
  Co  Co2  1  0.466213  0.932426  0.000000  1
  Co  Co3  1  0.067574  0.533787  0.000000  1
  Co  Co4  1  0.795109  0.204891  0.500000  1
  Co  Co5  1  0.795109  0.590219  0.500000  1
  Co  Co6  1  0.409781  0.204891  0.500000  1
  Si  Si7  1  0.666667  0.333333  0.000000  1
  Si  Si8  1  0.202926  0.797074  0.500000  1
  Si  Si9  1  0.202926  0.405852  0.500000  1
  Si  Si10  1  0.594148  0.797074  0.500000  1
