# generated using pymatgen
data_Yb(ZrNi6)2
_symmetry_space_group_name_H-M   'P 1'
_cell_length_a   4.74636722
_cell_length_b   4.76816838
_cell_length_c   10.13995385
_cell_angle_alpha   85.21599971
_cell_angle_beta   80.35373459
_cell_angle_gamma   60.15115138
_symmetry_Int_Tables_number   1
_chemical_formula_structural   Yb(ZrNi6)2
_chemical_formula_sum   'Yb1 Zr2 Ni12'
_cell_volume   196.22516415
_cell_formula_units_Z   1
loop_
 _symmetry_equiv_pos_site_id
 _symmetry_equiv_pos_as_xyz
  1  'x, y, z'
loop_
 _atom_site_type_symbol
 _atom_site_label
 _atom_site_symmetry_multiplicity
 _atom_site_fract_x
 _atom_site_fract_y
 _atom_site_fract_z
 _atom_site_occupancy
  Yb  Yb0  1  0.000000  0.000000  0.000000  1
  Zr  Zr1  1  0.865155  0.000000  0.356118  1
  Zr  Zr2  1  0.134845  0.000000  0.643882  1
  Ni  Ni3  1  0.333643  0.332715  0.000000  1
  Ni  Ni4  1  0.666357  0.667285  0.000000  1
  Ni  Ni5  1  0.425979  0.000000  0.201169  1
  Ni  Ni6  1  0.574021  0.000000  0.798831  1
  Ni  Ni7  1  0.927479  0.500365  0.201546  1
  Ni  Ni8  1  0.427845  0.499635  0.201546  1
  Ni  Ni9  1  0.072521  0.499635  0.798454  1
  Ni  Ni10  1  0.572155  0.500365  0.798454  1
  Ni  Ni11  1  0.187088  0.329470  0.407537  1
  Ni  Ni12  1  0.516557  0.670530  0.407537  1
  Ni  Ni13  1  0.812912  0.670530  0.592463  1
  Ni  Ni14  1  0.483443  0.329470  0.592463  1
