# generated using pymatgen
data_CuPPtS2
_symmetry_space_group_name_H-M   'P 1'
_cell_length_a   8.06362296
_cell_length_b   8.06362267
_cell_length_c   5.76315000
_cell_angle_alpha   90.00000000
_cell_angle_beta   90.00000000
_cell_angle_gamma   153.16739516
_symmetry_Int_Tables_number   1
_chemical_formula_structural   CuPPtS2
_chemical_formula_sum   'Cu2 P2 Pt2 S4'
_cell_volume   169.14838082
_cell_formula_units_Z   2
loop_
 _symmetry_equiv_pos_site_id
 _symmetry_equiv_pos_as_xyz
  1  'x, y, z'
loop_
 _atom_site_type_symbol
 _atom_site_label
 _atom_site_symmetry_multiplicity
 _atom_site_fract_x
 _atom_site_fract_y
 _atom_site_fract_z
 _atom_site_occupancy
  Cu  Cu0  1  0.948776  0.051224  0.233826  1
  Cu  Cu1  1  0.051224  0.948776  0.733826  1
  P  P2  1  0.732019  0.267981  0.640104  1
  P  P3  1  0.267981  0.732019  0.140104  1
  Pt  Pt4  1  0.682185  0.317815  0.247927  1
  Pt  Pt5  1  0.317815  0.682185  0.747927  1
  S  S6  1  0.914585  0.085415  0.853067  1
  S  S7  1  0.085415  0.914585  0.353067  1
  S  S8  1  0.621334  0.378666  0.859076  1
  S  S9  1  0.378666  0.621334  0.359076  1
