# generated using pymatgen
data_Nd3Er(RuO6)2
_symmetry_space_group_name_H-M   'P 1'
_cell_length_a   10.14099331
_cell_length_b   10.14099213
_cell_length_c   5.51357367
_cell_angle_alpha   74.80703141
_cell_angle_beta   74.80702667
_cell_angle_gamma   69.22914739
_symmetry_Int_Tables_number   1
_chemical_formula_structural   Nd3Er(RuO6)2
_chemical_formula_sum   'Nd6 Er2 Ru4 O24'
_cell_volume   502.56398608
_cell_formula_units_Z   2
loop_
 _symmetry_equiv_pos_site_id
 _symmetry_equiv_pos_as_xyz
  1  'x, y, z'
loop_
 _atom_site_type_symbol
 _atom_site_label
 _atom_site_symmetry_multiplicity
 _atom_site_fract_x
 _atom_site_fract_y
 _atom_site_fract_z
 _atom_site_occupancy
  Nd  Nd0  1  0.062421  0.286280  0.626381  1
  Nd  Nd1  1  0.713720  0.937579  0.873619  1
  Nd  Nd2  1  0.937579  0.713720  0.373619  1
  Nd  Nd3  1  0.286280  0.062421  0.126381  1
  Nd  Nd4  1  0.637168  0.362832  0.750000  1
  Nd  Nd5  1  0.362832  0.637168  0.250000  1
  Er  Er6  1  0.098443  0.901557  0.750000  1
  Er  Er7  1  0.901557  0.098443  0.250000  1
  Ru  Ru8  1  0.500141  0.798499  0.559081  1
  Ru  Ru9  1  0.201501  0.499859  0.940919  1
  Ru  Ru10  1  0.499859  0.201501  0.440919  1
  Ru  Ru11  1  0.798499  0.500141  0.059081  1
  O  O12  1  0.608366  0.168541  0.128369  1
  O  O13  1  0.831459  0.391634  0.371631  1
  O  O14  1  0.391634  0.831459  0.871631  1
  O  O15  1  0.168541  0.608366  0.628369  1
  O  O16  1  0.476541  0.073249  0.737558  1
  O  O17  1  0.926751  0.523459  0.762442  1
  O  O18  1  0.523459  0.926751  0.262442  1
  O  O19  1  0.073249  0.476541  0.237558  1
  O  O20  1  0.322814  0.212303  0.374397  1
  O  O21  1  0.787697  0.677186  0.125603  1
  O  O22  1  0.677186  0.787697  0.625603  1
  O  O23  1  0.212303  0.322814  0.874397  1
  O  O24  1  0.892299  0.931193  0.068948  1
  O  O25  1  0.068807  0.107701  0.431052  1
  O  O26  1  0.107701  0.068807  0.931052  1
  O  O27  1  0.931193  0.892299  0.568948  1
  O  O28  1  0.161589  0.698161  0.058829  1
  O  O29  1  0.301839  0.838411  0.441171  1
  O  O30  1  0.838411  0.301839  0.941171  1
  O  O31  1  0.698161  0.161589  0.558829  1
  O  O32  1  0.383920  0.460242  0.978266  1
  O  O33  1  0.539758  0.616080  0.521734  1
  O  O34  1  0.616080  0.539758  0.021734  1
  O  O35  1  0.460242  0.383920  0.478266  1
