# generated using pymatgen
data_Tm2AlAuO7
_symmetry_space_group_name_H-M   'P 1'
_cell_length_a   7.09054411
_cell_length_b   7.09054280
_cell_length_c   7.02292000
_cell_angle_alpha   60.31498451
_cell_angle_beta   60.31499054
_cell_angle_gamma   60.57883129
_symmetry_Int_Tables_number   1
_chemical_formula_structural   Tm2AlAuO7
_chemical_formula_sum   'Tm4 Al2 Au2 O14'
_cell_volume   251.93881752
_cell_formula_units_Z   2
loop_
 _symmetry_equiv_pos_site_id
 _symmetry_equiv_pos_as_xyz
  1  'x, y, z'
loop_
 _atom_site_type_symbol
 _atom_site_label
 _atom_site_symmetry_multiplicity
 _atom_site_fract_x
 _atom_site_fract_y
 _atom_site_fract_z
 _atom_site_occupancy
  Tm  Tm0  1  0.625000  0.625000  0.125000  1
  Tm  Tm1  1  0.625000  0.625000  0.625000  1
  Tm  Tm2  1  0.625000  0.125000  0.625000  1
  Tm  Tm3  1  0.125000  0.625000  0.625000  1
  Al  Al4  1  0.625000  0.125000  0.125000  1
  Al  Al5  1  0.125000  0.625000  0.125000  1
  Au  Au6  1  0.125000  0.125000  0.125000  1
  Au  Au7  1  0.125000  0.125000  0.625000  1
  O  O8  1  0.034493  0.470149  0.457083  1
  O  O9  1  0.800885  0.800885  0.199115  1
  O  O10  1  0.779851  0.215507  0.211725  1
  O  O11  1  0.470149  0.034493  0.457083  1
  O  O12  1  0.752095  0.752095  0.747905  1
  O  O13  1  0.034493  0.470149  0.038275  1
  O  O14  1  0.028940  0.028940  0.471060  1
  O  O15  1  0.215507  0.779851  0.211725  1
  O  O16  1  0.221060  0.221060  0.778940  1
  O  O17  1  0.779851  0.215507  0.792917  1
  O  O18  1  0.497905  0.497905  0.502095  1
  O  O19  1  0.470149  0.034493  0.038275  1
  O  O20  1  0.449115  0.449115  0.050885  1
  O  O21  1  0.215507  0.779851  0.792917  1
