# generated using pymatgen
data_CsDy3Se5
_symmetry_space_group_name_H-M   'P 1'
_cell_length_a   4.15799200
_cell_length_b   12.51250400
_cell_length_c   22.29892200
_cell_angle_alpha   90.00000000
_cell_angle_beta   90.00000000
_cell_angle_gamma   90.00000000
_symmetry_Int_Tables_number   1
_chemical_formula_structural   CsDy3Se5
_chemical_formula_sum   'Cs4 Dy12 Se20'
_cell_volume   1160.14359617
_cell_formula_units_Z   4
loop_
 _symmetry_equiv_pos_site_id
 _symmetry_equiv_pos_as_xyz
  1  'x, y, z'
loop_
 _atom_site_type_symbol
 _atom_site_label
 _atom_site_symmetry_multiplicity
 _atom_site_fract_x
 _atom_site_fract_y
 _atom_site_fract_z
 _atom_site_occupancy
  Cs  Cs0  1  0.250000  0.853419  0.092358  1
  Cs  Cs1  1  0.750000  0.146581  0.907642  1
  Cs  Cs2  1  0.750000  0.353419  0.407642  1
  Cs  Cs3  1  0.250000  0.646581  0.592358  1
  Dy  Dy4  1  0.750000  0.796918  0.825312  1
  Dy  Dy5  1  0.250000  0.203082  0.174688  1
  Dy  Dy6  1  0.250000  0.296918  0.674688  1
  Dy  Dy7  1  0.750000  0.703082  0.325312  1
  Dy  Dy8  1  0.250000  0.957352  0.697833  1
  Dy  Dy9  1  0.750000  0.042648  0.302167  1
  Dy  Dy10  1  0.750000  0.457352  0.802167  1
  Dy  Dy11  1  0.250000  0.542648  0.197833  1
  Dy  Dy12  1  0.750000  0.391822  0.054005  1
  Dy  Dy13  1  0.250000  0.608178  0.945995  1
  Dy  Dy14  1  0.250000  0.891822  0.445995  1
  Dy  Dy15  1  0.750000  0.108178  0.554005  1
  Se  Se16  1  0.250000  0.948159  0.568996  1
  Se  Se17  1  0.750000  0.051841  0.431004  1
  Se  Se18  1  0.750000  0.448159  0.931004  1
  Se  Se19  1  0.250000  0.551841  0.068996  1
  Se  Se20  1  0.750000  0.764369  0.952346  1
  Se  Se21  1  0.250000  0.235631  0.047654  1
  Se  Se22  1  0.250000  0.264369  0.547654  1
  Se  Se23  1  0.750000  0.735631  0.452346  1
  Se  Se24  1  0.250000  0.949484  0.825494  1
  Se  Se25  1  0.750000  0.050516  0.174506  1
  Se  Se26  1  0.750000  0.449484  0.674506  1
  Se  Se27  1  0.250000  0.550516  0.325494  1
  Se  Se28  1  0.750000  0.126033  0.684754  1
  Se  Se29  1  0.250000  0.873967  0.315246  1
  Se  Se30  1  0.250000  0.626033  0.815246  1
  Se  Se31  1  0.750000  0.373967  0.184754  1
  Se  Se32  1  0.750000  0.693865  0.197622  1
  Se  Se33  1  0.250000  0.306135  0.802378  1
  Se  Se34  1  0.250000  0.193865  0.302378  1
  Se  Se35  1  0.750000  0.806135  0.697622  1
