# generated using pymatgen
data_Dy2Ga3Co14
_symmetry_space_group_name_H-M   'P 1'
_cell_length_a   6.34203403
_cell_length_b   6.34203438
_cell_length_c   6.34203419
_cell_angle_alpha   82.66237847
_cell_angle_beta   82.66237599
_cell_angle_gamma   82.66239255
_symmetry_Int_Tables_number   1
_chemical_formula_structural   Dy2Ga3Co14
_chemical_formula_sum   'Dy2 Ga3 Co14'
_cell_volume   249.31032886
_cell_formula_units_Z   1
loop_
 _symmetry_equiv_pos_site_id
 _symmetry_equiv_pos_as_xyz
  1  'x, y, z'
loop_
 _atom_site_type_symbol
 _atom_site_label
 _atom_site_symmetry_multiplicity
 _atom_site_fract_x
 _atom_site_fract_y
 _atom_site_fract_z
 _atom_site_occupancy
  Dy  Dy0  1  0.660090  0.660090  0.660090  1
  Dy  Dy1  1  0.332104  0.332104  0.332104  1
  Ga  Ga2  1  0.156750  0.652022  0.652022  1
  Ga  Ga3  1  0.652022  0.652022  0.156750  1
  Ga  Ga4  1  0.652022  0.156750  0.652022  1
  Co  Co5  1  0.907580  0.907580  0.907580  1
  Co  Co6  1  0.094880  0.094880  0.094880  1
  Co  Co7  1  0.004930  0.004930  0.496039  1
  Co  Co8  1  0.004930  0.496039  0.004930  1
  Co  Co9  1  0.496039  0.004930  0.004930  1
  Co  Co10  1  0.287538  0.713910  0.001526  1
  Co  Co11  1  0.713910  0.001526  0.287538  1
  Co  Co12  1  0.001526  0.287538  0.713910  1
  Co  Co13  1  0.287538  0.001526  0.713910  1
  Co  Co14  1  0.001526  0.713910  0.287538  1
  Co  Co15  1  0.713910  0.287538  0.001526  1
  Co  Co16  1  0.854855  0.338924  0.338924  1
  Co  Co17  1  0.338924  0.338924  0.854855  1
  Co  Co18  1  0.338924  0.854855  0.338924  1
