# generated using pymatgen
data_Ho2Er6Re3B24Ru
_symmetry_space_group_name_H-M   'P 1'
_cell_length_a   3.65509600
_cell_length_b   9.12426231
_cell_length_c   11.50187703
_cell_angle_alpha   90.10067284
_cell_angle_beta   90.00000000
_cell_angle_gamma   90.00000000
_symmetry_Int_Tables_number   1
_chemical_formula_structural   Ho2Er6Re3B24Ru
_chemical_formula_sum   'Ho2 Er6 Re3 B24 Ru1'
_cell_volume   383.58763575
_cell_formula_units_Z   1
loop_
 _symmetry_equiv_pos_site_id
 _symmetry_equiv_pos_as_xyz
  1  'x, y, z'
loop_
 _atom_site_type_symbol
 _atom_site_label
 _atom_site_symmetry_multiplicity
 _atom_site_fract_x
 _atom_site_fract_y
 _atom_site_fract_z
 _atom_site_occupancy
  Ho  Ho0  1  0.000000  0.321551  0.414216  1
  Ho  Ho1  1  0.000000  0.677555  0.587668  1
  Er  Er2  1  0.000000  0.824727  0.084008  1
  Er  Er3  1  0.000000  0.176882  0.913707  1
  Er  Er4  1  0.000000  0.941644  0.369773  1
  Er  Er5  1  0.000000  0.056485  0.629175  1
  Er  Er6  1  0.000000  0.443125  0.130329  1
  Er  Er7  1  0.000000  0.556963  0.871204  1
  Re  Re8  1  0.000000  0.362015  0.678433  1
  Re  Re9  1  0.000000  0.138169  0.179570  1
  Re  Re10  1  0.000000  0.861910  0.820892  1
  B  B11  1  0.500000  0.553910  0.432779  1
  B  B12  1  0.500000  0.447145  0.566594  1
  B  B13  1  0.500000  0.053088  0.066540  1
  B  B14  1  0.500000  0.947265  0.933152  1
  B  B15  1  0.500000  0.748643  0.418584  1
  B  B16  1  0.500000  0.250302  0.580975  1
  B  B17  1  0.500000  0.249666  0.081124  1
  B  B18  1  0.500000  0.751063  0.919104  1
  B  B19  1  0.500000  0.791049  0.265175  1
  B  B20  1  0.500000  0.207756  0.734468  1
  B  B21  1  0.500000  0.292010  0.235190  1
  B  B22  1  0.500000  0.707764  0.765721  1
  B  B23  1  0.500000  0.631353  0.185444  1
  B  B24  1  0.500000  0.369570  0.814490  1
  B  B25  1  0.500000  0.130619  0.315183  1
  B  B26  1  0.500000  0.869026  0.685275  1
  B  B27  1  0.500000  0.981678  0.211834  1
  B  B28  1  0.500000  0.018337  0.787644  1
  B  B29  1  0.500000  0.483159  0.288173  1
  B  B30  1  0.500000  0.518644  0.712134  1
  B  B31  1  0.500000  0.601801  0.028864  1
  B  B32  1  0.500000  0.398851  0.972294  1
  B  B33  1  0.500000  0.100054  0.471550  1
  B  B34  1  0.500000  0.897770  0.527974  1
  Ru  Ru35  1  0.000000  0.638452  0.320762  1
