# generated using pymatgen
data_Tb11Nd5(CdIr)4
_symmetry_space_group_name_H-M   'P 1'
_cell_length_a   9.75853730
_cell_length_b   9.75595397
_cell_length_c   9.75595311
_cell_angle_alpha   59.99339343
_cell_angle_beta   59.99123524
_cell_angle_gamma   59.99124318
_symmetry_Int_Tables_number   1
_chemical_formula_structural   Tb11Nd5(CdIr)4
_chemical_formula_sum   'Tb11 Nd5 Cd4 Ir4'
_cell_volume   656.64398592
_cell_formula_units_Z   1
loop_
 _symmetry_equiv_pos_site_id
 _symmetry_equiv_pos_as_xyz
  1  'x, y, z'
loop_
 _atom_site_type_symbol
 _atom_site_label
 _atom_site_symmetry_multiplicity
 _atom_site_fract_x
 _atom_site_fract_y
 _atom_site_fract_z
 _atom_site_occupancy
  Tb  Tb0  1  0.347576  0.348610  0.348610  1
  Tb  Tb1  1  0.347196  0.350098  0.955511  1
  Tb  Tb2  1  0.347196  0.955511  0.350098  1
  Tb  Tb3  1  0.955203  0.348610  0.348610  1
  Tb  Tb4  1  0.811657  0.188343  0.188343  1
  Tb  Tb5  1  0.188181  0.811819  0.811819  1
  Tb  Tb6  1  0.188803  0.810869  0.188651  1
  Tb  Tb7  1  0.811677  0.188651  0.810869  1
  Tb  Tb8  1  0.188803  0.188651  0.810869  1
  Tb  Tb9  1  0.811677  0.810869  0.188651  1
  Tb  Tb10  1  0.942469  0.557531  0.557531  1
  Nd  Nd11  1  0.558133  0.941867  0.941867  1
  Nd  Nd12  1  0.561551  0.939378  0.558209  1
  Nd  Nd13  1  0.940862  0.558209  0.939378  1
  Nd  Nd14  1  0.561551  0.558209  0.939378  1
  Nd  Nd15  1  0.940862  0.939378  0.558209  1
  Cd  Cd16  1  0.581929  0.579350  0.579350  1
  Cd  Cd17  1  0.579838  0.580040  0.260283  1
  Cd  Cd18  1  0.579838  0.260283  0.580040  1
  Cd  Cd19  1  0.259369  0.579350  0.579350  1
  Ir  Ir20  1  0.141016  0.142013  0.142013  1
  Ir  Ir21  1  0.139827  0.144866  0.575479  1
  Ir  Ir22  1  0.139827  0.575479  0.144866  1
  Ir  Ir23  1  0.574958  0.142013  0.142013  1
