# generated using pymatgen
data_DyHo3Al18(PtRh)3
_symmetry_space_group_name_H-M   'P 1'
_cell_length_a   7.59185123
_cell_length_b   7.59065866
_cell_length_c   9.44494311
_cell_angle_alpha   89.99101316
_cell_angle_beta   89.99125870
_cell_angle_gamma   119.65558236
_symmetry_Int_Tables_number   1
_chemical_formula_structural   DyHo3Al18(PtRh)3
_chemical_formula_sum   'Dy1 Ho3 Al18 Pt3 Rh3'
_cell_volume   472.99214136
_cell_formula_units_Z   1
loop_
 _symmetry_equiv_pos_site_id
 _symmetry_equiv_pos_as_xyz
  1  'x, y, z'
loop_
 _atom_site_type_symbol
 _atom_site_label
 _atom_site_symmetry_multiplicity
 _atom_site_fract_x
 _atom_site_fract_y
 _atom_site_fract_z
 _atom_site_occupancy
  Dy  Dy0  1  0.330204  0.004483  0.249645  1
  Ho  Ho1  1  0.995601  0.670006  0.750422  1
  Ho  Ho2  1  0.006768  0.332010  0.249888  1
  Ho  Ho3  1  0.668132  0.993456  0.750158  1
  Al  Al4  1  0.124019  0.125001  0.750646  1
  Al  Al5  1  0.874724  0.875708  0.249327  1
  Al  Al6  1  0.999782  0.331004  0.576542  1
  Al  Al7  1  0.998802  0.669166  0.423557  1
  Al  Al8  1  0.996649  0.665201  0.074826  1
  Al  Al9  1  0.334685  0.003233  0.924630  1
  Al  Al10  1  0.995376  0.330707  0.924821  1
  Al  Al11  1  0.669636  0.004654  0.074860  1
  Al  Al12  1  0.669225  0.000148  0.423787  1
  Al  Al13  1  0.330641  0.000922  0.577028  1
  Al  Al14  1  0.332365  0.329304  0.052756  1
  Al  Al15  1  0.671008  0.667890  0.946591  1
  Al  Al16  1  0.669998  0.670081  0.557008  1
  Al  Al17  1  0.329889  0.330151  0.443650  1
  Al  Al18  1  0.340262  0.544178  0.750616  1
  Al  Al19  1  0.659519  0.451532  0.246471  1
  Al  Al20  1  0.548726  0.340810  0.753567  1
  Al  Al21  1  0.455937  0.659483  0.249330  1
  Pt  Pt22  1  0.672087  0.328066  0.500163  1
  Pt  Pt23  1  0.327479  0.672648  0.500082  1
  Pt  Pt24  1  0.327463  0.672640  0.999899  1
  Rh  Rh25  1  0.671714  0.327791  0.999640  1
  Rh  Rh26  1  0.999024  0.000131  0.500142  1
  Rh  Rh27  1  0.000287  0.999597  0.999948  1
