# generated using pymatgen
data_Ba4Si7SnPt8
_symmetry_space_group_name_H-M   'P 1'
_cell_length_a   7.05997003
_cell_length_b   7.92857579
_cell_length_c   8.18466854
_cell_angle_alpha   92.55327426
_cell_angle_beta   88.99977762
_cell_angle_gamma   89.39985089
_symmetry_Int_Tables_number   1
_chemical_formula_structural   Ba4Si7SnPt8
_chemical_formula_sum   'Ba4 Si7 Sn1 Pt8'
_cell_volume   457.58737189
_cell_formula_units_Z   1
loop_
 _symmetry_equiv_pos_site_id
 _symmetry_equiv_pos_as_xyz
  1  'x, y, z'
loop_
 _atom_site_type_symbol
 _atom_site_label
 _atom_site_symmetry_multiplicity
 _atom_site_fract_x
 _atom_site_fract_y
 _atom_site_fract_z
 _atom_site_occupancy
  Ba  Ba0  1  0.875983  0.503103  0.749497  1
  Ba  Ba1  1  0.370004  0.002892  0.247230  1
  Ba  Ba2  1  0.636940  0.993134  0.743564  1
  Ba  Ba3  1  0.132251  0.505679  0.260635  1
  Si  Si4  1  0.906321  0.856198  0.428517  1
  Si  Si5  1  0.086240  0.861245  0.929382  1
  Si  Si6  1  0.600300  0.362630  0.428549  1
  Si  Si7  1  0.082962  0.129659  0.564754  1
  Si  Si8  1  0.599173  0.649193  0.079466  1
  Si  Si9  1  0.902062  0.139597  0.072589  1
  Si  Si10  1  0.407787  0.628935  0.587569  1
  Sn  Sn11  1  0.409092  0.358857  0.917967  1
  Pt  Pt12  1  0.846844  0.154551  0.369421  1
  Pt  Pt13  1  0.145590  0.831960  0.627529  1
  Pt  Pt14  1  0.125273  0.149299  0.857237  1
  Pt  Pt15  1  0.339911  0.319847  0.599263  1
  Pt  Pt16  1  0.363167  0.693943  0.882326  1
  Pt  Pt17  1  0.849648  0.843245  0.134810  1
  Pt  Pt18  1  0.671617  0.354765  0.139721  1
  Pt  Pt19  1  0.648833  0.661270  0.379972  1
