# generated using pymatgen
data_Li3Al2Ga(SiO4)3
_symmetry_space_group_name_H-M   'P 1'
_cell_length_a   8.46474085
_cell_length_b   8.46294516
_cell_length_c   8.46302651
_cell_angle_alpha   107.86837201
_cell_angle_beta   107.71606464
_cell_angle_gamma   107.91942679
_symmetry_Int_Tables_number   1
_chemical_formula_structural   Li3Al2Ga(SiO4)3
_chemical_formula_sum   'Li6 Al4 Ga2 Si6 O24'
_cell_volume   492.95320819
_cell_formula_units_Z   2
loop_
 _symmetry_equiv_pos_site_id
 _symmetry_equiv_pos_as_xyz
  1  'x, y, z'
loop_
 _atom_site_type_symbol
 _atom_site_label
 _atom_site_symmetry_multiplicity
 _atom_site_fract_x
 _atom_site_fract_y
 _atom_site_fract_z
 _atom_site_occupancy
  Li  Li0  1  0.459262  0.228592  0.058415  1
  Li  Li1  1  0.059627  0.459365  0.226740  1
  Li  Li2  1  0.228076  0.059472  0.460418  1
  Li  Li3  1  0.766148  0.937964  0.545339  1
  Li  Li4  1  0.939474  0.543524  0.765184  1
  Li  Li5  1  0.545169  0.766095  0.937816  1
  Al  Al6  1  0.791463  0.570446  0.385831  1
  Al  Al7  1  0.384559  0.790932  0.570811  1
  Al  Al8  1  0.571230  0.386363  0.791536  1
  Al  Al9  1  0.100172  0.278412  0.866955  1
  Ga  Ga10  1  0.278817  0.866962  0.101331  1
  Ga  Ga11  1  0.867150  0.101468  0.278947  1
  Si  Si12  1  0.897706  0.716008  0.128455  1
  Si  Si13  1  0.428313  0.612836  0.209107  1
  Si  Si14  1  0.614691  0.211098  0.430909  1
  Si  Si15  1  0.210962  0.430163  0.617418  1
  Si  Si16  1  0.128893  0.901020  0.718006  1
  Si  Si17  1  0.718680  0.129163  0.896773  1
  O  O18  1  0.038110  0.707861  0.030918  1
  O  O19  1  0.711639  0.033131  0.038339  1
  O  O20  1  0.323780  0.391490  0.059687  1
  O  O21  1  0.420116  0.738060  0.093902  1
  O  O22  1  0.906608  0.592436  0.245087  1
  O  O23  1  0.964457  0.931844  0.270592  1
  O  O24  1  0.651623  0.335543  0.318097  1
  O  O25  1  0.392925  0.066344  0.334931  1
  O  O26  1  0.317955  0.651463  0.336249  1
  O  O27  1  0.642610  0.676807  0.348619  1
  O  O28  1  0.065853  0.335822  0.395806  1
  O  O29  1  0.736801  0.093053  0.419395  1
  O  O30  1  0.245204  0.907368  0.593663  1
  O  O31  1  0.957033  0.691377  0.622298  1
  O  O32  1  0.681060  0.352646  0.645164  1
  O  O33  1  0.337091  0.318522  0.651520  1
  O  O34  1  0.349985  0.645402  0.681880  1
  O  O35  1  0.620633  0.957268  0.687153  1
  O  O36  1  0.039222  0.048085  0.717871  1
  O  O37  1  0.094896  0.412870  0.741038  1
  O  O38  1  0.596542  0.247192  0.907395  1
  O  O39  1  0.271079  0.964863  0.932640  1
  O  O40  1  0.687925  0.622006  0.959010  1
  O  O41  1  0.934322  0.266522  0.956616  1
