# generated using pymatgen
data_PrP2IrOs
_symmetry_space_group_name_H-M   'P 1'
_cell_length_a   4.22987600
_cell_length_b   4.22987600
_cell_length_c   9.49022100
_cell_angle_alpha   90.00000000
_cell_angle_beta   90.00000000
_cell_angle_gamma   90.00000000
_symmetry_Int_Tables_number   1
_chemical_formula_structural   PrP2IrOs
_chemical_formula_sum   'Pr2 P4 Ir2 Os2'
_cell_volume   169.79761986
_cell_formula_units_Z   2
loop_
 _symmetry_equiv_pos_site_id
 _symmetry_equiv_pos_as_xyz
  1  'x, y, z'
loop_
 _atom_site_type_symbol
 _atom_site_label
 _atom_site_symmetry_multiplicity
 _atom_site_fract_x
 _atom_site_fract_y
 _atom_site_fract_z
 _atom_site_occupancy
  Pr  Pr0  1  0.000000  0.500000  0.237580  1
  Pr  Pr1  1  0.500000  0.000000  0.762420  1
  P  P2  1  0.000000  0.000000  0.000000  1
  P  P3  1  0.500000  0.500000  0.000000  1
  P  P4  1  0.000000  0.500000  0.625172  1
  P  P5  1  0.500000  0.000000  0.374828  1
  Ir  Ir6  1  0.000000  0.500000  0.886059  1
  Ir  Ir7  1  0.500000  0.000000  0.113941  1
  Os  Os8  1  0.000000  0.000000  0.500000  1
  Os  Os9  1  0.500000  0.500000  0.500000  1
