# generated using pymatgen
data_DyY3Ti4(CoO5)4
_symmetry_space_group_name_H-M   'P 1'
_cell_length_a   5.73267000
_cell_length_b   7.36837703
_cell_length_c   8.49686104
_cell_angle_alpha   89.98959219
_cell_angle_beta   90.00000000
_cell_angle_gamma   90.00000000
_symmetry_Int_Tables_number   1
_chemical_formula_structural   DyY3Ti4(CoO5)4
_chemical_formula_sum   'Dy1 Y3 Ti4 Co4 O20'
_cell_volume   358.91143129
_cell_formula_units_Z   1
loop_
 _symmetry_equiv_pos_site_id
 _symmetry_equiv_pos_as_xyz
  1  'x, y, z'
loop_
 _atom_site_type_symbol
 _atom_site_label
 _atom_site_symmetry_multiplicity
 _atom_site_fract_x
 _atom_site_fract_y
 _atom_site_fract_z
 _atom_site_occupancy
  Dy  Dy0  1  0.500000  0.360684  0.328397  1
  Y  Y1  1  0.500000  0.639242  0.671562  1
  Y  Y2  1  0.500000  0.139338  0.828342  1
  Y  Y3  1  0.500000  0.860653  0.171663  1
  Ti  Ti4  1  0.000000  0.121070  0.147116  1
  Ti  Ti5  1  0.000000  0.878977  0.852942  1
  Ti  Ti6  1  0.000000  0.378983  0.646924  1
  Ti  Ti7  1  0.000000  0.620878  0.352964  1
  Co  Co8  1  0.253627  0.000109  0.499952  1
  Co  Co9  1  0.746373  0.000109  0.499952  1
  Co  Co10  1  0.746393  0.499956  0.000109  1
  Co  Co11  1  0.253607  0.499956  0.000109  1
  O  O12  1  0.223712  0.000000  0.000024  1
  O  O13  1  0.776288  0.000000  0.000024  1
  O  O14  1  0.775927  0.499663  0.499710  1
  O  O15  1  0.224073  0.499663  0.499710  1
  O  O16  1  0.000000  0.347216  0.071819  1
  O  O17  1  0.000000  0.652744  0.928192  1
  O  O18  1  0.000000  0.152780  0.571826  1
  O  O19  1  0.000000  0.847231  0.428166  1
  O  O20  1  0.253459  0.108101  0.292237  1
  O  O21  1  0.746982  0.892474  0.707781  1
  O  O22  1  0.253018  0.892474  0.707781  1
  O  O23  1  0.746992  0.392482  0.792219  1
  O  O24  1  0.746541  0.108101  0.292237  1
  O  O25  1  0.253273  0.607217  0.207911  1
  O  O26  1  0.746727  0.607217  0.207911  1
  O  O27  1  0.253008  0.392482  0.792219  1
  O  O28  1  0.500000  0.339575  0.057496  1
  O  O29  1  0.500000  0.660378  0.942962  1
  O  O30  1  0.500000  0.160635  0.556795  1
  O  O31  1  0.500000  0.839613  0.442948  1
