# generated using pymatgen
data_TmScGeB2Ru5
_symmetry_space_group_name_H-M   'P 1'
_cell_length_a   9.46151359
_cell_length_b   9.46151410
_cell_length_c   3.05437400
_cell_angle_alpha   90.00000000
_cell_angle_beta   90.00000000
_cell_angle_gamma   89.30704571
_symmetry_Int_Tables_number   1
_chemical_formula_structural   TmScGeB2Ru5
_chemical_formula_sum   'Tm2 Sc2 Ge2 B4 Ru10'
_cell_volume   273.40830915
_cell_formula_units_Z   2
loop_
 _symmetry_equiv_pos_site_id
 _symmetry_equiv_pos_as_xyz
  1  'x, y, z'
loop_
 _atom_site_type_symbol
 _atom_site_label
 _atom_site_symmetry_multiplicity
 _atom_site_fract_x
 _atom_site_fract_y
 _atom_site_fract_z
 _atom_site_occupancy
  Tm  Tm0  1  0.324784  0.824784  0.000000  1
  Tm  Tm1  1  0.675216  0.175216  0.000000  1
  Sc  Sc2  1  0.825761  0.674239  0.000000  1
  Sc  Sc3  1  0.174239  0.325761  0.000000  1
  Ge  Ge4  1  0.500000  0.500000  0.000000  1
  Ge  Ge5  1  0.000000  0.000000  0.000000  1
  B  B6  1  0.624989  0.875011  0.000000  1
  B  B7  1  0.375011  0.124989  0.000000  1
  B  B8  1  0.121969  0.621969  0.000000  1
  B  B9  1  0.878031  0.378031  0.000000  1
  Ru  Ru10  1  0.574843  0.711986  0.500000  1
  Ru  Ru11  1  0.425157  0.288014  0.500000  1
  Ru  Ru12  1  0.064708  0.784531  0.500000  1
  Ru  Ru13  1  0.935292  0.215469  0.500000  1
  Ru  Ru14  1  0.284531  0.564708  0.500000  1
  Ru  Ru15  1  0.715469  0.435292  0.500000  1
  Ru  Ru16  1  0.211986  0.074843  0.500000  1
  Ru  Ru17  1  0.788014  0.925157  0.500000  1
  Ru  Ru18  1  0.500000  0.000000  0.500000  1
  Ru  Ru19  1  0.000000  0.500000  0.500000  1
