# generated using pymatgen
data_PrPa3(Al3Rh)6
_symmetry_space_group_name_H-M   'P 1'
_cell_length_a   7.63300463
_cell_length_b   7.62347320
_cell_length_c   9.46623600
_cell_angle_alpha   90.00000000
_cell_angle_beta   90.00000000
_cell_angle_gamma   119.51289700
_symmetry_Int_Tables_number   1
_chemical_formula_structural   PrPa3(Al3Rh)6
_chemical_formula_sum   'Pr1 Pa3 Al18 Rh6'
_cell_volume   479.36595189
_cell_formula_units_Z   1
loop_
 _symmetry_equiv_pos_site_id
 _symmetry_equiv_pos_as_xyz
  1  'x, y, z'
loop_
 _atom_site_type_symbol
 _atom_site_label
 _atom_site_symmetry_multiplicity
 _atom_site_fract_x
 _atom_site_fract_y
 _atom_site_fract_z
 _atom_site_occupancy
  Pr  Pr0  1  0.329740  0.005546  0.250000  1
  Pa  Pa1  1  0.994473  0.669532  0.750000  1
  Pa  Pa2  1  0.002673  0.328869  0.250000  1
  Pa  Pa3  1  0.673379  0.996684  0.750000  1
  Al  Al4  1  0.129250  0.129636  0.750000  1
  Al  Al5  1  0.869799  0.872714  0.250000  1
  Al  Al6  1  0.002499  0.335395  0.574339  1
  Al  Al7  1  0.997910  0.664450  0.426036  1
  Al  Al8  1  0.997910  0.664450  0.073964  1
  Al  Al9  1  0.335429  0.002206  0.923854  1
  Al  Al10  1  0.002499  0.335395  0.925661  1
  Al  Al11  1  0.665182  0.997852  0.073961  1
  Al  Al12  1  0.665182  0.997852  0.426039  1
  Al  Al13  1  0.335429  0.002206  0.576146  1
  Al  Al14  1  0.333925  0.334650  0.050120  1
  Al  Al15  1  0.665228  0.665201  0.949414  1
  Al  Al16  1  0.665228  0.665201  0.550586  1
  Al  Al17  1  0.333925  0.334650  0.449880  1
  Al  Al18  1  0.340796  0.548811  0.750000  1
  Al  Al19  1  0.662627  0.453442  0.250000  1
  Al  Al20  1  0.547807  0.341138  0.750000  1
  Al  Al21  1  0.449520  0.655605  0.250000  1
  Rh  Rh22  1  0.673342  0.328506  0.501848  1
  Rh  Rh23  1  0.327986  0.671675  0.502113  1
  Rh  Rh24  1  0.327986  0.671675  0.997887  1
  Rh  Rh25  1  0.673342  0.328506  0.998152  1
  Rh  Rh26  1  0.998467  0.999079  0.502061  1
  Rh  Rh27  1  0.998467  0.999079  0.997939  1
