# generated using pymatgen
data_LaNiAs2Ir
_symmetry_space_group_name_H-M   'P 1'
_cell_length_a   4.25134700
_cell_length_b   4.25134700
_cell_length_c   9.88406500
_cell_angle_alpha   90.00000000
_cell_angle_beta   90.00000000
_cell_angle_gamma   90.00000000
_symmetry_Int_Tables_number   1
_chemical_formula_structural   LaNiAs2Ir
_chemical_formula_sum   'La2 Ni2 As4 Ir2'
_cell_volume   178.64410960
_cell_formula_units_Z   2
loop_
 _symmetry_equiv_pos_site_id
 _symmetry_equiv_pos_as_xyz
  1  'x, y, z'
loop_
 _atom_site_type_symbol
 _atom_site_label
 _atom_site_symmetry_multiplicity
 _atom_site_fract_x
 _atom_site_fract_y
 _atom_site_fract_z
 _atom_site_occupancy
  La  La0  1  0.000000  0.500000  0.243840  1
  La  La1  1  0.500000  0.000000  0.756160  1
  Ni  Ni2  1  0.000000  0.500000  0.885258  1
  Ni  Ni3  1  0.500000  0.000000  0.114742  1
  As  As4  1  0.000000  0.000000  0.000000  1
  As  As5  1  0.500000  0.500000  0.000000  1
  As  As6  1  0.000000  0.500000  0.645215  1
  As  As7  1  0.500000  0.000000  0.354785  1
  Ir  Ir8  1  0.000000  0.000000  0.500000  1
  Ir  Ir9  1  0.500000  0.500000  0.500000  1
