# generated using pymatgen
data_ErLu11Tc3Ru
_symmetry_space_group_name_H-M   'P 1'
_cell_length_a   6.13613001
_cell_length_b   7.33002300
_cell_length_c   8.89033100
_cell_angle_alpha   90.00000000
_cell_angle_beta   90.00000000
_cell_angle_gamma   89.99665245
_symmetry_Int_Tables_number   1
_chemical_formula_structural   ErLu11Tc3Ru
_chemical_formula_sum   'Er1 Lu11 Tc3 Ru1'
_cell_volume   399.86907671
_cell_formula_units_Z   1
loop_
 _symmetry_equiv_pos_site_id
 _symmetry_equiv_pos_as_xyz
  1  'x, y, z'
loop_
 _atom_site_type_symbol
 _atom_site_label
 _atom_site_symmetry_multiplicity
 _atom_site_fract_x
 _atom_site_fract_y
 _atom_site_fract_z
 _atom_site_occupancy
  Er  Er0  1  0.874863  0.540180  0.250000  1
  Lu  Lu1  1  0.340157  0.675830  0.061657  1
  Lu  Lu2  1  0.157544  0.175592  0.438628  1
  Lu  Lu3  1  0.658469  0.324878  0.562952  1
  Lu  Lu4  1  0.841950  0.824766  0.937554  1
  Lu  Lu5  1  0.658469  0.324878  0.937048  1
  Lu  Lu6  1  0.841950  0.824766  0.562446  1
  Lu  Lu7  1  0.340157  0.675830  0.438343  1
  Lu  Lu8  1  0.157544  0.175592  0.061372  1
  Lu  Lu9  1  0.625172  0.038681  0.250000  1
  Lu  Lu10  1  0.129315  0.458151  0.750000  1
  Lu  Lu11  1  0.375063  0.958435  0.750000  1
  Tc  Tc12  1  0.041943  0.883506  0.250000  1
  Tc  Tc13  1  0.458698  0.383596  0.250000  1
  Tc  Tc14  1  0.959167  0.117106  0.750000  1
  Ru  Ru15  1  0.539538  0.618212  0.750000  1
