# generated using pymatgen
data_Ce3Sc2TcRu2
_symmetry_space_group_name_H-M   'P 1'
_cell_length_a   6.41967900
_cell_length_b   7.85120693
_cell_length_c   7.85120577
_cell_angle_alpha   120.13898701
_cell_angle_beta   90.00000000
_cell_angle_gamma   90.00000000
_symmetry_Int_Tables_number   1
_chemical_formula_structural   Ce3Sc2TcRu2
_chemical_formula_sum   'Ce6 Sc4 Tc2 Ru4'
_cell_volume   342.22109998
_cell_formula_units_Z   2
loop_
 _symmetry_equiv_pos_site_id
 _symmetry_equiv_pos_as_xyz
  1  'x, y, z'
loop_
 _atom_site_type_symbol
 _atom_site_label
 _atom_site_symmetry_multiplicity
 _atom_site_fract_x
 _atom_site_fract_y
 _atom_site_fract_z
 _atom_site_occupancy
  Ce  Ce0  1  0.750000  0.753206  0.753206  1
  Ce  Ce1  1  0.250000  0.246794  0.246794  1
  Ce  Ce2  1  0.750000  0.003811  0.249306  1
  Ce  Ce3  1  0.250000  0.996189  0.750694  1
  Ce  Ce4  1  0.750000  0.249306  0.003811  1
  Ce  Ce5  1  0.250000  0.750694  0.996189  1
  Sc  Sc6  1  0.000000  0.667247  0.332753  1
  Sc  Sc7  1  0.000000  0.332753  0.667247  1
  Sc  Sc8  1  0.500000  0.332753  0.667247  1
  Sc  Sc9  1  0.500000  0.667247  0.332753  1
  Tc  Tc10  1  0.750000  0.376197  0.376197  1
  Tc  Tc11  1  0.250000  0.623803  0.623803  1
  Ru  Ru12  1  0.750000  0.000855  0.623576  1
  Ru  Ru13  1  0.250000  0.999145  0.376424  1
  Ru  Ru14  1  0.750000  0.623576  0.000855  1
  Ru  Ru15  1  0.250000  0.376424  0.999145  1
