# generated using pymatgen
data_Lu2V3Co9P7
_symmetry_space_group_name_H-M   'P 1'
_cell_length_a   9.00893804
_cell_length_b   9.00617950
_cell_length_c   3.62229600
_cell_angle_alpha   90.00000000
_cell_angle_beta   90.00000000
_cell_angle_gamma   120.02349065
_symmetry_Int_Tables_number   1
_chemical_formula_structural   Lu2V3Co9P7
_chemical_formula_sum   'Lu2 V3 Co9 P7'
_cell_volume   254.46374649
_cell_formula_units_Z   1
loop_
 _symmetry_equiv_pos_site_id
 _symmetry_equiv_pos_as_xyz
  1  'x, y, z'
loop_
 _atom_site_type_symbol
 _atom_site_label
 _atom_site_symmetry_multiplicity
 _atom_site_fract_x
 _atom_site_fract_y
 _atom_site_fract_z
 _atom_site_occupancy
  Lu  Lu0  1  0.666789  0.333350  0.000000  1
  Lu  Lu1  1  0.999932  0.999995  0.500000  1
  V  V2  1  0.552480  0.765412  0.500000  1
  V  V3  1  0.234334  0.787080  0.500000  1
  V  V4  1  0.212797  0.447563  0.500000  1
  Co  Co5  1  0.766152  0.727983  0.000000  1
  Co  Co6  1  0.272042  0.038064  0.000000  1
  Co  Co7  1  0.962052  0.233857  0.000000  1
  Co  Co8  1  0.492404  0.946337  0.000000  1
  Co  Co9  1  0.053765  0.546108  0.000000  1
  Co  Co10  1  0.453952  0.507729  0.000000  1
  Co  Co11  1  0.719753  0.103286  0.500000  1
  Co  Co12  1  0.896666  0.616414  0.500000  1
  Co  Co13  1  0.383587  0.280180  0.500000  1
  P  P14  1  0.451965  0.075078  0.500000  1
  P  P15  1  0.924958  0.376919  0.500000  1
  P  P16  1  0.623095  0.548050  0.500000  1
  P  P17  1  0.746474  0.965498  0.000000  1
  P  P18  1  0.034513  0.781035  0.000000  1
  P  P19  1  0.218976  0.253434  0.000000  1
  P  P20  1  0.333312  0.666631  0.000000  1
