# generated using pymatgen
data_Sr2Ir2RuO9
_symmetry_space_group_name_H-M   'P 1'
_cell_length_a   7.99234203
_cell_length_b   8.03680134
_cell_length_c   8.01026000
_cell_angle_alpha   109.43397041
_cell_angle_beta   109.34651459
_cell_angle_gamma   109.66163584
_symmetry_Int_Tables_number   1
_chemical_formula_structural   Sr2Ir2RuO9
_chemical_formula_sum   'Sr4 Ir4 Ru2 O18'
_cell_volume   395.93761423
_cell_formula_units_Z   2
loop_
 _symmetry_equiv_pos_site_id
 _symmetry_equiv_pos_as_xyz
  1  'x, y, z'
loop_
 _atom_site_type_symbol
 _atom_site_label
 _atom_site_symmetry_multiplicity
 _atom_site_fract_x
 _atom_site_fract_y
 _atom_site_fract_z
 _atom_site_occupancy
  Sr  Sr0  1  0.999666  0.999180  0.400908  1
  Sr  Sr1  1  0.999240  0.402078  0.000390  1
  Sr  Sr2  1  0.598784  0.598765  0.597420  1
  Sr  Sr3  1  0.402154  0.000854  0.001351  1
  Ir  Ir4  1  0.363990  0.500191  0.864278  1
  Ir  Ir5  1  0.862657  0.362668  0.499527  1
  Ir  Ir6  1  0.500104  0.135944  0.636286  1
  Ir  Ir7  1  0.137000  0.636875  0.499709  1
  Ru  Ru8  1  0.500314  0.863517  0.363752  1
  Ru  Ru9  1  0.635753  0.500534  0.136272  1
  O  O10  1  0.332268  0.996375  0.332022  1
  O  O11  1  0.334193  0.334431  0.002278  1
  O  O12  1  0.000301  0.666088  0.667460  1
  O  O13  1  0.668937  0.664738  0.999722  1
  O  O14  1  0.001086  0.333002  0.333010  1
  O  O15  1  0.667920  0.999927  0.664558  1
  O  O16  1  0.360505  0.299924  0.629317  1
  O  O17  1  0.059993  0.329251  0.699698  1
  O  O18  1  0.730515  0.370007  0.669681  1
  O  O19  1  0.371003  0.670749  0.730933  1
  O  O20  1  0.268849  0.938910  0.639542  1
  O  O21  1  0.633490  0.360994  0.299525  1
  O  O22  1  0.299403  0.635589  0.363112  1
  O  O23  1  0.701288  0.063832  0.336244  1
  O  O24  1  0.938305  0.638796  0.273039  1
  O  O25  1  0.660411  0.724793  0.361236  1
  O  O26  1  0.637577  0.271147  0.937314  1
  O  O27  1  0.334301  0.700838  0.061412  1
