# generated using pymatgen
data_Yb2LuZn11
_symmetry_space_group_name_H-M   'P 1'
_cell_length_a   4.37207754
_cell_length_b   8.17745006
_cell_length_c   8.17744954
_cell_angle_alpha   65.63952005
_cell_angle_beta   74.49482530
_cell_angle_gamma   74.49483200
_symmetry_Int_Tables_number   1
_chemical_formula_structural   Yb2LuZn11
_chemical_formula_sum   'Yb2 Lu1 Zn11'
_cell_volume   252.49998565
_cell_formula_units_Z   1
loop_
 _symmetry_equiv_pos_site_id
 _symmetry_equiv_pos_as_xyz
  1  'x, y, z'
loop_
 _atom_site_type_symbol
 _atom_site_label
 _atom_site_symmetry_multiplicity
 _atom_site_fract_x
 _atom_site_fract_y
 _atom_site_fract_z
 _atom_site_occupancy
  Yb  Yb0  1  0.999497  0.000503  0.000503  1
  Yb  Yb1  1  0.295925  0.704075  0.704075  1
  Lu  Lu2  1  0.704449  0.295551  0.295551  1
  Zn  Zn3  1  0.000648  0.499352  0.499352  1
  Zn  Zn4  1  0.500170  0.686136  0.313523  1
  Zn  Zn5  1  0.500170  0.313523  0.686136  1
  Zn  Zn6  1  0.662981  0.694002  0.980036  1
  Zn  Zn7  1  0.335810  0.306849  0.021531  1
  Zn  Zn8  1  0.662981  0.980036  0.694002  1
  Zn  Zn9  1  0.335810  0.021531  0.306849  1
  Zn  Zn10  1  0.865335  0.419157  0.850173  1
  Zn  Zn11  1  0.135445  0.575303  0.153808  1
  Zn  Zn12  1  0.865335  0.850173  0.419157  1
  Zn  Zn13  1  0.135445  0.153808  0.575303  1
