# generated using pymatgen
data_La16Pr4Ir11Rh
_symmetry_space_group_name_H-M   'P 1'
_cell_length_a   11.43335300
_cell_length_b   11.43335300
_cell_length_c   6.65908400
_cell_angle_alpha   90.00000000
_cell_angle_beta   90.00000000
_cell_angle_gamma   90.00000000
_symmetry_Int_Tables_number   1
_chemical_formula_structural   La16Pr4Ir11Rh
_chemical_formula_sum   'La16 Pr4 Ir11 Rh1'
_cell_volume   870.48585413
_cell_formula_units_Z   1
loop_
 _symmetry_equiv_pos_site_id
 _symmetry_equiv_pos_as_xyz
  1  'x, y, z'
loop_
 _atom_site_type_symbol
 _atom_site_label
 _atom_site_symmetry_multiplicity
 _atom_site_fract_x
 _atom_site_fract_y
 _atom_site_fract_z
 _atom_site_occupancy
  La  La0  1  0.290497  0.091731  0.392441  1
  La  La1  1  0.290489  0.907945  0.888548  1
  La  La2  1  0.709511  0.092055  0.888548  1
  La  La3  1  0.709503  0.908269  0.392441  1
  La  La4  1  0.592055  0.790489  0.888548  1
  La  La5  1  0.591731  0.209503  0.392441  1
  La  La6  1  0.408269  0.790497  0.392441  1
  La  La7  1  0.407945  0.209511  0.888548  1
  La  La8  1  0.208605  0.408761  0.611138  1
  La  La9  1  0.208805  0.591200  0.111133  1
  La  La10  1  0.791195  0.408800  0.111133  1
  La  La11  1  0.791395  0.591239  0.611138  1
  La  La12  1  0.908800  0.708805  0.111133  1
  La  La13  1  0.908761  0.291395  0.611138  1
  La  La14  1  0.091239  0.708605  0.611138  1
  La  La15  1  0.091200  0.291195  0.111133  1
  Pr  Pr16  1  0.000000  0.000000  0.498655  1
  Pr  Pr17  1  0.000000  0.000000  0.998861  1
  Pr  Pr18  1  0.500000  0.500000  0.998861  1
  Pr  Pr19  1  0.500000  0.500000  0.498655  1
  Ir  Ir20  1  0.844955  0.154596  0.248598  1
  Ir  Ir21  1  0.844895  0.845628  0.748862  1
  Ir  Ir22  1  0.155105  0.154372  0.748862  1
  Ir  Ir23  1  0.155045  0.845404  0.248598  1
  Ir  Ir24  1  0.654372  0.344895  0.748862  1
  Ir  Ir25  1  0.654596  0.655045  0.248598  1
  Ir  Ir26  1  0.345404  0.344955  0.248598  1
  Ir  Ir27  1  0.345628  0.655105  0.748862  1
  Ir  Ir28  1  0.500000  0.000000  0.622230  1
  Ir  Ir29  1  0.000000  0.500000  0.880186  1
  Ir  Ir30  1  0.000000  0.500000  0.381248  1
  Rh  Rh31  1  0.500000  0.000000  0.118415  1
