# generated using pymatgen
data_Ce5Fe3Ni2(P6Ru7)2
_symmetry_space_group_name_H-M   'P 1'
_cell_length_a   12.48789529
_cell_length_b   12.58736137
_cell_length_c   3.86824200
_cell_angle_alpha   90.00000000
_cell_angle_beta   90.00000000
_cell_angle_gamma   119.86294546
_symmetry_Int_Tables_number   1
_chemical_formula_structural   Ce5Fe3Ni2(P6Ru7)2
_chemical_formula_sum   'Ce5 Fe3 Ni2 P12 Ru14'
_cell_volume   527.31040999
_cell_formula_units_Z   1
loop_
 _symmetry_equiv_pos_site_id
 _symmetry_equiv_pos_as_xyz
  1  'x, y, z'
loop_
 _atom_site_type_symbol
 _atom_site_label
 _atom_site_symmetry_multiplicity
 _atom_site_fract_x
 _atom_site_fract_y
 _atom_site_fract_z
 _atom_site_occupancy
  Ce  Ce0  1  0.185241  0.182716  0.500000  1
  Ce  Ce1  1  0.817691  0.001181  0.500000  1
  Ce  Ce2  1  0.998148  0.815812  0.500000  1
  Ce  Ce3  1  0.330467  0.665985  0.000000  1
  Ce  Ce4  1  0.669358  0.334874  0.000000  1
  Fe  Fe5  1  0.709600  0.715690  0.500000  1
  Fe  Fe6  1  0.286649  0.999705  0.500000  1
  Fe  Fe7  1  0.005332  0.285752  0.500000  1
  Ni  Ni8  1  0.363570  0.491112  0.500000  1
  Ni  Ni9  1  0.509049  0.874082  0.500000  1
  P  P10  1  0.807409  0.812168  0.000000  1
  P  P11  1  0.188259  0.999668  0.000000  1
  P  P12  1  0.004866  0.189466  0.000000  1
  P  P13  1  0.161973  0.472548  0.500000  1
  P  P14  1  0.521762  0.687185  0.500000  1
  P  P15  1  0.312307  0.838743  0.500000  1
  P  P16  1  0.688456  0.527834  0.500000  1
  P  P17  1  0.839766  0.310662  0.500000  1
  P  P18  1  0.475291  0.164090  0.500000  1
  P  P19  1  0.372125  0.366088  0.000000  1
  P  P20  1  0.633470  0.004410  0.000000  1
  P  P21  1  0.998018  0.627059  0.000000  1
  Ru  Ru22  1  0.546653  0.557822  0.000000  1
  Ru  Ru23  1  0.442249  0.990150  0.000000  1
  Ru  Ru24  1  0.003689  0.445112  0.000000  1
  Ru  Ru25  1  0.189267  0.380297  0.000000  1
  Ru  Ru26  1  0.616176  0.806054  0.000000  1
  Ru  Ru27  1  0.193721  0.818828  0.000000  1
  Ru  Ru28  1  0.799516  0.624217  0.000000  1
  Ru  Ru29  1  0.823607  0.197194  0.000000  1
  Ru  Ru30  1  0.378848  0.177850  0.000000  1
  Ru  Ru31  1  0.130019  0.637736  0.500000  1
  Ru  Ru32  1  0.874737  0.511329  0.500000  1
  Ru  Ru33  1  0.636613  0.123144  0.500000  1
  Ru  Ru34  1  0.487940  0.365519  0.500000  1
  Ru  Ru35  1  0.998158  0.997920  0.000000  1
