# generated using pymatgen
data_Ce16PrAl12
_symmetry_space_group_name_H-M   'P 1'
_cell_length_a   9.57838912
_cell_length_b   9.57838905
_cell_length_c   9.57838900
_cell_angle_alpha   109.47121841
_cell_angle_beta   109.47121826
_cell_angle_gamma   109.47122315
_symmetry_Int_Tables_number   1
_chemical_formula_structural   Ce16PrAl12
_chemical_formula_sum   'Ce16 Pr1 Al12'
_cell_volume   676.48090239
_cell_formula_units_Z   1
loop_
 _symmetry_equiv_pos_site_id
 _symmetry_equiv_pos_as_xyz
  1  'x, y, z'
loop_
 _atom_site_type_symbol
 _atom_site_label
 _atom_site_symmetry_multiplicity
 _atom_site_fract_x
 _atom_site_fract_y
 _atom_site_fract_z
 _atom_site_occupancy
  Ce  Ce0  1  0.375541  0.375541  0.375541  1
  Ce  Ce1  1  0.624459  0.000000  0.000000  1
  Ce  Ce2  1  0.278427  0.586552  0.586552  1
  Ce  Ce3  1  0.721573  0.308125  0.308125  1
  Ce  Ce4  1  0.000000  0.691875  0.413448  1
  Ce  Ce5  1  0.413448  0.000000  0.691875  1
  Ce  Ce6  1  0.586552  0.586552  0.278427  1
  Ce  Ce7  1  0.000000  0.000000  0.624459  1
  Ce  Ce8  1  0.691875  0.413448  0.000000  1
  Ce  Ce9  1  0.308125  0.721573  0.308125  1
  Ce  Ce10  1  0.308125  0.308125  0.721573  1
  Ce  Ce11  1  0.691875  0.000000  0.413448  1
  Ce  Ce12  1  0.000000  0.624459  0.000000  1
  Ce  Ce13  1  0.413448  0.691875  0.000000  1
  Ce  Ce14  1  0.586552  0.278427  0.586552  1
  Ce  Ce15  1  0.000000  0.413448  0.691875  1
  Pr  Pr16  1  0.000000  0.000000  0.000000  1
  Al  Al17  1  0.178921  0.819795  0.819795  1
  Al  Al18  1  0.821079  0.640874  0.640874  1
  Al  Al19  1  0.000000  0.359126  0.180205  1
  Al  Al20  1  0.359126  0.180205  0.000000  1
  Al  Al21  1  0.640874  0.821079  0.640874  1
  Al  Al22  1  0.180205  0.359126  0.000000  1
  Al  Al23  1  0.819795  0.178921  0.819795  1
  Al  Al24  1  0.180205  0.000000  0.359126  1
  Al  Al25  1  0.819795  0.819795  0.178921  1
  Al  Al26  1  0.640874  0.640874  0.821079  1
  Al  Al27  1  0.359126  0.000000  0.180205  1
  Al  Al28  1  0.000000  0.180205  0.359126  1
