# generated using pymatgen
data_Y3Er5AlCdPd2
_symmetry_space_group_name_H-M   'P 1'
_cell_length_a   9.61283018
_cell_length_b   9.61283104
_cell_length_c   9.61403600
_cell_angle_alpha   59.99585338
_cell_angle_beta   59.99585043
_cell_angle_gamma   60.06615744
_symmetry_Int_Tables_number   1
_chemical_formula_structural   Y3Er5AlCdPd2
_chemical_formula_sum   'Y6 Er10 Al2 Cd2 Pd4'
_cell_volume   628.46737226
_cell_formula_units_Z   2
loop_
 _symmetry_equiv_pos_site_id
 _symmetry_equiv_pos_as_xyz
  1  'x, y, z'
loop_
 _atom_site_type_symbol
 _atom_site_label
 _atom_site_symmetry_multiplicity
 _atom_site_fract_x
 _atom_site_fract_y
 _atom_site_fract_z
 _atom_site_occupancy
  Y  Y0  1  0.933082  0.565194  0.565148  1
  Y  Y1  1  0.565194  0.933082  0.936576  1
  Y  Y2  1  0.565194  0.933082  0.565148  1
  Y  Y3  1  0.933082  0.565194  0.936576  1
  Y  Y4  1  0.565849  0.565849  0.934151  1
  Y  Y5  1  0.936796  0.936796  0.563204  1
  Er  Er6  1  0.354845  0.354845  0.352487  1
  Er  Er7  1  0.354845  0.354845  0.937824  1
  Er  Er8  1  0.357848  0.932614  0.354769  1
  Er  Er9  1  0.932614  0.357848  0.354769  1
  Er  Er10  1  0.809206  0.192177  0.189690  1
  Er  Er11  1  0.192177  0.809206  0.808928  1
  Er  Er12  1  0.192177  0.809206  0.189690  1
  Er  Er13  1  0.809206  0.192177  0.808928  1
  Er  Er14  1  0.188827  0.188827  0.811173  1
  Er  Er15  1  0.806859  0.806859  0.193141  1
  Al  Al16  1  0.581498  0.581498  0.579366  1
  Al  Al17  1  0.581498  0.581498  0.257637  1
  Cd  Cd18  1  0.581174  0.258615  0.580106  1
  Cd  Cd19  1  0.258615  0.581174  0.580106  1
  Pd  Pd20  1  0.144523  0.144523  0.145804  1
  Pd  Pd21  1  0.144523  0.144523  0.565149  1
  Pd  Pd22  1  0.143075  0.567295  0.144814  1
  Pd  Pd23  1  0.567295  0.143075  0.144814  1
