# generated using pymatgen
data_Ba2HoUSe6
_symmetry_space_group_name_H-M   'P 1'
_cell_length_a   7.46211014
_cell_length_b   7.80913209
_cell_length_c   13.11268888
_cell_angle_alpha   89.98791828
_cell_angle_beta   124.67202214
_cell_angle_gamma   90.00692444
_symmetry_Int_Tables_number   1
_chemical_formula_structural   Ba2HoUSe6
_chemical_formula_sum   'Ba4 Ho2 U2 Se12'
_cell_volume   628.42123384
_cell_formula_units_Z   2
loop_
 _symmetry_equiv_pos_site_id
 _symmetry_equiv_pos_as_xyz
  1  'x, y, z'
loop_
 _atom_site_type_symbol
 _atom_site_label
 _atom_site_symmetry_multiplicity
 _atom_site_fract_x
 _atom_site_fract_y
 _atom_site_fract_z
 _atom_site_occupancy
  Ba  Ba0  1  0.767204  0.930203  0.248263  1
  Ba  Ba1  1  0.230205  0.429673  0.249548  1
  Ba  Ba2  1  0.769795  0.570328  0.750452  1
  Ba  Ba3  1  0.232796  0.069797  0.751737  1
  Ho  Ho4  1  0.500000  0.500001  0.000000  1
  Ho  Ho5  1  0.500000  0.000000  0.500000  1
  U  U6  1  0.000000  0.000000  0.000000  1
  U  U7  1  0.000000  0.500001  0.500000  1
  Se  Se8  1  0.850966  0.704771  0.045267  1
  Se  Se9  1  0.746453  0.197898  0.044335  1
  Se  Se10  1  0.332050  0.016454  0.246361  1
  Se  Se11  1  0.667845  0.516600  0.253591  1
  Se  Se12  1  0.253006  0.697546  0.455304  1
  Se  Se13  1  0.148404  0.204829  0.454386  1
  Se  Se14  1  0.851597  0.795170  0.545614  1
  Se  Se15  1  0.746994  0.302454  0.544697  1
  Se  Se16  1  0.332155  0.483400  0.746409  1
  Se  Se17  1  0.667950  0.983546  0.753638  1
  Se  Se18  1  0.253546  0.802102  0.955665  1
  Se  Se19  1  0.149033  0.295230  0.954733  1
