# generated using pymatgen
data_La2Y3(SiGe)2
_symmetry_space_group_name_H-M   'P 1'
_cell_length_a   7.64572000
_cell_length_b   7.91659200
_cell_length_c   15.06558500
_cell_angle_alpha   90.00000000
_cell_angle_beta   90.00000000
_cell_angle_gamma   90.00000000
_symmetry_Int_Tables_number   1
_chemical_formula_structural   La2Y3(SiGe)2
_chemical_formula_sum   'La8 Y12 Si8 Ge8'
_cell_volume   911.89041868
_cell_formula_units_Z   4
loop_
 _symmetry_equiv_pos_site_id
 _symmetry_equiv_pos_as_xyz
  1  'x, y, z'
loop_
 _atom_site_type_symbol
 _atom_site_label
 _atom_site_symmetry_multiplicity
 _atom_site_fract_x
 _atom_site_fract_y
 _atom_site_fract_z
 _atom_site_occupancy
  La  La0  1  0.008900  0.177113  0.100125  1
  La  La1  1  0.991100  0.822887  0.899875  1
  La  La2  1  0.491100  0.677113  0.899875  1
  La  La3  1  0.991100  0.822887  0.600125  1
  La  La4  1  0.508900  0.322887  0.100125  1
  La  La5  1  0.008900  0.177113  0.399875  1
  La  La6  1  0.508900  0.322887  0.399875  1
  La  La7  1  0.491100  0.677113  0.600125  1
  Y  Y8  1  0.169295  0.506969  0.750000  1
  Y  Y9  1  0.830705  0.493031  0.250000  1
  Y  Y10  1  0.330705  0.006969  0.250000  1
  Y  Y11  1  0.669295  0.993031  0.750000  1
  Y  Y12  1  0.334865  0.172924  0.624153  1
  Y  Y13  1  0.665135  0.827076  0.375847  1
  Y  Y14  1  0.165135  0.672924  0.375847  1
  Y  Y15  1  0.665135  0.827076  0.124153  1
  Y  Y16  1  0.834865  0.327076  0.624153  1
  Y  Y17  1  0.334865  0.172924  0.875847  1
  Y  Y18  1  0.834865  0.327076  0.875847  1
  Y  Y19  1  0.165135  0.672924  0.124153  1
  Si  Si20  1  0.040445  0.116537  0.750000  1
  Si  Si21  1  0.959555  0.883463  0.250000  1
  Si  Si22  1  0.459555  0.616537  0.250000  1
  Si  Si23  1  0.540445  0.383463  0.750000  1
  Si  Si24  1  0.288045  0.875830  0.750000  1
  Si  Si25  1  0.711955  0.124170  0.250000  1
  Si  Si26  1  0.211955  0.375830  0.250000  1
  Si  Si27  1  0.788045  0.624170  0.750000  1
  Ge  Ge28  1  0.166635  0.463087  0.540267  1
  Ge  Ge29  1  0.833365  0.536913  0.459733  1
  Ge  Ge30  1  0.333365  0.963087  0.459733  1
  Ge  Ge31  1  0.833365  0.536913  0.040267  1
  Ge  Ge32  1  0.666635  0.036913  0.540267  1
  Ge  Ge33  1  0.166635  0.463087  0.959733  1
  Ge  Ge34  1  0.666635  0.036913  0.959733  1
  Ge  Ge35  1  0.333365  0.963087  0.040267  1
