# generated using pymatgen
data_Be8CoNi3(Mo6C)2
_symmetry_space_group_name_H-M   'P 1'
_cell_length_a   7.53348204
_cell_length_b   7.53348196
_cell_length_c   7.53348220
_cell_angle_alpha   59.97829100
_cell_angle_beta   59.97829105
_cell_angle_gamma   59.97829430
_symmetry_Int_Tables_number   1
_chemical_formula_structural   Be8CoNi3(Mo6C)2
_chemical_formula_sum   'Be8 Co1 Ni3 Mo12 C2'
_cell_volume   302.17494346
_cell_formula_units_Z   1
loop_
 _symmetry_equiv_pos_site_id
 _symmetry_equiv_pos_as_xyz
  1  'x, y, z'
loop_
 _atom_site_type_symbol
 _atom_site_label
 _atom_site_symmetry_multiplicity
 _atom_site_fract_x
 _atom_site_fract_y
 _atom_site_fract_z
 _atom_site_occupancy
  Be  Be0  1  0.422588  0.422588  0.734052  1
  Be  Be1  1  0.422588  0.734052  0.422588  1
  Be  Be2  1  0.734052  0.422588  0.422588  1
  Be  Be3  1  0.421542  0.421542  0.421542  1
  Be  Be4  1  0.827412  0.827412  0.515948  1
  Be  Be5  1  0.827412  0.515948  0.827412  1
  Be  Be6  1  0.515948  0.827412  0.827412  1
  Be  Be7  1  0.828458  0.828458  0.828458  1
  Co  Co8  1  0.625000  0.625000  0.625000  1
  Ni  Ni9  1  0.625000  0.625000  0.125000  1
  Ni  Ni10  1  0.625000  0.125000  0.625000  1
  Ni  Ni11  1  0.125000  0.625000  0.625000  1
  Mo  Mo12  1  0.049826  0.049826  0.450363  1
  Mo  Mo13  1  0.450682  0.048727  0.450682  1
  Mo  Mo14  1  0.048727  0.450682  0.450682  1
  Mo  Mo15  1  0.450682  0.450682  0.048727  1
  Mo  Mo16  1  0.049826  0.450363  0.049826  1
  Mo  Mo17  1  0.450363  0.049826  0.049826  1
  Mo  Mo18  1  0.200174  0.200174  0.799637  1
  Mo  Mo19  1  0.799318  0.201273  0.799318  1
  Mo  Mo20  1  0.201273  0.799318  0.799318  1
  Mo  Mo21  1  0.799318  0.799318  0.201273  1
  Mo  Mo22  1  0.200174  0.799637  0.200174  1
  Mo  Mo23  1  0.799637  0.200174  0.200174  1
  C  C24  1  0.250110  0.250110  0.250110  1
  C  C25  1  0.999890  0.999890  0.999890  1
