# generated using pymatgen
data_Ho8BePd24
_symmetry_space_group_name_H-M   'P 1'
_cell_length_a   8.28458000
_cell_length_b   8.28458000
_cell_length_c   8.28458000
_cell_angle_alpha   90.00000000
_cell_angle_beta   90.00000000
_cell_angle_gamma   90.00000000
_symmetry_Int_Tables_number   1
_chemical_formula_structural   Ho8BePd24
_chemical_formula_sum   'Ho8 Be1 Pd24'
_cell_volume   568.60606557
_cell_formula_units_Z   1
loop_
 _symmetry_equiv_pos_site_id
 _symmetry_equiv_pos_as_xyz
  1  'x, y, z'
loop_
 _atom_site_type_symbol
 _atom_site_label
 _atom_site_symmetry_multiplicity
 _atom_site_fract_x
 _atom_site_fract_y
 _atom_site_fract_z
 _atom_site_occupancy
  Ho  Ho0  1  0.250426  0.250426  0.250426  1
  Ho  Ho1  1  0.749574  0.749574  0.749574  1
  Ho  Ho2  1  0.749574  0.749574  0.250426  1
  Ho  Ho3  1  0.749574  0.250426  0.749574  1
  Ho  Ho4  1  0.250426  0.250426  0.749574  1
  Ho  Ho5  1  0.250426  0.749574  0.250426  1
  Ho  Ho6  1  0.250426  0.749574  0.749574  1
  Ho  Ho7  1  0.749574  0.250426  0.250426  1
  Be  Be8  1  0.000000  0.000000  0.000000  1
  Pd  Pd9  1  0.253301  0.500000  0.000000  1
  Pd  Pd10  1  0.746699  0.500000  0.000000  1
  Pd  Pd11  1  0.000000  0.253301  0.500000  1
  Pd  Pd12  1  0.500000  0.253301  0.000000  1
  Pd  Pd13  1  0.000000  0.746699  0.500000  1
  Pd  Pd14  1  0.500000  0.746699  0.000000  1
  Pd  Pd15  1  0.500000  0.000000  0.253301  1
  Pd  Pd16  1  0.253301  0.000000  0.500000  1
  Pd  Pd17  1  0.500000  0.000000  0.746699  1
  Pd  Pd18  1  0.746699  0.000000  0.500000  1
  Pd  Pd19  1  0.000000  0.500000  0.253301  1
  Pd  Pd20  1  0.000000  0.500000  0.746699  1
  Pd  Pd21  1  0.251022  0.500000  0.500000  1
  Pd  Pd22  1  0.748978  0.500000  0.500000  1
  Pd  Pd23  1  0.500000  0.251022  0.500000  1
  Pd  Pd24  1  0.500000  0.748978  0.500000  1
  Pd  Pd25  1  0.500000  0.500000  0.251022  1
  Pd  Pd26  1  0.500000  0.500000  0.748978  1
  Pd  Pd27  1  0.267656  0.000000  0.000000  1
  Pd  Pd28  1  0.732344  0.000000  0.000000  1
  Pd  Pd29  1  0.000000  0.267656  0.000000  1
  Pd  Pd30  1  0.000000  0.732344  0.000000  1
  Pd  Pd31  1  0.000000  0.000000  0.267656  1
  Pd  Pd32  1  0.000000  0.000000  0.732344  1
