# generated using pymatgen
data_Y8Ho7Tm5Bi12
_symmetry_space_group_name_H-M   'P 1'
_cell_length_a   8.22851428
_cell_length_b   9.47545303
_cell_length_c   12.04807337
_cell_angle_alpha   89.99736092
_cell_angle_beta   89.97158350
_cell_angle_gamma   90.00943803
_symmetry_Int_Tables_number   1
_chemical_formula_structural   Y8Ho7Tm5Bi12
_chemical_formula_sum   'Y8 Ho7 Tm5 Bi12'
_cell_volume   939.37490618
_cell_formula_units_Z   1
loop_
 _symmetry_equiv_pos_site_id
 _symmetry_equiv_pos_as_xyz
  1  'x, y, z'
loop_
 _atom_site_type_symbol
 _atom_site_label
 _atom_site_symmetry_multiplicity
 _atom_site_fract_x
 _atom_site_fract_y
 _atom_site_fract_z
 _atom_site_occupancy
  Y  Y0  1  0.186372  0.749978  0.718689  1
  Y  Y1  1  0.686276  0.750015  0.781311  1
  Y  Y2  1  0.813717  0.250124  0.281387  1
  Y  Y3  1  0.313671  0.250017  0.218722  1
  Y  Y4  1  0.353879  0.750017  0.215833  1
  Y  Y5  1  0.853954  0.750095  0.284138  1
  Y  Y6  1  0.646420  0.250237  0.784054  1
  Y  Y7  1  0.145975  0.250196  0.715702  1
  Ho  Ho8  1  0.307010  0.435167  0.940476  1
  Ho  Ho9  1  0.806935  0.065046  0.559486  1
  Ho  Ho10  1  0.692981  0.935194  0.059518  1
  Ho  Ho11  1  0.193109  0.564764  0.440445  1
  Ho  Ho12  1  0.693027  0.564773  0.059510  1
  Ho  Ho13  1  0.192933  0.935160  0.440508  1
  Ho  Ho14  1  0.307029  0.064835  0.940486  1
  Tm  Tm15  1  0.025305  0.750079  0.988939  1
  Tm  Tm16  1  0.525444  0.749972  0.511034  1
  Tm  Tm17  1  0.974694  0.249984  0.011050  1
  Tm  Tm18  1  0.475020  0.250146  0.489020  1
  Tm  Tm19  1  0.806855  0.434454  0.559527  1
  Bi  Bi20  1  0.433918  0.003906  0.672425  1
  Bi  Bi21  1  0.933839  0.496176  0.827458  1
  Bi  Bi22  1  0.566035  0.503897  0.327622  1
  Bi  Bi23  1  0.066055  0.996194  0.172483  1
  Bi  Bi24  1  0.566113  0.996228  0.327552  1
  Bi  Bi25  1  0.066014  0.503856  0.172530  1
  Bi  Bi26  1  0.434043  0.496177  0.672390  1
  Bi  Bi27  1  0.933891  0.003890  0.827503  1
  Bi  Bi28  1  0.406783  0.749993  0.957822  1
  Bi  Bi29  1  0.906556  0.749183  0.542300  1
  Bi  Bi30  1  0.593200  0.249987  0.042147  1
  Bi  Bi31  1  0.092949  0.250260  0.457931  1
