# generated using pymatgen
data_Ca6UOsO12
_symmetry_space_group_name_H-M   'P 1'
_cell_length_a   6.67249911
_cell_length_b   6.67249855
_cell_length_c   6.67249925
_cell_angle_alpha   92.44610272
_cell_angle_beta   92.44609848
_cell_angle_gamma   92.44609626
_symmetry_Int_Tables_number   1
_chemical_formula_structural   Ca6UOsO12
_chemical_formula_sum   'Ca6 U1 Os1 O12'
_cell_volume   296.23864561
_cell_formula_units_Z   1
loop_
 _symmetry_equiv_pos_site_id
 _symmetry_equiv_pos_as_xyz
  1  'x, y, z'
loop_
 _atom_site_type_symbol
 _atom_site_label
 _atom_site_symmetry_multiplicity
 _atom_site_fract_x
 _atom_site_fract_y
 _atom_site_fract_z
 _atom_site_occupancy
  Ca  Ca0  1  0.930445  0.437306  0.739835  1
  Ca  Ca1  1  0.739835  0.930445  0.437306  1
  Ca  Ca2  1  0.562694  0.260165  0.069555  1
  Ca  Ca3  1  0.437306  0.739835  0.930445  1
  Ca  Ca4  1  0.260165  0.069555  0.562694  1
  Ca  Ca5  1  0.069555  0.562694  0.260165  1
  U  U6  1  0.000000  0.000000  0.000000  1
  Os  Os7  1  0.500000  0.500000  0.500000  1
  O  O8  1  0.926682  0.297426  0.065160  1
  O  O9  1  0.934840  0.073318  0.702574  1
  O  O10  1  0.779730  0.579051  0.454509  1
  O  O11  1  0.702574  0.934840  0.073318  1
  O  O12  1  0.579051  0.454509  0.779730  1
  O  O13  1  0.545491  0.220270  0.420949  1
  O  O14  1  0.454509  0.779730  0.579051  1
  O  O15  1  0.420949  0.545491  0.220270  1
  O  O16  1  0.297426  0.065160  0.926682  1
  O  O17  1  0.220270  0.420949  0.545491  1
  O  O18  1  0.065160  0.926682  0.297426  1
  O  O19  1  0.073318  0.702574  0.934840  1
