# generated using pymatgen
data_Dy10TmIn9Ru4
_symmetry_space_group_name_H-M   'P 1'
_cell_length_a   3.81044000
_cell_length_b   12.85422547
_cell_length_c   12.86072600
_cell_angle_alpha   112.80433372
_cell_angle_beta   90.00000000
_cell_angle_gamma   90.00000000
_symmetry_Int_Tables_number   1
_chemical_formula_structural   Dy10TmIn9Ru4
_chemical_formula_sum   'Dy10 Tm1 In9 Ru4'
_cell_volume   580.68308092
_cell_formula_units_Z   1
loop_
 _symmetry_equiv_pos_site_id
 _symmetry_equiv_pos_as_xyz
  1  'x, y, z'
loop_
 _atom_site_type_symbol
 _atom_site_label
 _atom_site_symmetry_multiplicity
 _atom_site_fract_x
 _atom_site_fract_y
 _atom_site_fract_z
 _atom_site_occupancy
  Dy  Dy0  1  0.000000  0.084738  0.417910  1
  Dy  Dy1  1  0.000000  0.582196  0.914841  1
  Dy  Dy2  1  0.000000  0.417888  0.085391  1
  Dy  Dy3  1  0.000000  0.162942  0.835874  1
  Dy  Dy4  1  0.000000  0.836703  0.164080  1
  Dy  Dy5  1  0.000000  0.370114  0.629781  1
  Dy  Dy6  1  0.000000  0.630296  0.370222  1
  Dy  Dy7  1  0.000000  0.694407  0.693875  1
  Dy  Dy8  1  0.000000  0.306392  0.306327  1
  Dy  Dy9  1  0.000000  0.999850  0.999311  1
  Tm  Tm10  1  0.000000  0.912387  0.581650  1
  In  In11  1  0.500000  0.150611  0.630208  1
  In  In12  1  0.500000  0.848559  0.371740  1
  In  In13  1  0.500000  0.630939  0.153613  1
  In  In14  1  0.500000  0.369088  0.846535  1
  In  In15  1  0.500000  0.929549  0.780613  1
  In  In16  1  0.500000  0.070908  0.217679  1
  In  In17  1  0.500000  0.782243  0.928764  1
  In  In18  1  0.500000  0.217958  0.070981  1
  In  In19  1  0.500000  0.500512  0.499897  1
  Ru  Ru20  1  0.500000  0.742862  0.547658  1
  Ru  Ru21  1  0.500000  0.258493  0.452872  1
  Ru  Ru22  1  0.500000  0.547565  0.741872  1
  Ru  Ru23  1  0.500000  0.452805  0.258305  1
