# generated using pymatgen
data_NaHoSi3(AsRh3)4
_symmetry_space_group_name_H-M   'P 1'
_cell_length_a   9.92123600
_cell_length_b   9.92123651
_cell_length_c   3.83742000
_cell_angle_alpha   90.00000000
_cell_angle_beta   90.00000000
_cell_angle_gamma   119.99999830
_symmetry_Int_Tables_number   1
_chemical_formula_structural   NaHoSi3(AsRh3)4
_chemical_formula_sum   'Na1 Ho1 Si3 As4 Rh12'
_cell_volume   327.11582678
_cell_formula_units_Z   1
loop_
 _symmetry_equiv_pos_site_id
 _symmetry_equiv_pos_as_xyz
  1  'x, y, z'
loop_
 _atom_site_type_symbol
 _atom_site_label
 _atom_site_symmetry_multiplicity
 _atom_site_fract_x
 _atom_site_fract_y
 _atom_site_fract_z
 _atom_site_occupancy
  Na  Na0  1  0.333333  0.666667  0.244850  1
  Ho  Ho1  1  0.666667  0.333333  0.744269  1
  Si  Si2  1  0.403445  0.110880  0.242775  1
  Si  Si3  1  0.707435  0.596555  0.242775  1
  Si  Si4  1  0.889120  0.292565  0.242775  1
  As  As5  1  0.000000  0.000000  0.622518  1
  As  As6  1  0.593231  0.879382  0.745373  1
  As  As7  1  0.286151  0.406769  0.745373  1
  As  As8  1  0.120618  0.713849  0.745373  1
  Rh  Rh9  1  0.447957  0.376870  0.243009  1
  Rh  Rh10  1  0.928913  0.552043  0.243009  1
  Rh  Rh11  1  0.623130  0.071087  0.243009  1
  Rh  Rh12  1  0.560438  0.613723  0.743869  1
  Rh  Rh13  1  0.053284  0.439562  0.743869  1
  Rh  Rh14  1  0.386277  0.946716  0.743869  1
  Rh  Rh15  1  0.141982  0.890722  0.244588  1
  Rh  Rh16  1  0.748740  0.858018  0.244588  1
  Rh  Rh17  1  0.109278  0.251260  0.244588  1
  Rh  Rh18  1  0.849321  0.121691  0.743175  1
  Rh  Rh19  1  0.272370  0.150679  0.743175  1
  Rh  Rh20  1  0.878309  0.727630  0.743175  1
