# generated using pymatgen
data_Y13Tm7Pb16
_symmetry_space_group_name_H-M   'P 1'
_cell_length_a   8.20353904
_cell_length_b   8.27036345
_cell_length_c   15.62556200
_cell_angle_alpha   90.02934634
_cell_angle_beta   89.99405638
_cell_angle_gamma   89.85532182
_symmetry_Int_Tables_number   1
_chemical_formula_structural   Y13Tm7Pb16
_chemical_formula_sum   'Y13 Tm7 Pb16'
_cell_volume   1060.13225320
_cell_formula_units_Z   1
loop_
 _symmetry_equiv_pos_site_id
 _symmetry_equiv_pos_as_xyz
  1  'x, y, z'
loop_
 _atom_site_type_symbol
 _atom_site_label
 _atom_site_symmetry_multiplicity
 _atom_site_fract_x
 _atom_site_fract_y
 _atom_site_fract_z
 _atom_site_occupancy
  Y  Y0  1  0.123666  0.341709  0.120763  1
  Y  Y1  1  0.622738  0.158467  0.121375  1
  Y  Y2  1  0.122658  0.341768  0.378891  1
  Y  Y3  1  0.376967  0.842078  0.621320  1
  Y  Y4  1  0.877680  0.658003  0.878853  1
  Y  Y5  1  0.536452  0.324560  0.900093  1
  Y  Y6  1  0.037070  0.175215  0.599984  1
  Y  Y7  1  0.463752  0.676024  0.400425  1
  Y  Y8  1  0.962728  0.824966  0.100050  1
  Y  Y9  1  0.464532  0.676491  0.099314  1
  Y  Y10  1  0.964422  0.824434  0.400717  1
  Y  Y11  1  0.535268  0.324048  0.599519  1
  Y  Y12  1  0.036224  0.174554  0.899542  1
  Tm  Tm13  1  0.208711  0.504848  0.749967  1
  Tm  Tm14  1  0.709015  0.995558  0.749801  1
  Tm  Tm15  1  0.790952  0.495616  0.250671  1
  Tm  Tm16  1  0.291482  0.004419  0.250095  1
  Tm  Tm17  1  0.376213  0.842276  0.877754  1
  Tm  Tm18  1  0.875845  0.657811  0.621592  1
  Tm  Tm19  1  0.623911  0.157665  0.378843  1
  Pb  Pb20  1  0.281896  0.032220  0.042035  1
  Pb  Pb21  1  0.781001  0.465286  0.457777  1
  Pb  Pb22  1  0.719242  0.965156  0.542488  1
  Pb  Pb23  1  0.219664  0.535202  0.956272  1
  Pb  Pb24  1  0.715623  0.965674  0.956416  1
  Pb  Pb25  1  0.215528  0.534245  0.543706  1
  Pb  Pb26  1  0.284639  0.034359  0.456610  1
  Pb  Pb27  1  0.781957  0.466936  0.043546  1
  Pb  Pb28  1  0.571487  0.626930  0.750237  1
  Pb  Pb29  1  0.070944  0.873252  0.749457  1
  Pb  Pb30  1  0.429125  0.373606  0.251111  1
  Pb  Pb31  1  0.927811  0.125685  0.250407  1
  Pb  Pb32  1  0.348925  0.154378  0.750332  1
  Pb  Pb33  1  0.848645  0.345662  0.749383  1
  Pb  Pb34  1  0.651747  0.846055  0.250585  1
  Pb  Pb35  1  0.151484  0.654841  0.250071  1
