# generated using pymatgen
data_Th8Cu(Si4Pd)3
_symmetry_space_group_name_H-M   'P 1'
_cell_length_a   8.21755800
_cell_length_b   8.21755974
_cell_length_c   8.53128900
_cell_angle_alpha   90.00000000
_cell_angle_beta   90.00000000
_cell_angle_gamma   119.99999298
_symmetry_Int_Tables_number   1
_chemical_formula_structural   Th8Cu(Si4Pd)3
_chemical_formula_sum   'Th8 Cu1 Si12 Pd3'
_cell_volume   498.92005874
_cell_formula_units_Z   1
loop_
 _symmetry_equiv_pos_site_id
 _symmetry_equiv_pos_as_xyz
  1  'x, y, z'
loop_
 _atom_site_type_symbol
 _atom_site_label
 _atom_site_symmetry_multiplicity
 _atom_site_fract_x
 _atom_site_fract_y
 _atom_site_fract_z
 _atom_site_occupancy
  Th  Th0  1  0.500134  0.499866  0.752691  1
  Th  Th1  1  0.501223  0.498777  0.247355  1
  Th  Th2  1  0.999732  0.499866  0.752691  1
  Th  Th3  1  0.997554  0.498777  0.247355  1
  Th  Th4  1  0.500134  0.000268  0.752691  1
  Th  Th5  1  0.501223  0.002446  0.247355  1
  Th  Th6  1  0.000000  0.000000  0.751298  1
  Th  Th7  1  0.000000  0.000000  0.248837  1
  Cu  Cu8  1  0.666667  0.333333  0.997042  1
  Si  Si9  1  0.830110  0.169890  0.999664  1
  Si  Si10  1  0.164960  0.835040  0.000340  1
  Si  Si11  1  0.339780  0.169890  0.999664  1
  Si  Si12  1  0.165462  0.834538  0.499483  1
  Si  Si13  1  0.670081  0.835040  0.000340  1
  Si  Si14  1  0.834444  0.165556  0.500604  1
  Si  Si15  1  0.830110  0.660220  0.999664  1
  Si  Si16  1  0.669076  0.834538  0.499483  1
  Si  Si17  1  0.164960  0.329919  0.000340  1
  Si  Si18  1  0.331113  0.165556  0.500604  1
  Si  Si19  1  0.165462  0.330924  0.499483  1
  Si  Si20  1  0.834444  0.668887  0.500604  1
  Pd  Pd21  1  0.333333  0.666667  0.002088  1
  Pd  Pd22  1  0.333333  0.666667  0.498272  1
  Pd  Pd23  1  0.666667  0.333333  0.502056  1
