# generated using pymatgen
data_Tb2Er6Cd2IrRu
_symmetry_space_group_name_H-M   'P 1'
_cell_length_a   9.58719337
_cell_length_b   9.58220982
_cell_length_c   9.63756000
_cell_angle_alpha   59.84300930
_cell_angle_beta   59.79179356
_cell_angle_gamma   59.61452043
_symmetry_Int_Tables_number   1
_chemical_formula_structural   Tb2Er6Cd2IrRu
_chemical_formula_sum   'Tb4 Er12 Cd4 Ir2 Ru2'
_cell_volume   622.48757786
_cell_formula_units_Z   2
loop_
 _symmetry_equiv_pos_site_id
 _symmetry_equiv_pos_as_xyz
  1  'x, y, z'
loop_
 _atom_site_type_symbol
 _atom_site_label
 _atom_site_symmetry_multiplicity
 _atom_site_fract_x
 _atom_site_fract_y
 _atom_site_fract_z
 _atom_site_occupancy
  Tb  Tb0  1  0.809693  0.188718  0.812687  1
  Tb  Tb1  1  0.188718  0.809693  0.188902  1
  Tb  Tb2  1  0.811595  0.811595  0.188405  1
  Tb  Tb3  1  0.189399  0.189399  0.810601  1
  Er  Er4  1  0.598001  0.597725  0.597312  1
  Er  Er5  1  0.597725  0.598001  0.206961  1
  Er  Er6  1  0.597693  0.207845  0.597285  1
  Er  Er7  1  0.207845  0.597693  0.597176  1
  Er  Er8  1  0.062737  0.437531  0.438436  1
  Er  Er9  1  0.437531  0.062737  0.061296  1
  Er  Er10  1  0.438016  0.062342  0.438890  1
  Er  Er11  1  0.062342  0.438016  0.060752  1
  Er  Er12  1  0.437865  0.437865  0.062135  1
  Er  Er13  1  0.060511  0.060511  0.439489  1
  Er  Er14  1  0.189937  0.808829  0.810991  1
  Er  Er15  1  0.808829  0.189937  0.190242  1
  Cd  Cd16  1  0.830716  0.830365  0.830274  1
  Cd  Cd17  1  0.830365  0.830716  0.508645  1
  Cd  Cd18  1  0.830525  0.508095  0.830899  1
  Cd  Cd19  1  0.508095  0.830525  0.830482  1
  Ir  Ir20  1  0.392272  0.826054  0.391501  1
  Ir  Ir21  1  0.826054  0.392272  0.390172  1
  Ru  Ru22  1  0.392533  0.391001  0.388145  1
  Ru  Ru23  1  0.391001  0.392533  0.828320  1
