# generated using pymatgen
data_HfZr9Sn6Cl
_symmetry_space_group_name_H-M   'P 1'
_cell_length_a   5.84259405
_cell_length_b   8.60277195
_cell_length_c   8.60116301
_cell_angle_alpha   119.99990646
_cell_angle_beta   90.00816625
_cell_angle_gamma   89.98878408
_symmetry_Int_Tables_number   1
_chemical_formula_structural   HfZr9Sn6Cl
_chemical_formula_sum   'Hf1 Zr9 Sn6 Cl1'
_cell_volume   374.39697672
_cell_formula_units_Z   1
loop_
 _symmetry_equiv_pos_site_id
 _symmetry_equiv_pos_as_xyz
  1  'x, y, z'
loop_
 _atom_site_type_symbol
 _atom_site_label
 _atom_site_symmetry_multiplicity
 _atom_site_fract_x
 _atom_site_fract_y
 _atom_site_fract_z
 _atom_site_occupancy
  Hf  Hf0  1  0.500003  0.333303  0.666621  1
  Zr  Zr1  1  0.499997  0.666700  0.333377  1
  Zr  Zr2  1  0.000000  0.666605  0.333235  1
  Zr  Zr3  1  0.000001  0.333400  0.666771  1
  Zr  Zr4  1  0.762733  0.256673  0.999814  1
  Zr  Zr5  1  0.762558  0.743176  0.743347  1
  Zr  Zr6  1  0.762551  0.000195  0.256809  1
  Zr  Zr7  1  0.237272  0.743141  0.999822  1
  Zr  Zr8  1  0.237438  0.256635  0.256829  1
  Zr  Zr9  1  0.237449  0.000179  0.743372  1
  Sn  Sn10  1  0.748280  0.608193  0.999666  1
  Sn  Sn11  1  0.748414  0.391491  0.391832  1
  Sn  Sn12  1  0.748416  0.000328  0.608491  1
  Sn  Sn13  1  0.251723  0.391469  0.999659  1
  Sn  Sn14  1  0.251583  0.608177  0.608505  1
  Sn  Sn15  1  0.251590  0.000338  0.391845  1
  Cl  Cl16  1  0.499993  0.000001  0.000004  1
