# generated using pymatgen
data_NaTbSm5OsBr12
_symmetry_space_group_name_H-M   'P 1'
_cell_length_a   9.44803236
_cell_length_b   9.42455072
_cell_length_c   9.44158153
_cell_angle_alpha   107.05539743
_cell_angle_beta   107.11820388
_cell_angle_gamma   106.89171915
_symmetry_Int_Tables_number   1
_chemical_formula_structural   NaTbSm5OsBr12
_chemical_formula_sum   'Na1 Tb1 Sm5 Os1 Br12'
_cell_volume   699.73371312
_cell_formula_units_Z   1
loop_
 _symmetry_equiv_pos_site_id
 _symmetry_equiv_pos_as_xyz
  1  'x, y, z'
loop_
 _atom_site_type_symbol
 _atom_site_label
 _atom_site_symmetry_multiplicity
 _atom_site_fract_x
 _atom_site_fract_y
 _atom_site_fract_z
 _atom_site_occupancy
  Na  Na0  1  0.500058  0.500102  0.500022  1
  Tb  Tb1  1  0.110581  0.315189  0.030277  1
  Sm  Sm2  1  0.317588  0.029189  0.111382  1
  Sm  Sm3  1  0.030204  0.112121  0.317971  1
  Sm  Sm4  1  0.970371  0.889674  0.682547  1
  Sm  Sm5  1  0.682524  0.971127  0.888475  1
  Sm  Sm6  1  0.888833  0.682386  0.970291  1
  Os  Os7  1  0.000130  0.999961  0.000490  1
  Br  Br8  1  0.216074  0.679645  0.072388  1
  Br  Br9  1  0.446833  0.369897  0.148839  1
  Br  Br10  1  0.683744  0.072756  0.217902  1
  Br  Br11  1  0.928489  0.782522  0.316886  1
  Br  Br12  1  0.151571  0.452431  0.364207  1
  Br  Br13  1  0.370020  0.151486  0.453465  1
  Br  Br14  1  0.630000  0.848594  0.546636  1
  Br  Br15  1  0.847998  0.546978  0.629998  1
  Br  Br16  1  0.072739  0.220532  0.688696  1
  Br  Br17  1  0.316319  0.927428  0.782272  1
  Br  Br18  1  0.546865  0.630433  0.848389  1
  Br  Br19  1  0.789061  0.317552  0.928871  1
