# generated using pymatgen
data_Hf4VSiGe2N
_symmetry_space_group_name_H-M   'P 1'
_cell_length_a   7.78393147
_cell_length_b   7.78393285
_cell_length_c   5.41552900
_cell_angle_alpha   89.99760266
_cell_angle_beta   89.99759574
_cell_angle_gamma   120.16686136
_symmetry_Int_Tables_number   1
_chemical_formula_structural   Hf4VSiGe2N
_chemical_formula_sum   'Hf8 V2 Si2 Ge4 N2'
_cell_volume   283.68535541
_cell_formula_units_Z   2
loop_
 _symmetry_equiv_pos_site_id
 _symmetry_equiv_pos_as_xyz
  1  'x, y, z'
loop_
 _atom_site_type_symbol
 _atom_site_label
 _atom_site_symmetry_multiplicity
 _atom_site_fract_x
 _atom_site_fract_y
 _atom_site_fract_z
 _atom_site_occupancy
  Hf  Hf0  1  0.235149  0.002315  0.249744  1
  Hf  Hf1  1  0.764851  0.997685  0.750256  1
  Hf  Hf2  1  0.002315  0.235149  0.249744  1
  Hf  Hf3  1  0.997685  0.764851  0.750256  1
  Hf  Hf4  1  0.761974  0.761974  0.250695  1
  Hf  Hf5  1  0.238026  0.238026  0.749305  1
  Hf  Hf6  1  0.663253  0.336747  0.500000  1
  Hf  Hf7  1  0.336747  0.663253  0.500000  1
  V  V8  1  0.337050  0.662950  0.000000  1
  V  V9  1  0.662950  0.337050  0.000000  1
  Si  Si10  1  0.409442  0.409442  0.222968  1
  Si  Si11  1  0.590558  0.590558  0.777032  1
  Ge  Ge12  1  0.592857  0.001341  0.232207  1
  Ge  Ge13  1  0.407143  0.998659  0.767793  1
  Ge  Ge14  1  0.001341  0.592857  0.232207  1
  Ge  Ge15  1  0.998659  0.407143  0.767793  1
  N  N16  1  0.000000  0.000000  0.000000  1
  N  N17  1  0.000000  0.000000  0.500000  1
