# generated using pymatgen
data_Ba6HoCd(BO3)6
_symmetry_space_group_name_H-M   'P 1'
_cell_length_a   8.18314449
_cell_length_b   8.18314418
_cell_length_c   8.18314393
_cell_angle_alpha   105.62977282
_cell_angle_beta   105.62977921
_cell_angle_gamma   105.62976984
_symmetry_Int_Tables_number   1
_chemical_formula_structural   Ba6HoCd(BO3)6
_chemical_formula_sum   'Ba6 Ho1 Cd1 B6 O18'
_cell_volume   472.38009275
_cell_formula_units_Z   1
loop_
 _symmetry_equiv_pos_site_id
 _symmetry_equiv_pos_as_xyz
  1  'x, y, z'
loop_
 _atom_site_type_symbol
 _atom_site_label
 _atom_site_symmetry_multiplicity
 _atom_site_fract_x
 _atom_site_fract_y
 _atom_site_fract_z
 _atom_site_occupancy
  Ba  Ba0  1  0.648545  0.268627  0.166011  1
  Ba  Ba1  1  0.166011  0.648545  0.268627  1
  Ba  Ba2  1  0.731372  0.833990  0.351455  1
  Ba  Ba3  1  0.268628  0.166010  0.648545  1
  Ba  Ba4  1  0.833990  0.351455  0.731373  1
  Ba  Ba5  1  0.351455  0.731373  0.833989  1
  Ho  Ho6  1  0.000000  0.000000  0.000000  1
  Cd  Cd7  1  0.500000  0.500000  0.500000  1
  B  B8  1  0.291682  0.373834  0.041810  1
  B  B9  1  0.373833  0.041810  0.291682  1
  B  B10  1  0.041810  0.291682  0.373833  1
  B  B11  1  0.958190  0.708319  0.626167  1
  B  B12  1  0.626167  0.958191  0.708318  1
  B  B13  1  0.708319  0.626167  0.958191  1
  O  O14  1  0.741241  0.812797  0.011140  1
  O  O15  1  0.806727  0.559579  0.071256  1
  O  O16  1  0.988860  0.258759  0.187201  1
  O  O17  1  0.440420  0.928744  0.193272  1
  O  O18  1  0.432339  0.497058  0.204815  1
  O  O19  1  0.187202  0.988860  0.258758  1
  O  O20  1  0.497057  0.204815  0.432339  1
  O  O21  1  0.928744  0.193272  0.440421  1
  O  O22  1  0.204815  0.432339  0.497058  1
  O  O23  1  0.795185  0.567661  0.502943  1
  O  O24  1  0.071256  0.806727  0.559579  1
  O  O25  1  0.502943  0.795185  0.567661  1
  O  O26  1  0.812797  0.011139  0.741241  1
  O  O27  1  0.567661  0.502943  0.795186  1
  O  O28  1  0.559579  0.071256  0.806728  1
  O  O29  1  0.011139  0.741240  0.812798  1
  O  O30  1  0.193272  0.440420  0.928744  1
  O  O31  1  0.258759  0.187202  0.988860  1
