# generated using pymatgen
data_Tb9Lu3In20
_symmetry_space_group_name_H-M   'P 1'
_cell_length_a   6.56427632
_cell_length_b   10.38342600
_cell_length_c   12.24269664
_cell_angle_alpha   89.99939184
_cell_angle_beta   90.05477599
_cell_angle_gamma   90.00293436
_symmetry_Int_Tables_number   1
_chemical_formula_structural   Tb9Lu3In20
_chemical_formula_sum   'Tb9 Lu3 In20'
_cell_volume   834.45787102
_cell_formula_units_Z   1
loop_
 _symmetry_equiv_pos_site_id
 _symmetry_equiv_pos_as_xyz
  1  'x, y, z'
loop_
 _atom_site_type_symbol
 _atom_site_label
 _atom_site_symmetry_multiplicity
 _atom_site_fract_x
 _atom_site_fract_y
 _atom_site_fract_z
 _atom_site_occupancy
  Tb  Tb0  1  0.851496  0.249999  0.445113  1
  Tb  Tb1  1  0.889618  0.490008  0.141826  1
  Tb  Tb2  1  0.609659  0.008752  0.642329  1
  Tb  Tb3  1  0.111138  0.989264  0.858739  1
  Tb  Tb4  1  0.388793  0.509100  0.358634  1
  Tb  Tb5  1  0.111134  0.510737  0.858744  1
  Tb  Tb6  1  0.388807  0.990894  0.358630  1
  Tb  Tb7  1  0.889610  0.009994  0.141825  1
  Tb  Tb8  1  0.609659  0.491229  0.642336  1
  Lu  Lu9  1  0.349768  0.749987  0.053049  1
  Lu  Lu10  1  0.149875  0.750000  0.553747  1
  Lu  Lu11  1  0.650257  0.250009  0.947158  1
  In  In12  1  0.612257  0.749997  0.504589  1
  In  In13  1  0.887005  0.749997  0.005453  1
  In  In14  1  0.383060  0.249998  0.496210  1
  In  In15  1  0.113309  0.250002  0.993543  1
  In  In16  1  0.650247  0.750004  0.241557  1
  In  In17  1  0.849273  0.750005  0.742441  1
  In  In18  1  0.349463  0.249999  0.758855  1
  In  In19  1  0.154739  0.249998  0.255675  1
  In  In20  1  0.121946  0.750003  0.280090  1
  In  In21  1  0.380092  0.750002  0.780606  1
  In  In22  1  0.878687  0.249997  0.720468  1
  In  In23  1  0.620793  0.250006  0.217308  1
  In  In24  1  0.873505  0.544984  0.401287  1
  In  In25  1  0.626634  0.957427  0.901089  1
  In  In26  1  0.125814  0.042366  0.599475  1
  In  In27  1  0.373706  0.457427  0.098689  1
  In  In28  1  0.125820  0.457638  0.599479  1
  In  In29  1  0.373681  0.042593  0.098682  1
  In  In30  1  0.873521  0.955016  0.401280  1
  In  In31  1  0.626639  0.542568  0.901093  1
