# generated using pymatgen
data_Mn20NiBMo2C5
_symmetry_space_group_name_H-M   'P 1'
_cell_length_a   7.41746601
_cell_length_b   7.40620357
_cell_length_c   7.40620358
_cell_angle_alpha   60.10063527
_cell_angle_beta   59.94968622
_cell_angle_gamma   59.94968614
_symmetry_Int_Tables_number   1
_chemical_formula_structural   Mn20NiBMo2C5
_chemical_formula_sum   'Mn20 Ni1 B1 Mo2 C5'
_cell_volume   287.69338164
_cell_formula_units_Z   1
loop_
 _symmetry_equiv_pos_site_id
 _symmetry_equiv_pos_as_xyz
  1  'x, y, z'
loop_
 _atom_site_type_symbol
 _atom_site_label
 _atom_site_symmetry_multiplicity
 _atom_site_fract_x
 _atom_site_fract_y
 _atom_site_fract_z
 _atom_site_occupancy
  Mn  Mn0  1  0.851293  0.384181  0.384181  1
  Mn  Mn1  1  0.383601  0.848591  0.384209  1
  Mn  Mn2  1  0.383601  0.384209  0.848591  1
  Mn  Mn3  1  0.380347  0.384181  0.384181  1
  Mn  Mn4  1  0.151409  0.616399  0.616399  1
  Mn  Mn5  1  0.615819  0.148707  0.619653  1
  Mn  Mn6  1  0.615819  0.619653  0.148707  1
  Mn  Mn7  1  0.615791  0.616399  0.616399  1
  Mn  Mn8  1  0.662744  0.000537  0.000537  1
  Mn  Mn9  1  0.659139  0.995234  0.340861  1
  Mn  Mn10  1  0.659139  0.340861  0.995234  1
  Mn  Mn11  1  0.999463  0.663817  0.337256  1
  Mn  Mn12  1  0.999632  0.663503  0.000368  1
  Mn  Mn13  1  0.336497  0.663503  0.000368  1
  Mn  Mn14  1  0.999463  0.337256  0.663817  1
  Mn  Mn15  1  0.336497  0.000368  0.663503  1
  Mn  Mn16  1  0.999632  0.000368  0.663503  1
  Mn  Mn17  1  0.336183  0.000537  0.000537  1
  Mn  Mn18  1  0.004766  0.340861  0.995234  1
  Mn  Mn19  1  0.004766  0.995234  0.340861  1
  Ni  Ni20  1  0.995802  0.004198  0.004198  1
  B  B21  1  0.728387  0.271613  0.271613  1
  Mo  Mo22  1  0.250974  0.249026  0.249026  1
  Mo  Mo23  1  0.750974  0.749026  0.749026  1
  C  C24  1  0.725441  0.274559  0.723742  1
  C  C25  1  0.725441  0.723742  0.274559  1
  C  C26  1  0.274863  0.725137  0.725137  1
  C  C27  1  0.276258  0.723742  0.274559  1
  C  C28  1  0.276258  0.274559  0.723742  1
