# generated using pymatgen
data_Zr4In(Re7Tc)3
_symmetry_space_group_name_H-M   'P 1'
_cell_length_a   8.49007208
_cell_length_b   8.47773772
_cell_length_c   8.47773707
_cell_angle_alpha   109.44172951
_cell_angle_beta   109.50069822
_cell_angle_gamma   109.50069394
_symmetry_Int_Tables_number   1
_chemical_formula_structural   Zr4In(Re7Tc)3
_chemical_formula_sum   'Zr4 In1 Re21 Tc3'
_cell_volume   469.56021547
_cell_formula_units_Z   1
loop_
 _symmetry_equiv_pos_site_id
 _symmetry_equiv_pos_as_xyz
  1  'x, y, z'
loop_
 _atom_site_type_symbol
 _atom_site_label
 _atom_site_symmetry_multiplicity
 _atom_site_fract_x
 _atom_site_fract_y
 _atom_site_fract_z
 _atom_site_occupancy
  Zr  Zr0  1  0.629400  0.000000  0.000000  1
  Zr  Zr1  1  0.999811  0.631182  0.000000  1
  Zr  Zr2  1  0.999811  0.000000  0.631182  1
  Zr  Zr3  1  0.368629  0.368818  0.368818  1
  In  In4  1  0.999150  0.000000  0.000000  1
  Re  Re5  1  0.674795  0.393900  0.000000  1
  Re  Re6  1  0.001070  0.395287  0.675624  1
  Re  Re7  1  0.325445  0.719663  0.324376  1
  Re  Re8  1  0.325445  0.324376  0.719663  1
  Re  Re9  1  0.001070  0.675624  0.395287  1
  Re  Re10  1  0.674795  0.000000  0.393900  1
  Re  Re11  1  0.605782  0.604713  0.280337  1
  Re  Re12  1  0.280895  0.606100  0.606100  1
  Re  Re13  1  0.605782  0.280337  0.604713  1
  Re  Re14  1  0.375987  0.195077  0.000000  1
  Re  Re15  1  0.180910  0.804923  0.804923  1
  Re  Re16  1  0.375987  0.000000  0.195077  1
  Re  Re17  1  0.194340  0.378026  0.000000  1
  Re  Re18  1  0.000679  0.377274  0.194390  1
  Re  Re19  1  0.806289  0.182883  0.805610  1
  Re  Re20  1  0.806289  0.805610  0.182883  1
  Re  Re21  1  0.000679  0.194390  0.377274  1
  Re  Re22  1  0.194340  0.000000  0.378026  1
  Re  Re23  1  0.623406  0.622726  0.817117  1
  Re  Re24  1  0.816315  0.621974  0.621974  1
  Re  Re25  1  0.623406  0.817117  0.622726  1
  Tc  Tc26  1  0.395352  0.676566  0.000000  1
  Tc  Tc27  1  0.718787  0.323434  0.323434  1
  Tc  Tc28  1  0.395352  0.000000  0.676566  1
