# generated using pymatgen
data_LiLa4ReC8
_symmetry_space_group_name_H-M   'P 1'
_cell_length_a   7.00128738
_cell_length_b   7.00128694
_cell_length_c   7.00128500
_cell_angle_alpha   134.12197314
_cell_angle_beta   108.24036807
_cell_angle_gamma   89.47330434
_symmetry_Int_Tables_number   1
_chemical_formula_structural   LiLa4ReC8
_chemical_formula_sum   'Li1 La4 Re1 C8'
_cell_volume   222.74857960
_cell_formula_units_Z   1
loop_
 _symmetry_equiv_pos_site_id
 _symmetry_equiv_pos_as_xyz
  1  'x, y, z'
loop_
 _atom_site_type_symbol
 _atom_site_label
 _atom_site_symmetry_multiplicity
 _atom_site_fract_x
 _atom_site_fract_y
 _atom_site_fract_z
 _atom_site_occupancy
  Li  Li0  1  0.000000  0.250000  0.250000  1
  La  La1  1  0.199690  0.346067  0.846977  1
  La  La2  1  0.800310  0.647287  0.146378  1
  La  La3  1  0.499090  0.852713  0.653023  1
  La  La4  1  0.500910  0.153933  0.353622  1
  Re  Re5  1  0.000000  0.750000  0.750000  1
  C  C6  1  0.788293  0.125213  0.670967  1
  C  C7  1  0.211707  0.882672  0.336920  1
  C  C8  1  0.454246  0.617328  0.829033  1
  C  C9  1  0.545754  0.374787  0.163080  1
  C  C10  1  0.893190  0.020873  0.759033  1
  C  C11  1  0.106810  0.865843  0.127682  1
  C  C12  1  0.261840  0.634157  0.740967  1
  C  C13  1  0.738160  0.479127  0.372318  1
