# generated using pymatgen
data_Dy12ZnInNi4
_symmetry_space_group_name_H-M   'P 1'
_cell_length_a   8.37902603
_cell_length_b   8.37902634
_cell_length_c   8.37902700
_cell_angle_alpha   112.50571725
_cell_angle_beta   109.37283239
_cell_angle_gamma   106.58936984
_symmetry_Int_Tables_number   1
_chemical_formula_structural   Dy12ZnInNi4
_chemical_formula_sum   'Dy12 Zn1 In1 Ni4'
_cell_volume   451.64411426
_cell_formula_units_Z   1
loop_
 _symmetry_equiv_pos_site_id
 _symmetry_equiv_pos_as_xyz
  1  'x, y, z'
loop_
 _atom_site_type_symbol
 _atom_site_label
 _atom_site_symmetry_multiplicity
 _atom_site_fract_x
 _atom_site_fract_y
 _atom_site_fract_z
 _atom_site_occupancy
  Dy  Dy0  1  0.423830  0.225561  0.198270  1
  Dy  Dy1  1  0.576170  0.774439  0.801730  1
  Dy  Dy2  1  0.027291  0.225561  0.801730  1
  Dy  Dy3  1  0.972709  0.774439  0.198270  1
  Dy  Dy4  1  0.180510  0.292817  0.473328  1
  Dy  Dy5  1  0.819490  0.707183  0.526672  1
  Dy  Dy6  1  0.180510  0.707183  0.887693  1
  Dy  Dy7  1  0.819490  0.292817  0.112307  1
  Dy  Dy8  1  0.324136  0.630416  0.306280  1
  Dy  Dy9  1  0.675864  0.369584  0.693720  1
  Dy  Dy10  1  0.324136  0.017857  0.693720  1
  Dy  Dy11  1  0.675864  0.982143  0.306280  1
  Zn  Zn12  1  0.000000  0.000000  0.000000  1
  In  In13  1  0.500000  0.500000  0.000000  1
  Ni  Ni14  1  0.356767  0.000000  0.356767  1
  Ni  Ni15  1  0.643233  0.000000  0.643233  1
  Ni  Ni16  1  0.125235  0.625235  0.500000  1
  Ni  Ni17  1  0.874765  0.374765  0.500000  1
