# generated using pymatgen
data_Li3Hf6Re2Ir
_symmetry_space_group_name_H-M   'P 1'
_cell_length_a   4.63039601
_cell_length_b   6.62962000
_cell_length_c   13.83538102
_cell_angle_alpha   90.00003799
_cell_angle_beta   90.00595142
_cell_angle_gamma   89.99994932
_symmetry_Int_Tables_number   1
_chemical_formula_structural   Li3Hf6Re2Ir
_chemical_formula_sum   'Li6 Hf12 Re4 Ir2'
_cell_volume   424.71528634
_cell_formula_units_Z   2
loop_
 _symmetry_equiv_pos_site_id
 _symmetry_equiv_pos_as_xyz
  1  'x, y, z'
loop_
 _atom_site_type_symbol
 _atom_site_label
 _atom_site_symmetry_multiplicity
 _atom_site_fract_x
 _atom_site_fract_y
 _atom_site_fract_z
 _atom_site_occupancy
  Li  Li0  1  0.000012  0.000000  0.999817  1
  Li  Li1  1  0.499303  0.499999  0.166860  1
  Li  Li2  1  0.999318  0.000000  0.333466  1
  Li  Li3  1  0.499996  0.499999  0.500041  1
  Li  Li4  1  0.000688  0.000000  0.666636  1
  Li  Li5  1  0.500701  0.499999  0.833187  1
  Hf  Hf6  1  0.500005  0.247675  0.998770  1
  Hf  Hf7  1  0.500005  0.752324  0.998770  1
  Hf  Hf8  1  0.999537  0.252327  0.167872  1
  Hf  Hf9  1  0.999537  0.747674  0.167872  1
  Hf  Hf10  1  0.499541  0.250666  0.334495  1
  Hf  Hf11  1  0.499541  0.749333  0.334495  1
  Hf  Hf12  1  0.999998  0.249485  0.500153  1
  Hf  Hf13  1  0.999999  0.750516  0.500153  1
  Hf  Hf14  1  0.500467  0.250516  0.666539  1
  Hf  Hf15  1  0.500468  0.749483  0.666539  1
  Hf  Hf16  1  0.000461  0.249325  0.832174  1
  Hf  Hf17  1  0.000462  0.750676  0.832175  1
  Re  Re18  1  0.999502  0.499999  0.330105  1
  Re  Re19  1  0.500005  0.000000  0.498826  1
  Re  Re20  1  0.000484  0.499998  0.667859  1
  Re  Re21  1  0.500457  0.000000  0.836553  1
  Ir  Ir22  1  0.000011  0.499999  0.001996  1
  Ir  Ir23  1  0.499500  0.999999  0.164649  1
