# generated using pymatgen
data_Tb3Al12Ir2RuRh
_symmetry_space_group_name_H-M   'P 1'
_cell_length_a   8.83361848
_cell_length_b   8.81144283
_cell_length_c   9.54609028
_cell_angle_alpha   90.00000188
_cell_angle_beta   89.97538414
_cell_angle_gamma   119.91699439
_symmetry_Int_Tables_number   1
_chemical_formula_structural   Tb3Al12Ir2RuRh
_chemical_formula_sum   'Tb6 Al24 Ir4 Ru2 Rh2'
_cell_volume   644.02752235
_cell_formula_units_Z   2
loop_
 _symmetry_equiv_pos_site_id
 _symmetry_equiv_pos_as_xyz
  1  'x, y, z'
loop_
 _atom_site_type_symbol
 _atom_site_label
 _atom_site_symmetry_multiplicity
 _atom_site_fract_x
 _atom_site_fract_y
 _atom_site_fract_z
 _atom_site_occupancy
  Tb  Tb0  1  0.382826  0.191412  0.250954  1
  Tb  Tb1  1  0.809128  0.192358  0.250921  1
  Tb  Tb2  1  0.809128  0.616770  0.250921  1
  Tb  Tb3  1  0.617174  0.808588  0.749046  1
  Tb  Tb4  1  0.190872  0.807642  0.749079  1
  Tb  Tb5  1  0.190872  0.383230  0.749079  1
  Al  Al6  1  0.437568  0.875196  0.249642  1
  Al  Al7  1  0.125288  0.562644  0.249966  1
  Al  Al8  1  0.437568  0.562372  0.249642  1
  Al  Al9  1  0.562432  0.124804  0.750358  1
  Al  Al10  1  0.874712  0.437356  0.750034  1
  Al  Al11  1  0.562432  0.437628  0.750358  1
  Al  Al12  1  0.163366  0.836699  0.424182  1
  Al  Al13  1  0.163366  0.326668  0.424182  1
  Al  Al14  1  0.673176  0.836589  0.424459  1
  Al  Al15  1  0.836634  0.163301  0.575818  1
  Al  Al16  1  0.836634  0.673332  0.575818  1
  Al  Al17  1  0.326824  0.163411  0.575541  1
  Al  Al18  1  0.836724  0.163361  0.923937  1
  Al  Al19  1  0.836724  0.673360  0.923937  1
  Al  Al20  1  0.326037  0.163017  0.923500  1
  Al  Al21  1  0.163276  0.836639  0.076063  1
  Al  Al22  1  0.163276  0.326640  0.076063  1
  Al  Al23  1  0.673963  0.836983  0.076500  1
  Al  Al24  1  0.333498  0.666750  0.529755  1
  Al  Al25  1  0.666502  0.333250  0.470245  1
  Al  Al26  1  0.666786  0.333392  0.029871  1
  Al  Al27  1  0.333214  0.666608  0.970129  1
  Al  Al28  1  0.000171  0.000086  0.250192  1
  Al  Al29  1  0.999829  0.999914  0.749808  1
  Ir  Ir30  1  0.500000  0.000000  0.500000  1
  Ir  Ir31  1  0.000000  0.500000  0.500000  1
  Ir  Ir32  1  0.500000  0.500000  0.500000  1
  Ir  Ir33  1  0.000000  0.500000  0.000000  1
  Ru  Ru34  1  0.000000  0.000000  0.500000  1
  Ru  Ru35  1  0.000000  0.000000  0.000000  1
  Rh  Rh36  1  0.500000  0.000000  0.000000  1
  Rh  Rh37  1  0.500000  0.500000  0.000000  1
