# generated using pymatgen
data_YTm19(GaBi2)4
_symmetry_space_group_name_H-M   'P 1'
_cell_length_a   11.91209567
_cell_length_b   9.21969100
_cell_length_c   8.00713245
_cell_angle_alpha   90.00000000
_cell_angle_beta   89.96147849
_cell_angle_gamma   90.00000000
_symmetry_Int_Tables_number   1
_chemical_formula_structural   YTm19(GaBi2)4
_chemical_formula_sum   'Y1 Tm19 Ga4 Bi8'
_cell_volume   879.38985898
_cell_formula_units_Z   1
loop_
 _symmetry_equiv_pos_site_id
 _symmetry_equiv_pos_as_xyz
  1  'x, y, z'
loop_
 _atom_site_type_symbol
 _atom_site_label
 _atom_site_symmetry_multiplicity
 _atom_site_fract_x
 _atom_site_fract_y
 _atom_site_fract_z
 _atom_site_occupancy
  Y  Y0  1  0.705493  0.750000  0.644451  1
  Tm  Tm1  1  0.562863  0.053554  0.319303  1
  Tm  Tm2  1  0.062879  0.446306  0.180663  1
  Tm  Tm3  1  0.436738  0.553505  0.680692  1
  Tm  Tm4  1  0.937447  0.946611  0.819546  1
  Tm  Tm5  1  0.436738  0.946495  0.680692  1
  Tm  Tm6  1  0.937447  0.553389  0.819546  1
  Tm  Tm7  1  0.562863  0.446446  0.319303  1
  Tm  Tm8  1  0.062879  0.053694  0.180663  1
  Tm  Tm9  1  0.715471  0.250000  0.671718  1
  Tm  Tm10  1  0.215437  0.250000  0.828261  1
  Tm  Tm11  1  0.284453  0.750000  0.328189  1
  Tm  Tm12  1  0.784632  0.750000  0.171398  1
  Tm  Tm13  1  0.502978  0.250000  0.962771  1
  Tm  Tm14  1  0.003025  0.250000  0.537196  1
  Tm  Tm15  1  0.497001  0.750000  0.037356  1
  Tm  Tm16  1  0.997365  0.750000  0.462574  1
  Tm  Tm17  1  0.794737  0.250000  0.144462  1
  Tm  Tm18  1  0.294689  0.250000  0.355656  1
  Tm  Tm19  1  0.205302  0.750000  0.855786  1
  Ga  Ga20  1  0.975236  0.250000  0.906836  1
  Ga  Ga21  1  0.475125  0.250000  0.593255  1
  Ga  Ga22  1  0.024916  0.750000  0.093291  1
  Ga  Ga23  1  0.523778  0.750000  0.405645  1
  Bi  Bi24  1  0.825234  0.009860  0.436644  1
  Bi  Bi25  1  0.324855  0.490555  0.062969  1
  Bi  Bi26  1  0.175093  0.509329  0.563013  1
  Bi  Bi27  1  0.675073  0.991089  0.937749  1
  Bi  Bi28  1  0.175093  0.990671  0.563013  1
  Bi  Bi29  1  0.675073  0.508911  0.937749  1
  Bi  Bi30  1  0.825234  0.490140  0.436644  1
  Bi  Bi31  1  0.324855  0.009445  0.062969  1
