# generated using pymatgen
data_Mg2TaGaRh4
_symmetry_space_group_name_H-M   'P 1'
_cell_length_a   6.22203300
_cell_length_b   6.22177500
_cell_length_c   6.19402600
_cell_angle_alpha   90.00000000
_cell_angle_beta   90.00000000
_cell_angle_gamma   90.00000000
_symmetry_Int_Tables_number   1
_chemical_formula_structural   Mg2TaGaRh4
_chemical_formula_sum   'Mg4 Ta2 Ga2 Rh8'
_cell_volume   239.78368806
_cell_formula_units_Z   2
loop_
 _symmetry_equiv_pos_site_id
 _symmetry_equiv_pos_as_xyz
  1  'x, y, z'
loop_
 _atom_site_type_symbol
 _atom_site_label
 _atom_site_symmetry_multiplicity
 _atom_site_fract_x
 _atom_site_fract_y
 _atom_site_fract_z
 _atom_site_occupancy
  Mg  Mg0  1  0.749906  0.250000  0.000000  1
  Mg  Mg1  1  0.250096  0.750000  0.000000  1
  Mg  Mg2  1  0.750117  0.250000  0.500000  1
  Mg  Mg3  1  0.249882  0.750000  0.500000  1
  Ta  Ta4  1  0.250117  0.250000  0.000000  1
  Ta  Ta5  1  0.749884  0.750000  0.000000  1
  Ga  Ga6  1  0.750086  0.750000  0.499991  1
  Ga  Ga7  1  0.249914  0.250000  0.500009  1
  Rh  Rh8  1  0.000000  0.000000  0.250705  1
  Rh  Rh9  1  0.000000  0.499994  0.250705  1
  Rh  Rh10  1  0.499998  0.000000  0.250746  1
  Rh  Rh11  1  0.499998  0.500006  0.250746  1
  Rh  Rh12  1  0.500001  0.000000  0.749255  1
  Rh  Rh13  1  0.500001  0.499994  0.749255  1
  Rh  Rh14  1  0.000000  0.000000  0.749296  1
  Rh  Rh15  1  0.000000  0.500006  0.749296  1
