# generated using pymatgen
data_Tb5Ho3SnHg3Au8
_symmetry_space_group_name_H-M   'P 1'
_cell_length_a   8.01902548
_cell_length_b   8.02151263
_cell_length_c   7.37222532
_cell_angle_alpha   90.03386632
_cell_angle_beta   90.08445134
_cell_angle_gamma   89.78366382
_symmetry_Int_Tables_number   1
_chemical_formula_structural   Tb5Ho3SnHg3Au8
_chemical_formula_sum   'Tb5 Ho3 Sn1 Hg3 Au8'
_cell_volume   474.21230962
_cell_formula_units_Z   1
loop_
 _symmetry_equiv_pos_site_id
 _symmetry_equiv_pos_as_xyz
  1  'x, y, z'
loop_
 _atom_site_type_symbol
 _atom_site_label
 _atom_site_symmetry_multiplicity
 _atom_site_fract_x
 _atom_site_fract_y
 _atom_site_fract_z
 _atom_site_occupancy
  Tb  Tb0  1  0.838711  0.161147  0.501130  1
  Tb  Tb1  1  0.162059  0.839586  0.501046  1
  Tb  Tb2  1  0.338475  0.338139  0.998920  1
  Tb  Tb3  1  0.660472  0.661456  0.998878  1
  Tb  Tb4  1  0.682928  0.684575  0.499610  1
  Ho  Ho5  1  0.317526  0.315585  0.499733  1
  Ho  Ho6  1  0.184386  0.818208  0.000238  1
  Ho  Ho7  1  0.816113  0.182876  0.000234  1
  Sn  Sn8  1  0.000215  0.500119  0.250316  1
  Hg  Hg9  1  0.499861  0.999602  0.249932  1
  Hg  Hg10  1  0.999980  0.500076  0.750164  1
  Hg  Hg11  1  0.500214  0.999753  0.750045  1
  Au  Au12  1  0.625706  0.371843  0.272484  1
  Au  Au13  1  0.372799  0.626664  0.272394  1
  Au  Au14  1  0.127465  0.126628  0.772531  1
  Au  Au15  1  0.873590  0.874234  0.774927  1
  Au  Au16  1  0.372711  0.626718  0.727959  1
  Au  Au17  1  0.625919  0.371956  0.727921  1
  Au  Au18  1  0.873519  0.874326  0.224629  1
  Au  Au19  1  0.127350  0.126511  0.226909  1
