# generated using pymatgen
data_LaTbHo2(Mo2O7)2
_symmetry_space_group_name_H-M   'P 1'
_cell_length_a   7.47331907
_cell_length_b   7.45434028
_cell_length_c   7.47331963
_cell_angle_alpha   59.05056882
_cell_angle_beta   59.30597495
_cell_angle_gamma   59.05055997
_symmetry_Int_Tables_number   1
_chemical_formula_structural   LaTbHo2(Mo2O7)2
_chemical_formula_sum   'La1 Tb1 Ho2 Mo4 O14'
_cell_volume   288.58560500
_cell_formula_units_Z   1
loop_
 _symmetry_equiv_pos_site_id
 _symmetry_equiv_pos_as_xyz
  1  'x, y, z'
loop_
 _atom_site_type_symbol
 _atom_site_label
 _atom_site_symmetry_multiplicity
 _atom_site_fract_x
 _atom_site_fract_y
 _atom_site_fract_z
 _atom_site_occupancy
  La  La0  1  0.125000  0.125000  0.125000  1
  Tb  Tb1  1  0.125000  0.625000  0.125000  1
  Ho  Ho2  1  0.625000  0.125000  0.125000  1
  Ho  Ho3  1  0.125000  0.125000  0.625000  1
  Mo  Mo4  1  0.625000  0.625000  0.625000  1
  Mo  Mo5  1  0.125000  0.625000  0.625000  1
  Mo  Mo6  1  0.625000  0.625000  0.125000  1
  Mo  Mo7  1  0.625000  0.125000  0.625000  1
  O  O8  1  0.994802  0.001784  0.994802  1
  O  O9  1  0.255198  0.248216  0.255198  1
  O  O10  1  0.289678  0.287359  0.701455  1
  O  O11  1  0.532660  0.535267  0.967382  1
  O  O12  1  0.712457  0.289312  0.712457  1
  O  O13  1  0.701455  0.287359  0.289678  1
  O  O14  1  0.282618  0.714733  0.717340  1
  O  O15  1  0.290086  0.704050  0.290086  1
  O  O16  1  0.717340  0.714733  0.282618  1
  O  O17  1  0.967382  0.535267  0.532660  1
  O  O18  1  0.548545  0.962641  0.960322  1
  O  O19  1  0.960322  0.962641  0.548545  1
  O  O20  1  0.959914  0.545950  0.959914  1
  O  O21  1  0.537543  0.960688  0.537543  1
