# generated using pymatgen
data_Er3Ni2Sn3Ir
_symmetry_space_group_name_H-M   'P 1'
_cell_length_a   7.48566500
_cell_length_b   7.48566520
_cell_length_c   3.75982000
_cell_angle_alpha   90.00000000
_cell_angle_beta   90.00000000
_cell_angle_gamma   120.00000352
_symmetry_Int_Tables_number   1
_chemical_formula_structural   Er3Ni2Sn3Ir
_chemical_formula_sum   'Er3 Ni2 Sn3 Ir1'
_cell_volume   182.45612915
_cell_formula_units_Z   1
loop_
 _symmetry_equiv_pos_site_id
 _symmetry_equiv_pos_as_xyz
  1  'x, y, z'
loop_
 _atom_site_type_symbol
 _atom_site_label
 _atom_site_symmetry_multiplicity
 _atom_site_fract_x
 _atom_site_fract_y
 _atom_site_fract_z
 _atom_site_occupancy
  Er  Er0  1  0.401994  0.407509  0.500000  1
  Er  Er1  1  0.592491  0.994485  0.500000  1
  Er  Er2  1  0.005515  0.598006  0.500000  1
  Ni  Ni3  1  0.666667  0.333333  0.000000  1
  Ni  Ni4  1  0.000000  0.000000  0.500000  1
  Sn  Sn5  1  0.745652  0.737773  0.000000  1
  Sn  Sn6  1  0.262227  0.007879  0.000000  1
  Sn  Sn7  1  0.992121  0.254348  0.000000  1
  Ir  Ir8  1  0.333333  0.666667  0.000000  1
