# generated using pymatgen
data_CeEr4Mn2O12
_symmetry_space_group_name_H-M   'P 1'
_cell_length_a   6.76366197
_cell_length_b   6.76366174
_cell_length_c   7.16896253
_cell_angle_alpha   74.59969691
_cell_angle_beta   74.59969599
_cell_angle_gamma   50.50014899
_symmetry_Int_Tables_number   1
_chemical_formula_structural   CeEr4Mn2O12
_chemical_formula_sum   'Ce1 Er4 Mn2 O12'
_cell_volume   241.90807160
_cell_formula_units_Z   1
loop_
 _symmetry_equiv_pos_site_id
 _symmetry_equiv_pos_as_xyz
  1  'x, y, z'
loop_
 _atom_site_type_symbol
 _atom_site_label
 _atom_site_symmetry_multiplicity
 _atom_site_fract_x
 _atom_site_fract_y
 _atom_site_fract_z
 _atom_site_occupancy
  Ce  Ce0  1  0.000000  0.000000  0.500000  1
  Er  Er1  1  0.305645  0.305645  0.351775  1
  Er  Er2  1  0.694355  0.694355  0.648225  1
  Er  Er3  1  0.304546  0.304546  0.843277  1
  Er  Er4  1  0.695454  0.695454  0.156723  1
  Mn  Mn5  1  0.753557  0.246443  0.000000  1
  Mn  Mn6  1  0.246443  0.753557  0.000000  1
  O  O7  1  0.901884  0.424826  0.916297  1
  O  O8  1  0.424826  0.901884  0.916297  1
  O  O9  1  0.098116  0.575174  0.083703  1
  O  O10  1  0.575174  0.098116  0.083703  1
  O  O11  1  0.095668  0.600919  0.573239  1
  O  O12  1  0.600919  0.095668  0.573239  1
  O  O13  1  0.904332  0.399081  0.426761  1
  O  O14  1  0.399081  0.904332  0.426761  1
  O  O15  1  0.999371  0.999371  0.820645  1
  O  O16  1  0.000629  0.000629  0.179355  1
  O  O17  1  0.499328  0.499328  0.817345  1
  O  O18  1  0.500672  0.500672  0.182655  1
