# generated using pymatgen
data_SrLi(GaPd)2
_symmetry_space_group_name_H-M   'P 1'
_cell_length_a   4.33825800
_cell_length_b   4.33825832
_cell_length_c   14.59200700
_cell_angle_alpha   90.00000000
_cell_angle_beta   90.00000000
_cell_angle_gamma   119.99999760
_symmetry_Int_Tables_number   1
_chemical_formula_structural   SrLi(GaPd)2
_chemical_formula_sum   'Sr2 Li2 Ga4 Pd4'
_cell_volume   237.83537764
_cell_formula_units_Z   2
loop_
 _symmetry_equiv_pos_site_id
 _symmetry_equiv_pos_as_xyz
  1  'x, y, z'
loop_
 _atom_site_type_symbol
 _atom_site_label
 _atom_site_symmetry_multiplicity
 _atom_site_fract_x
 _atom_site_fract_y
 _atom_site_fract_z
 _atom_site_occupancy
  Sr  Sr0  1  0.000000  0.000000  0.750000  1
  Sr  Sr1  1  0.000000  0.000000  0.250000  1
  Li  Li2  1  0.000000  0.000000  0.500000  1
  Li  Li3  1  0.000000  0.000000  0.000000  1
  Ga  Ga4  1  0.333333  0.666667  0.600502  1
  Ga  Ga5  1  0.666667  0.333333  0.399498  1
  Ga  Ga6  1  0.666667  0.333333  0.100502  1
  Ga  Ga7  1  0.333333  0.666667  0.899498  1
  Pd  Pd8  1  0.333333  0.666667  0.423269  1
  Pd  Pd9  1  0.666667  0.333333  0.923269  1
  Pd  Pd10  1  0.333333  0.666667  0.076731  1
  Pd  Pd11  1  0.666667  0.333333  0.576731  1
