# generated using pymatgen
data_KGeAsIrRh
_symmetry_space_group_name_H-M   'P 1'
_cell_length_a   7.35075994
_cell_length_b   7.35075965
_cell_length_c   7.35076041
_cell_angle_alpha   147.77572391
_cell_angle_beta   147.79454731
_cell_angle_gamma   46.20265177
_symmetry_Int_Tables_number   1
_chemical_formula_structural   KGeAsIrRh
_chemical_formula_sum   'K1 Ge1 As1 Ir1 Rh1'
_cell_volume   112.48428397
_cell_formula_units_Z   1
loop_
 _symmetry_equiv_pos_site_id
 _symmetry_equiv_pos_as_xyz
  1  'x, y, z'
loop_
 _atom_site_type_symbol
 _atom_site_label
 _atom_site_symmetry_multiplicity
 _atom_site_fract_x
 _atom_site_fract_y
 _atom_site_fract_z
 _atom_site_occupancy
  K  K0  1  0.997654  0.997654  0.000000  1
  Ge  Ge1  1  0.647847  0.647847  0.000000  1
  As  As2  1  0.351421  0.351421  0.000000  1
  Ir  Ir3  1  0.751659  0.251659  0.500000  1
  Rh  Rh4  1  0.251420  0.751420  0.500000  1
