# generated using pymatgen
data_DyLu19Sn16
_symmetry_space_group_name_H-M   'P 1'
_cell_length_a   7.91691574
_cell_length_b   8.00943928
_cell_length_c   15.17031938
_cell_angle_alpha   90.00083612
_cell_angle_beta   89.61805372
_cell_angle_gamma   89.91732993
_symmetry_Int_Tables_number   1
_chemical_formula_structural   DyLu19Sn16
_chemical_formula_sum   'Dy1 Lu19 Sn16'
_cell_volume   961.92842482
_cell_formula_units_Z   1
loop_
 _symmetry_equiv_pos_site_id
 _symmetry_equiv_pos_as_xyz
  1  'x, y, z'
loop_
 _atom_site_type_symbol
 _atom_site_label
 _atom_site_symmetry_multiplicity
 _atom_site_fract_x
 _atom_site_fract_y
 _atom_site_fract_z
 _atom_site_occupancy
  Dy  Dy0  1  0.019323  0.178791  0.905331  1
  Lu  Lu1  1  0.367025  0.838269  0.876103  1
  Lu  Lu2  1  0.870434  0.661642  0.622133  1
  Lu  Lu3  1  0.629027  0.160845  0.376789  1
  Lu  Lu4  1  0.132323  0.339108  0.124119  1
  Lu  Lu5  1  0.632920  0.162250  0.124052  1
  Lu  Lu6  1  0.129379  0.338610  0.376984  1
  Lu  Lu7  1  0.371606  0.838504  0.622707  1
  Lu  Lu8  1  0.869155  0.661583  0.876313  1
  Lu  Lu9  1  0.523729  0.322494  0.904335  1
  Lu  Lu10  1  0.027223  0.178416  0.597356  1
  Lu  Lu11  1  0.474489  0.678054  0.402854  1
  Lu  Lu12  1  0.977609  0.820321  0.096012  1
  Lu  Lu13  1  0.475990  0.678554  0.096403  1
  Lu  Lu14  1  0.973499  0.822020  0.402941  1
  Lu  Lu15  1  0.525339  0.321725  0.595685  1
  Lu  Lu16  1  0.199762  0.504769  0.749105  1
  Lu  Lu17  1  0.699442  0.994674  0.749113  1
  Lu  Lu18  1  0.800299  0.495345  0.250500  1
  Lu  Lu19  1  0.300745  0.004795  0.250670  1
  Sn  Sn20  1  0.296310  0.036534  0.042822  1
  Sn  Sn21  1  0.790225  0.462901  0.458449  1
  Sn  Sn22  1  0.710734  0.964270  0.541341  1
  Sn  Sn23  1  0.208418  0.539704  0.959193  1
  Sn  Sn24  1  0.701660  0.957613  0.959913  1
  Sn  Sn25  1  0.210357  0.537259  0.541026  1
  Sn  Sn26  1  0.289749  0.036006  0.458524  1
  Sn  Sn27  1  0.792986  0.462896  0.041407  1
  Sn  Sn28  1  0.565357  0.619080  0.749813  1
  Sn  Sn29  1  0.065846  0.880109  0.749257  1
  Sn  Sn30  1  0.434947  0.381884  0.250270  1
  Sn  Sn31  1  0.934866  0.118527  0.250222  1
  Sn  Sn32  1  0.336945  0.152216  0.749905  1
  Sn  Sn33  1  0.833482  0.349653  0.748709  1
  Sn  Sn34  1  0.664767  0.848272  0.249584  1
  Sn  Sn35  1  0.164032  0.652309  0.250059  1
