# generated using pymatgen
data_HfNp3Bi5
_symmetry_space_group_name_H-M   'P 1'
_cell_length_a   9.57440000
_cell_length_b   9.57440082
_cell_length_c   6.39201200
_cell_angle_alpha   90.00000000
_cell_angle_beta   90.00000000
_cell_angle_gamma   120.00000406
_symmetry_Int_Tables_number   1
_chemical_formula_structural   HfNp3Bi5
_chemical_formula_sum   'Hf2 Np6 Bi10'
_cell_volume   507.44779292
_cell_formula_units_Z   2
loop_
 _symmetry_equiv_pos_site_id
 _symmetry_equiv_pos_as_xyz
  1  'x, y, z'
loop_
 _atom_site_type_symbol
 _atom_site_label
 _atom_site_symmetry_multiplicity
 _atom_site_fract_x
 _atom_site_fract_y
 _atom_site_fract_z
 _atom_site_occupancy
  Hf  Hf0  1  0.000000  0.000000  0.000000  1
  Hf  Hf1  1  0.000000  0.000000  0.500000  1
  Np  Np2  1  0.614629  0.000000  0.250000  1
  Np  Np3  1  0.385371  0.000000  0.750000  1
  Np  Np4  1  0.000000  0.614629  0.250000  1
  Np  Np5  1  0.000000  0.385371  0.750000  1
  Np  Np6  1  0.385371  0.385371  0.250000  1
  Np  Np7  1  0.614629  0.614629  0.750000  1
  Bi  Bi8  1  0.268738  0.000000  0.250000  1
  Bi  Bi9  1  0.731262  0.000000  0.750000  1
  Bi  Bi10  1  0.000000  0.268738  0.250000  1
  Bi  Bi11  1  0.000000  0.731262  0.750000  1
  Bi  Bi12  1  0.731262  0.731262  0.250000  1
  Bi  Bi13  1  0.268738  0.268738  0.750000  1
  Bi  Bi14  1  0.333333  0.666667  0.000000  1
  Bi  Bi15  1  0.666667  0.333333  0.000000  1
  Bi  Bi16  1  0.666667  0.333333  0.500000  1
  Bi  Bi17  1  0.333333  0.666667  0.500000  1
