# generated using pymatgen
data_NaEu7Te8
_symmetry_space_group_name_H-M   'P 1'
_cell_length_a   9.21115360
_cell_length_b   9.21115418
_cell_length_c   9.17145100
_cell_angle_alpha   59.85669876
_cell_angle_beta   59.85669667
_cell_angle_gamma   59.99999478
_symmetry_Int_Tables_number   1
_chemical_formula_structural   NaEu7Te8
_chemical_formula_sum   'Na1 Eu7 Te8'
_cell_volume   549.04383557
_cell_formula_units_Z   1
loop_
 _symmetry_equiv_pos_site_id
 _symmetry_equiv_pos_as_xyz
  1  'x, y, z'
loop_
 _atom_site_type_symbol
 _atom_site_label
 _atom_site_symmetry_multiplicity
 _atom_site_fract_x
 _atom_site_fract_y
 _atom_site_fract_z
 _atom_site_occupancy
  Na  Na0  1  0.125000  0.125000  0.625000  1
  Eu  Eu1  1  0.625000  0.125000  0.625000  1
  Eu  Eu2  1  0.625000  0.625000  0.625000  1
  Eu  Eu3  1  0.125000  0.625000  0.625000  1
  Eu  Eu4  1  0.625000  0.625000  0.125000  1
  Eu  Eu5  1  0.125000  0.625000  0.125000  1
  Eu  Eu6  1  0.625000  0.125000  0.125000  1
  Eu  Eu7  1  0.125000  0.125000  0.125000  1
  Te  Te8  1  0.375880  0.874721  0.373517  1
  Te  Te9  1  0.874120  0.375279  0.876483  1
  Te  Te10  1  0.875402  0.875402  0.373794  1
  Te  Te11  1  0.874120  0.874120  0.876483  1
  Te  Te12  1  0.874721  0.375880  0.373517  1
  Te  Te13  1  0.374598  0.374598  0.876206  1
  Te  Te14  1  0.375880  0.375880  0.373517  1
  Te  Te15  1  0.375279  0.874120  0.876483  1
