# generated using pymatgen
data_Sr4V6Zn5Co3(AsO16)2
_symmetry_space_group_name_H-M   'P 1'
_cell_length_a   8.78291432
_cell_length_b   9.93473479
_cell_length_c   9.44377100
_cell_angle_alpha   89.90258011
_cell_angle_beta   91.35178537
_cell_angle_gamma   89.76336479
_symmetry_Int_Tables_number   1
_chemical_formula_structural   Sr4V6Zn5Co3(AsO16)2
_chemical_formula_sum   'Sr4 V6 Zn5 Co3 As2 O32'
_cell_volume   823.78728191
_cell_formula_units_Z   1
loop_
 _symmetry_equiv_pos_site_id
 _symmetry_equiv_pos_as_xyz
  1  'x, y, z'
loop_
 _atom_site_type_symbol
 _atom_site_label
 _atom_site_symmetry_multiplicity
 _atom_site_fract_x
 _atom_site_fract_y
 _atom_site_fract_z
 _atom_site_occupancy
  Sr  Sr0  1  0.750600  0.584704  0.117318  1
  Sr  Sr1  1  0.248717  0.084783  0.383522  1
  Sr  Sr2  1  0.753591  0.916173  0.615756  1
  Sr  Sr3  1  0.245930  0.415108  0.884400  1
  V  V4  1  0.950618  0.203530  0.058870  1
  V  V5  1  0.440969  0.419225  0.247523  1
  V  V6  1  0.559624  0.918578  0.252401  1
  V  V7  1  0.049412  0.703032  0.440067  1
  V  V8  1  0.951731  0.297046  0.560287  1
  V  V9  1  0.441848  0.080620  0.747171  1
  Zn  Zn10  1  0.426815  0.688112  0.456657  1
  Zn  Zn11  1  0.573616  0.312797  0.545426  1
  Zn  Zn12  1  0.926224  0.573774  0.728714  1
  Zn  Zn13  1  0.075368  0.070657  0.771660  1
  Zn  Zn14  1  0.423085  0.807673  0.953796  1
  Co  Co15  1  0.570956  0.188729  0.043700  1
  Co  Co16  1  0.931248  0.928347  0.229627  1
  Co  Co17  1  0.071618  0.428260  0.268452  1
  As  As18  1  0.558782  0.580392  0.751286  1
  As  As19  1  0.049712  0.796924  0.941329  1
  O  O20  1  0.218003  0.864551  0.001277  1
  O  O21  1  0.916078  0.797932  0.072556  1
  O  O22  1  0.567838  0.374542  0.115955  1
  O  O23  1  0.929138  0.370361  0.115708  1
  O  O24  1  0.566682  0.797651  0.118869  1
  O  O25  1  0.261339  0.435479  0.163001  1
  O  O26  1  0.485116  0.068578  0.186148  1
  O  O27  1  0.026725  0.101923  0.196294  1
  O  O28  1  0.973452  0.601302  0.303455  1
  O  O29  1  0.515705  0.568703  0.313311  1
  O  O30  1  0.740450  0.933367  0.334419  1
  O  O31  1  0.430758  0.298419  0.381463  1
  O  O32  1  0.072461  0.869401  0.382919  1
  O  O33  1  0.435034  0.875753  0.386901  1
  O  O34  1  0.083618  0.298212  0.423626  1
  O  O35  1  0.779819  0.362016  0.501394  1
  O  O36  1  0.220718  0.636458  0.498432  1
  O  O37  1  0.915762  0.704215  0.575430  1
  O  O38  1  0.569566  0.124776  0.616180  1
  O  O39  1  0.930418  0.130275  0.617460  1
  O  O40  1  0.571835  0.700732  0.620773  1
  O  O41  1  0.263334  0.064340  0.661351  1
  O  O42  1  0.480761  0.434052  0.685912  1
  O  O43  1  0.025503  0.399956  0.697426  1
  O  O44  1  0.976052  0.896496  0.804957  1
  O  O45  1  0.515613  0.931216  0.815266  1
  O  O46  1  0.734420  0.564654  0.836352  1
  O  O47  1  0.430435  0.202039  0.880117  1
  O  O48  1  0.067948  0.631852  0.886658  1
  O  O49  1  0.432667  0.620514  0.882598  1
  O  O50  1  0.084049  0.202889  0.923032  1
  O  O51  1  0.778243  0.138879  0.002795  1
