# generated using pymatgen
data_Sc5Al3Si4Pd3
_symmetry_space_group_name_H-M   'P 1'
_cell_length_a   4.09660000
_cell_length_b   18.76597200
_cell_length_c   6.72328500
_cell_angle_alpha   90.00000000
_cell_angle_beta   90.00000000
_cell_angle_gamma   90.00000000
_symmetry_Int_Tables_number   1
_chemical_formula_structural   Sc5Al3Si4Pd3
_chemical_formula_sum   'Sc10 Al6 Si8 Pd6'
_cell_volume   516.86383551
_cell_formula_units_Z   2
loop_
 _symmetry_equiv_pos_site_id
 _symmetry_equiv_pos_as_xyz
  1  'x, y, z'
loop_
 _atom_site_type_symbol
 _atom_site_label
 _atom_site_symmetry_multiplicity
 _atom_site_fract_x
 _atom_site_fract_y
 _atom_site_fract_z
 _atom_site_occupancy
  Sc  Sc0  1  0.750000  0.121451  0.002478  1
  Sc  Sc1  1  0.750000  0.378549  0.002478  1
  Sc  Sc2  1  0.750000  0.250000  0.367066  1
  Sc  Sc3  1  0.750000  0.073089  0.489291  1
  Sc  Sc4  1  0.750000  0.426910  0.489291  1
  Sc  Sc5  1  0.250001  0.573089  0.510709  1
  Sc  Sc6  1  0.250001  0.926911  0.510709  1
  Sc  Sc7  1  0.250001  0.750000  0.632934  1
  Sc  Sc8  1  0.250001  0.621451  0.997522  1
  Sc  Sc9  1  0.250001  0.878549  0.997522  1
  Al  Al10  1  0.250001  0.250000  0.033795  1
  Al  Al11  1  0.750000  0.674933  0.334311  1
  Al  Al12  1  0.750000  0.825067  0.334311  1
  Al  Al13  1  0.250001  0.174933  0.665689  1
  Al  Al14  1  0.250001  0.325067  0.665689  1
  Al  Al15  1  0.750000  0.750000  0.966205  1
  Si  Si16  1  0.750000  0.545566  0.225328  1
  Si  Si17  1  0.750000  0.954434  0.225328  1
  Si  Si18  1  0.250001  0.147753  0.286510  1
  Si  Si19  1  0.250001  0.352247  0.286510  1
  Si  Si20  1  0.750000  0.647753  0.713490  1
  Si  Si21  1  0.750000  0.852247  0.713490  1
  Si  Si22  1  0.250001  0.045567  0.774672  1
  Si  Si23  1  0.250001  0.454433  0.774672  1
  Pd  Pd24  1  0.250001  0.024646  0.154851  1
  Pd  Pd25  1  0.250001  0.475354  0.154851  1
  Pd  Pd26  1  0.250001  0.750000  0.212695  1
  Pd  Pd27  1  0.750000  0.250000  0.787305  1
  Pd  Pd28  1  0.750000  0.524646  0.845149  1
  Pd  Pd29  1  0.750000  0.975354  0.845149  1
