# generated using pymatgen
data_ScNb5(B2Ru5)2
_symmetry_space_group_name_H-M   'P 1'
_cell_length_a   9.46717104
_cell_length_b   9.46717104
_cell_length_c   3.05047100
_cell_angle_alpha   90.00000000
_cell_angle_beta   90.00000000
_cell_angle_gamma   89.98973573
_symmetry_Int_Tables_number   1
_chemical_formula_structural   ScNb5(B2Ru5)2
_chemical_formula_sum   'Sc1 Nb5 B4 Ru10'
_cell_volume   273.40555884
_cell_formula_units_Z   1
loop_
 _symmetry_equiv_pos_site_id
 _symmetry_equiv_pos_as_xyz
  1  'x, y, z'
loop_
 _atom_site_type_symbol
 _atom_site_label
 _atom_site_symmetry_multiplicity
 _atom_site_fract_x
 _atom_site_fract_y
 _atom_site_fract_z
 _atom_site_occupancy
  Sc  Sc0  1  0.824147  0.675853  0.000000  1
  Nb  Nb1  1  0.176602  0.323398  0.000000  1
  Nb  Nb2  1  0.324300  0.822438  0.000000  1
  Nb  Nb3  1  0.677562  0.175700  0.000000  1
  Nb  Nb4  1  0.501646  0.501082  0.000000  1
  Nb  Nb5  1  0.998918  0.998354  0.000000  1
  B  B6  1  0.622183  0.877817  0.000000  1
  B  B7  1  0.378129  0.121871  0.000000  1
  B  B8  1  0.119925  0.621367  0.000000  1
  B  B9  1  0.878633  0.380075  0.000000  1
  Ru  Ru10  1  0.564773  0.721069  0.500000  1
  Ru  Ru11  1  0.427714  0.282140  0.500000  1
  Ru  Ru12  1  0.077221  0.782880  0.500000  1
  Ru  Ru13  1  0.930017  0.217953  0.500000  1
  Ru  Ru14  1  0.282047  0.569983  0.500000  1
  Ru  Ru15  1  0.717120  0.422779  0.500000  1
  Ru  Ru16  1  0.217860  0.072286  0.500000  1
  Ru  Ru17  1  0.778931  0.935227  0.500000  1
  Ru  Ru18  1  0.498545  0.001455  0.500000  1
  Ru  Ru19  1  0.003727  0.496273  0.500000  1
