# generated using pymatgen
data_Dy6Tm10In3AgIr4
_symmetry_space_group_name_H-M   'P 1'
_cell_length_a   9.56090737
_cell_length_b   9.56090665
_cell_length_c   9.56090809
_cell_angle_alpha   59.90747505
_cell_angle_beta   59.90748118
_cell_angle_gamma   59.90747522
_symmetry_Int_Tables_number   1
_chemical_formula_structural   Dy6Tm10In3AgIr4
_chemical_formula_sum   'Dy6 Tm10 In3 Ag1 Ir4'
_cell_volume   616.69413307
_cell_formula_units_Z   1
loop_
 _symmetry_equiv_pos_site_id
 _symmetry_equiv_pos_as_xyz
  1  'x, y, z'
loop_
 _atom_site_type_symbol
 _atom_site_label
 _atom_site_symmetry_multiplicity
 _atom_site_fract_x
 _atom_site_fract_y
 _atom_site_fract_z
 _atom_site_occupancy
  Dy  Dy0  1  0.186565  0.810374  0.810374  1
  Dy  Dy1  1  0.809017  0.190450  0.190450  1
  Dy  Dy2  1  0.810374  0.186565  0.810374  1
  Dy  Dy3  1  0.190450  0.809017  0.190450  1
  Dy  Dy4  1  0.810374  0.810374  0.186565  1
  Dy  Dy5  1  0.190450  0.190450  0.809017  1
  Tm  Tm6  1  0.598985  0.598985  0.598985  1
  Tm  Tm7  1  0.600041  0.600041  0.201440  1
  Tm  Tm8  1  0.600041  0.201440  0.600041  1
  Tm  Tm9  1  0.201440  0.600041  0.600041  1
  Tm  Tm10  1  0.058654  0.441139  0.441139  1
  Tm  Tm11  1  0.437593  0.060286  0.060286  1
  Tm  Tm12  1  0.441139  0.058654  0.441139  1
  Tm  Tm13  1  0.060286  0.437593  0.060286  1
  Tm  Tm14  1  0.441139  0.441139  0.058654  1
  Tm  Tm15  1  0.060286  0.060286  0.437593  1
  In  In16  1  0.832184  0.832184  0.504611  1
  In  In17  1  0.832184  0.504611  0.832184  1
  In  In18  1  0.504611  0.832184  0.832184  1
  Ag  Ag19  1  0.832747  0.832747  0.832747  1
  Ir  Ir20  1  0.392107  0.392107  0.392107  1
  Ir  Ir21  1  0.391546  0.391546  0.826240  1
  Ir  Ir22  1  0.391546  0.826240  0.391546  1
  Ir  Ir23  1  0.826240  0.391546  0.391546  1
