# generated using pymatgen
data_Tb6Dy14CoBi8Os3
_symmetry_space_group_name_H-M   'P 1'
_cell_length_a   7.99928072
_cell_length_b   9.02764100
_cell_length_c   12.48070601
_cell_angle_alpha   90.00000000
_cell_angle_beta   90.25684289
_cell_angle_gamma   90.00000000
_symmetry_Int_Tables_number   1
_chemical_formula_structural   Tb6Dy14CoBi8Os3
_chemical_formula_sum   'Tb6 Dy14 Co1 Bi8 Os3'
_cell_volume   901.28056826
_cell_formula_units_Z   1
loop_
 _symmetry_equiv_pos_site_id
 _symmetry_equiv_pos_as_xyz
  1  'x, y, z'
loop_
 _atom_site_type_symbol
 _atom_site_label
 _atom_site_symmetry_multiplicity
 _atom_site_fract_x
 _atom_site_fract_y
 _atom_site_fract_z
 _atom_site_occupancy
  Tb  Tb0  1  0.843956  0.750000  0.798911  1
  Tb  Tb1  1  0.158683  0.250000  0.207156  1
  Tb  Tb2  1  0.341569  0.250000  0.708670  1
  Tb  Tb3  1  0.656835  0.750000  0.293556  1
  Tb  Tb4  1  0.375696  0.750000  0.694583  1
  Tb  Tb5  1  0.120997  0.750000  0.187987  1
  Dy  Dy6  1  0.622672  0.250000  0.306293  1
  Dy  Dy7  1  0.875584  0.250000  0.807251  1
  Dy  Dy8  1  0.942289  0.750000  0.504939  1
  Dy  Dy9  1  0.057668  0.250000  0.495805  1
  Dy  Dy10  1  0.445896  0.250000  0.996566  1
  Dy  Dy11  1  0.553480  0.750000  0.003775  1
  Dy  Dy12  1  0.674610  0.042042  0.564012  1
  Dy  Dy13  1  0.324332  0.957340  0.435515  1
  Dy  Dy14  1  0.175831  0.958661  0.935687  1
  Dy  Dy15  1  0.324332  0.542660  0.435515  1
  Dy  Dy16  1  0.825226  0.038762  0.063038  1
  Dy  Dy17  1  0.674610  0.457958  0.564012  1
  Dy  Dy18  1  0.825226  0.461238  0.063038  1
  Dy  Dy19  1  0.175831  0.541339  0.935687  1
  Co  Co20  1  0.930909  0.750000  0.009192  1
  Bi  Bi21  1  0.570456  0.492661  0.828255  1
  Bi  Bi22  1  0.431087  0.507758  0.171638  1
  Bi  Bi23  1  0.068139  0.507499  0.672800  1
  Bi  Bi24  1  0.431087  0.992242  0.171638  1
  Bi  Bi25  1  0.931029  0.493083  0.326884  1
  Bi  Bi26  1  0.570456  0.007339  0.828255  1
  Bi  Bi27  1  0.931029  0.006917  0.326884  1
  Bi  Bi28  1  0.068139  0.992501  0.672800  1
  Os  Os29  1  0.575242  0.750000  0.511425  1
  Os  Os30  1  0.423999  0.250000  0.488977  1
  Os  Os31  1  0.073103  0.250000  0.989253  1
