# generated using pymatgen
data_CuRu4RhO12
_symmetry_space_group_name_H-M   'P 1'
_cell_length_a   4.55020291
_cell_length_b   4.55020291
_cell_length_c   9.34515000
_cell_angle_alpha   90.00000000
_cell_angle_beta   90.00000000
_cell_angle_gamma   90.19975828
_symmetry_Int_Tables_number   1
_chemical_formula_structural   CuRu4RhO12
_chemical_formula_sum   'Cu1 Ru4 Rh1 O12'
_cell_volume   193.48404828
_cell_formula_units_Z   1
loop_
 _symmetry_equiv_pos_site_id
 _symmetry_equiv_pos_as_xyz
  1  'x, y, z'
loop_
 _atom_site_type_symbol
 _atom_site_label
 _atom_site_symmetry_multiplicity
 _atom_site_fract_x
 _atom_site_fract_y
 _atom_site_fract_z
 _atom_site_occupancy
  Cu  Cu0  1  0.500000  0.500000  0.500000  1
  Ru  Ru1  1  0.500000  0.500000  0.831339  1
  Ru  Ru2  1  0.000000  0.000000  0.335099  1
  Ru  Ru3  1  0.500000  0.500000  0.168661  1
  Ru  Ru4  1  0.000000  0.000000  0.664901  1
  Rh  Rh5  1  0.000000  0.000000  0.000000  1
  O  O6  1  0.705433  0.705433  0.677610  1
  O  O7  1  0.294567  0.294567  0.677610  1
  O  O8  1  0.705433  0.705433  0.322390  1
  O  O9  1  0.196712  0.803288  0.167619  1
  O  O10  1  0.803288  0.196712  0.167619  1
  O  O11  1  0.803288  0.196712  0.832381  1
  O  O12  1  0.310680  0.310680  0.000000  1
  O  O13  1  0.194211  0.805789  0.500000  1
  O  O14  1  0.805789  0.194211  0.500000  1
  O  O15  1  0.689320  0.689320  0.000000  1
  O  O16  1  0.294567  0.294567  0.322390  1
  O  O17  1  0.196712  0.803288  0.832381  1
