# generated using pymatgen
data_Al3Tl4Ga(SiS4)4
_symmetry_space_group_name_H-M   'P 1'
_cell_length_a   15.83302601
_cell_length_b   6.74690869
_cell_length_c   7.64961600
_cell_angle_alpha   70.49476933
_cell_angle_beta   90.12388080
_cell_angle_gamma   89.92238808
_symmetry_Int_Tables_number   1
_chemical_formula_structural   Al3Tl4Ga(SiS4)4
_chemical_formula_sum   'Al3 Tl4 Ga1 Si4 S16'
_cell_volume   770.26263838
_cell_formula_units_Z   1
loop_
 _symmetry_equiv_pos_site_id
 _symmetry_equiv_pos_as_xyz
  1  'x, y, z'
loop_
 _atom_site_type_symbol
 _atom_site_label
 _atom_site_symmetry_multiplicity
 _atom_site_fract_x
 _atom_site_fract_y
 _atom_site_fract_z
 _atom_site_occupancy
  Al  Al0  1  0.583431  0.160415  0.488389  1
  Al  Al1  1  0.083817  0.839496  0.512616  1
  Al  Al2  1  0.272529  0.583921  0.696575  1
  Tl  Tl3  1  0.391740  0.940970  0.194402  1
  Tl  Tl4  1  0.893066  0.057551  0.806058  1
  Tl  Tl5  1  0.604934  0.525164  0.807455  1
  Tl  Tl6  1  0.105279  0.478041  0.193146  1
  Ga  Ga7  1  0.771683  0.413624  0.303065  1
  Si  Si8  1  0.422059  0.316102  0.538054  1
  Si  Si9  1  0.922102  0.684536  0.462547  1
  Si  Si10  1  0.725580  0.915571  0.280151  1
  Si  Si11  1  0.226265  0.084045  0.718647  1
  S  S12  1  0.600481  0.879631  0.391974  1
  S  S13  1  0.101021  0.122258  0.606281  1
  S  S14  1  0.410613  0.594395  0.611620  1
  S  S15  1  0.911606  0.404723  0.391104  1
  S  S16  1  0.802843  0.798229  0.529600  1
  S  S17  1  0.303130  0.202303  0.469587  1
  S  S18  1  0.200696  0.710539  0.430139  1
  S  S19  1  0.700075  0.288169  0.573339  1
  S  S20  1  0.757066  0.224481  0.104467  1
  S  S21  1  0.257045  0.772653  0.891808  1
  S  S22  1  0.239490  0.261893  0.899786  1
  S  S23  1  0.738512  0.740035  0.097444  1
  S  S24  1  0.995572  0.914361  0.260478  1
  S  S25  1  0.495800  0.085495  0.740445  1
  S  S26  1  0.992049  0.617383  0.714979  1
  S  S27  1  0.491509  0.384018  0.285846  1
