# generated using pymatgen
data_Ba4Mn3FeP4(O2F)8
_symmetry_space_group_name_H-M   'P 1'
_cell_length_a   13.01595300
_cell_length_b   5.26544773
_cell_length_c   8.04711800
_cell_angle_alpha   63.87991670
_cell_angle_beta   90.00000000
_cell_angle_gamma   90.00000000
_symmetry_Int_Tables_number   1
_chemical_formula_structural   Ba4Mn3FeP4(O2F)8
_chemical_formula_sum   'Ba4 Mn3 Fe1 P4 O16 F8'
_cell_volume   495.18412237
_cell_formula_units_Z   1
loop_
 _symmetry_equiv_pos_site_id
 _symmetry_equiv_pos_as_xyz
  1  'x, y, z'
loop_
 _atom_site_type_symbol
 _atom_site_label
 _atom_site_symmetry_multiplicity
 _atom_site_fract_x
 _atom_site_fract_y
 _atom_site_fract_z
 _atom_site_occupancy
  Ba  Ba0  1  0.704808  0.852572  0.690470  1
  Ba  Ba1  1  0.204181  0.146540  0.811493  1
  Ba  Ba2  1  0.295192  0.147428  0.309530  1
  Ba  Ba3  1  0.795819  0.853460  0.188507  1
  Mn  Mn4  1  0.000000  0.000000  0.500000  1
  Mn  Mn5  1  0.500000  0.000000  0.000000  1
  Mn  Mn6  1  0.500000  0.500000  0.500000  1
  Fe  Fe7  1  0.000000  0.500000  0.000000  1
  P  P8  1  0.891740  0.371682  0.693117  1
  P  P9  1  0.390352  0.629398  0.802813  1
  P  P10  1  0.108260  0.628318  0.306883  1
  P  P11  1  0.609648  0.370602  0.197187  1
  O  O12  1  0.787750  0.287148  0.791224  1
  O  O13  1  0.287053  0.722515  0.703163  1
  O  O14  1  0.212250  0.712852  0.208776  1
  O  O15  1  0.712947  0.277485  0.296837  1
  O  O16  1  0.902949  0.213195  0.569135  1
  O  O17  1  0.405451  0.790840  0.923872  1
  O  O18  1  0.097051  0.786805  0.430865  1
  O  O19  1  0.594549  0.209160  0.076128  1
  O  O20  1  0.982209  0.309889  0.830934  1
  O  O21  1  0.481515  0.686564  0.663916  1
  O  O22  1  0.017791  0.690111  0.169066  1
  O  O23  1  0.518485  0.313436  0.336084  1
  O  O24  1  0.889516  0.700652  0.556756  1
  O  O25  1  0.386022  0.304332  0.938683  1
  O  O26  1  0.110484  0.299348  0.443244  1
  O  O27  1  0.613978  0.695668  0.061317  1
  F  F28  1  0.862281  0.668659  0.946683  1
  F  F29  1  0.364142  0.336271  0.551830  1
  F  F30  1  0.137719  0.331341  0.053317  1
  F  F31  1  0.635858  0.663729  0.448170  1
  F  F32  1  0.058974  0.818713  0.781102  1
  F  F33  1  0.563263  0.166894  0.735182  1
  F  F34  1  0.941026  0.181287  0.218898  1
  F  F35  1  0.436737  0.833106  0.264818  1
