# generated using pymatgen
data_Pr8Dy9Si16Ag3
_symmetry_space_group_name_H-M   'P 1'
_cell_length_a   7.29410953
_cell_length_b   7.81210690
_cell_length_c   14.85609200
_cell_angle_alpha   90.00000000
_cell_angle_beta   90.00000000
_cell_angle_gamma   89.83618028
_symmetry_Int_Tables_number   1
_chemical_formula_structural   Pr8Dy9Si16Ag3
_chemical_formula_sum   'Pr8 Dy9 Si16 Ag3'
_cell_volume   846.53177285
_cell_formula_units_Z   1
loop_
 _symmetry_equiv_pos_site_id
 _symmetry_equiv_pos_as_xyz
  1  'x, y, z'
loop_
 _atom_site_type_symbol
 _atom_site_label
 _atom_site_symmetry_multiplicity
 _atom_site_fract_x
 _atom_site_fract_y
 _atom_site_fract_z
 _atom_site_occupancy
  Pr  Pr0  1  0.973066  0.814488  0.105112  1
  Pr  Pr1  1  0.473917  0.687020  0.396473  1
  Pr  Pr2  1  0.529772  0.324856  0.899302  1
  Pr  Pr3  1  0.018662  0.188656  0.600068  1
  Pr  Pr4  1  0.018662  0.188656  0.899932  1
  Pr  Pr5  1  0.529772  0.324856  0.600698  1
  Pr  Pr6  1  0.473917  0.687020  0.103527  1
  Pr  Pr7  1  0.973066  0.814488  0.394888  1
  Dy  Dy8  1  0.352102  0.006133  0.750000  1
  Dy  Dy9  1  0.684957  0.811098  0.874914  1
  Dy  Dy10  1  0.170132  0.674715  0.625560  1
  Dy  Dy11  1  0.822253  0.316709  0.128189  1
  Dy  Dy12  1  0.324634  0.179243  0.373151  1
  Dy  Dy13  1  0.324634  0.179243  0.126849  1
  Dy  Dy14  1  0.822253  0.316709  0.371811  1
  Dy  Dy15  1  0.170132  0.674715  0.874440  1
  Dy  Dy16  1  0.684957  0.811098  0.625086  1
  Si  Si17  1  0.765679  0.613250  0.250000  1
  Si  Si18  1  0.267533  0.886411  0.250000  1
  Si  Si19  1  0.728107  0.113154  0.750000  1
  Si  Si20  1  0.234036  0.379341  0.750000  1
  Si  Si21  1  0.021752  0.091639  0.250000  1
  Si  Si22  1  0.519880  0.407356  0.250000  1
  Si  Si23  1  0.471483  0.606653  0.750000  1
  Si  Si24  1  0.978077  0.907191  0.750000  1
  Si  Si25  1  0.852727  0.536339  0.970951  1
  Si  Si26  1  0.354609  0.971690  0.539986  1
  Si  Si27  1  0.650550  0.034741  0.032498  1
  Si  Si28  1  0.150754  0.464786  0.463915  1
  Si  Si29  1  0.150754  0.464786  0.036085  1
  Si  Si30  1  0.650550  0.034741  0.467502  1
  Si  Si31  1  0.354609  0.971690  0.960014  1
  Si  Si32  1  0.852727  0.536339  0.529049  1
  Ag  Ag33  1  0.649112  0.983220  0.250000  1
  Ag  Ag34  1  0.149006  0.514647  0.250000  1
  Ag  Ag35  1  0.851169  0.482323  0.750000  1
