# generated using pymatgen
data_BaCaLa8(Si3O13)2
_symmetry_space_group_name_H-M   'P 1'
_cell_length_a   9.79070800
_cell_length_b   9.79070763
_cell_length_c   7.28028800
_cell_angle_alpha   90.00000000
_cell_angle_beta   90.00000000
_cell_angle_gamma   119.99999449
_symmetry_Int_Tables_number   1
_chemical_formula_structural   BaCaLa8(Si3O13)2
_chemical_formula_sum   'Ba1 Ca1 La8 Si6 O26'
_cell_volume   604.37625860
_cell_formula_units_Z   1
loop_
 _symmetry_equiv_pos_site_id
 _symmetry_equiv_pos_as_xyz
  1  'x, y, z'
loop_
 _atom_site_type_symbol
 _atom_site_label
 _atom_site_symmetry_multiplicity
 _atom_site_fract_x
 _atom_site_fract_y
 _atom_site_fract_z
 _atom_site_occupancy
  Ba  Ba0  1  0.333333  0.666667  0.569165  1
  Ca  Ca1  1  0.666667  0.333333  0.060608  1
  La  La2  1  0.241753  0.231969  0.817463  1
  La  La3  1  0.990215  0.758247  0.817463  1
  La  La4  1  0.768031  0.009785  0.817463  1
  La  La5  1  0.757580  0.767480  0.315509  1
  La  La6  1  0.009901  0.242420  0.315509  1
  La  La7  1  0.232520  0.990099  0.315509  1
  La  La8  1  0.666667  0.333333  0.562026  1
  La  La9  1  0.333333  0.666667  0.066835  1
  Si  Si10  1  0.021788  0.395540  0.822893  1
  Si  Si11  1  0.373752  0.978212  0.822893  1
  Si  Si12  1  0.604460  0.626248  0.822893  1
  Si  Si13  1  0.966303  0.598714  0.307854  1
  Si  Si14  1  0.632411  0.033697  0.307854  1
  Si  Si15  1  0.401286  0.367589  0.307854  1
  O  O16  1  0.906430  0.645124  0.499289  1
  O  O17  1  0.738692  0.093570  0.499289  1
  O  O18  1  0.354876  0.261308  0.499289  1
  O  O19  1  0.086662  0.338548  0.999958  1
  O  O20  1  0.251885  0.913338  0.999958  1
  O  O21  1  0.661452  0.748115  0.999958  1
  O  O22  1  0.112541  0.589481  0.835650  1
  O  O23  1  0.476940  0.887459  0.835650  1
  O  O24  1  0.410519  0.523060  0.835650  1
  O  O25  1  0.870706  0.404726  0.299379  1
  O  O26  1  0.534020  0.129294  0.299379  1
  O  O27  1  0.595274  0.465980  0.299379  1
  O  O28  1  0.829452  0.315186  0.818849  1
  O  O29  1  0.485734  0.170548  0.818849  1
  O  O30  1  0.684814  0.514266  0.818849  1
  O  O31  1  0.157975  0.676428  0.299426  1
  O  O32  1  0.518455  0.842025  0.299426  1
  O  O33  1  0.323572  0.481545  0.299426  1
  O  O34  1  0.081231  0.337293  0.640663  1
  O  O35  1  0.256062  0.918769  0.640663  1
  O  O36  1  0.662707  0.743938  0.640663  1
  O  O37  1  0.914556  0.676412  0.139571  1
  O  O38  1  0.761857  0.085444  0.139571  1
  O  O39  1  0.323588  0.238143  0.139571  1
  O  O40  1  0.000000  0.000000  0.822479  1
  O  O41  1  0.000000  0.000000  0.335419  1
