# generated using pymatgen
data_Eu8Er9Lu3Si16
_symmetry_space_group_name_H-M   'P 1'
_cell_length_a   7.45679300
_cell_length_b   7.76496476
_cell_length_c   14.79040600
_cell_angle_alpha   90.00000000
_cell_angle_beta   90.00000000
_cell_angle_gamma   89.97459494
_symmetry_Int_Tables_number   1
_chemical_formula_structural   Eu8Er9Lu3Si16
_chemical_formula_sum   'Eu8 Er9 Lu3 Si16'
_cell_volume   856.39008298
_cell_formula_units_Z   1
loop_
 _symmetry_equiv_pos_site_id
 _symmetry_equiv_pos_as_xyz
  1  'x, y, z'
loop_
 _atom_site_type_symbol
 _atom_site_label
 _atom_site_symmetry_multiplicity
 _atom_site_fract_x
 _atom_site_fract_y
 _atom_site_fract_z
 _atom_site_occupancy
  Eu  Eu0  1  0.017030  0.177042  0.403172  1
  Eu  Eu1  1  0.516549  0.324564  0.404593  1
  Eu  Eu2  1  0.482931  0.675285  0.904660  1
  Eu  Eu3  1  0.482931  0.675285  0.595340  1
  Eu  Eu4  1  0.983566  0.823973  0.595234  1
  Eu  Eu5  1  0.983566  0.823973  0.904766  1
  Eu  Eu6  1  0.516549  0.324564  0.095407  1
  Eu  Eu7  1  0.017030  0.177042  0.096828  1
  Er  Er8  1  0.321402  0.177132  0.622471  1
  Er  Er9  1  0.678625  0.823251  0.377435  1
  Er  Er10  1  0.656983  0.981659  0.750000  1
  Er  Er11  1  0.178353  0.677137  0.377589  1
  Er  Er12  1  0.822036  0.322468  0.877681  1
  Er  Er13  1  0.822036  0.322468  0.622319  1
  Er  Er14  1  0.321402  0.177132  0.877529  1
  Er  Er15  1  0.178353  0.677137  0.122411  1
  Er  Er16  1  0.678625  0.823251  0.122565  1
  Lu  Lu17  1  0.843117  0.484065  0.250000  1
  Lu  Lu18  1  0.344175  0.016359  0.250000  1
  Lu  Lu19  1  0.156393  0.517183  0.750000  1
  Si  Si20  1  0.271008  0.885057  0.750000  1
  Si  Si21  1  0.471065  0.614554  0.250000  1
  Si  Si22  1  0.029922  0.115003  0.750000  1
  Si  Si23  1  0.528901  0.385629  0.750000  1
  Si  Si24  1  0.144546  0.467430  0.540028  1
  Si  Si25  1  0.971327  0.885679  0.250000  1
  Si  Si26  1  0.727211  0.115206  0.250000  1
  Si  Si27  1  0.855221  0.532464  0.040079  1
  Si  Si28  1  0.355077  0.967785  0.040164  1
  Si  Si29  1  0.144546  0.467430  0.959972  1
  Si  Si30  1  0.644284  0.032285  0.539677  1
  Si  Si31  1  0.355077  0.967785  0.459836  1
  Si  Si32  1  0.855221  0.532464  0.459921  1
  Si  Si33  1  0.772567  0.612109  0.750000  1
  Si  Si34  1  0.228085  0.385870  0.250000  1
  Si  Si35  1  0.644284  0.032285  0.960323  1
