# generated using pymatgen
data_Li4Tb8Sc8Si15P
_symmetry_space_group_name_H-M   'P 1'
_cell_length_a   6.91147303
_cell_length_b   7.41106023
_cell_length_c   14.05365800
_cell_angle_alpha   90.00000000
_cell_angle_beta   90.00000000
_cell_angle_gamma   89.89288897
_symmetry_Int_Tables_number   1
_chemical_formula_structural   Li4Tb8Sc8Si15P
_chemical_formula_sum   'Li4 Tb8 Sc8 Si15 P1'
_cell_volume   719.84597722
_cell_formula_units_Z   1
loop_
 _symmetry_equiv_pos_site_id
 _symmetry_equiv_pos_as_xyz
  1  'x, y, z'
loop_
 _atom_site_type_symbol
 _atom_site_label
 _atom_site_symmetry_multiplicity
 _atom_site_fract_x
 _atom_site_fract_y
 _atom_site_fract_z
 _atom_site_occupancy
  Li  Li0  1  0.159078  0.507306  0.750000  1
  Li  Li1  1  0.841442  0.495318  0.250000  1
  Li  Li2  1  0.341461  0.004857  0.250000  1
  Li  Li3  1  0.659385  0.995959  0.750000  1
  Tb  Tb4  1  0.013860  0.181552  0.099535  1
  Tb  Tb5  1  0.985672  0.820038  0.899348  1
  Tb  Tb6  1  0.485729  0.681265  0.900479  1
  Tb  Tb7  1  0.985672  0.820038  0.600652  1
  Tb  Tb8  1  0.513939  0.319232  0.099095  1
  Tb  Tb9  1  0.013860  0.181552  0.400465  1
  Tb  Tb10  1  0.513939  0.319232  0.400905  1
  Tb  Tb11  1  0.485729  0.681265  0.599521  1
  Sc  Sc12  1  0.329160  0.179212  0.627603  1
  Sc  Sc13  1  0.669339  0.819927  0.374026  1
  Sc  Sc14  1  0.169136  0.679762  0.374003  1
  Sc  Sc15  1  0.669339  0.819927  0.125974  1
  Sc  Sc16  1  0.833011  0.318485  0.627576  1
  Sc  Sc17  1  0.329160  0.179212  0.872397  1
  Sc  Sc18  1  0.833011  0.318485  0.872424  1
  Sc  Sc19  1  0.169136  0.679762  0.125997  1
  Si  Si20  1  0.968342  0.894708  0.250000  1
  Si  Si21  1  0.468079  0.605370  0.250000  1
  Si  Si22  1  0.531688  0.394056  0.750000  1
  Si  Si23  1  0.282996  0.882379  0.750000  1
  Si  Si24  1  0.716945  0.116181  0.250000  1
  Si  Si25  1  0.217151  0.383760  0.250000  1
  Si  Si26  1  0.782757  0.614894  0.750000  1
  Si  Si27  1  0.157927  0.462512  0.535341  1
  Si  Si28  1  0.841714  0.536670  0.465691  1
  Si  Si29  1  0.340966  0.963733  0.465669  1
  Si  Si30  1  0.841714  0.536670  0.034309  1
  Si  Si31  1  0.658148  0.037415  0.534959  1
  Si  Si32  1  0.157927  0.462512  0.964659  1
  Si  Si33  1  0.658148  0.037415  0.965041  1
  Si  Si34  1  0.340966  0.963733  0.034331  1
  P  P35  1  0.033471  0.105605  0.750000  1
