# generated using pymatgen
data_TmLu3(Fe2Br)2
_symmetry_space_group_name_H-M   'P 1'
_cell_length_a   3.87252100
_cell_length_b   3.87252163
_cell_length_c   16.17294400
_cell_angle_alpha   90.00000000
_cell_angle_beta   90.00000000
_cell_angle_gamma   120.00000317
_symmetry_Int_Tables_number   1
_chemical_formula_structural   TmLu3(Fe2Br)2
_chemical_formula_sum   'Tm1 Lu3 Fe4 Br2'
_cell_volume   210.04257516
_cell_formula_units_Z   1
loop_
 _symmetry_equiv_pos_site_id
 _symmetry_equiv_pos_as_xyz
  1  'x, y, z'
loop_
 _atom_site_type_symbol
 _atom_site_label
 _atom_site_symmetry_multiplicity
 _atom_site_fract_x
 _atom_site_fract_y
 _atom_site_fract_z
 _atom_site_occupancy
  Tm  Tm0  1  0.000000  0.000000  0.891470  1
  Lu  Lu1  1  0.000000  0.000000  0.107719  1
  Lu  Lu2  1  0.000000  0.000000  0.392463  1
  Lu  Lu3  1  0.000000  0.000000  0.607409  1
  Fe  Fe4  1  0.333333  0.666665  0.007108  1
  Fe  Fe5  1  0.333333  0.666665  0.493516  1
  Fe  Fe6  1  0.666666  0.333333  0.506544  1
  Fe  Fe7  1  0.666666  0.333333  0.993972  1
  Br  Br8  1  0.666666  0.333333  0.250081  1
  Br  Br9  1  0.333333  0.666665  0.749719  1
