# generated using pymatgen
data_CaMn3Ni12Te6(PbO18)2
_symmetry_space_group_name_H-M   'P 1'
_cell_length_a   9.41064300
_cell_length_b   9.41064370
_cell_length_c   8.93088200
_cell_angle_alpha   90.00000000
_cell_angle_beta   90.00000000
_cell_angle_gamma   119.99999403
_symmetry_Int_Tables_number   1
_chemical_formula_structural   CaMn3Ni12Te6(PbO18)2
_chemical_formula_sum   'Ca1 Mn3 Ni12 Te6 Pb2 O36'
_cell_volume   684.95752026
_cell_formula_units_Z   1
loop_
 _symmetry_equiv_pos_site_id
 _symmetry_equiv_pos_as_xyz
  1  'x, y, z'
loop_
 _atom_site_type_symbol
 _atom_site_label
 _atom_site_symmetry_multiplicity
 _atom_site_fract_x
 _atom_site_fract_y
 _atom_site_fract_z
 _atom_site_occupancy
  Ca  Ca0  1  0.666667  0.333333  0.565483  1
  Mn  Mn1  1  0.333333  0.666667  0.438716  1
  Mn  Mn2  1  0.333333  0.666667  0.061449  1
  Mn  Mn3  1  0.666667  0.333333  0.943709  1
  Ni  Ni4  1  0.992523  0.350133  0.588009  1
  Ni  Ni5  1  0.650362  0.640576  0.911510  1
  Ni  Ni6  1  0.357610  0.007477  0.588009  1
  Ni  Ni7  1  0.348493  0.360533  0.410309  1
  Ni  Ni8  1  0.348819  0.359628  0.088782  1
  Ni  Ni9  1  0.639467  0.987959  0.410309  1
  Ni  Ni10  1  0.010809  0.651181  0.088782  1
  Ni  Ni11  1  0.359424  0.009787  0.911510  1
  Ni  Ni12  1  0.649867  0.642390  0.588009  1
  Ni  Ni13  1  0.640372  0.989191  0.088782  1
  Ni  Ni14  1  0.990213  0.349638  0.911510  1
  Ni  Ni15  1  0.012041  0.651507  0.410309  1
  Te  Te16  1  0.360111  0.023324  0.248841  1
  Te  Te17  1  0.976676  0.336787  0.248841  1
  Te  Te18  1  0.336873  0.363161  0.750990  1
  Te  Te19  1  0.026288  0.663127  0.750990  1
  Te  Te20  1  0.636839  0.973712  0.750990  1
  Te  Te21  1  0.663213  0.639889  0.248841  1
  Pb  Pb22  1  0.000000  0.000000  0.999490  1
  Pb  Pb23  1  0.000000  0.000000  0.499368  1
  O  O24  1  0.446031  0.865036  0.248396  1
  O  O25  1  0.392456  0.522735  0.587183  1
  O  O26  1  0.477265  0.869721  0.587183  1
  O  O27  1  0.876681  0.394663  0.409665  1
  O  O28  1  0.201941  0.898741  0.408227  1
  O  O29  1  0.202999  0.899282  0.090167  1
  O  O30  1  0.900138  0.695426  0.908861  1
  O  O31  1  0.185951  0.894076  0.749430  1
  O  O32  1  0.708125  0.814049  0.749430  1
  O  O33  1  0.792190  0.102860  0.591372  1
  O  O34  1  0.517982  0.123319  0.409665  1
  O  O35  1  0.897140  0.689330  0.591372  1
  O  O36  1  0.100718  0.303717  0.090167  1
  O  O37  1  0.310670  0.207810  0.591372  1
  O  O38  1  0.871716  0.393239  0.087232  1
  O  O39  1  0.814030  0.106428  0.249721  1
  O  O40  1  0.605337  0.482018  0.409665  1
  O  O41  1  0.696800  0.798059  0.408227  1
  O  O42  1  0.130279  0.607544  0.587183  1
  O  O43  1  0.419005  0.553969  0.248396  1
  O  O44  1  0.131181  0.608858  0.913913  1
  O  O45  1  0.871978  0.419385  0.754654  1
  O  O46  1  0.134964  0.580995  0.248396  1
  O  O47  1  0.580615  0.452594  0.754654  1
  O  O48  1  0.304574  0.204712  0.908861  1
  O  O49  1  0.795288  0.099862  0.908861  1
  O  O50  1  0.606761  0.478477  0.087232  1
  O  O51  1  0.547406  0.128022  0.754654  1
  O  O52  1  0.521523  0.128284  0.087232  1
  O  O53  1  0.292398  0.185970  0.249721  1
  O  O54  1  0.101259  0.303200  0.408227  1
  O  O55  1  0.105924  0.291875  0.749430  1
  O  O56  1  0.893572  0.707602  0.249721  1
  O  O57  1  0.477678  0.868819  0.913913  1
  O  O58  1  0.391142  0.522322  0.913913  1
  O  O59  1  0.696283  0.797001  0.090167  1
