# generated using pymatgen
data_Al2V3NiC
_symmetry_space_group_name_H-M   'P 1'
_cell_length_a   7.82059753
_cell_length_b   7.82059752
_cell_length_c   7.82059800
_cell_angle_alpha   59.99999796
_cell_angle_beta   59.99999802
_cell_angle_gamma   59.99999862
_symmetry_Int_Tables_number   1
_chemical_formula_structural   Al2V3NiC
_chemical_formula_sum   'Al8 V12 Ni4 C4'
_cell_volume   338.22430982
_cell_formula_units_Z   4
loop_
 _symmetry_equiv_pos_site_id
 _symmetry_equiv_pos_as_xyz
  1  'x, y, z'
loop_
 _atom_site_type_symbol
 _atom_site_label
 _atom_site_symmetry_multiplicity
 _atom_site_fract_x
 _atom_site_fract_y
 _atom_site_fract_z
 _atom_site_occupancy
  Al  Al0  1  0.914049  0.257855  0.914049  1
  Al  Al1  1  0.335951  0.335951  0.992145  1
  Al  Al2  1  0.992145  0.335951  0.335951  1
  Al  Al3  1  0.335951  0.335951  0.335951  1
  Al  Al4  1  0.257855  0.914049  0.914049  1
  Al  Al5  1  0.914049  0.914049  0.914049  1
  Al  Al6  1  0.914049  0.914049  0.257855  1
  Al  Al7  1  0.335951  0.992145  0.335951  1
  V  V8  1  0.932246  0.932246  0.567754  1
  V  V9  1  0.682246  0.317754  0.317754  1
  V  V10  1  0.317754  0.682246  0.682246  1
  V  V11  1  0.682246  0.682246  0.317754  1
  V  V12  1  0.682246  0.317754  0.682246  1
  V  V13  1  0.317754  0.682246  0.317754  1
  V  V14  1  0.567754  0.932246  0.567754  1
  V  V15  1  0.567754  0.932246  0.932246  1
  V  V16  1  0.932246  0.567754  0.567754  1
  V  V17  1  0.932246  0.567754  0.932246  1
  V  V18  1  0.317754  0.317754  0.682246  1
  V  V19  1  0.567754  0.567754  0.932246  1
  Ni  Ni20  1  0.125000  0.625000  0.125000  1
  Ni  Ni21  1  0.125000  0.125000  0.625000  1
  Ni  Ni22  1  0.625000  0.125000  0.125000  1
  Ni  Ni23  1  0.125000  0.125000  0.125000  1
  C  C24  1  0.625000  0.125000  0.625000  1
  C  C25  1  0.625000  0.625000  0.125000  1
  C  C26  1  0.125000  0.625000  0.625000  1
  C  C27  1  0.625000  0.625000  0.625000  1
