# generated using pymatgen
data_PrNd(Co5P3)2
_symmetry_space_group_name_H-M   'P 1'
_cell_length_a   6.00951301
_cell_length_b   6.00951190
_cell_length_c   11.41476700
_cell_angle_alpha   90.00000000
_cell_angle_beta   90.00000000
_cell_angle_gamma   144.88208429
_symmetry_Int_Tables_number   1
_chemical_formula_structural   PrNd(Co5P3)2
_chemical_formula_sum   'Pr1 Nd1 Co10 P6'
_cell_volume   237.14310361
_cell_formula_units_Z   1
loop_
 _symmetry_equiv_pos_site_id
 _symmetry_equiv_pos_as_xyz
  1  'x, y, z'
loop_
 _atom_site_type_symbol
 _atom_site_label
 _atom_site_symmetry_multiplicity
 _atom_site_fract_x
 _atom_site_fract_y
 _atom_site_fract_z
 _atom_site_occupancy
  Pr  Pr0  1  0.661186  0.338814  0.750000  1
  Nd  Nd1  1  0.339574  0.660426  0.250000  1
  Co  Co2  1  0.053853  0.946147  0.142727  1
  Co  Co3  1  0.053853  0.946147  0.357273  1
  Co  Co4  1  0.698424  0.301576  0.430645  1
  Co  Co5  1  0.301657  0.698343  0.568207  1
  Co  Co6  1  0.301657  0.698343  0.931793  1
  Co  Co7  1  0.698424  0.301576  0.069355  1
  Co  Co8  1  0.499997  0.500003  0.499679  1
  Co  Co9  1  0.499997  0.500003  0.000321  1
  Co  Co10  1  0.945641  0.054359  0.642183  1
  Co  Co11  1  0.945641  0.054359  0.857817  1
  P  P12  1  0.609602  0.390398  0.250000  1
  P  P13  1  0.390534  0.609466  0.750000  1
  P  P14  1  0.117027  0.882973  0.537847  1
  P  P15  1  0.882954  0.117046  0.461159  1
  P  P16  1  0.882954  0.117046  0.038841  1
  P  P17  1  0.117027  0.882973  0.962153  1
