# generated using pymatgen
data_Nd2Tc2Ge2C
_symmetry_space_group_name_H-M   'P 1'
_cell_length_a   5.96953085
_cell_length_b   5.96953123
_cell_length_c   7.22625965
_cell_angle_alpha   124.18849370
_cell_angle_beta   124.18849717
_cell_angle_gamma   40.43695851
_symmetry_Int_Tables_number   1
_chemical_formula_structural   Nd2Tc2Ge2C
_chemical_formula_sum   'Nd2 Tc2 Ge2 C1'
_cell_volume   133.76719292
_cell_formula_units_Z   1
loop_
 _symmetry_equiv_pos_site_id
 _symmetry_equiv_pos_as_xyz
  1  'x, y, z'
loop_
 _atom_site_type_symbol
 _atom_site_label
 _atom_site_symmetry_multiplicity
 _atom_site_fract_x
 _atom_site_fract_y
 _atom_site_fract_z
 _atom_site_occupancy
  Nd  Nd0  1  0.567504  0.567504  0.296512  1
  Nd  Nd1  1  0.432495  0.432495  0.703486  1
  Tc  Tc2  1  0.199753  0.199753  0.084069  1
  Tc  Tc3  1  0.800248  0.800248  0.915931  1
  Ge  Ge4  1  0.847874  0.847874  0.304895  1
  Ge  Ge5  1  0.152127  0.152127  0.695105  1
  C  C6  1  0.000000  0.000000  0.000000  1
