# generated using pymatgen
data_LuIn6IrBr12
_symmetry_space_group_name_H-M   'P 1'
_cell_length_a   9.20284181
_cell_length_b   9.20284132
_cell_length_c   9.20284114
_cell_angle_alpha   105.04274842
_cell_angle_beta   105.04275605
_cell_angle_gamma   105.04275259
_symmetry_Int_Tables_number   1
_chemical_formula_structural   LuIn6IrBr12
_chemical_formula_sum   'Lu1 In6 Ir1 Br12'
_cell_volume   680.79186457
_cell_formula_units_Z   1
loop_
 _symmetry_equiv_pos_site_id
 _symmetry_equiv_pos_as_xyz
  1  'x, y, z'
loop_
 _atom_site_type_symbol
 _atom_site_label
 _atom_site_symmetry_multiplicity
 _atom_site_fract_x
 _atom_site_fract_y
 _atom_site_fract_z
 _atom_site_occupancy
  Lu  Lu0  1  0.500000  0.500000  0.500000  1
  In  In1  1  0.047460  0.064485  0.310372  1
  In  In2  1  0.310372  0.047460  0.064485  1
  In  In3  1  0.064485  0.310372  0.047460  1
  In  In4  1  0.952540  0.935515  0.689628  1
  In  In5  1  0.689628  0.952540  0.935515  1
  In  In6  1  0.935515  0.689628  0.952540  1
  Ir  Ir7  1  0.000000  0.000000  0.000000  1
  Br  Br8  1  0.982373  0.559257  0.193328  1
  Br  Br9  1  0.193328  0.982373  0.559257  1
  Br  Br10  1  0.559257  0.193328  0.982373  1
  Br  Br11  1  0.017627  0.440743  0.806672  1
  Br  Br12  1  0.806672  0.017627  0.440743  1
  Br  Br13  1  0.440743  0.806672  0.017627  1
  Br  Br14  1  0.494253  0.189772  0.389788  1
  Br  Br15  1  0.389788  0.494253  0.189772  1
  Br  Br16  1  0.189772  0.389788  0.494253  1
  Br  Br17  1  0.505747  0.810228  0.610212  1
  Br  Br18  1  0.610212  0.505747  0.810228  1
  Br  Br19  1  0.810228  0.610212  0.505747  1
