# generated using pymatgen
data_SrLi12Yb7(VN4)4
_symmetry_space_group_name_H-M   'P 1'
_cell_length_a   8.22867809
_cell_length_b   8.47395973
_cell_length_c   6.62548600
_cell_angle_alpha   90.00000000
_cell_angle_beta   90.00000000
_cell_angle_gamma   89.98439648
_symmetry_Int_Tables_number   1
_chemical_formula_structural   SrLi12Yb7(VN4)4
_chemical_formula_sum   'Sr1 Li12 Yb7 V4 N16'
_cell_volume   461.99172114
_cell_formula_units_Z   1
loop_
 _symmetry_equiv_pos_site_id
 _symmetry_equiv_pos_as_xyz
  1  'x, y, z'
loop_
 _atom_site_type_symbol
 _atom_site_label
 _atom_site_symmetry_multiplicity
 _atom_site_fract_x
 _atom_site_fract_y
 _atom_site_fract_z
 _atom_site_occupancy
  Sr  Sr0  1  0.253223  0.259426  0.500001  1
  Li  Li1  1  0.006692  0.363600  0.241493  1
  Li  Li2  1  0.990386  0.642410  0.245897  1
  Li  Li3  1  0.511944  0.137283  0.250721  1
  Li  Li4  1  0.490879  0.858171  0.253055  1
  Li  Li5  1  0.990386  0.642410  0.754103  1
  Li  Li6  1  0.006692  0.363600  0.758507  1
  Li  Li7  1  0.490879  0.858171  0.746945  1
  Li  Li8  1  0.511944  0.137283  0.749279  1
  Li  Li9  1  0.215538  0.417130  0.000000  1
  Li  Li10  1  0.786803  0.583197  0.000000  1
  Li  Li11  1  0.714846  0.084077  0.500001  1
  Li  Li12  1  0.287486  0.915290  0.500001  1
  Yb  Yb13  1  0.998378  0.997969  0.257163  1
  Yb  Yb14  1  0.501057  0.501613  0.240781  1
  Yb  Yb15  1  0.998378  0.997969  0.742837  1
  Yb  Yb16  1  0.501057  0.501613  0.759219  1
  Yb  Yb17  1  0.245519  0.762785  0.000000  1
  Yb  Yb18  1  0.754234  0.234426  0.000000  1
  Yb  Yb19  1  0.745831  0.734923  0.500001  1
  V  V20  1  0.275844  0.131652  0.000000  1
  V  V21  1  0.723784  0.864951  0.000000  1
  V  V22  1  0.776482  0.366766  0.500001  1
  V  V23  1  0.224098  0.638179  0.500001  1
  N  N24  1  0.294044  0.009314  0.222356  1
  N  N25  1  0.705915  0.985075  0.224849  1
  N  N26  1  0.793950  0.487327  0.273789  1
  N  N27  1  0.205597  0.522192  0.270584  1
  N  N28  1  0.705915  0.985075  0.775151  1
  N  N29  1  0.294044  0.009314  0.777644  1
  N  N30  1  0.205597  0.522192  0.729416  1
  N  N31  1  0.793950  0.487327  0.726211  1
  N  N32  1  0.062958  0.210161  0.000000  1
  N  N33  1  0.937403  0.790554  0.000000  1
  N  N34  1  0.567177  0.288907  0.500001  1
  N  N35  1  0.438935  0.710867  0.500001  1
  N  N36  1  0.442779  0.280884  0.000000  1
  N  N37  1  0.557302  0.716264  0.000000  1
  N  N38  1  0.935828  0.214259  0.500001  1
  N  N39  1  0.056242  0.785393  0.500001  1
