# generated using pymatgen
data_Ac3Zr(AsPt)4
_symmetry_space_group_name_H-M   'P 1'
_cell_length_a   4.40153100
_cell_length_b   4.40153104
_cell_length_c   16.47871700
_cell_angle_alpha   90.00000000
_cell_angle_beta   90.00000000
_cell_angle_gamma   119.99999216
_symmetry_Int_Tables_number   1
_chemical_formula_structural   Ac3Zr(AsPt)4
_chemical_formula_sum   'Ac3 Zr1 As4 Pt4'
_cell_volume   276.47864701
_cell_formula_units_Z   1
loop_
 _symmetry_equiv_pos_site_id
 _symmetry_equiv_pos_as_xyz
  1  'x, y, z'
loop_
 _atom_site_type_symbol
 _atom_site_label
 _atom_site_symmetry_multiplicity
 _atom_site_fract_x
 _atom_site_fract_y
 _atom_site_fract_z
 _atom_site_occupancy
  Ac  Ac0  1  0.000000  0.000000  0.511406  1
  Ac  Ac1  1  0.000000  0.000000  0.988594  1
  Ac  Ac2  1  0.000000  0.000000  0.250000  1
  Zr  Zr3  1  0.000000  0.000000  0.750000  1
  As  As4  1  0.333333  0.666667  0.868906  1
  As  As5  1  0.666667  0.333333  0.121141  1
  As  As6  1  0.666667  0.333333  0.378859  1
  As  As7  1  0.333333  0.666667  0.631094  1
  Pt  Pt8  1  0.333333  0.666667  0.381554  1
  Pt  Pt9  1  0.666667  0.333333  0.663094  1
  Pt  Pt10  1  0.666667  0.333333  0.836906  1
  Pt  Pt11  1  0.333333  0.666667  0.118446  1
