# generated using pymatgen
data_Dy3Ho3ScRhO12
_symmetry_space_group_name_H-M   'P 1'
_cell_length_a   6.55872712
_cell_length_b   6.55872661
_cell_length_c   6.55872733
_cell_angle_alpha   93.62227664
_cell_angle_beta   93.62227224
_cell_angle_gamma   93.62227251
_symmetry_Int_Tables_number   1
_chemical_formula_structural   Dy3Ho3ScRhO12
_chemical_formula_sum   'Dy3 Ho3 Sc1 Rh1 O12'
_cell_volume   280.37020122
_cell_formula_units_Z   1
loop_
 _symmetry_equiv_pos_site_id
 _symmetry_equiv_pos_as_xyz
  1  'x, y, z'
loop_
 _atom_site_type_symbol
 _atom_site_label
 _atom_site_symmetry_multiplicity
 _atom_site_fract_x
 _atom_site_fract_y
 _atom_site_fract_z
 _atom_site_occupancy
  Dy  Dy0  1  0.741542  0.920932  0.431781  1
  Dy  Dy1  1  0.920932  0.431781  0.741542  1
  Dy  Dy2  1  0.431781  0.741542  0.920932  1
  Ho  Ho3  1  0.258803  0.079119  0.567878  1
  Ho  Ho4  1  0.079119  0.567878  0.258803  1
  Ho  Ho5  1  0.567878  0.258803  0.079119  1
  Sc  Sc6  1  0.000754  0.000754  0.000754  1
  Rh  Rh7  1  0.499890  0.499890  0.499890  1
  O  O8  1  0.588101  0.457392  0.805790  1
  O  O9  1  0.457392  0.805790  0.588101  1
  O  O10  1  0.805790  0.588101  0.457392  1
  O  O11  1  0.410533  0.539807  0.194756  1
  O  O12  1  0.539807  0.194756  0.410533  1
  O  O13  1  0.194756  0.410533  0.539807  1
  O  O14  1  0.069773  0.916737  0.308995  1
  O  O15  1  0.916737  0.308995  0.069773  1
  O  O16  1  0.691819  0.933315  0.082284  1
  O  O17  1  0.082284  0.691819  0.933315  1
  O  O18  1  0.933315  0.082284  0.691819  1
  O  O19  1  0.308995  0.069773  0.916737  1
