# generated using pymatgen
data_Ba4VRe(GeN4)2
_symmetry_space_group_name_H-M   'P 1'
_cell_length_a   5.88394700
_cell_length_b   6.97773769
_cell_length_c   8.61092315
_cell_angle_alpha   59.22760127
_cell_angle_beta   90.00000000
_cell_angle_gamma   90.00000000
_symmetry_Int_Tables_number   1
_chemical_formula_structural   Ba4VRe(GeN4)2
_chemical_formula_sum   'Ba4 V1 Re1 Ge2 N8'
_cell_volume   303.76003966
_cell_formula_units_Z   1
loop_
 _symmetry_equiv_pos_site_id
 _symmetry_equiv_pos_as_xyz
  1  'x, y, z'
loop_
 _atom_site_type_symbol
 _atom_site_label
 _atom_site_symmetry_multiplicity
 _atom_site_fract_x
 _atom_site_fract_y
 _atom_site_fract_z
 _atom_site_occupancy
  Ba  Ba0  1  0.250000  0.224798  0.089611  1
  Ba  Ba1  1  0.750000  0.774291  0.920850  1
  Ba  Ba2  1  0.750000  0.748551  0.368714  1
  Ba  Ba3  1  0.250000  0.235764  0.622266  1
  V  V4  1  0.250000  0.657724  0.203963  1
  Re  Re5  1  0.750000  0.345859  0.804339  1
  Ge  Ge6  1  0.750000  0.281041  0.333169  1
  Ge  Ge7  1  0.250000  0.740911  0.603764  1
  N  N8  1  0.489124  0.518325  0.750933  1
  N  N9  1  0.991973  0.485056  0.242216  1
  N  N10  1  0.508027  0.485056  0.242216  1
  N  N11  1  0.010876  0.518325  0.750933  1
  N  N12  1  0.750000  0.217424  0.666559  1
  N  N13  1  0.250000  0.749699  0.374047  1
  N  N14  1  0.750000  0.130890  0.039696  1
  N  N15  1  0.250000  0.886285  0.986724  1
