# generated using pymatgen
data_LuZr2Fe9
_symmetry_space_group_name_H-M   'P 1'
_cell_length_a   8.45748019
_cell_length_b   8.45747997
_cell_length_c   8.45748061
_cell_angle_alpha   34.16160366
_cell_angle_beta   34.16160572
_cell_angle_gamma   34.16160703
_symmetry_Int_Tables_number   1
_chemical_formula_structural   LuZr2Fe9
_chemical_formula_sum   'Lu1 Zr2 Fe9'
_cell_volume   170.07694306
_cell_formula_units_Z   1
loop_
 _symmetry_equiv_pos_site_id
 _symmetry_equiv_pos_as_xyz
  1  'x, y, z'
loop_
 _atom_site_type_symbol
 _atom_site_label
 _atom_site_symmetry_multiplicity
 _atom_site_fract_x
 _atom_site_fract_y
 _atom_site_fract_z
 _atom_site_occupancy
  Lu  Lu0  1  0.000000  0.000000  0.000000  1
  Zr  Zr1  1  0.142179  0.142179  0.142179  1
  Zr  Zr2  1  0.857821  0.857821  0.857821  1
  Fe  Fe3  1  0.584800  0.584800  0.081708  1
  Fe  Fe4  1  0.332926  0.332926  0.332926  1
  Fe  Fe5  1  0.918293  0.415199  0.415200  1
  Fe  Fe6  1  0.415199  0.918293  0.415200  1
  Fe  Fe7  1  0.500000  0.500000  0.500000  1
  Fe  Fe8  1  0.584801  0.081707  0.584800  1
  Fe  Fe9  1  0.081707  0.584801  0.584800  1
  Fe  Fe10  1  0.667074  0.667074  0.667074  1
  Fe  Fe11  1  0.415200  0.415200  0.918292  1
