# generated using pymatgen
data_Hf7Zr11Ta2(ReO)6
_symmetry_space_group_name_H-M   'P 1'
_cell_length_a   8.62907763
_cell_length_b   8.62907873
_cell_length_c   8.52234329
_cell_angle_alpha   89.91282247
_cell_angle_beta   90.08717576
_cell_angle_gamma   120.05879831
_symmetry_Int_Tables_number   1
_chemical_formula_structural   Hf7Zr11Ta2(ReO)6
_chemical_formula_sum   'Hf7 Zr11 Ta2 Re6 O6'
_cell_volume   549.23748859
_cell_formula_units_Z   1
loop_
 _symmetry_equiv_pos_site_id
 _symmetry_equiv_pos_as_xyz
  1  'x, y, z'
loop_
 _atom_site_type_symbol
 _atom_site_label
 _atom_site_symmetry_multiplicity
 _atom_site_fract_x
 _atom_site_fract_y
 _atom_site_fract_z
 _atom_site_occupancy
  Hf  Hf0  1  0.452879  0.906337  0.249893  1
  Hf  Hf1  1  0.546422  0.093001  0.750127  1
  Hf  Hf2  1  0.093663  0.547121  0.249893  1
  Hf  Hf3  1  0.906999  0.453578  0.750127  1
  Hf  Hf4  1  0.453474  0.546526  0.250045  1
  Hf  Hf5  1  0.546575  0.453425  0.750013  1
  Hf  Hf6  1  0.202312  0.797688  0.937959  1
  Zr  Zr7  1  0.203562  0.406927  0.563317  1
  Zr  Zr8  1  0.796440  0.592668  0.436599  1
  Zr  Zr9  1  0.593073  0.796438  0.563317  1
  Zr  Zr10  1  0.796186  0.592491  0.063651  1
  Zr  Zr11  1  0.407332  0.203560  0.436599  1
  Zr  Zr12  1  0.203928  0.408003  0.936451  1
  Zr  Zr13  1  0.203946  0.796054  0.564485  1
  Zr  Zr14  1  0.407509  0.203814  0.063651  1
  Zr  Zr15  1  0.796200  0.203800  0.436511  1
  Zr  Zr16  1  0.591997  0.796072  0.936451  1
  Zr  Zr17  1  0.796182  0.203818  0.063542  1
  Ta  Ta18  1  0.000153  0.999847  0.000018  1
  Ta  Ta19  1  0.000133  0.999867  0.499787  1
  Re  Re20  1  0.111787  0.223836  0.249805  1
  Re  Re21  1  0.889183  0.775964  0.750367  1
  Re  Re22  1  0.776164  0.888213  0.249805  1
  Re  Re23  1  0.224036  0.110817  0.750367  1
  Re  Re24  1  0.112206  0.887794  0.248946  1
  Re  Re25  1  0.888270  0.111730  0.750007  1
  O  O26  1  0.496988  0.997764  0.999234  1
  O  O27  1  0.002236  0.503012  0.999234  1
  O  O28  1  0.499998  0.999909  0.499946  1
  O  O29  1  0.500019  0.499981  0.999934  1
  O  O30  1  0.000091  0.500002  0.499946  1
  O  O31  1  0.500053  0.499947  0.499976  1
