# generated using pymatgen
data_Ce2Lu3CoRu
_symmetry_space_group_name_H-M   'P 1'
_cell_length_a   6.26484448
_cell_length_b   6.83252767
_cell_length_c   8.60336437
_cell_angle_alpha   95.35059591
_cell_angle_beta   111.25427156
_cell_angle_gamma   90.34947640
_symmetry_Int_Tables_number   1
_chemical_formula_structural   Ce2Lu3CoRu
_chemical_formula_sum   'Ce4 Lu6 Co2 Ru2'
_cell_volume   341.40399414
_cell_formula_units_Z   2
loop_
 _symmetry_equiv_pos_site_id
 _symmetry_equiv_pos_as_xyz
  1  'x, y, z'
loop_
 _atom_site_type_symbol
 _atom_site_label
 _atom_site_symmetry_multiplicity
 _atom_site_fract_x
 _atom_site_fract_y
 _atom_site_fract_z
 _atom_site_occupancy
  Ce  Ce0  1  0.526837  0.102466  0.808028  1
  Ce  Ce1  1  0.473163  0.897534  0.191972  1
  Ce  Ce2  1  0.705636  0.411231  0.191545  1
  Ce  Ce3  1  0.294364  0.588769  0.808455  1
  Lu  Lu4  1  0.293354  0.319614  0.429906  1
  Lu  Lu5  1  0.706646  0.680386  0.570094  1
  Lu  Lu6  1  0.857800  0.187493  0.566124  1
  Lu  Lu7  1  0.142200  0.812507  0.433876  1
  Lu  Lu8  1  0.082421  0.255627  0.000896  1
  Lu  Lu9  1  0.917579  0.744373  0.999104  1
  Co  Co10  1  0.340741  0.596544  0.224268  1
  Co  Co11  1  0.659259  0.403456  0.775732  1
  Ru  Ru12  1  0.121638  0.910782  0.779223  1
  Ru  Ru13  1  0.878362  0.089218  0.220777  1
