# generated using pymatgen
data_Pr7ThZn8Ir7Rh
_symmetry_space_group_name_H-M   'P 1'
_cell_length_a   4.05740100
_cell_length_b   7.34978532
_cell_length_c   16.72251004
_cell_angle_alpha   89.72539696
_cell_angle_beta   90.00000000
_cell_angle_gamma   90.00000000
_symmetry_Int_Tables_number   1
_chemical_formula_structural   Pr7ThZn8Ir7Rh
_chemical_formula_sum   'Pr7 Th1 Zn8 Ir7 Rh1'
_cell_volume   498.67668429
_cell_formula_units_Z   1
loop_
 _symmetry_equiv_pos_site_id
 _symmetry_equiv_pos_as_xyz
  1  'x, y, z'
loop_
 _atom_site_type_symbol
 _atom_site_label
 _atom_site_symmetry_multiplicity
 _atom_site_fract_x
 _atom_site_fract_y
 _atom_site_fract_z
 _atom_site_occupancy
  Pr  Pr0  1  0.750000  0.950396  0.283010  1
  Pr  Pr1  1  0.750000  0.830272  0.059619  1
  Pr  Pr2  1  0.250000  0.048072  0.716489  1
  Pr  Pr3  1  0.250000  0.167312  0.939355  1
  Pr  Pr4  1  0.250000  0.547208  0.783615  1
  Pr  Pr5  1  0.750000  0.333238  0.440657  1
  Pr  Pr6  1  0.250000  0.669657  0.561975  1
  Th  Th7  1  0.750000  0.449148  0.216550  1
  Zn  Zn8  1  0.250000  0.002465  0.440204  1
  Zn  Zn9  1  0.750000  0.500761  0.940089  1
  Zn  Zn10  1  0.750000  0.003929  0.560522  1
  Zn  Zn11  1  0.250000  0.626685  0.351070  1
  Zn  Zn12  1  0.750000  0.377235  0.650634  1
  Zn  Zn13  1  0.750000  0.877380  0.849741  1
  Zn  Zn14  1  0.250000  0.497522  0.057963  1
  Zn  Zn15  1  0.250000  0.120487  0.150397  1
  Ir  Ir16  1  0.250000  0.245827  0.565216  1
  Ir  Ir17  1  0.750000  0.258685  0.068553  1
  Ir  Ir18  1  0.250000  0.251540  0.306895  1
  Ir  Ir19  1  0.750000  0.255028  0.814093  1
  Ir  Ir20  1  0.250000  0.744372  0.934340  1
  Ir  Ir21  1  0.750000  0.755909  0.686123  1
  Ir  Ir22  1  0.250000  0.723778  0.188221  1
  Rh  Rh23  1  0.750000  0.763098  0.434672  1
