# generated using pymatgen
data_HoZr8In14Fe2Co5
_symmetry_space_group_name_H-M   'P 1'
_cell_length_a   9.46657521
_cell_length_b   9.46657506
_cell_length_c   9.45032379
_cell_angle_alpha   60.21636923
_cell_angle_beta   60.21637021
_cell_angle_gamma   60.23268028
_symmetry_Int_Tables_number   1
_chemical_formula_structural   HoZr8In14Fe2Co5
_chemical_formula_sum   'Ho1 Zr8 In14 Fe2 Co5'
_cell_volume   601.85647204
_cell_formula_units_Z   1
loop_
 _symmetry_equiv_pos_site_id
 _symmetry_equiv_pos_as_xyz
  1  'x, y, z'
loop_
 _atom_site_type_symbol
 _atom_site_label
 _atom_site_symmetry_multiplicity
 _atom_site_fract_x
 _atom_site_fract_y
 _atom_site_fract_z
 _atom_site_occupancy
  Ho  Ho0  1  0.500885  0.500885  0.499367  1
  Zr  Zr1  1  0.117486  0.638575  0.122281  1
  Zr  Zr2  1  0.361486  0.878459  0.879531  1
  Zr  Zr3  1  0.877493  0.877493  0.882289  1
  Zr  Zr4  1  0.638575  0.117486  0.122281  1
  Zr  Zr5  1  0.877880  0.877880  0.361479  1
  Zr  Zr6  1  0.120704  0.120704  0.121884  1
  Zr  Zr7  1  0.878459  0.361486  0.879531  1
  Zr  Zr8  1  0.120489  0.120489  0.638142  1
  In  In9  1  0.500428  0.843514  0.155886  1
  In  In10  1  0.501024  0.843289  0.500774  1
  In  In11  1  0.499116  0.156992  0.499004  1
  In  In12  1  0.499776  0.499776  0.845008  1
  In  In13  1  0.156992  0.499116  0.499004  1
  In  In14  1  0.844231  0.155085  0.500423  1
  In  In15  1  0.155085  0.844231  0.500423  1
  In  In16  1  0.499631  0.156635  0.844226  1
  In  In17  1  0.156635  0.499631  0.844226  1
  In  In18  1  0.499413  0.499413  0.156247  1
  In  In19  1  0.843289  0.501024  0.500774  1
  In  In20  1  0.843514  0.500428  0.155886  1
  In  In21  1  0.250994  0.250994  0.249562  1
  In  In22  1  0.749530  0.749530  0.749678  1
  Fe  Fe23  1  0.781765  0.781765  0.217414  1
  Fe  Fe24  1  0.002353  0.002353  0.997272  1
  Co  Co25  1  0.220759  0.781078  0.219293  1
  Co  Co26  1  0.220691  0.780637  0.778792  1
  Co  Co27  1  0.219601  0.219601  0.781237  1
  Co  Co28  1  0.780637  0.220691  0.778792  1
  Co  Co29  1  0.781078  0.220759  0.219293  1
