# generated using pymatgen
data_Yb2U4TaTiSb10
_symmetry_space_group_name_H-M   'P 1'
_cell_length_a   9.25167236
_cell_length_b   9.21077716
_cell_length_c   6.13736461
_cell_angle_alpha   89.95859294
_cell_angle_beta   90.08244188
_cell_angle_gamma   120.14698790
_symmetry_Int_Tables_number   1
_chemical_formula_structural   Yb2U4TaTiSb10
_chemical_formula_sum   'Yb2 U4 Ta1 Ti1 Sb10'
_cell_volume   452.25509131
_cell_formula_units_Z   1
loop_
 _symmetry_equiv_pos_site_id
 _symmetry_equiv_pos_as_xyz
  1  'x, y, z'
loop_
 _atom_site_type_symbol
 _atom_site_label
 _atom_site_symmetry_multiplicity
 _atom_site_fract_x
 _atom_site_fract_y
 _atom_site_fract_z
 _atom_site_occupancy
  Yb  Yb0  1  0.614211  0.000000  0.750579  1
  Yb  Yb1  1  0.385789  0.000000  0.249421  1
  U  U2  1  0.007696  0.617125  0.750762  1
  U  U3  1  0.992304  0.382875  0.249238  1
  U  U4  1  0.390572  0.382875  0.750762  1
  U  U5  1  0.609428  0.617125  0.249238  1
  Ta  Ta6  1  0.000000  0.000000  0.000000  1
  Ti  Ti7  1  0.000000  0.000000  0.500000  1
  Sb  Sb8  1  0.258509  0.000000  0.748243  1
  Sb  Sb9  1  0.741491  0.000000  0.251757  1
  Sb  Sb10  1  0.004369  0.265847  0.748122  1
  Sb  Sb11  1  0.995631  0.734153  0.251878  1
  Sb  Sb12  1  0.738522  0.734153  0.748122  1
  Sb  Sb13  1  0.261478  0.265847  0.251878  1
  Sb  Sb14  1  0.327910  0.655822  0.500000  1
  Sb  Sb15  1  0.672090  0.344178  0.500000  1
  Sb  Sb16  1  0.672173  0.344344  0.000000  1
  Sb  Sb17  1  0.327827  0.655656  0.000000  1
