# generated using pymatgen
data_Ti12AsSe3
_symmetry_space_group_name_H-M   'P 1'
_cell_length_a   10.10718702
_cell_length_b   10.12579302
_cell_length_c   5.12129100
_cell_angle_alpha   90.00000000
_cell_angle_beta   90.00000000
_cell_angle_gamma   89.99347557
_symmetry_Int_Tables_number   1
_chemical_formula_structural   Ti12AsSe3
_chemical_formula_sum   'Ti24 As2 Se6'
_cell_volume   524.12973436
_cell_formula_units_Z   2
loop_
 _symmetry_equiv_pos_site_id
 _symmetry_equiv_pos_as_xyz
  1  'x, y, z'
loop_
 _atom_site_type_symbol
 _atom_site_label
 _atom_site_symmetry_multiplicity
 _atom_site_fract_x
 _atom_site_fract_y
 _atom_site_fract_z
 _atom_site_occupancy
  Ti  Ti0  1  0.897178  0.583915  0.036891  1
  Ti  Ti1  1  0.102822  0.416085  0.036891  1
  Ti  Ti2  1  0.916993  0.396346  0.543986  1
  Ti  Ti3  1  0.083007  0.603654  0.543986  1
  Ti  Ti4  1  0.602999  0.916938  0.460094  1
  Ti  Ti5  1  0.397001  0.083062  0.460094  1
  Ti  Ti6  1  0.583449  0.102705  0.959660  1
  Ti  Ti7  1  0.416551  0.897295  0.959660  1
  Ti  Ti8  1  0.856267  0.027570  0.713549  1
  Ti  Ti9  1  0.143733  0.972430  0.713549  1
  Ti  Ti10  1  0.472804  0.357192  0.213112  1
  Ti  Ti11  1  0.527196  0.642808  0.213112  1
  Ti  Ti12  1  0.642811  0.473002  0.786472  1
  Ti  Ti13  1  0.357189  0.526998  0.786472  1
  Ti  Ti14  1  0.027567  0.143585  0.287095  1
  Ti  Ti15  1  0.972433  0.856415  0.287095  1
  Ti  Ti16  1  0.284645  0.182565  0.989137  1
  Ti  Ti17  1  0.715355  0.817435  0.989137  1
  Ti  Ti18  1  0.317513  0.784173  0.489518  1
  Ti  Ti19  1  0.682487  0.215827  0.489518  1
  Ti  Ti20  1  0.215464  0.317543  0.510411  1
  Ti  Ti21  1  0.784536  0.682457  0.510411  1
  Ti  Ti22  1  0.183192  0.715717  0.010193  1
  Ti  Ti23  1  0.816808  0.284283  0.010193  1
  As  As24  1  0.039184  0.204804  0.788560  1
  As  As25  1  0.960816  0.795196  0.788560  1
  Se  Se26  1  0.793494  0.039305  0.211798  1
  Se  Se27  1  0.206506  0.960695  0.211798  1
  Se  Se28  1  0.461034  0.293495  0.711771  1
  Se  Se29  1  0.538966  0.706505  0.711771  1
  Se  Se30  1  0.706891  0.461130  0.287753  1
  Se  Se31  1  0.293109  0.538870  0.287753  1
