# generated using pymatgen
data_Zr4InSe8
_symmetry_space_group_name_H-M   'P 1'
_cell_length_a   7.58222645
_cell_length_b   7.58222597
_cell_length_c   10.49272828
_cell_angle_alpha   57.74314824
_cell_angle_beta   57.74314966
_cell_angle_gamma   59.96300570
_symmetry_Int_Tables_number   1
_chemical_formula_structural   Zr4InSe8
_chemical_formula_sum   'Zr4 In1 Se8'
_cell_volume   411.30578900
_cell_formula_units_Z   1
loop_
 _symmetry_equiv_pos_site_id
 _symmetry_equiv_pos_as_xyz
  1  'x, y, z'
loop_
 _atom_site_type_symbol
 _atom_site_label
 _atom_site_symmetry_multiplicity
 _atom_site_fract_x
 _atom_site_fract_y
 _atom_site_fract_z
 _atom_site_occupancy
  Zr  Zr0  1  0.753225  0.246775  0.000000  1
  Zr  Zr1  1  0.246775  0.753225  0.000000  1
  Zr  Zr2  1  0.246205  0.246205  0.005376  1
  Zr  Zr3  1  0.753795  0.753795  0.994624  1
  In  In4  1  0.500000  0.500000  0.500000  1
  Se  Se5  1  0.984228  0.489334  0.196807  1
  Se  Se6  1  0.489334  0.984228  0.196807  1
  Se  Se7  1  0.489643  0.489643  0.191674  1
  Se  Se8  1  0.986298  0.986298  0.197144  1
  Se  Se9  1  0.013702  0.013702  0.802856  1
  Se  Se10  1  0.510357  0.510357  0.808326  1
  Se  Se11  1  0.510666  0.015772  0.803193  1
  Se  Se12  1  0.015772  0.510666  0.803193  1
