# generated using pymatgen
data_Hf5Zr5Sn6Ge
_symmetry_space_group_name_H-M   'P 1'
_cell_length_a   5.87684652
_cell_length_b   8.58138301
_cell_length_c   8.58102860
_cell_angle_alpha   120.00138099
_cell_angle_beta   89.92764622
_cell_angle_gamma   90.14471445
_symmetry_Int_Tables_number   1
_chemical_formula_structural   Hf5Zr5Sn6Ge
_chemical_formula_sum   'Hf5 Zr5 Sn6 Ge1'
_cell_volume   374.76945496
_cell_formula_units_Z   1
loop_
 _symmetry_equiv_pos_site_id
 _symmetry_equiv_pos_as_xyz
  1  'x, y, z'
loop_
 _atom_site_type_symbol
 _atom_site_label
 _atom_site_symmetry_multiplicity
 _atom_site_fract_x
 _atom_site_fract_y
 _atom_site_fract_z
 _atom_site_occupancy
  Hf  Hf0  1  0.499881  0.333391  0.666794  1
  Hf  Hf1  1  0.499881  0.666598  0.333206  1
  Hf  Hf2  1  0.999662  0.666281  0.333208  1
  Hf  Hf3  1  0.999662  0.333073  0.666792  1
  Hf  Hf4  1  0.760821  0.257228  0.000000  1
  Zr  Zr5  1  0.761509  0.743094  0.743645  1
  Zr  Zr6  1  0.761509  0.999447  0.256355  1
  Zr  Zr7  1  0.240252  0.743238  0.000000  1
  Zr  Zr8  1  0.238073  0.256619  0.255654  1
  Zr  Zr9  1  0.238073  0.000966  0.744346  1
  Sn  Sn10  1  0.747289  0.606764  0.000000  1
  Sn  Sn11  1  0.746470  0.391441  0.391149  1
  Sn  Sn12  1  0.746470  0.000293  0.608851  1
  Sn  Sn13  1  0.252832  0.392502  0.000000  1
  Sn  Sn14  1  0.253171  0.608218  0.608166  1
  Sn  Sn15  1  0.253171  0.000052  0.391834  1
  Ge  Ge16  1  0.501274  0.000793  0.000000  1
