# generated using pymatgen
data_ZnP6RhO18
_symmetry_space_group_name_H-M   'P 1'
_cell_length_a   5.14208892
_cell_length_b   6.99950854
_cell_length_c   10.50671863
_cell_angle_alpha   98.81453673
_cell_angle_beta   92.98858383
_cell_angle_gamma   93.94893167
_symmetry_Int_Tables_number   1
_chemical_formula_structural   ZnP6RhO18
_chemical_formula_sum   'Zn1 P6 Rh1 O18'
_cell_volume   372.05085451
_cell_formula_units_Z   1
loop_
 _symmetry_equiv_pos_site_id
 _symmetry_equiv_pos_as_xyz
  1  'x, y, z'
loop_
 _atom_site_type_symbol
 _atom_site_label
 _atom_site_symmetry_multiplicity
 _atom_site_fract_x
 _atom_site_fract_y
 _atom_site_fract_z
 _atom_site_occupancy
  Zn  Zn0  1  0.500005  0.500003  0.499996  1
  P  P1  1  0.022797  0.970567  0.181974  1
  P  P2  1  0.742060  0.320448  0.226623  1
  P  P3  1  0.004084  0.678968  0.361809  1
  P  P4  1  0.995910  0.321062  0.638202  1
  P  P5  1  0.257882  0.679559  0.773361  1
  P  P6  1  0.977231  0.029470  0.818030  1
  Rh  Rh7  1  0.500017  0.999910  0.999973  1
  O  O8  1  0.601295  0.268312  0.090125  1
  O  O9  1  0.821540  0.886892  0.072621  1
  O  O10  1  0.305560  0.937420  0.151676  1
  O  O11  1  0.997541  0.195604  0.224729  1
  O  O12  1  0.873673  0.532222  0.231092  1
  O  O13  1  0.584275  0.293855  0.337806  1
  O  O14  1  0.970191  0.884227  0.308810  1
  O  O15  1  0.287211  0.648244  0.375391  1
  O  O16  1  0.830929  0.675045  0.470703  1
  O  O17  1  0.169084  0.324998  0.529318  1
  O  O18  1  0.712770  0.351782  0.624633  1
  O  O19  1  0.029832  0.115801  0.691191  1
  O  O20  1  0.415718  0.706180  0.662208  1
  O  O21  1  0.126272  0.467780  0.768911  1
  O  O22  1  0.002434  0.804422  0.775291  1
  O  O23  1  0.694464  0.062562  0.848290  1
  O  O24  1  0.178531  0.113075  0.927384  1
  O  O25  1  0.398701  0.731589  0.909852  1
