# generated using pymatgen
data_Ho10PPb6Cl
_symmetry_space_group_name_H-M   'P 1'
_cell_length_a   9.12992700
_cell_length_b   9.12992613
_cell_length_c   6.70456000
_cell_angle_alpha   90.00000000
_cell_angle_beta   90.00000000
_cell_angle_gamma   119.99999953
_symmetry_Int_Tables_number   1
_chemical_formula_structural   Ho10PPb6Cl
_chemical_formula_sum   'Ho10 P1 Pb6 Cl1'
_cell_volume   483.98899214
_cell_formula_units_Z   1
loop_
 _symmetry_equiv_pos_site_id
 _symmetry_equiv_pos_as_xyz
  1  'x, y, z'
loop_
 _atom_site_type_symbol
 _atom_site_label
 _atom_site_symmetry_multiplicity
 _atom_site_fract_x
 _atom_site_fract_y
 _atom_site_fract_z
 _atom_site_occupancy
  Ho  Ho0  1  0.247007  0.000000  0.737590  1
  Ho  Ho1  1  0.752993  0.000000  0.262410  1
  Ho  Ho2  1  0.000000  0.247007  0.737590  1
  Ho  Ho3  1  0.000000  0.752993  0.262410  1
  Ho  Ho4  1  0.752993  0.752993  0.737590  1
  Ho  Ho5  1  0.247007  0.247007  0.262410  1
  Ho  Ho6  1  0.333333  0.666667  0.500000  1
  Ho  Ho7  1  0.666667  0.333333  0.500000  1
  Ho  Ho8  1  0.666667  0.333333  0.000000  1
  Ho  Ho9  1  0.333333  0.666667  0.000000  1
  P  P10  1  0.000000  0.000000  0.500000  1
  Pb  Pb11  1  0.604791  0.000000  0.750101  1
  Pb  Pb12  1  0.395209  0.000000  0.249899  1
  Pb  Pb13  1  0.000000  0.604791  0.750101  1
  Pb  Pb14  1  0.000000  0.395209  0.249899  1
  Pb  Pb15  1  0.395209  0.395209  0.750101  1
  Pb  Pb16  1  0.604791  0.604791  0.249899  1
  Cl  Cl17  1  0.000000  0.000000  0.000000  1
