# generated using pymatgen
data_HoLu3(WO6)2
_symmetry_space_group_name_H-M   'P 1'
_cell_length_a   5.31840000
_cell_length_b   7.59123471
_cell_length_c   11.32625550
_cell_angle_alpha   75.17617218
_cell_angle_beta   90.00000000
_cell_angle_gamma   90.00000000
_symmetry_Int_Tables_number   1
_chemical_formula_structural   HoLu3(WO6)2
_chemical_formula_sum   'Ho2 Lu6 W4 O24'
_cell_volume   442.05790366
_cell_formula_units_Z   2
loop_
 _symmetry_equiv_pos_site_id
 _symmetry_equiv_pos_as_xyz
  1  'x, y, z'
loop_
 _atom_site_type_symbol
 _atom_site_label
 _atom_site_symmetry_multiplicity
 _atom_site_fract_x
 _atom_site_fract_y
 _atom_site_fract_z
 _atom_site_occupancy
  Ho  Ho0  1  0.684697  0.500000  0.750000  1
  Ho  Ho1  1  0.315303  0.500000  0.250000  1
  Lu  Lu2  1  0.738266  0.000000  0.750000  1
  Lu  Lu3  1  0.261734  0.000000  0.250000  1
  Lu  Lu4  1  0.187234  0.798105  0.578526  1
  Lu  Lu5  1  0.812766  0.798105  0.078526  1
  Lu  Lu6  1  0.187234  0.201895  0.921474  1
  Lu  Lu7  1  0.812766  0.201895  0.421474  1
  W  W8  1  0.253929  0.723201  0.886443  1
  W  W9  1  0.746071  0.723201  0.386443  1
  W  W10  1  0.253929  0.276799  0.613557  1
  W  W11  1  0.746071  0.276799  0.113557  1
  O  O12  1  0.035879  0.942000  0.895412  1
  O  O13  1  0.532774  0.851581  0.931307  1
  O  O14  1  0.964121  0.942000  0.395412  1
  O  O15  1  0.462435  0.791434  0.726292  1
  O  O16  1  0.467226  0.851581  0.431307  1
  O  O17  1  0.982800  0.712345  0.769274  1
  O  O18  1  0.537565  0.791434  0.226292  1
  O  O19  1  0.857159  0.635162  0.550429  1
  O  O20  1  0.360645  0.485729  0.888457  1
  O  O21  1  0.017200  0.712345  0.269274  1
  O  O22  1  0.360645  0.514271  0.611543  1
  O  O23  1  0.857159  0.364838  0.949571  1
  O  O24  1  0.142841  0.635162  0.050429  1
  O  O25  1  0.639355  0.485729  0.388457  1
  O  O26  1  0.982800  0.287655  0.730726  1
  O  O27  1  0.639355  0.514271  0.111543  1
  O  O28  1  0.142841  0.364838  0.449571  1
  O  O29  1  0.462435  0.208566  0.773708  1
  O  O30  1  0.017200  0.287655  0.230726  1
  O  O31  1  0.532774  0.148419  0.568693  1
  O  O32  1  0.537565  0.208566  0.273708  1
  O  O33  1  0.035879  0.058000  0.604588  1
  O  O34  1  0.467226  0.148419  0.068693  1
  O  O35  1  0.964121  0.058000  0.104588  1
