# generated using pymatgen
data_TbTm5Al24Os7Au
_symmetry_space_group_name_H-M   'P 1'
_cell_length_a   8.84262875
_cell_length_b   8.83304011
_cell_length_c   9.53295577
_cell_angle_alpha   89.77284910
_cell_angle_beta   90.19543328
_cell_angle_gamma   119.98783350
_symmetry_Int_Tables_number   1
_chemical_formula_structural   TbTm5Al24Os7Au
_chemical_formula_sum   'Tb1 Tm5 Al24 Os7 Au1'
_cell_volume   644.90987971
_cell_formula_units_Z   1
loop_
 _symmetry_equiv_pos_site_id
 _symmetry_equiv_pos_as_xyz
  1  'x, y, z'
loop_
 _atom_site_type_symbol
 _atom_site_label
 _atom_site_symmetry_multiplicity
 _atom_site_fract_x
 _atom_site_fract_y
 _atom_site_fract_z
 _atom_site_occupancy
  Tb  Tb0  1  0.190424  0.385287  0.250633  1
  Tm  Tm1  1  0.808736  0.611154  0.748224  1
  Tm  Tm2  1  0.611220  0.808913  0.251830  1
  Tm  Tm3  1  0.388910  0.191348  0.748169  1
  Tm  Tm4  1  0.196022  0.804200  0.254482  1
  Tm  Tm5  1  0.804159  0.196300  0.745526  1
  Al  Al6  1  0.328675  0.671883  0.023855  1
  Al  Al7  1  0.671253  0.329005  0.974906  1
  Al  Al8  1  0.666434  0.334203  0.519614  1
  Al  Al9  1  0.334168  0.666526  0.481381  1
  Al  Al10  1  0.163170  0.325909  0.576717  1
  Al  Al11  1  0.837056  0.674347  0.424750  1
  Al  Al12  1  0.674594  0.837125  0.576026  1
  Al  Al13  1  0.848270  0.677684  0.079387  1
  Al  Al14  1  0.326158  0.162595  0.424804  1
  Al  Al15  1  0.151740  0.322616  0.919199  1
  Al  Al16  1  0.163077  0.837043  0.576190  1
  Al  Al17  1  0.322631  0.151320  0.079333  1
  Al  Al18  1  0.836187  0.162895  0.424611  1
  Al  Al19  1  0.677826  0.848392  0.919974  1
  Al  Al20  1  0.835884  0.162942  0.075256  1
  Al  Al21  1  0.163170  0.836977  0.923799  1
  Al  Al22  1  0.560754  0.121186  0.249201  1
  Al  Al23  1  0.439263  0.878816  0.750835  1
  Al  Al24  1  0.877869  0.439595  0.249142  1
  Al  Al25  1  0.121288  0.561018  0.750631  1
  Al  Al26  1  0.564684  0.437055  0.255874  1
  Al  Al27  1  0.436885  0.563475  0.744772  1
  Al  Al28  1  0.998217  0.997719  0.250365  1
  Al  Al29  1  0.000495  0.999661  0.749720  1
  Os  Os30  1  0.500206  0.000351  0.999843  1
  Os  Os31  1  0.999463  0.500474  0.999134  1
  Os  Os32  1  0.500264  0.000419  0.500229  1
  Os  Os33  1  0.999685  0.500440  0.500628  1
  Os  Os34  1  0.500921  0.500420  0.500779  1
  Os  Os35  1  0.000104  0.000343  0.000045  1
  Os  Os36  1  0.000169  0.000308  0.500058  1
  Au  Au37  1  0.499969  0.500055  0.000077  1
