# generated using pymatgen
data_BaYb2In6O12
_symmetry_space_group_name_H-M   'P 1'
_cell_length_a   3.28084500
_cell_length_b   9.99205270
_cell_length_c   9.99198100
_cell_angle_alpha   59.99863560
_cell_angle_beta   89.99763069
_cell_angle_gamma   89.99790182
_symmetry_Int_Tables_number   1
_chemical_formula_structural   BaYb2In6O12
_chemical_formula_sum   'Ba1 Yb2 In6 O12'
_cell_volume   283.67214254
_cell_formula_units_Z   1
loop_
 _symmetry_equiv_pos_site_id
 _symmetry_equiv_pos_as_xyz
  1  'x, y, z'
loop_
 _atom_site_type_symbol
 _atom_site_label
 _atom_site_symmetry_multiplicity
 _atom_site_fract_x
 _atom_site_fract_y
 _atom_site_fract_z
 _atom_site_occupancy
  Ba  Ba0  1  0.725781  0.999991  0.000012  1
  Yb  Yb1  1  0.746250  0.666671  0.666661  1
  Yb  Yb2  1  0.246188  0.333348  0.333317  1
  In  In3  1  0.746489  0.354515  0.651765  1
  In  In4  1  0.746488  0.993733  0.354513  1
  In  In5  1  0.746484  0.651750  0.993726  1
  In  In6  1  0.245449  0.646106  0.348696  1
  In  In7  1  0.245433  0.005209  0.646101  1
  In  In8  1  0.245444  0.348694  0.005192  1
  O  O9  1  0.746023  0.137682  0.464960  1
  O  O10  1  0.746040  0.397375  0.137655  1
  O  O11  1  0.746039  0.464953  0.397376  1
  O  O12  1  0.246355  0.865710  0.531681  1
  O  O13  1  0.246353  0.602615  0.865688  1
  O  O14  1  0.246373  0.531680  0.602630  1
  O  O15  1  0.745400  0.888056  0.800612  1
  O  O16  1  0.745445  0.311328  0.888043  1
  O  O17  1  0.745437  0.800616  0.311346  1
  O  O18  1  0.245185  0.100789  0.184608  1
  O  O19  1  0.245164  0.714577  0.100804  1
  O  O20  1  0.245180  0.184605  0.714615  1
