# generated using pymatgen
data_Sc3U5(Mn4P3)4
_symmetry_space_group_name_H-M   'P 1'
_cell_length_a   12.39910500
_cell_length_b   12.39910446
_cell_length_c   3.81538200
_cell_angle_alpha   90.00000000
_cell_angle_beta   90.00000000
_cell_angle_gamma   120.00000411
_symmetry_Int_Tables_number   1
_chemical_formula_structural   Sc3U5(Mn4P3)4
_chemical_formula_sum   'Sc3 U5 Mn16 P12'
_cell_volume   507.98313824
_cell_formula_units_Z   1
loop_
 _symmetry_equiv_pos_site_id
 _symmetry_equiv_pos_as_xyz
  1  'x, y, z'
loop_
 _atom_site_type_symbol
 _atom_site_label
 _atom_site_symmetry_multiplicity
 _atom_site_fract_x
 _atom_site_fract_y
 _atom_site_fract_z
 _atom_site_occupancy
  Sc  Sc0  1  0.448713  0.448713  0.000000  1
  Sc  Sc1  1  0.551287  0.000000  0.000000  1
  Sc  Sc2  1  0.000000  0.551287  0.000000  1
  U  U3  1  0.666667  0.333333  0.000000  1
  U  U4  1  0.333333  0.666667  0.000000  1
  U  U5  1  0.829705  0.829705  0.500000  1
  U  U6  1  0.170295  0.000000  0.500000  1
  U  U7  1  0.000000  0.170295  0.500000  1
  Mn  Mn8  1  0.875295  0.343987  0.500000  1
  Mn  Mn9  1  0.656013  0.531309  0.500000  1
  Mn  Mn10  1  0.468691  0.124705  0.500000  1
  Mn  Mn11  1  0.343987  0.875295  0.500000  1
  Mn  Mn12  1  0.531309  0.656013  0.500000  1
  Mn  Mn13  1  0.124705  0.468691  0.500000  1
  Mn  Mn14  1  0.801028  0.177698  0.000000  1
  Mn  Mn15  1  0.822302  0.623330  0.000000  1
  Mn  Mn16  1  0.376670  0.198972  0.000000  1
  Mn  Mn17  1  0.177698  0.801028  0.000000  1
  Mn  Mn18  1  0.623330  0.822302  0.000000  1
  Mn  Mn19  1  0.198972  0.376670  0.000000  1
  Mn  Mn20  1  0.279147  0.279147  0.500000  1
  Mn  Mn21  1  0.720853  0.000000  0.500000  1
  Mn  Mn22  1  0.000000  0.720853  0.500000  1
  Mn  Mn23  1  0.000000  0.000000  0.000000  1
  P  P24  1  0.680263  0.164731  0.500000  1
  P  P25  1  0.835269  0.515532  0.500000  1
  P  P26  1  0.484468  0.319737  0.500000  1
  P  P27  1  0.164731  0.680263  0.500000  1
  P  P28  1  0.515532  0.835269  0.500000  1
  P  P29  1  0.319737  0.484468  0.500000  1
  P  P30  1  0.181580  0.181580  0.000000  1
  P  P31  1  0.818420  0.000000  0.000000  1
  P  P32  1  0.000000  0.818420  0.000000  1
  P  P33  1  0.655498  0.655498  0.000000  1
  P  P34  1  0.344502  0.000000  0.000000  1
  P  P35  1  0.000000  0.344502  0.000000  1
