# generated using pymatgen
data_Ce4MnAl2Pd
_symmetry_space_group_name_H-M   'P 1'
_cell_length_a   7.81102700
_cell_length_b   7.81102605
_cell_length_c   9.74292500
_cell_angle_alpha   90.00000000
_cell_angle_beta   90.00000000
_cell_angle_gamma   119.99999980
_symmetry_Int_Tables_number   1
_chemical_formula_structural   Ce4MnAl2Pd
_chemical_formula_sum   'Ce12 Mn3 Al6 Pd3'
_cell_volume   514.79724851
_cell_formula_units_Z   3
loop_
 _symmetry_equiv_pos_site_id
 _symmetry_equiv_pos_as_xyz
  1  'x, y, z'
loop_
 _atom_site_type_symbol
 _atom_site_label
 _atom_site_symmetry_multiplicity
 _atom_site_fract_x
 _atom_site_fract_y
 _atom_site_fract_z
 _atom_site_occupancy
  Ce  Ce0  1  0.000000  0.563157  0.487185  1
  Ce  Ce1  1  0.563157  0.000000  0.487185  1
  Ce  Ce2  1  0.436843  0.436843  0.487185  1
  Ce  Ce3  1  0.000000  0.393591  0.023959  1
  Ce  Ce4  1  0.393591  0.000000  0.023959  1
  Ce  Ce5  1  0.606409  0.606409  0.023959  1
  Ce  Ce6  1  0.000000  0.746369  0.179785  1
  Ce  Ce7  1  0.746369  0.000000  0.179785  1
  Ce  Ce8  1  0.253631  0.253631  0.179785  1
  Ce  Ce9  1  0.000000  0.269520  0.660726  1
  Ce  Ce10  1  0.269520  0.000000  0.660726  1
  Ce  Ce11  1  0.730480  0.730480  0.660726  1
  Mn  Mn12  1  0.000000  0.351793  0.340854  1
  Mn  Mn13  1  0.351793  0.000000  0.340854  1
  Mn  Mn14  1  0.648207  0.648207  0.340854  1
  Al  Al15  1  0.666667  0.333333  0.264666  1
  Al  Al16  1  0.333333  0.666667  0.264666  1
  Al  Al17  1  0.333333  0.666667  0.781358  1
  Al  Al18  1  0.666667  0.333333  0.781358  1
  Al  Al19  1  0.000000  0.000000  0.423546  1
  Al  Al20  1  0.000000  0.000000  0.915898  1
  Pd  Pd21  1  0.000000  0.666517  0.840075  1
  Pd  Pd22  1  0.666517  0.000000  0.840075  1
  Pd  Pd23  1  0.333483  0.333483  0.840075  1
