# generated using pymatgen
data_Sc8Ti2V9Si16Ir
_symmetry_space_group_name_H-M   'P 1'
_cell_length_a   6.66822639
_cell_length_b   6.66651700
_cell_length_c   12.32716381
_cell_angle_alpha   90.13244093
_cell_angle_beta   89.93327102
_cell_angle_gamma   89.64941420
_symmetry_Int_Tables_number   1
_chemical_formula_structural   Sc8Ti2V9Si16Ir
_chemical_formula_sum   'Sc8 Ti2 V9 Si16 Ir1'
_cell_volume   547.97772066
_cell_formula_units_Z   1
loop_
 _symmetry_equiv_pos_site_id
 _symmetry_equiv_pos_as_xyz
  1  'x, y, z'
loop_
 _atom_site_type_symbol
 _atom_site_label
 _atom_site_symmetry_multiplicity
 _atom_site_fract_x
 _atom_site_fract_y
 _atom_site_fract_z
 _atom_site_occupancy
  Sc  Sc0  1  0.999848  0.662926  0.028796  1
  Sc  Sc1  1  0.836775  0.498791  0.279183  1
  Sc  Sc2  1  0.162344  0.498525  0.780527  1
  Sc  Sc3  1  0.499379  0.837472  0.720910  1
  Sc  Sc4  1  0.499071  0.162842  0.219285  1
  Sc  Sc5  1  0.999791  0.336496  0.530720  1
  Sc  Sc6  1  0.663861  0.999980  0.970313  1
  Sc  Sc7  1  0.337265  0.000731  0.470684  1
  Ti  Ti8  1  0.170165  0.832839  0.247439  1
  Ti  Ti9  1  0.668505  0.668485  0.500763  1
  V  V10  1  0.833475  0.171078  0.753001  1
  V  V11  1  0.998803  0.153122  0.127104  1
  V  V12  1  0.344371  0.505618  0.374982  1
  V  V13  1  0.667138  0.494258  0.875606  1
  V  V14  1  0.505170  0.343849  0.625783  1
  V  V15  1  0.494453  0.665954  0.123326  1
  V  V16  1  0.992481  0.843592  0.627241  1
  V  V17  1  0.152368  0.999937  0.871315  1
  V  V18  1  0.843677  0.993726  0.374069  1
  Si  Si19  1  0.289714  0.962824  0.060078  1
  Si  Si20  1  0.541047  0.795862  0.313986  1
  Si  Si21  1  0.459346  0.206122  0.815289  1
  Si  Si22  1  0.795846  0.537128  0.686922  1
  Si  Si23  1  0.206238  0.455775  0.183289  1
  Si  Si24  1  0.706213  0.044311  0.566604  1
  Si  Si25  1  0.961081  0.288810  0.937752  1
  Si  Si26  1  0.042267  0.705076  0.436001  1
  Si  Si27  1  0.702471  0.374328  0.069596  1
  Si  Si28  1  0.131161  0.205780  0.319836  1
  Si  Si29  1  0.869419  0.795819  0.818960  1
  Si  Si30  1  0.202539  0.130877  0.680879  1
  Si  Si31  1  0.793081  0.869629  0.180216  1
  Si  Si32  1  0.293746  0.629946  0.570480  1
  Si  Si33  1  0.374406  0.702518  0.929844  1
  Si  Si34  1  0.630088  0.293625  0.430218  1
  Ir  Ir35  1  0.332404  0.331354  0.999004  1
