# generated using pymatgen
data_Mn3FeW2
_symmetry_space_group_name_H-M   'P 1'
_cell_length_a   4.68337400
_cell_length_b   4.68337462
_cell_length_c   7.81495300
_cell_angle_alpha   90.00000000
_cell_angle_beta   90.00000000
_cell_angle_gamma   120.00000973
_symmetry_Int_Tables_number   1
_chemical_formula_structural   Mn3FeW2
_chemical_formula_sum   'Mn6 Fe2 W4'
_cell_volume   148.44811881
_cell_formula_units_Z   2
loop_
 _symmetry_equiv_pos_site_id
 _symmetry_equiv_pos_as_xyz
  1  'x, y, z'
loop_
 _atom_site_type_symbol
 _atom_site_label
 _atom_site_symmetry_multiplicity
 _atom_site_fract_x
 _atom_site_fract_y
 _atom_site_fract_z
 _atom_site_occupancy
  Mn  Mn0  1  0.827277  0.172723  0.750000  1
  Mn  Mn1  1  0.827277  0.654553  0.750000  1
  Mn  Mn2  1  0.345447  0.172723  0.750000  1
  Mn  Mn3  1  0.172723  0.827277  0.250000  1
  Mn  Mn4  1  0.172723  0.345447  0.250000  1
  Mn  Mn5  1  0.654553  0.827277  0.250000  1
  Fe  Fe6  1  0.000000  0.000000  0.000000  1
  Fe  Fe7  1  0.000000  0.000000  0.500000  1
  W  W8  1  0.333333  0.666667  0.933076  1
  W  W9  1  0.666667  0.333333  0.066924  1
  W  W10  1  0.666667  0.333333  0.433076  1
  W  W11  1  0.333333  0.666667  0.566924  1
