# generated using pymatgen
data_Hf16Fe4Ir3Pd
_symmetry_space_group_name_H-M   'P 1'
_cell_length_a   8.60139003
_cell_length_b   8.60139101
_cell_length_c   8.60139093
_cell_angle_alpha   59.76580471
_cell_angle_beta   59.76580283
_cell_angle_gamma   59.76580227
_symmetry_Int_Tables_number   1
_chemical_formula_structural   Hf16Fe4Ir3Pd
_chemical_formula_sum   'Hf16 Fe4 Ir3 Pd1'
_cell_volume   447.58493192
_cell_formula_units_Z   1
loop_
 _symmetry_equiv_pos_site_id
 _symmetry_equiv_pos_as_xyz
  1  'x, y, z'
loop_
 _atom_site_type_symbol
 _atom_site_label
 _atom_site_symmetry_multiplicity
 _atom_site_fract_x
 _atom_site_fract_y
 _atom_site_fract_z
 _atom_site_occupancy
  Hf  Hf0  1  0.188928  0.603120  0.603120  1
  Hf  Hf1  1  0.603120  0.188928  0.603120  1
  Hf  Hf2  1  0.603120  0.603120  0.188928  1
  Hf  Hf3  1  0.603275  0.603275  0.603275  1
  Hf  Hf4  1  0.811785  0.811785  0.193932  1
  Hf  Hf5  1  0.188716  0.188716  0.811815  1
  Hf  Hf6  1  0.811785  0.193932  0.811785  1
  Hf  Hf7  1  0.188716  0.811815  0.188716  1
  Hf  Hf8  1  0.193932  0.811785  0.811785  1
  Hf  Hf9  1  0.811815  0.188716  0.188716  1
  Hf  Hf10  1  0.446213  0.446213  0.054324  1
  Hf  Hf11  1  0.054903  0.054903  0.442580  1
  Hf  Hf12  1  0.446213  0.054324  0.446213  1
  Hf  Hf13  1  0.054903  0.442580  0.054903  1
  Hf  Hf14  1  0.054324  0.446213  0.446213  1
  Hf  Hf15  1  0.442580  0.054903  0.054903  1
  Fe  Fe16  1  0.827265  0.390523  0.390523  1
  Fe  Fe17  1  0.390523  0.827265  0.390523  1
  Fe  Fe18  1  0.390523  0.390523  0.827265  1
  Fe  Fe19  1  0.391320  0.391320  0.391320  1
  Ir  Ir20  1  0.495470  0.833650  0.833650  1
  Ir  Ir21  1  0.833650  0.495470  0.833650  1
  Ir  Ir22  1  0.833650  0.833650  0.495470  1
  Pd  Pd23  1  0.833271  0.833271  0.833271  1
