# generated using pymatgen
data_LiVCr2(CoP)4
_symmetry_space_group_name_H-M   'P 1'
_cell_length_a   3.52985700
_cell_length_b   5.81131696
_cell_length_c   6.63508925
_cell_angle_alpha   90.24029622
_cell_angle_beta   90.00000000
_cell_angle_gamma   90.00000000
_symmetry_Int_Tables_number   1
_chemical_formula_structural   LiVCr2(CoP)4
_chemical_formula_sum   'Li1 V1 Cr2 Co4 P4'
_cell_volume   136.10517068
_cell_formula_units_Z   1
loop_
 _symmetry_equiv_pos_site_id
 _symmetry_equiv_pos_as_xyz
  1  'x, y, z'
loop_
 _atom_site_type_symbol
 _atom_site_label
 _atom_site_symmetry_multiplicity
 _atom_site_fract_x
 _atom_site_fract_y
 _atom_site_fract_z
 _atom_site_occupancy
  Li  Li0  1  0.250000  0.024063  0.822081  1
  V  V1  1  0.750000  0.475185  0.325967  1
  Cr  Cr2  1  0.250000  0.527759  0.672270  1
  Cr  Cr3  1  0.750000  0.967347  0.176002  1
  Co  Co4  1  0.250000  0.147736  0.438076  1
  Co  Co5  1  0.250000  0.639131  0.062042  1
  Co  Co6  1  0.750000  0.855343  0.562946  1
  Co  Co7  1  0.750000  0.361037  0.940550  1
  P  P8  1  0.250000  0.257393  0.120015  1
  P  P9  1  0.250000  0.770963  0.375503  1
  P  P10  1  0.750000  0.736693  0.878376  1
  P  P11  1  0.750000  0.237350  0.626172  1
