# generated using pymatgen
data_Tb16In4Os3Au
_symmetry_space_group_name_H-M   'P 1'
_cell_length_a   9.72998122
_cell_length_b   9.72998163
_cell_length_c   9.72998112
_cell_angle_alpha   60.27242926
_cell_angle_beta   60.27242607
_cell_angle_gamma   60.27242733
_symmetry_Int_Tables_number   1
_chemical_formula_structural   Tb16In4Os3Au
_chemical_formula_sum   'Tb16 In4 Os3 Au1'
_cell_volume   655.37613579
_cell_formula_units_Z   1
loop_
 _symmetry_equiv_pos_site_id
 _symmetry_equiv_pos_as_xyz
  1  'x, y, z'
loop_
 _atom_site_type_symbol
 _atom_site_label
 _atom_site_symmetry_multiplicity
 _atom_site_fract_x
 _atom_site_fract_y
 _atom_site_fract_z
 _atom_site_occupancy
  Tb  Tb0  1  0.107461  0.693518  0.107461  1
  Tb  Tb1  1  0.942866  0.942866  0.546006  1
  Tb  Tb2  1  0.942866  0.546006  0.942866  1
  Tb  Tb3  1  0.309645  0.692658  0.309645  1
  Tb  Tb4  1  0.941757  0.558035  0.558035  1
  Tb  Tb5  1  0.309645  0.309645  0.692658  1
  Tb  Tb6  1  0.095102  0.095102  0.095102  1
  Tb  Tb7  1  0.558035  0.558035  0.941757  1
  Tb  Tb8  1  0.107461  0.107461  0.693518  1
  Tb  Tb9  1  0.693199  0.314731  0.693199  1
  Tb  Tb10  1  0.693199  0.693199  0.314731  1
  Tb  Tb11  1  0.692658  0.309645  0.309645  1
  Tb  Tb12  1  0.314731  0.693199  0.693199  1
  Tb  Tb13  1  0.558035  0.941757  0.558035  1
  Tb  Tb14  1  0.693518  0.107461  0.107461  1
  Tb  Tb15  1  0.546006  0.942866  0.942866  1
  In  In16  1  0.333492  0.333492  0.333492  1
  In  In17  1  0.002560  0.331132  0.331132  1
  In  In18  1  0.331132  0.002560  0.331132  1
  In  In19  1  0.331132  0.331132  0.002560  1
  Os  Os20  1  0.887456  0.887456  0.327514  1
  Os  Os21  1  0.327514  0.887456  0.887456  1
  Os  Os22  1  0.887456  0.327514  0.887456  1
  Au  Au23  1  0.893071  0.893071  0.893071  1
