# generated using pymatgen
data_Tb4Al4Pt3Rh
_symmetry_space_group_name_H-M   'P 1'
_cell_length_a   4.42611500
_cell_length_b   6.86866699
_cell_length_c   7.83865349
_cell_angle_alpha   90.35979409
_cell_angle_beta   90.00000000
_cell_angle_gamma   90.00000000
_symmetry_Int_Tables_number   1
_chemical_formula_structural   Tb4Al4Pt3Rh
_chemical_formula_sum   'Tb4 Al4 Pt3 Rh1'
_cell_volume   238.30220371
_cell_formula_units_Z   1
loop_
 _symmetry_equiv_pos_site_id
 _symmetry_equiv_pos_as_xyz
  1  'x, y, z'
loop_
 _atom_site_type_symbol
 _atom_site_label
 _atom_site_symmetry_multiplicity
 _atom_site_fract_x
 _atom_site_fract_y
 _atom_site_fract_z
 _atom_site_occupancy
  Tb  Tb0  1  0.250000  0.033653  0.678851  1
  Tb  Tb1  1  0.250000  0.532221  0.819107  1
  Tb  Tb2  1  0.750000  0.971707  0.318737  1
  Tb  Tb3  1  0.750000  0.467903  0.183118  1
  Al  Al4  1  0.250000  0.145760  0.063229  1
  Al  Al5  1  0.250000  0.639132  0.436609  1
  Al  Al6  1  0.750000  0.856003  0.936962  1
  Al  Al7  1  0.750000  0.355983  0.562315  1
  Pt  Pt8  1  0.250000  0.774698  0.116900  1
  Pt  Pt9  1  0.750000  0.727728  0.616996  1
  Pt  Pt10  1  0.750000  0.227272  0.882762  1
  Rh  Rh11  1  0.250000  0.267940  0.384414  1
