# generated using pymatgen
data_Hf8Ti2Si6C
_symmetry_space_group_name_H-M   'P 1'
_cell_length_a   7.80194700
_cell_length_b   7.80194649
_cell_length_c   5.43650400
_cell_angle_alpha   90.00000000
_cell_angle_beta   90.00000000
_cell_angle_gamma   119.99999793
_symmetry_Int_Tables_number   1
_chemical_formula_structural   Hf8Ti2Si6C
_chemical_formula_sum   'Hf8 Ti2 Si6 C1'
_cell_volume   286.58688747
_cell_formula_units_Z   1
loop_
 _symmetry_equiv_pos_site_id
 _symmetry_equiv_pos_as_xyz
  1  'x, y, z'
loop_
 _atom_site_type_symbol
 _atom_site_label
 _atom_site_symmetry_multiplicity
 _atom_site_fract_x
 _atom_site_fract_y
 _atom_site_fract_z
 _atom_site_occupancy
  Hf  Hf0  1  0.000000  0.757211  0.256282  1
  Hf  Hf1  1  0.242789  0.242789  0.256282  1
  Hf  Hf2  1  0.757211  0.000000  0.256282  1
  Hf  Hf3  1  0.000000  0.242789  0.743718  1
  Hf  Hf4  1  0.757211  0.757211  0.743718  1
  Hf  Hf5  1  0.242789  0.000000  0.743718  1
  Hf  Hf6  1  0.333333  0.666667  0.000000  1
  Hf  Hf7  1  0.666667  0.333333  0.000000  1
  Ti  Ti8  1  0.666667  0.333333  0.500000  1
  Ti  Ti9  1  0.333333  0.666667  0.500000  1
  Si  Si10  1  0.000000  0.402338  0.264123  1
  Si  Si11  1  0.597662  0.597662  0.264123  1
  Si  Si12  1  0.402338  0.000000  0.264123  1
  Si  Si13  1  0.000000  0.597662  0.735877  1
  Si  Si14  1  0.402338  0.402338  0.735877  1
  Si  Si15  1  0.597662  0.000000  0.735877  1
  C  C16  1  0.000000  0.000000  0.500000  1
