# generated using pymatgen
data_BaMn3NiO8
_symmetry_space_group_name_H-M   'P 1'
_cell_length_a   5.88221822
_cell_length_b   5.88248928
_cell_length_c   13.30701646
_cell_angle_alpha   90.00021900
_cell_angle_beta   77.23263295
_cell_angle_gamma   120.00331819
_symmetry_Int_Tables_number   1
_chemical_formula_structural   BaMn3NiO8
_chemical_formula_sum   'Ba2 Mn6 Ni2 O16'
_cell_volume   385.54662448
_cell_formula_units_Z   2
loop_
 _symmetry_equiv_pos_site_id
 _symmetry_equiv_pos_as_xyz
  1  'x, y, z'
loop_
 _atom_site_type_symbol
 _atom_site_label
 _atom_site_symmetry_multiplicity
 _atom_site_fract_x
 _atom_site_fract_y
 _atom_site_fract_z
 _atom_site_occupancy
  Ba  Ba0  1  0.499923  0.749971  0.750101  1
  Ba  Ba1  1  0.500091  0.250041  0.249894  1
  Mn  Mn2  1  0.500035  0.000019  0.499999  1
  Mn  Mn3  1  0.500005  0.499969  0.000012  1
  Mn  Mn4  1  0.499986  0.499998  0.500016  1
  Mn  Mn5  1  0.499984  0.999973  0.000016  1
  Mn  Mn6  1  0.999951  0.999987  0.500000  1
  Mn  Mn7  1  0.999956  0.499978  0.000009  1
  Ni  Ni8  1  0.000005  0.500004  0.499996  1
  Ni  Ni9  1  0.000006  0.000005  0.999994  1
  O  O10  1  0.718897  0.859454  0.421692  1
  O  O11  1  0.719095  0.359558  0.921541  1
  O  O12  1  0.280908  0.640449  0.078453  1
  O  O13  1  0.281115  0.140556  0.578304  1
  O  O14  1  0.229284  0.849704  0.920905  1
  O  O15  1  0.229237  0.349740  0.421003  1
  O  O16  1  0.770772  0.120499  0.578990  1
  O  O17  1  0.770718  0.620409  0.079084  1
  O  O18  1  0.770769  0.650266  0.578992  1
  O  O19  1  0.770723  0.150304  0.079090  1
  O  O20  1  0.300537  0.650266  0.578988  1
  O  O21  1  0.300481  0.150242  0.079110  1
  O  O22  1  0.229288  0.379597  0.920911  1
  O  O23  1  0.229239  0.879508  0.421006  1
  O  O24  1  0.699526  0.849761  0.920886  1
  O  O25  1  0.699474  0.349741  0.421006  1
