# generated using pymatgen
data_Y8Ti7Si16W5
_symmetry_space_group_name_H-M   'P 1'
_cell_length_a   6.77837021
_cell_length_b   6.97377528
_cell_length_c   13.18083900
_cell_angle_alpha   90.04839982
_cell_angle_beta   89.95373817
_cell_angle_gamma   89.95893498
_symmetry_Int_Tables_number   1
_chemical_formula_structural   Y8Ti7Si16W5
_chemical_formula_sum   'Y8 Ti7 Si16 W5'
_cell_volume   623.06862212
_cell_formula_units_Z   1
loop_
 _symmetry_equiv_pos_site_id
 _symmetry_equiv_pos_as_xyz
  1  'x, y, z'
loop_
 _atom_site_type_symbol
 _atom_site_label
 _atom_site_symmetry_multiplicity
 _atom_site_fract_x
 _atom_site_fract_y
 _atom_site_fract_z
 _atom_site_occupancy
  Y  Y0  1  0.503263  0.330074  0.096738  1
  Y  Y1  1  0.002421  0.170779  0.403770  1
  Y  Y2  1  0.497221  0.671568  0.595970  1
  Y  Y3  1  0.997192  0.830226  0.903191  1
  Y  Y4  1  0.495894  0.669727  0.902037  1
  Y  Y5  1  0.998789  0.830598  0.595821  1
  Y  Y6  1  0.502670  0.329118  0.405283  1
  Y  Y7  1  0.003271  0.170697  0.097103  1
  Ti  Ti8  1  0.835925  0.326613  0.626369  1
  Ti  Ti9  1  0.331724  0.172817  0.872565  1
  Ti  Ti10  1  0.167212  0.672252  0.127037  1
  Ti  Ti11  1  0.666333  0.828642  0.373717  1
  Ti  Ti12  1  0.166939  0.673119  0.374143  1
  Ti  Ti13  1  0.667553  0.827436  0.127263  1
  Ti  Ti14  1  0.832095  0.326082  0.871127  1
  Si  Si15  1  0.657550  0.039877  0.544529  1
  Si  Si16  1  0.158617  0.458966  0.956098  1
  Si  Si17  1  0.340947  0.959508  0.043734  1
  Si  Si18  1  0.840328  0.539562  0.456398  1
  Si  Si19  1  0.338115  0.959019  0.457897  1
  Si  Si20  1  0.841449  0.540433  0.044030  1
  Si  Si21  1  0.658028  0.040290  0.956133  1
  Si  Si22  1  0.162382  0.459049  0.543734  1
  Si  Si23  1  0.535198  0.372695  0.748658  1
  Si  Si24  1  0.036929  0.125400  0.749964  1
  Si  Si25  1  0.463688  0.627464  0.250647  1
  Si  Si26  1  0.964069  0.873408  0.250354  1
  Si  Si27  1  0.797912  0.625221  0.748893  1
  Si  Si28  1  0.299248  0.875587  0.749955  1
  Si  Si29  1  0.203287  0.374560  0.250683  1
  Si  Si30  1  0.701947  0.125941  0.250203  1
  W  W31  1  0.331515  0.171372  0.626901  1
  W  W32  1  0.661539  0.012103  0.749224  1
  W  W33  1  0.160154  0.487556  0.749233  1
  W  W34  1  0.338758  0.990454  0.250338  1
  W  W35  1  0.839836  0.511790  0.250256  1
