# generated using pymatgen
data_YbTePdO6
_symmetry_space_group_name_H-M   'P 1'
_cell_length_a   5.21670300
_cell_length_b   5.21670384
_cell_length_c   5.03029000
_cell_angle_alpha   90.00000000
_cell_angle_beta   90.00000000
_cell_angle_gamma   120.00000103
_symmetry_Int_Tables_number   1
_chemical_formula_structural   YbTePdO6
_chemical_formula_sum   'Yb1 Te1 Pd1 O6'
_cell_volume   118.55392693
_cell_formula_units_Z   1
loop_
 _symmetry_equiv_pos_site_id
 _symmetry_equiv_pos_as_xyz
  1  'x, y, z'
loop_
 _atom_site_type_symbol
 _atom_site_label
 _atom_site_symmetry_multiplicity
 _atom_site_fract_x
 _atom_site_fract_y
 _atom_site_fract_z
 _atom_site_occupancy
  Yb  Yb0  1  0.666667  0.333334  0.000000  1
  Te  Te1  1  0.333333  0.666666  0.500001  1
  Pd  Pd2  1  0.000000  0.000000  0.500001  1
  O  O3  1  0.308780  0.342819  0.282405  1
  O  O4  1  0.034040  0.691220  0.282405  1
  O  O5  1  0.657180  0.965960  0.282405  1
  O  O6  1  0.034040  0.342819  0.717595  1
  O  O7  1  0.657181  0.691220  0.717595  1
  O  O8  1  0.308780  0.965960  0.717595  1
