# generated using pymatgen
data_Pa3AlCo6
_symmetry_space_group_name_H-M   'P 1'
_cell_length_a   5.26062300
_cell_length_b   7.14944700
_cell_length_c   8.27036800
_cell_angle_alpha   90.00000000
_cell_angle_beta   90.00000000
_cell_angle_gamma   90.00000000
_symmetry_Int_Tables_number   1
_chemical_formula_structural   Pa3AlCo6
_chemical_formula_sum   'Pa6 Al2 Co12'
_cell_volume   311.05305052
_cell_formula_units_Z   2
loop_
 _symmetry_equiv_pos_site_id
 _symmetry_equiv_pos_as_xyz
  1  'x, y, z'
loop_
 _atom_site_type_symbol
 _atom_site_label
 _atom_site_symmetry_multiplicity
 _atom_site_fract_x
 _atom_site_fract_y
 _atom_site_fract_z
 _atom_site_occupancy
  Pa  Pa0  1  0.750000  0.895581  0.852613  1
  Pa  Pa1  1  0.750000  0.395581  0.647387  1
  Pa  Pa2  1  0.250000  0.097720  0.143624  1
  Pa  Pa3  1  0.250000  0.597720  0.356376  1
  Pa  Pa4  1  0.750000  0.946902  0.420358  1
  Pa  Pa5  1  0.750000  0.446902  0.079642  1
  Al  Al6  1  0.250000  0.069491  0.612677  1
  Al  Al7  1  0.250000  0.569491  0.887323  1
  Co  Co8  1  0.750000  0.584695  0.367081  1
  Co  Co9  1  0.750000  0.084695  0.132919  1
  Co  Co10  1  0.250000  0.407155  0.627030  1
  Co  Co11  1  0.250000  0.907155  0.872970  1
  Co  Co12  1  0.998978  0.256333  0.381311  1
  Co  Co13  1  0.501022  0.756333  0.118689  1
  Co  Co14  1  0.490403  0.742896  0.618517  1
  Co  Co15  1  0.009597  0.242896  0.881483  1
  Co  Co16  1  0.009597  0.742896  0.618517  1
  Co  Co17  1  0.490403  0.242896  0.881483  1
  Co  Co18  1  0.501022  0.256333  0.381311  1
  Co  Co19  1  0.998978  0.756333  0.118689  1
