# generated using pymatgen
data_RbAcHgSe3
_symmetry_space_group_name_H-M   'P 1'
_cell_length_a   11.91310700
_cell_length_b   8.05844302
_cell_length_c   9.14317185
_cell_angle_alpha   73.50624681
_cell_angle_beta   90.00000000
_cell_angle_gamma   90.00000000
_symmetry_Int_Tables_number   1
_chemical_formula_structural   RbAcHgSe3
_chemical_formula_sum   'Rb4 Ac4 Hg4 Se12'
_cell_volume   841.63551185
_cell_formula_units_Z   4
loop_
 _symmetry_equiv_pos_site_id
 _symmetry_equiv_pos_as_xyz
  1  'x, y, z'
loop_
 _atom_site_type_symbol
 _atom_site_label
 _atom_site_symmetry_multiplicity
 _atom_site_fract_x
 _atom_site_fract_y
 _atom_site_fract_z
 _atom_site_occupancy
  Rb  Rb0  1  0.252671  0.017280  0.620328  1
  Rb  Rb1  1  0.247329  0.017280  0.120328  1
  Rb  Rb2  1  0.752671  0.982720  0.879672  1
  Rb  Rb3  1  0.747329  0.982720  0.379672  1
  Ac  Ac4  1  0.502166  0.502905  0.249287  1
  Ac  Ac5  1  0.497834  0.497095  0.750713  1
  Ac  Ac6  1  0.997834  0.502905  0.749287  1
  Ac  Ac7  1  0.002166  0.497095  0.250713  1
  Hg  Hg8  1  0.249691  0.592120  0.477021  1
  Hg  Hg9  1  0.749691  0.407880  0.022979  1
  Hg  Hg10  1  0.750309  0.407880  0.522979  1
  Hg  Hg11  1  0.250309  0.592120  0.977021  1
  Se  Se12  1  0.440915  0.763900  0.435093  1
  Se  Se13  1  0.940915  0.236100  0.064907  1
  Se  Se14  1  0.559085  0.236100  0.564907  1
  Se  Se15  1  0.059085  0.763900  0.935093  1
  Se  Se16  1  0.058652  0.764547  0.432386  1
  Se  Se17  1  0.558652  0.235453  0.067614  1
  Se  Se18  1  0.941348  0.235453  0.567614  1
  Se  Se19  1  0.248033  0.370103  0.782511  1
  Se  Se20  1  0.251967  0.370103  0.282511  1
  Se  Se21  1  0.751967  0.629897  0.217489  1
  Se  Se22  1  0.748033  0.629897  0.717489  1
  Se  Se23  1  0.441348  0.764547  0.932386  1
