# generated using pymatgen
data_Pr3Nd3(Ho2Sn3)2
_symmetry_space_group_name_H-M   'P 1'
_cell_length_a   9.19116200
_cell_length_b   9.19084573
_cell_length_c   6.70424800
_cell_angle_alpha   90.00000000
_cell_angle_beta   90.00000000
_cell_angle_gamma   120.00114554
_symmetry_Int_Tables_number   1
_chemical_formula_structural   Pr3Nd3(Ho2Sn3)2
_chemical_formula_sum   'Pr3 Nd3 Ho4 Sn6'
_cell_volume   490.45773325
_cell_formula_units_Z   1
loop_
 _symmetry_equiv_pos_site_id
 _symmetry_equiv_pos_as_xyz
  1  'x, y, z'
loop_
 _atom_site_type_symbol
 _atom_site_label
 _atom_site_symmetry_multiplicity
 _atom_site_fract_x
 _atom_site_fract_y
 _atom_site_fract_z
 _atom_site_occupancy
  Pr  Pr0  1  0.241555  0.000000  0.250000  1
  Pr  Pr1  1  0.241466  0.241583  0.750000  1
  Pr  Pr2  1  0.999883  0.758417  0.750000  1
  Nd  Nd3  1  0.999860  0.241722  0.250000  1
  Nd  Nd4  1  0.758138  0.758278  0.250000  1
  Nd  Nd5  1  0.758198  0.000000  0.750000  1
  Ho  Ho6  1  0.333464  0.666685  0.000077  1
  Ho  Ho7  1  0.666779  0.333315  0.499923  1
  Ho  Ho8  1  0.666779  0.333315  0.000077  1
  Ho  Ho9  1  0.333464  0.666685  0.499923  1
  Sn  Sn10  1  0.601968  0.000000  0.250000  1
  Sn  Sn11  1  0.601278  0.601760  0.750000  1
  Sn  Sn12  1  0.999518  0.398240  0.750000  1
  Sn  Sn13  1  0.999484  0.600790  0.250000  1
  Sn  Sn14  1  0.398694  0.399210  0.250000  1
  Sn  Sn15  1  0.399473  0.000000  0.750000  1
