# generated using pymatgen
data_Dy4Er4B24MoOs3
_symmetry_space_group_name_H-M   'P 1'
_cell_length_a   3.64612900
_cell_length_b   9.15371937
_cell_length_c   11.54676800
_cell_angle_alpha   89.90496899
_cell_angle_beta   90.00000000
_cell_angle_gamma   90.00000000
_symmetry_Int_Tables_number   1
_chemical_formula_structural   Dy4Er4B24MoOs3
_chemical_formula_sum   'Dy4 Er4 B24 Mo1 Os3'
_cell_volume   385.38026106
_cell_formula_units_Z   1
loop_
 _symmetry_equiv_pos_site_id
 _symmetry_equiv_pos_as_xyz
  1  'x, y, z'
loop_
 _atom_site_type_symbol
 _atom_site_label
 _atom_site_symmetry_multiplicity
 _atom_site_fract_x
 _atom_site_fract_y
 _atom_site_fract_z
 _atom_site_occupancy
  Dy  Dy0  1  0.000000  0.322199  0.413148  1
  Dy  Dy1  1  0.000000  0.677191  0.584985  1
  Dy  Dy2  1  0.000000  0.820714  0.087365  1
  Dy  Dy3  1  0.000000  0.177427  0.914475  1
  Er  Er4  1  0.000000  0.945129  0.372820  1
  Er  Er5  1  0.000000  0.057371  0.628374  1
  Er  Er6  1  0.000000  0.443409  0.126799  1
  Er  Er7  1  0.000000  0.556682  0.871354  1
  B  B8  1  0.500000  0.551338  0.435192  1
  B  B9  1  0.500000  0.445968  0.568235  1
  B  B10  1  0.500000  0.053712  0.067248  1
  B  B11  1  0.500000  0.946125  0.932892  1
  B  B12  1  0.500000  0.750836  0.421374  1
  B  B13  1  0.500000  0.251921  0.581354  1
  B  B14  1  0.500000  0.248461  0.080521  1
  B  B15  1  0.500000  0.751300  0.918774  1
  B  B16  1  0.500000  0.794346  0.265008  1
  B  B17  1  0.500000  0.208644  0.734123  1
  B  B18  1  0.500000  0.290925  0.232652  1
  B  B19  1  0.500000  0.709292  0.766147  1
  B  B20  1  0.500000  0.631660  0.183402  1
  B  B21  1  0.500000  0.368197  0.814776  1
  B  B22  1  0.500000  0.131334  0.313614  1
  B  B23  1  0.500000  0.869417  0.685851  1
  B  B24  1  0.500000  0.983432  0.212908  1
  B  B25  1  0.500000  0.017001  0.787816  1
  B  B26  1  0.500000  0.478874  0.286300  1
  B  B27  1  0.500000  0.516174  0.713241  1
  B  B28  1  0.500000  0.605323  0.027767  1
  B  B29  1  0.500000  0.394182  0.969972  1
  B  B30  1  0.500000  0.106268  0.471178  1
  B  B31  1  0.500000  0.896433  0.530197  1
  Mo  Mo32  1  0.000000  0.637812  0.321073  1
  Os  Os33  1  0.000000  0.360803  0.680577  1
  Os  Os34  1  0.000000  0.137863  0.177685  1
  Os  Os35  1  0.000000  0.862235  0.820807  1
