# generated using pymatgen
data_TmPaCdCo2
_symmetry_space_group_name_H-M   'P 1'
_cell_length_a   7.43765804
_cell_length_b   7.43765748
_cell_length_c   3.42689100
_cell_angle_alpha   90.00000000
_cell_angle_beta   90.00000000
_cell_angle_gamma   95.25483057
_symmetry_Int_Tables_number   1
_chemical_formula_structural   TmPaCdCo2
_chemical_formula_sum   'Tm2 Pa2 Cd2 Co4'
_cell_volume   188.77460799
_cell_formula_units_Z   2
loop_
 _symmetry_equiv_pos_site_id
 _symmetry_equiv_pos_as_xyz
  1  'x, y, z'
loop_
 _atom_site_type_symbol
 _atom_site_label
 _atom_site_symmetry_multiplicity
 _atom_site_fract_x
 _atom_site_fract_y
 _atom_site_fract_z
 _atom_site_occupancy
  Tm  Tm0  1  0.164643  0.335357  0.500000  1
  Tm  Tm1  1  0.835357  0.664643  0.500000  1
  Pa  Pa2  1  0.669113  0.169113  0.500000  1
  Pa  Pa3  1  0.330887  0.830887  0.500000  1
  Cd  Cd4  1  0.000000  0.000000  0.000000  1
  Cd  Cd5  1  0.500000  0.500000  0.000000  1
  Co  Co6  1  0.149373  0.649373  0.000000  1
  Co  Co7  1  0.850627  0.350627  0.000000  1
  Co  Co8  1  0.616950  0.883050  0.000000  1
  Co  Co9  1  0.383050  0.116950  0.000000  1
