# generated using pymatgen
data_Th7Sc7Co6
_symmetry_space_group_name_H-M   'P 1'
_cell_length_a   9.21630695
_cell_length_b   9.21630746
_cell_length_c   6.03830401
_cell_angle_alpha   90.25004792
_cell_angle_beta   89.74995004
_cell_angle_gamma   118.91143327
_symmetry_Int_Tables_number   1
_chemical_formula_structural   Th7Sc7Co6
_chemical_formula_sum   'Th7 Sc7 Co6'
_cell_volume   448.96655055
_cell_formula_units_Z   1
loop_
 _symmetry_equiv_pos_site_id
 _symmetry_equiv_pos_as_xyz
  1  'x, y, z'
loop_
 _atom_site_type_symbol
 _atom_site_label
 _atom_site_symmetry_multiplicity
 _atom_site_fract_x
 _atom_site_fract_y
 _atom_site_fract_z
 _atom_site_occupancy
  Th  Th0  1  0.869145  0.130855  0.762742  1
  Th  Th1  1  0.132839  0.253744  0.262083  1
  Th  Th2  1  0.746257  0.867162  0.262083  1
  Th  Th3  1  0.255718  0.125007  0.758002  1
  Th  Th4  1  0.874993  0.744283  0.758002  1
  Th  Th5  1  0.332395  0.667605  0.012661  1
  Th  Th6  1  0.666047  0.333954  0.505006  1
  Sc  Sc7  1  0.538407  0.461595  0.052356  1
  Sc  Sc8  1  0.460691  0.539310  0.553109  1
  Sc  Sc9  1  0.532872  0.073559  0.058444  1
  Sc  Sc10  1  0.926439  0.467128  0.058444  1
  Sc  Sc11  1  0.079092  0.544088  0.551865  1
  Sc  Sc12  1  0.455911  0.920907  0.551865  1
  Sc  Sc13  1  0.131570  0.868431  0.256311  1
  Co  Co14  1  0.814377  0.185622  0.288267  1
  Co  Co15  1  0.186288  0.813713  0.794651  1
  Co  Co16  1  0.807973  0.624781  0.294159  1
  Co  Co17  1  0.375219  0.192027  0.294159  1
  Co  Co18  1  0.627115  0.813345  0.792889  1
  Co  Co19  1  0.186656  0.372887  0.792889  1
