# generated using pymatgen
data_Y2Ga9CoRu2
_symmetry_space_group_name_H-M   'P 1'
_cell_length_a   7.47645390
_cell_length_b   7.47645421
_cell_length_c   9.62611000
_cell_angle_alpha   90.00000000
_cell_angle_beta   90.00000000
_cell_angle_gamma   120.33889521
_symmetry_Int_Tables_number   1
_chemical_formula_structural   Y2Ga9CoRu2
_chemical_formula_sum   'Y4 Ga18 Co2 Ru4'
_cell_volume   464.38646206
_cell_formula_units_Z   2
loop_
 _symmetry_equiv_pos_site_id
 _symmetry_equiv_pos_as_xyz
  1  'x, y, z'
loop_
 _atom_site_type_symbol
 _atom_site_label
 _atom_site_symmetry_multiplicity
 _atom_site_fract_x
 _atom_site_fract_y
 _atom_site_fract_z
 _atom_site_occupancy
  Y  Y0  1  0.995806  0.656677  0.250000  1
  Y  Y1  1  0.004194  0.343323  0.750000  1
  Y  Y2  1  0.656676  0.995806  0.250000  1
  Y  Y3  1  0.343324  0.004194  0.750000  1
  Ga  Ga4  1  0.110455  0.110455  0.250000  1
  Ga  Ga5  1  0.889545  0.889545  0.750000  1
  Ga  Ga6  1  0.002847  0.324433  0.073881  1
  Ga  Ga7  1  0.997153  0.675567  0.926119  1
  Ga  Ga8  1  0.997153  0.675567  0.573881  1
  Ga  Ga9  1  0.324433  0.002847  0.426120  1
  Ga  Ga10  1  0.002847  0.324433  0.426119  1
  Ga  Ga11  1  0.675567  0.997153  0.573880  1
  Ga  Ga12  1  0.675567  0.997153  0.926120  1
  Ga  Ga13  1  0.324433  0.002847  0.073880  1
  Ga  Ga14  1  0.330338  0.330338  0.560030  1
  Ga  Ga15  1  0.669662  0.669662  0.439970  1
  Ga  Ga16  1  0.669662  0.669662  0.060030  1
  Ga  Ga17  1  0.330338  0.330338  0.939970  1
  Ga  Ga18  1  0.335174  0.540778  0.250000  1
  Ga  Ga19  1  0.664826  0.459222  0.750000  1
  Ga  Ga20  1  0.540778  0.335174  0.250000  1
  Ga  Ga21  1  0.459222  0.664826  0.750000  1
  Co  Co22  1  0.000000  0.000000  0.000000  1
  Co  Co23  1  0.000000  0.000000  0.500000  1
  Ru  Ru24  1  0.673599  0.326401  0.000000  1
  Ru  Ru25  1  0.326401  0.673599  0.000000  1
  Ru  Ru26  1  0.326401  0.673599  0.500000  1
  Ru  Ru27  1  0.673599  0.326401  0.500000  1
