# generated using pymatgen
data_NdGdCI
_symmetry_space_group_name_H-M   'P 1'
_cell_length_a   3.85573200
_cell_length_b   3.85573125
_cell_length_c   15.27781100
_cell_angle_alpha   90.00000000
_cell_angle_beta   90.00000000
_cell_angle_gamma   120.00000641
_symmetry_Int_Tables_number   1
_chemical_formula_structural   NdGdCI
_chemical_formula_sum   'Nd2 Gd2 C2 I2'
_cell_volume   196.70044041
_cell_formula_units_Z   2
loop_
 _symmetry_equiv_pos_site_id
 _symmetry_equiv_pos_as_xyz
  1  'x, y, z'
loop_
 _atom_site_type_symbol
 _atom_site_label
 _atom_site_symmetry_multiplicity
 _atom_site_fract_x
 _atom_site_fract_y
 _atom_site_fract_z
 _atom_site_occupancy
  Nd  Nd0  1  0.333333  0.666667  0.412994  1
  Nd  Nd1  1  0.666667  0.333333  0.912994  1
  Gd  Gd2  1  0.666667  0.333333  0.585279  1
  Gd  Gd3  1  0.333333  0.666667  0.085279  1
  C  C4  1  0.000000  0.000000  0.505977  1
  C  C5  1  0.000000  0.000000  0.005977  1
  I  I6  1  0.666667  0.333333  0.245750  1
  I  I7  1  0.333333  0.666667  0.745750  1
