# generated using pymatgen
data_Sr8Yb3Y9Sn16
_symmetry_space_group_name_H-M   'P 1'
_cell_length_a   8.07019955
_cell_length_b   8.58837442
_cell_length_c   16.33573200
_cell_angle_alpha   90.00000000
_cell_angle_beta   90.00000000
_cell_angle_gamma   89.84981944
_symmetry_Int_Tables_number   1
_chemical_formula_structural   Sr8Yb3Y9Sn16
_chemical_formula_sum   'Sr8 Yb3 Y9 Sn16'
_cell_volume   1132.22398630
_cell_formula_units_Z   1
loop_
 _symmetry_equiv_pos_site_id
 _symmetry_equiv_pos_as_xyz
  1  'x, y, z'
loop_
 _atom_site_type_symbol
 _atom_site_label
 _atom_site_symmetry_multiplicity
 _atom_site_fract_x
 _atom_site_fract_y
 _atom_site_fract_z
 _atom_site_occupancy
  Sr  Sr0  1  0.504203  0.681808  0.594250  1
  Sr  Sr1  1  0.005446  0.821571  0.907423  1
  Sr  Sr2  1  0.493995  0.318137  0.093257  1
  Sr  Sr3  1  0.994443  0.181755  0.407115  1
  Sr  Sr4  1  0.493995  0.318137  0.406743  1
  Sr  Sr5  1  0.994443  0.181755  0.092885  1
  Sr  Sr6  1  0.504203  0.681808  0.905750  1
  Sr  Sr7  1  0.005446  0.821571  0.592577  1
  Yb  Yb8  1  0.336532  0.991966  0.750000  1
  Yb  Yb9  1  0.163016  0.491392  0.250000  1
  Yb  Yb10  1  0.662756  0.007261  0.250000  1
  Y  Y11  1  0.673383  0.165026  0.623214  1
  Y  Y12  1  0.174798  0.332215  0.876548  1
  Y  Y13  1  0.326698  0.831420  0.122857  1
  Y  Y14  1  0.827112  0.666899  0.377405  1
  Y  Y15  1  0.326698  0.831420  0.377143  1
  Y  Y16  1  0.827112  0.666899  0.122595  1
  Y  Y17  1  0.673383  0.165026  0.876786  1
  Y  Y18  1  0.174798  0.332215  0.623452  1
  Y  Y19  1  0.838352  0.507211  0.750000  1
  Sn  Sn20  1  0.663925  0.960069  0.459020  1
  Sn  Sn21  1  0.163608  0.539541  0.040279  1
  Sn  Sn22  1  0.337150  0.040002  0.958998  1
  Sn  Sn23  1  0.836282  0.462131  0.543851  1
  Sn  Sn24  1  0.337150  0.040002  0.541002  1
  Sn  Sn25  1  0.836282  0.462131  0.956149  1
  Sn  Sn26  1  0.663925  0.960069  0.040980  1
  Sn  Sn27  1  0.163608  0.539541  0.459721  1
  Sn  Sn28  1  0.474668  0.376244  0.750000  1
  Sn  Sn29  1  0.969992  0.134360  0.750000  1
  Sn  Sn30  1  0.528997  0.627512  0.250000  1
  Sn  Sn31  1  0.028494  0.870806  0.250000  1
  Sn  Sn32  1  0.720230  0.871383  0.750000  1
  Sn  Sn33  1  0.209474  0.622226  0.750000  1
  Sn  Sn34  1  0.282063  0.118554  0.250000  1
  Sn  Sn35  1  0.783340  0.379939  0.250000  1
