# generated using pymatgen
data_LiYB14
_symmetry_space_group_name_H-M   'P 1'
_cell_length_a   7.26236926
_cell_length_b   7.26237019
_cell_length_c   7.26236913
_cell_angle_alpha   132.25145532
_cell_angle_beta   110.90847502
_cell_angle_gamma   88.32318117
_symmetry_Int_Tables_number   1
_chemical_formula_structural   LiYB14
_chemical_formula_sum   'Li2 Y2 B28'
_cell_volume   252.25613898
_cell_formula_units_Z   2
loop_
 _symmetry_equiv_pos_site_id
 _symmetry_equiv_pos_as_xyz
  1  'x, y, z'
loop_
 _atom_site_type_symbol
 _atom_site_label
 _atom_site_symmetry_multiplicity
 _atom_site_fract_x
 _atom_site_fract_y
 _atom_site_fract_z
 _atom_site_occupancy
  Li  Li0  1  0.000000  0.000000  0.500000  1
  Li  Li1  1  0.000000  0.500000  0.000000  1
  Y  Y2  1  0.620548  0.250000  0.370548  1
  Y  Y3  1  0.379452  0.750000  0.629452  1
  B  B4  1  0.638501  0.665890  0.972611  1
  B  B5  1  0.361499  0.334110  0.027389  1
  B  B6  1  0.193279  0.165890  0.027389  1
  B  B7  1  0.806721  0.834110  0.972611  1
  B  B8  1  0.777971  0.149459  0.628512  1
  B  B9  1  0.222029  0.850541  0.371488  1
  B  B10  1  0.020945  0.649459  0.371488  1
  B  B11  1  0.979055  0.350541  0.628512  1
  B  B12  1  0.915853  0.089115  0.826739  1
  B  B13  1  0.084147  0.910885  0.173261  1
  B  B14  1  0.762376  0.589115  0.173261  1
  B  B15  1  0.237624  0.410885  0.826739  1
  B  B16  1  0.398532  0.400341  0.681484  1
  B  B17  1  0.601468  0.282951  0.001809  1
  B  B18  1  0.218858  0.900341  0.001809  1
  B  B19  1  0.781142  0.782951  0.681484  1
  B  B20  1  0.601468  0.599659  0.318516  1
  B  B21  1  0.398532  0.717049  0.998191  1
  B  B22  1  0.781142  0.099659  0.998191  1
  B  B23  1  0.218858  0.217049  0.318516  1
  B  B24  1  0.033469  0.830007  0.703392  1
  B  B25  1  0.966531  0.669924  0.796539  1
  B  B26  1  0.626615  0.330007  0.796539  1
  B  B27  1  0.373385  0.169924  0.703392  1
  B  B28  1  0.966531  0.169993  0.296608  1
  B  B29  1  0.033469  0.330076  0.203461  1
  B  B30  1  0.373385  0.669993  0.203461  1
  B  B31  1  0.626615  0.830076  0.296608  1
