# generated using pymatgen
data_FeSeI3Br4
_symmetry_space_group_name_H-M   'P 1'
_cell_length_a   7.37248160
_cell_length_b   7.84951608
_cell_length_c   14.27995900
_cell_angle_alpha   77.32386989
_cell_angle_beta   89.82193743
_cell_angle_gamma   90.66551477
_symmetry_Int_Tables_number   1
_chemical_formula_structural   FeSeI3Br4
_chemical_formula_sum   'Fe2 Se2 I6 Br8'
_cell_volume   806.17686363
_cell_formula_units_Z   2
loop_
 _symmetry_equiv_pos_site_id
 _symmetry_equiv_pos_as_xyz
  1  'x, y, z'
loop_
 _atom_site_type_symbol
 _atom_site_label
 _atom_site_symmetry_multiplicity
 _atom_site_fract_x
 _atom_site_fract_y
 _atom_site_fract_z
 _atom_site_occupancy
  Fe  Fe0  1  0.981683  0.658797  0.660403  1
  Fe  Fe1  1  0.023410  0.662861  0.159795  1
  Se  Se2  1  0.595845  0.040078  0.504302  1
  Se  Se3  1  0.396168  0.038646  0.999829  1
  I  I4  1  0.377958  0.977636  0.369313  1
  I  I5  1  0.427574  0.279657  0.569464  1
  I  I6  1  0.146089  0.223802  0.891227  1
  I  I7  1  0.850759  0.227161  0.402126  1
  I  I8  1  0.100059  0.967952  0.194738  1
  I  I9  1  0.571181  0.279317  0.062437  1
  Br  Br10  1  0.155884  0.664659  0.011652  1
  Br  Br11  1  0.844957  0.667890  0.512395  1
  Br  Br12  1  0.708807  0.617667  0.156263  1
  Br  Br13  1  0.297187  0.610886  0.652153  1
  Br  Br14  1  0.153321  0.450871  0.284790  1
  Br  Br15  1  0.853652  0.417593  0.777537  1
  Br  Br16  1  0.595258  0.966259  0.883155  1
  Br  Br17  1  0.920211  0.918865  0.708217  1
