# generated using pymatgen
data_Th6CoP12Ru17
_symmetry_space_group_name_H-M   'P 1'
_cell_length_a   3.99883900
_cell_length_b   11.28711600
_cell_length_c   12.77132500
_cell_angle_alpha   90.00000000
_cell_angle_beta   90.00000000
_cell_angle_gamma   90.00000000
_symmetry_Int_Tables_number   1
_chemical_formula_structural   Th6CoP12Ru17
_chemical_formula_sum   'Th6 Co1 P12 Ru17'
_cell_volume   576.43834719
_cell_formula_units_Z   1
loop_
 _symmetry_equiv_pos_site_id
 _symmetry_equiv_pos_as_xyz
  1  'x, y, z'
loop_
 _atom_site_type_symbol
 _atom_site_label
 _atom_site_symmetry_multiplicity
 _atom_site_fract_x
 _atom_site_fract_y
 _atom_site_fract_z
 _atom_site_occupancy
  Th  Th0  1  0.000000  0.500000  0.523659  1
  Th  Th1  1  0.500000  0.000000  0.475089  1
  Th  Th2  1  0.500000  0.817900  0.203881  1
  Th  Th3  1  0.500000  0.182100  0.203881  1
  Th  Th4  1  0.000000  0.683604  0.796690  1
  Th  Th5  1  0.000000  0.316396  0.796690  1
  Co  Co6  1  0.500000  0.000000  0.013037  1
  P  P7  1  0.500000  0.500000  0.884050  1
  P  P8  1  0.000000  0.000000  0.115794  1
  P  P9  1  0.500000  0.500000  0.335469  1
  P  P10  1  0.000000  0.000000  0.663198  1
  P  P11  1  0.500000  0.299969  0.615472  1
  P  P12  1  0.500000  0.700031  0.615472  1
  P  P13  1  0.000000  0.200126  0.384698  1
  P  P14  1  0.000000  0.799874  0.384698  1
  P  P15  1  0.500000  0.851622  0.900559  1
  P  P16  1  0.500000  0.148378  0.900559  1
  P  P17  1  0.000000  0.655585  0.100730  1
  P  P18  1  0.000000  0.344415  0.100730  1
  Ru  Ru19  1  0.500000  0.500000  0.153854  1
  Ru  Ru20  1  0.000000  0.000000  0.845211  1
  Ru  Ru21  1  0.500000  0.500000  0.692456  1
  Ru  Ru22  1  0.000000  0.000000  0.306502  1
  Ru  Ru23  1  0.000000  0.500000  0.986821  1
  Ru  Ru24  1  0.500000  0.330162  0.990561  1
  Ru  Ru25  1  0.500000  0.669838  0.990561  1
  Ru  Ru26  1  0.000000  0.161662  0.009638  1
  Ru  Ru27  1  0.000000  0.838338  0.009638  1
  Ru  Ru28  1  0.500000  0.300486  0.429483  1
  Ru  Ru29  1  0.500000  0.699514  0.429483  1
  Ru  Ru30  1  0.000000  0.198515  0.571049  1
  Ru  Ru31  1  0.000000  0.801485  0.571049  1
  Ru  Ru32  1  0.500000  0.879341  0.716744  1
  Ru  Ru33  1  0.500000  0.120659  0.716744  1
  Ru  Ru34  1  0.000000  0.621437  0.282928  1
  Ru  Ru35  1  0.000000  0.378563  0.282928  1
