# generated using pymatgen
data_Tb12Th4MgCd3Os4
_symmetry_space_group_name_H-M   'P 1'
_cell_length_a   9.77419318
_cell_length_b   9.77372446
_cell_length_c   9.77372500
_cell_angle_alpha   60.00000156
_cell_angle_beta   60.00158786
_cell_angle_gamma   60.00158801
_symmetry_Int_Tables_number   1
_chemical_formula_structural   Tb12Th4MgCd3Os4
_chemical_formula_sum   'Tb12 Th4 Mg1 Cd3 Os4'
_cell_volume   660.23197800
_cell_formula_units_Z   1
loop_
 _symmetry_equiv_pos_site_id
 _symmetry_equiv_pos_as_xyz
  1  'x, y, z'
loop_
 _atom_site_type_symbol
 _atom_site_label
 _atom_site_symmetry_multiplicity
 _atom_site_fract_x
 _atom_site_fract_y
 _atom_site_fract_z
 _atom_site_occupancy
  Tb  Tb0  1  0.061024  0.438929  0.438929  1
  Tb  Tb1  1  0.437627  0.062175  0.062175  1
  Tb  Tb2  1  0.437627  0.062175  0.438025  1
  Tb  Tb3  1  0.061024  0.438929  0.061117  1
  Tb  Tb4  1  0.437627  0.438025  0.062175  1
  Tb  Tb5  1  0.061024  0.061117  0.438929  1
  Tb  Tb6  1  0.185486  0.813030  0.813030  1
  Tb  Tb7  1  0.812634  0.187121  0.187121  1
  Tb  Tb8  1  0.812634  0.187121  0.813125  1
  Tb  Tb9  1  0.185486  0.813030  0.188455  1
  Tb  Tb10  1  0.812634  0.813125  0.187121  1
  Tb  Tb11  1  0.185486  0.188455  0.813030  1
  Th  Th12  1  0.596768  0.596254  0.596254  1
  Th  Th13  1  0.596768  0.596254  0.210727  1
  Th  Th14  1  0.596768  0.210727  0.596254  1
  Th  Th15  1  0.208161  0.597281  0.597281  1
  Mg  Mg16  1  0.522256  0.825915  0.825915  1
  Cd  Cd17  1  0.830409  0.831170  0.831170  1
  Cd  Cd18  1  0.830409  0.831170  0.507251  1
  Cd  Cd19  1  0.830409  0.507251  0.831170  1
  Os  Os20  1  0.391737  0.392436  0.392436  1
  Os  Os21  1  0.391737  0.392436  0.823390  1
  Os  Os22  1  0.391737  0.823390  0.392436  1
  Os  Os23  1  0.822529  0.392490  0.392490  1
