# generated using pymatgen
data_Y3Al10(SiRu2)2
_symmetry_space_group_name_H-M   'P 1'
_cell_length_a   8.68947900
_cell_length_b   8.68947913
_cell_length_c   9.63793900
_cell_angle_alpha   90.00000000
_cell_angle_beta   90.00000000
_cell_angle_gamma   119.99999569
_symmetry_Int_Tables_number   1
_chemical_formula_structural   Y3Al10(SiRu2)2
_chemical_formula_sum   'Y6 Al20 Si4 Ru8'
_cell_volume   630.23469288
_cell_formula_units_Z   2
loop_
 _symmetry_equiv_pos_site_id
 _symmetry_equiv_pos_as_xyz
  1  'x, y, z'
loop_
 _atom_site_type_symbol
 _atom_site_label
 _atom_site_symmetry_multiplicity
 _atom_site_fract_x
 _atom_site_fract_y
 _atom_site_fract_z
 _atom_site_occupancy
  Y  Y0  1  0.195020  0.390039  0.250000  1
  Y  Y1  1  0.804980  0.609961  0.750000  1
  Y  Y2  1  0.609961  0.804980  0.250000  1
  Y  Y3  1  0.390039  0.195020  0.750000  1
  Y  Y4  1  0.195020  0.804980  0.250000  1
  Y  Y5  1  0.804980  0.195020  0.750000  1
  Al  Al6  1  0.165104  0.330207  0.576793  1
  Al  Al7  1  0.834896  0.669793  0.423207  1
  Al  Al8  1  0.669793  0.834896  0.576793  1
  Al  Al9  1  0.834896  0.669793  0.076793  1
  Al  Al10  1  0.330207  0.165104  0.423207  1
  Al  Al11  1  0.165104  0.330207  0.923207  1
  Al  Al12  1  0.165104  0.834896  0.576793  1
  Al  Al13  1  0.330207  0.165104  0.076793  1
  Al  Al14  1  0.834896  0.165104  0.423207  1
  Al  Al15  1  0.669793  0.834896  0.923207  1
  Al  Al16  1  0.834896  0.165104  0.076793  1
  Al  Al17  1  0.165104  0.834896  0.923207  1
  Al  Al18  1  0.563567  0.127135  0.250000  1
  Al  Al19  1  0.436433  0.872865  0.750000  1
  Al  Al20  1  0.872865  0.436433  0.250000  1
  Al  Al21  1  0.127135  0.563567  0.750000  1
  Al  Al22  1  0.563567  0.436433  0.250000  1
  Al  Al23  1  0.436433  0.563567  0.750000  1
  Al  Al24  1  0.000000  0.000000  0.250000  1
  Al  Al25  1  0.000000  0.000000  0.750000  1
  Si  Si26  1  0.333333  0.666667  0.036924  1
  Si  Si27  1  0.666667  0.333333  0.963076  1
  Si  Si28  1  0.666667  0.333333  0.536924  1
  Si  Si29  1  0.333333  0.666667  0.463076  1
  Ru  Ru30  1  0.500000  0.000000  0.000000  1
  Ru  Ru31  1  0.000000  0.500000  0.000000  1
  Ru  Ru32  1  0.500000  0.000000  0.500000  1
  Ru  Ru33  1  0.500000  0.500000  0.000000  1
  Ru  Ru34  1  0.000000  0.500000  0.500000  1
  Ru  Ru35  1  0.500000  0.500000  0.500000  1
  Ru  Ru36  1  0.000000  0.000000  0.000000  1
  Ru  Ru37  1  0.000000  0.000000  0.500000  1
