# generated using pymatgen
data_HfZr5Al16OsPt6
_symmetry_space_group_name_H-M   'P 1'
_cell_length_a   8.78362427
_cell_length_b   8.79015974
_cell_length_c   8.77761344
_cell_angle_alpha   59.99797190
_cell_angle_beta   60.07187938
_cell_angle_gamma   59.84176121
_symmetry_Int_Tables_number   1
_chemical_formula_structural   HfZr5Al16OsPt6
_chemical_formula_sum   'Hf1 Zr5 Al16 Os1 Pt6'
_cell_volume   478.89253089
_cell_formula_units_Z   1
loop_
 _symmetry_equiv_pos_site_id
 _symmetry_equiv_pos_as_xyz
  1  'x, y, z'
loop_
 _atom_site_type_symbol
 _atom_site_label
 _atom_site_symmetry_multiplicity
 _atom_site_fract_x
 _atom_site_fract_y
 _atom_site_fract_z
 _atom_site_occupancy
  Hf  Hf0  1  0.320899  0.679101  0.684491  1
  Zr  Zr1  1  0.687929  0.688548  0.312003  1
  Zr  Zr2  1  0.318299  0.681701  0.315010  1
  Zr  Zr3  1  0.683433  0.316567  0.312171  1
  Zr  Zr4  1  0.311452  0.312071  0.688480  1
  Zr  Zr5  1  0.680918  0.319082  0.685629  1
  Al  Al6  1  0.879570  0.879491  0.360642  1
  Al  Al7  1  0.870630  0.362951  0.883008  1
  Al  Al8  1  0.361756  0.870912  0.883250  1
  Al  Al9  1  0.880094  0.879605  0.880478  1
  Al  Al10  1  0.120395  0.119906  0.640178  1
  Al  Al11  1  0.129088  0.638244  0.115919  1
  Al  Al12  1  0.637049  0.129370  0.116589  1
  Al  Al13  1  0.120509  0.120430  0.119704  1
  Al  Al14  1  0.662310  0.663017  0.008827  1
  Al  Al15  1  0.662632  0.010581  0.663665  1
  Al  Al16  1  0.011211  0.662649  0.663479  1
  Al  Al17  1  0.662452  0.662817  0.665592  1
  Al  Al18  1  0.337183  0.337548  0.990864  1
  Al  Al19  1  0.337351  0.988789  0.337340  1
  Al  Al20  1  0.989419  0.337368  0.336878  1
  Al  Al21  1  0.336983  0.337690  0.334156  1
  Os  Os22  1  0.499522  0.500478  0.999301  1
  Pt  Pt23  1  0.999383  0.000617  0.000495  1
  Pt  Pt24  1  0.000225  0.999775  0.500779  1
  Pt  Pt25  1  0.499313  0.999924  0.500806  1
  Pt  Pt26  1  0.000011  0.500092  0.500060  1
  Pt  Pt27  1  0.000076  0.500687  0.000042  1
  Pt  Pt28  1  0.499908  0.999989  0.000163  1
