# generated using pymatgen
data_Tb2(AlAu3)3
_symmetry_space_group_name_H-M   'P 1'
_cell_length_a   7.95006911
_cell_length_b   7.95006827
_cell_length_c   10.80127026
_cell_angle_alpha   68.44362393
_cell_angle_beta   68.44362715
_cell_angle_gamma   59.91487328
_symmetry_Int_Tables_number   1
_chemical_formula_structural   Tb2(AlAu3)3
_chemical_formula_sum   'Tb4 Al6 Au18'
_cell_volume   534.96283579
_cell_formula_units_Z   2
loop_
 _symmetry_equiv_pos_site_id
 _symmetry_equiv_pos_as_xyz
  1  'x, y, z'
loop_
 _atom_site_type_symbol
 _atom_site_label
 _atom_site_symmetry_multiplicity
 _atom_site_fract_x
 _atom_site_fract_y
 _atom_site_fract_z
 _atom_site_occupancy
  Tb  Tb0  1  0.415160  0.248164  0.248405  1
  Tb  Tb1  1  0.584840  0.751836  0.751595  1
  Tb  Tb2  1  0.751836  0.584840  0.251595  1
  Tb  Tb3  1  0.248164  0.415160  0.748405  1
  Al  Al4  1  0.500000  0.000000  0.000000  1
  Al  Al5  1  0.000000  0.500000  0.500000  1
  Al  Al6  1  0.650586  0.176505  0.498291  1
  Al  Al7  1  0.349414  0.823495  0.501709  1
  Al  Al8  1  0.823495  0.349414  0.001709  1
  Al  Al9  1  0.176505  0.650586  0.998291  1
  Au  Au10  1  0.306062  0.917736  0.255091  1
  Au  Au11  1  0.693938  0.082264  0.744909  1
  Au  Au12  1  0.082264  0.693938  0.244909  1
  Au  Au13  1  0.917736  0.306062  0.755091  1
  Au  Au14  1  0.479163  0.641112  0.072177  1
  Au  Au15  1  0.520837  0.358888  0.927823  1
  Au  Au16  1  0.358888  0.520837  0.427823  1
  Au  Au17  1  0.641112  0.479163  0.572177  1
  Au  Au18  1  0.851981  0.148019  0.250000  1
  Au  Au19  1  0.148019  0.851981  0.750000  1
  Au  Au20  1  0.800346  0.978572  0.073858  1
  Au  Au21  1  0.199654  0.021428  0.926142  1
  Au  Au22  1  0.021428  0.199654  0.426142  1
  Au  Au23  1  0.978572  0.800346  0.573858  1
  Au  Au24  1  0.690167  0.856318  0.432740  1
  Au  Au25  1  0.309833  0.143682  0.567260  1
  Au  Au26  1  0.143682  0.309833  0.067260  1
  Au  Au27  1  0.856318  0.690167  0.932740  1
