# generated using pymatgen
data_Sm8Pd10Pt14W
_symmetry_space_group_name_H-M   'P 1'
_cell_length_a   8.47788500
_cell_length_b   8.43959100
_cell_length_c   8.47903200
_cell_angle_alpha   90.00000000
_cell_angle_beta   90.00000000
_cell_angle_gamma   90.00000000
_symmetry_Int_Tables_number   1
_chemical_formula_structural   Sm8Pd10Pt14W
_chemical_formula_sum   'Sm8 Pd10 Pt14 W1'
_cell_volume   606.67373861
_cell_formula_units_Z   1
loop_
 _symmetry_equiv_pos_site_id
 _symmetry_equiv_pos_as_xyz
  1  'x, y, z'
loop_
 _atom_site_type_symbol
 _atom_site_label
 _atom_site_symmetry_multiplicity
 _atom_site_fract_x
 _atom_site_fract_y
 _atom_site_fract_z
 _atom_site_occupancy
  Sm  Sm0  1  0.250488  0.250708  0.250803  1
  Sm  Sm1  1  0.749512  0.749292  0.749197  1
  Sm  Sm2  1  0.749512  0.749292  0.250803  1
  Sm  Sm3  1  0.749512  0.250708  0.749197  1
  Sm  Sm4  1  0.250488  0.250708  0.749197  1
  Sm  Sm5  1  0.250488  0.749292  0.250803  1
  Sm  Sm6  1  0.250488  0.749292  0.749197  1
  Sm  Sm7  1  0.749512  0.250708  0.250803  1
  Pd  Pd8  1  0.500000  0.000000  0.264438  1
  Pd  Pd9  1  0.264508  0.000000  0.500000  1
  Pd  Pd10  1  0.500000  0.000000  0.735562  1
  Pd  Pd11  1  0.735492  0.000000  0.500000  1
  Pd  Pd12  1  0.000000  0.500000  0.264509  1
  Pd  Pd13  1  0.000000  0.500000  0.735491  1
  Pd  Pd14  1  0.500000  0.254885  0.500000  1
  Pd  Pd15  1  0.500000  0.745115  0.500000  1
  Pd  Pd16  1  0.500000  0.500000  0.255738  1
  Pd  Pd17  1  0.500000  0.500000  0.744262  1
  Pt  Pt18  1  0.264291  0.500000  0.000000  1
  Pt  Pt19  1  0.735709  0.500000  0.000000  1
  Pt  Pt20  1  0.000000  0.263108  0.500000  1
  Pt  Pt21  1  0.500000  0.263674  0.000000  1
  Pt  Pt22  1  0.000000  0.736892  0.500000  1
  Pt  Pt23  1  0.500000  0.736326  0.000000  1
  Pt  Pt24  1  0.253722  0.500000  0.500000  1
  Pt  Pt25  1  0.746278  0.500000  0.500000  1
  Pt  Pt26  1  0.302239  0.000000  0.000000  1
  Pt  Pt27  1  0.697761  0.000000  0.000000  1
  Pt  Pt28  1  0.000000  0.302758  0.000000  1
  Pt  Pt29  1  0.000000  0.697242  0.000000  1
  Pt  Pt30  1  0.000000  0.000000  0.301462  1
  Pt  Pt31  1  0.000000  0.000000  0.698538  1
  W  W32  1  0.000000  0.000000  0.000000  1
