# generated using pymatgen
data_MgIn5(CuPd2)6
_symmetry_space_group_name_H-M   'P 1'
_cell_length_a   4.11986300
_cell_length_b   7.33620500
_cell_length_c   12.36324100
_cell_angle_alpha   90.00000000
_cell_angle_beta   90.00040789
_cell_angle_gamma   90.00000000
_symmetry_Int_Tables_number   1
_chemical_formula_structural   MgIn5(CuPd2)6
_chemical_formula_sum   'Mg1 In5 Cu6 Pd12'
_cell_volume   373.66856841
_cell_formula_units_Z   1
loop_
 _symmetry_equiv_pos_site_id
 _symmetry_equiv_pos_as_xyz
  1  'x, y, z'
loop_
 _atom_site_type_symbol
 _atom_site_label
 _atom_site_symmetry_multiplicity
 _atom_site_fract_x
 _atom_site_fract_y
 _atom_site_fract_z
 _atom_site_occupancy
  Mg  Mg0  1  0.000000  0.500000  0.000000  1
  In  In1  1  0.499983  0.000000  0.164683  1
  In  In2  1  0.000056  0.500000  0.332187  1
  In  In3  1  0.500001  0.000000  0.500000  1
  In  In4  1  0.999944  0.500000  0.667813  1
  In  In5  1  0.500016  0.000000  0.835317  1
  Cu  Cu6  1  0.000000  0.000000  0.000000  1
  Cu  Cu7  1  0.500050  0.500000  0.163308  1
  Cu  Cu8  1  0.000005  0.000000  0.332758  1
  Cu  Cu9  1  0.500001  0.500000  0.500000  1
  Cu  Cu10  1  0.999995  0.000000  0.667242  1
  Cu  Cu11  1  0.499952  0.500000  0.836693  1
  Pd  Pd12  1  0.500000  0.255571  0.000000  1
  Pd  Pd13  1  0.500000  0.744429  0.000000  1
  Pd  Pd14  1  0.999997  0.252382  0.165187  1
  Pd  Pd15  1  0.999997  0.747619  0.165187  1
  Pd  Pd16  1  0.500010  0.249784  0.332953  1
  Pd  Pd17  1  0.500010  0.750216  0.332953  1
  Pd  Pd18  1  0.000000  0.250549  0.500000  1
  Pd  Pd19  1  0.000000  0.749452  0.500000  1
  Pd  Pd20  1  0.499989  0.249784  0.667047  1
  Pd  Pd21  1  0.499989  0.750216  0.667047  1
  Pd  Pd22  1  0.000003  0.252382  0.834813  1
  Pd  Pd23  1  0.000003  0.747619  0.834813  1
