# generated using pymatgen
data_Ho9(BiO)5
_symmetry_space_group_name_H-M   'P 1'
_cell_length_a   9.99077500
_cell_length_b   9.99077500
_cell_length_c   8.90271500
_cell_angle_alpha   90.00000000
_cell_angle_beta   90.00000000
_cell_angle_gamma   90.00000000
_symmetry_Int_Tables_number   1
_chemical_formula_structural   Ho9(BiO)5
_chemical_formula_sum   'Ho18 Bi10 O10'
_cell_volume   888.62970671
_cell_formula_units_Z   2
loop_
 _symmetry_equiv_pos_site_id
 _symmetry_equiv_pos_as_xyz
  1  'x, y, z'
loop_
 _atom_site_type_symbol
 _atom_site_label
 _atom_site_symmetry_multiplicity
 _atom_site_fract_x
 _atom_site_fract_y
 _atom_site_fract_z
 _atom_site_occupancy
  Ho  Ho0  1  0.500000  0.000000  0.679885  1
  Ho  Ho1  1  0.792964  0.105470  0.335323  1
  Ho  Ho2  1  0.274533  0.083705  0.002274  1
  Ho  Ho3  1  0.583705  0.225467  0.002274  1
  Ho  Ho4  1  0.207036  0.894530  0.335323  1
  Ho  Ho5  1  0.605470  0.707036  0.335323  1
  Ho  Ho6  1  0.292964  0.605470  0.664677  1
  Ho  Ho7  1  0.416295  0.774533  0.002274  1
  Ho  Ho8  1  0.225467  0.416295  0.997726  1
  Ho  Ho9  1  0.894530  0.792964  0.664677  1
  Ho  Ho10  1  0.000000  0.500000  0.320115  1
  Ho  Ho11  1  0.083705  0.725467  0.997726  1
  Ho  Ho12  1  0.916295  0.274533  0.997726  1
  Ho  Ho13  1  0.774533  0.583705  0.997726  1
  Ho  Ho14  1  0.725467  0.916295  0.002274  1
  Ho  Ho15  1  0.394530  0.292964  0.335323  1
  Ho  Ho16  1  0.707036  0.394530  0.664677  1
  Ho  Ho17  1  0.105470  0.207036  0.664677  1
  Bi  Bi18  1  0.594757  0.693957  0.696656  1
  Bi  Bi19  1  0.905243  0.806043  0.303344  1
  Bi  Bi20  1  0.693957  0.405243  0.303344  1
  Bi  Bi21  1  0.000000  0.500000  0.680438  1
  Bi  Bi22  1  0.306043  0.594757  0.303344  1
  Bi  Bi23  1  0.806043  0.094757  0.696656  1
  Bi  Bi24  1  0.405243  0.306043  0.696656  1
  Bi  Bi25  1  0.193957  0.905243  0.696656  1
  Bi  Bi26  1  0.094757  0.193957  0.303344  1
  Bi  Bi27  1  0.500000  0.000000  0.319562  1
  O  O28  1  0.226141  0.879837  0.083998  1
  O  O29  1  0.273859  0.620163  0.916002  1
  O  O30  1  0.120163  0.226141  0.916002  1
  O  O31  1  0.879837  0.773859  0.916002  1
  O  O32  1  0.726141  0.379837  0.916002  1
  O  O33  1  0.500000  0.000000  0.936933  1
  O  O34  1  0.773859  0.120163  0.083998  1
  O  O35  1  0.000000  0.500000  0.063067  1
  O  O36  1  0.379837  0.273859  0.083998  1
  O  O37  1  0.620163  0.726141  0.083998  1
