# generated using pymatgen
data_Hf3Ta(GeRh5)2
_symmetry_space_group_name_H-M   'P 1'
_cell_length_a   4.05674500
_cell_length_b   5.58188708
_cell_length_c   10.91018116
_cell_angle_alpha   89.98053750
_cell_angle_beta   90.00000000
_cell_angle_gamma   90.00000000
_symmetry_Int_Tables_number   1
_chemical_formula_structural   Hf3Ta(GeRh5)2
_chemical_formula_sum   'Hf3 Ta1 Ge2 Rh10'
_cell_volume   247.05331915
_cell_formula_units_Z   1
loop_
 _symmetry_equiv_pos_site_id
 _symmetry_equiv_pos_as_xyz
  1  'x, y, z'
loop_
 _atom_site_type_symbol
 _atom_site_label
 _atom_site_symmetry_multiplicity
 _atom_site_fract_x
 _atom_site_fract_y
 _atom_site_fract_z
 _atom_site_occupancy
  Hf  Hf0  1  0.500000  0.820432  0.358384  1
  Hf  Hf1  1  0.500000  0.677503  0.860520  1
  Hf  Hf2  1  0.500000  0.320702  0.141881  1
  Ta  Ta3  1  0.500000  0.174373  0.642467  1
  Ge  Ge4  1  0.000000  0.501724  0.500078  1
  Ge  Ge5  1  0.000000  0.000781  0.999697  1
  Rh  Rh6  1  0.500000  0.187660  0.888515  1
  Rh  Rh7  1  0.500000  0.811764  0.106563  1
  Rh  Rh8  1  0.500000  0.693570  0.607214  1
  Rh  Rh9  1  0.500000  0.309738  0.397584  1
  Rh  Rh10  1  0.000000  0.426429  0.738917  1
  Rh  Rh11  1  0.000000  0.567166  0.257202  1
  Rh  Rh12  1  0.000000  0.007804  0.503565  1
  Rh  Rh13  1  0.000000  0.498646  0.998983  1
  Rh  Rh14  1  0.000000  0.067694  0.244933  1
  Rh  Rh15  1  0.000000  0.934015  0.753497  1
