# generated using pymatgen
data_Tb3P4Rh7
_symmetry_space_group_name_H-M   'P 1'
_cell_length_a   3.95651275
_cell_length_b   8.15330967
_cell_length_c   7.77078757
_cell_angle_alpha   102.11641323
_cell_angle_beta   104.74847294
_cell_angle_gamma   104.04196284
_symmetry_Int_Tables_number   1
_chemical_formula_structural   Tb3P4Rh7
_chemical_formula_sum   'Tb3 P4 Rh7'
_cell_volume   225.09648005
_cell_formula_units_Z   1
loop_
 _symmetry_equiv_pos_site_id
 _symmetry_equiv_pos_as_xyz
  1  'x, y, z'
loop_
 _atom_site_type_symbol
 _atom_site_label
 _atom_site_symmetry_multiplicity
 _atom_site_fract_x
 _atom_site_fract_y
 _atom_site_fract_z
 _atom_site_occupancy
  Tb  Tb0  1  0.000000  0.000000  0.000000  1
  Tb  Tb1  1  0.997493  0.668616  0.326371  1
  Tb  Tb2  1  0.002507  0.331384  0.673630  1
  P  P3  1  0.391570  0.725034  0.058106  1
  P  P4  1  0.282567  0.173303  0.391832  1
  P  P5  1  0.717433  0.826697  0.608169  1
  P  P6  1  0.608431  0.274967  0.941895  1
  Rh  Rh7  1  0.252113  0.420771  0.083455  1
  Rh  Rh8  1  0.764225  0.270409  0.258040  1
  Rh  Rh9  1  0.651394  0.953358  0.349429  1
  Rh  Rh10  1  0.500000  0.499999  0.500000  1
  Rh  Rh11  1  0.348607  0.046642  0.650571  1
  Rh  Rh12  1  0.235774  0.729590  0.741959  1
  Rh  Rh13  1  0.747886  0.579228  0.916544  1
