# generated using pymatgen
data_Sc4MnCu(B2Rh5)2
_symmetry_space_group_name_H-M   'P 1'
_cell_length_a   9.37496200
_cell_length_b   3.05671200
_cell_length_c   9.37496200
_cell_angle_alpha   90.00000000
_cell_angle_beta   90.00000000
_cell_angle_gamma   90.00000000
_symmetry_Int_Tables_number   1
_chemical_formula_structural   Sc4MnCu(B2Rh5)2
_chemical_formula_sum   'Sc4 Mn1 Cu1 B4 Rh10'
_cell_volume   268.65415022
_cell_formula_units_Z   1
loop_
 _symmetry_equiv_pos_site_id
 _symmetry_equiv_pos_as_xyz
  1  'x, y, z'
loop_
 _atom_site_type_symbol
 _atom_site_label
 _atom_site_symmetry_multiplicity
 _atom_site_fract_x
 _atom_site_fract_y
 _atom_site_fract_z
 _atom_site_occupancy
  Sc  Sc0  1  0.675055  0.000000  0.176108  1
  Sc  Sc1  1  0.176108  0.000000  0.324945  1
  Sc  Sc2  1  0.823892  0.000000  0.675055  1
  Sc  Sc3  1  0.324945  0.000000  0.823892  1
  Mn  Mn4  1  0.000000  0.000000  0.000000  1
  Cu  Cu5  1  0.500001  0.000000  0.500001  1
  B  B6  1  0.377130  0.000000  0.129126  1
  B  B7  1  0.870875  0.000000  0.377130  1
  B  B8  1  0.129126  0.000000  0.622870  1
  B  B9  1  0.622870  0.000000  0.870875  1
  Rh  Rh10  1  0.500001  0.499999  0.000000  1
  Rh  Rh11  1  0.218339  0.499999  0.072031  1
  Rh  Rh12  1  0.927969  0.499999  0.218339  1
  Rh  Rh13  1  0.429433  0.499999  0.284189  1
  Rh  Rh14  1  0.715811  0.499999  0.429433  1
  Rh  Rh15  1  0.000000  0.499999  0.500001  1
  Rh  Rh16  1  0.284189  0.499999  0.570568  1
  Rh  Rh17  1  0.570568  0.499999  0.715811  1
  Rh  Rh18  1  0.072031  0.499999  0.781661  1
  Rh  Rh19  1  0.781661  0.499999  0.927969  1
