# generated using pymatgen
data_Pr5Nd3Sc12Si15Hg
_symmetry_space_group_name_H-M   'P 1'
_cell_length_a   7.28094299
_cell_length_b   7.53492363
_cell_length_c   14.34137804
_cell_angle_alpha   89.97062919
_cell_angle_beta   89.64315952
_cell_angle_gamma   90.20406424
_symmetry_Int_Tables_number   1
_chemical_formula_structural   Pr5Nd3Sc12Si15Hg
_chemical_formula_sum   'Pr5 Nd3 Sc12 Si15 Hg1'
_cell_volume   786.76699029
_cell_formula_units_Z   1
loop_
 _symmetry_equiv_pos_site_id
 _symmetry_equiv_pos_as_xyz
  1  'x, y, z'
loop_
 _atom_site_type_symbol
 _atom_site_label
 _atom_site_symmetry_multiplicity
 _atom_site_fract_x
 _atom_site_fract_y
 _atom_site_fract_z
 _atom_site_occupancy
  Pr  Pr0  1  0.495417  0.678471  0.600818  1
  Pr  Pr1  1  0.988189  0.834241  0.598242  1
  Pr  Pr2  1  0.987055  0.827984  0.903352  1
  Pr  Pr3  1  0.512081  0.327396  0.097291  1
  Pr  Pr4  1  0.012767  0.172681  0.098006  1
  Nd  Nd5  1  0.008206  0.169416  0.397438  1
  Nd  Nd6  1  0.513076  0.325559  0.397750  1
  Nd  Nd7  1  0.487540  0.673246  0.902616  1
  Sc  Sc8  1  0.341532  0.168867  0.629115  1
  Sc  Sc9  1  0.665708  0.824382  0.373002  1
  Sc  Sc10  1  0.663285  0.001271  0.752358  1
  Sc  Sc11  1  0.167912  0.677858  0.370999  1
  Sc  Sc12  1  0.829375  0.323327  0.876536  1
  Sc  Sc13  1  0.822621  0.324352  0.626181  1
  Sc  Sc14  1  0.838963  0.502403  0.249891  1
  Sc  Sc15  1  0.339724  0.996605  0.248544  1
  Sc  Sc16  1  0.328446  0.174486  0.876166  1
  Sc  Sc17  1  0.169611  0.676135  0.124837  1
  Sc  Sc18  1  0.670814  0.823878  0.124230  1
  Sc  Sc19  1  0.161231  0.497770  0.755083  1
  Si  Si20  1  0.286609  0.881466  0.751825  1
  Si  Si21  1  0.464875  0.625052  0.248376  1
  Si  Si22  1  0.035605  0.128561  0.751369  1
  Si  Si23  1  0.535005  0.376966  0.752249  1
  Si  Si24  1  0.964066  0.875283  0.248600  1
  Si  Si25  1  0.710603  0.117753  0.248427  1
  Si  Si26  1  0.849099  0.536834  0.039612  1
  Si  Si27  1  0.349015  0.962046  0.039832  1
  Si  Si28  1  0.151280  0.463180  0.961234  1
  Si  Si29  1  0.652176  0.040495  0.537037  1
  Si  Si30  1  0.345956  0.961493  0.459596  1
  Si  Si31  1  0.837858  0.541485  0.457412  1
  Si  Si32  1  0.790321  0.617377  0.752310  1
  Si  Si33  1  0.211354  0.381788  0.249278  1
  Si  Si34  1  0.650015  0.036306  0.960176  1
  Hg  Hg35  1  0.162607  0.453585  0.540214  1
