# generated using pymatgen
data_EuP12IrOs3
_symmetry_space_group_name_H-M   'P 1'
_cell_length_a   7.05330841
_cell_length_b   7.03450551
_cell_length_c   7.03450567
_cell_angle_alpha   109.41701724
_cell_angle_beta   109.52537357
_cell_angle_gamma   109.52536742
_symmetry_Int_Tables_number   1
_chemical_formula_structural   EuP12IrOs3
_chemical_formula_sum   'Eu1 P12 Ir1 Os3'
_cell_volume   268.50196571
_cell_formula_units_Z   1
loop_
 _symmetry_equiv_pos_site_id
 _symmetry_equiv_pos_as_xyz
  1  'x, y, z'
loop_
 _atom_site_type_symbol
 _atom_site_label
 _atom_site_symmetry_multiplicity
 _atom_site_fract_x
 _atom_site_fract_y
 _atom_site_fract_z
 _atom_site_occupancy
  Eu  Eu0  1  0.000000  0.000000  0.000000  1
  P  P1  1  0.856887  0.643206  0.500471  1
  P  P2  1  0.143113  0.356794  0.499529  1
  P  P3  1  0.139902  0.640648  0.784425  1
  P  P4  1  0.860098  0.359352  0.215575  1
  P  P5  1  0.643584  0.500471  0.857265  1
  P  P6  1  0.356416  0.499529  0.142735  1
  P  P7  1  0.644522  0.784425  0.143776  1
  P  P8  1  0.355478  0.215575  0.856224  1
  P  P9  1  0.500745  0.856224  0.640648  1
  P  P10  1  0.499255  0.143776  0.359352  1
  P  P11  1  0.786320  0.142735  0.643206  1
  P  P12  1  0.213680  0.857265  0.356794  1
  Ir  Ir13  1  0.500000  0.000000  0.000000  1
  Os  Os14  1  0.500000  0.500000  0.500000  1
  Os  Os15  1  0.000000  0.500000  0.000000  1
  Os  Os16  1  0.000000  0.000000  0.500000  1
