# generated using pymatgen
data_Sr21(Zn2As9)2
_symmetry_space_group_name_H-M   'P 1'
_cell_length_a   11.93920276
_cell_length_b   11.93920294
_cell_length_c   17.08879900
_cell_angle_alpha   88.38906421
_cell_angle_beta   88.38906418
_cell_angle_gamma   87.22799292
_symmetry_Int_Tables_number   1
_chemical_formula_structural   Sr21(Zn2As9)2
_chemical_formula_sum   'Sr42 Zn8 As36'
_cell_volume   2431.23025172
_cell_formula_units_Z   2
loop_
 _symmetry_equiv_pos_site_id
 _symmetry_equiv_pos_as_xyz
  1  'x, y, z'
loop_
 _atom_site_type_symbol
 _atom_site_label
 _atom_site_symmetry_multiplicity
 _atom_site_fract_x
 _atom_site_fract_y
 _atom_site_fract_z
 _atom_site_occupancy
  Sr  Sr0  1  0.931427  0.233327  0.651451  1
  Sr  Sr1  1  0.233327  0.931427  0.651451  1
  Sr  Sr2  1  0.068573  0.766673  0.348549  1
  Sr  Sr3  1  0.766673  0.068573  0.348549  1
  Sr  Sr4  1  0.923218  0.247467  0.854600  1
  Sr  Sr5  1  0.247467  0.923218  0.854600  1
  Sr  Sr6  1  0.076782  0.752533  0.145400  1
  Sr  Sr7  1  0.752533  0.076782  0.145400  1
  Sr  Sr8  1  0.989950  0.227389  0.421107  1
  Sr  Sr9  1  0.227389  0.989950  0.421107  1
  Sr  Sr10  1  0.010050  0.772611  0.578893  1
  Sr  Sr11  1  0.772611  0.010050  0.578893  1
  Sr  Sr12  1  0.746606  0.493325  0.944784  1
  Sr  Sr13  1  0.493325  0.746606  0.944784  1
  Sr  Sr14  1  0.253394  0.506675  0.055216  1
  Sr  Sr15  1  0.506675  0.253394  0.055216  1
  Sr  Sr16  1  0.820649  0.498047  0.562965  1
  Sr  Sr17  1  0.498047  0.820649  0.562965  1
  Sr  Sr18  1  0.179351  0.501953  0.437035  1
  Sr  Sr19  1  0.501953  0.179351  0.437035  1
  Sr  Sr20  1  0.933391  0.575969  0.757204  1
  Sr  Sr21  1  0.575969  0.933391  0.757204  1
  Sr  Sr22  1  0.066609  0.424031  0.242796  1
  Sr  Sr23  1  0.424031  0.066609  0.242796  1
  Sr  Sr24  1  0.997264  0.741265  0.940141  1
  Sr  Sr25  1  0.741265  0.997264  0.940141  1
  Sr  Sr26  1  0.002736  0.258735  0.059859  1
  Sr  Sr27  1  0.258735  0.002736  0.059859  1
  Sr  Sr28  1  0.265003  0.593996  0.840808  1
  Sr  Sr29  1  0.593996  0.265003  0.840808  1
  Sr  Sr30  1  0.734997  0.406004  0.159192  1
  Sr  Sr31  1  0.406004  0.734997  0.159192  1
  Sr  Sr32  1  0.320313  0.572013  0.619530  1
  Sr  Sr33  1  0.572013  0.320313  0.619530  1
  Sr  Sr34  1  0.679687  0.427987  0.380470  1
  Sr  Sr35  1  0.427987  0.679687  0.380470  1
  Sr  Sr36  1  0.250886  0.250886  0.583501  1
  Sr  Sr37  1  0.749114  0.749114  0.416499  1
  Sr  Sr38  1  0.260998  0.260998  0.902880  1
  Sr  Sr39  1  0.739002  0.739002  0.097120  1
  Sr  Sr40  1  0.600596  0.600596  0.743614  1
  Sr  Sr41  1  0.399404  0.399404  0.256386  1
  Zn  Zn42  1  0.150198  0.376563  0.747693  1
  Zn  Zn43  1  0.376563  0.150198  0.747693  1
  Zn  Zn44  1  0.849802  0.623437  0.252307  1
  Zn  Zn45  1  0.623437  0.849802  0.252307  1
  Zn  Zn46  1  0.000207  0.000207  0.204571  1
  Zn  Zn47  1  0.999793  0.999793  0.795429  1
  Zn  Zn48  1  0.158406  0.158406  0.243069  1
  Zn  Zn49  1  0.841594  0.841594  0.756931  1
  As  As50  1  0.042750  0.042750  0.557622  1
  As  As51  1  0.957250  0.957250  0.442378  1
  As  As52  1  0.049691  0.049691  0.943235  1
  As  As53  1  0.950309  0.950309  0.056765  1
  As  As54  1  0.432943  0.432943  0.469267  1
  As  As55  1  0.567057  0.567057  0.530733  1
  As  As56  1  0.467941  0.467941  0.932798  1
  As  As57  1  0.532059  0.532059  0.067202  1
  As  As58  1  0.761738  0.396862  0.741668  1
  As  As59  1  0.396862  0.761738  0.741668  1
  As  As60  1  0.238262  0.603138  0.258332  1
  As  As61  1  0.603138  0.238262  0.258332  1
  As  As62  1  0.065039  0.450504  0.894139  1
  As  As63  1  0.450504  0.065039  0.894139  1
  As  As64  1  0.934961  0.549496  0.105861  1
  As  As65  1  0.549496  0.934961  0.105861  1
  As  As66  1  0.076774  0.458805  0.615216  1
  As  As67  1  0.458805  0.076774  0.615216  1
  As  As68  1  0.923226  0.541195  0.384784  1
  As  As69  1  0.541195  0.923226  0.384784  1
  As  As70  1  0.059439  0.798224  0.761099  1
  As  As71  1  0.798224  0.059439  0.761099  1
  As  As72  1  0.940561  0.201776  0.238901  1
  As  As73  1  0.201776  0.940561  0.238901  1
  As  As74  1  0.150376  0.150376  0.751086  1
  As  As75  1  0.849624  0.849624  0.248914  1
  As  As76  1  0.246010  0.246010  0.371039  1
  As  As77  1  0.753990  0.753990  0.628961  1
  As  As78  1  0.371488  0.371488  0.743095  1
  As  As79  1  0.628512  0.628512  0.256905  1
  As  As80  1  0.742063  0.742063  0.877894  1
  As  As81  1  0.257937  0.257937  0.122106  1
  As  As82  1  0.754643  0.245357  0.500000  1
  As  As83  1  0.245357  0.754643  0.500000  1
  As  As84  1  0.753898  0.246102  0.000000  1
  As  As85  1  0.246102  0.753898  0.000000  1
