# generated using pymatgen
data_Hf3TaNb2Al16Ir7
_symmetry_space_group_name_H-M   'P 1'
_cell_length_a   8.62374094
_cell_length_b   8.65175193
_cell_length_c   8.67475249
_cell_angle_alpha   59.69830989
_cell_angle_beta   60.01829604
_cell_angle_gamma   60.28338519
_symmetry_Int_Tables_number   1
_chemical_formula_structural   Hf3TaNb2Al16Ir7
_chemical_formula_sum   'Hf3 Ta1 Nb2 Al16 Ir7'
_cell_volume   457.63489024
_cell_formula_units_Z   1
loop_
 _symmetry_equiv_pos_site_id
 _symmetry_equiv_pos_as_xyz
  1  'x, y, z'
loop_
 _atom_site_type_symbol
 _atom_site_label
 _atom_site_symmetry_multiplicity
 _atom_site_fract_x
 _atom_site_fract_y
 _atom_site_fract_z
 _atom_site_occupancy
  Hf  Hf0  1  0.684649  0.315351  0.684649  1
  Hf  Hf1  1  0.316413  0.316977  0.683023  1
  Hf  Hf2  1  0.683023  0.683587  0.316413  1
  Ta  Ta3  1  0.327742  0.672258  0.327742  1
  Nb  Nb4  1  0.677287  0.322713  0.320638  1
  Nb  Nb5  1  0.320638  0.679362  0.677287  1
  Al  Al6  1  0.338344  0.339088  0.336434  1
  Al  Al7  1  0.659254  0.663548  0.662465  1
  Al  Al8  1  0.336452  0.340746  0.985267  1
  Al  Al9  1  0.336434  0.986133  0.338344  1
  Al  Al10  1  0.660912  0.661656  0.013867  1
  Al  Al11  1  0.662465  0.014733  0.659254  1
  Al  Al12  1  0.985267  0.337535  0.336452  1
  Al  Al13  1  0.013867  0.663566  0.660912  1
  Al  Al14  1  0.118511  0.118398  0.121052  1
  Al  Al15  1  0.882217  0.878559  0.878836  1
  Al  Al16  1  0.121441  0.117783  0.639612  1
  Al  Al17  1  0.121052  0.642038  0.118511  1
  Al  Al18  1  0.881602  0.881489  0.357962  1
  Al  Al19  1  0.878836  0.360388  0.882217  1
  Al  Al20  1  0.639612  0.121164  0.121441  1
  Al  Al21  1  0.357962  0.878948  0.881602  1
  Ir  Ir22  1  0.499032  0.998939  0.001061  1
  Ir  Ir23  1  0.001061  0.500968  0.499032  1
  Ir  Ir24  1  0.998758  0.501242  0.998758  1
  Ir  Ir25  1  0.498758  0.001242  0.498758  1
  Ir  Ir26  1  0.001380  0.998620  0.498741  1
  Ir  Ir27  1  0.498741  0.501259  0.001380  1
  Ir  Ir28  1  0.998285  0.001715  0.998285  1
