# generated using pymatgen
data_La12PrNdRh6
_symmetry_space_group_name_H-M   'P 1'
_cell_length_a   6.59611508
_cell_length_b   10.20238744
_cell_length_c   10.16704904
_cell_angle_alpha   120.11601519
_cell_angle_beta   89.93300827
_cell_angle_gamma   89.99913038
_symmetry_Int_Tables_number   1
_chemical_formula_structural   La12PrNdRh6
_chemical_formula_sum   'La12 Pr1 Nd1 Rh6'
_cell_volume   591.84268721
_cell_formula_units_Z   1
loop_
 _symmetry_equiv_pos_site_id
 _symmetry_equiv_pos_as_xyz
  1  'x, y, z'
loop_
 _atom_site_type_symbol
 _atom_site_label
 _atom_site_symmetry_multiplicity
 _atom_site_fract_x
 _atom_site_fract_y
 _atom_site_fract_z
 _atom_site_occupancy
  La  La0  1  0.972235  0.666077  0.332126  1
  La  La1  1  0.237599  0.125494  0.874743  1
  La  La2  1  0.237595  0.749253  0.874740  1
  La  La3  1  0.239680  0.124838  0.249664  1
  La  La4  1  0.738131  0.874229  0.124734  1
  La  La5  1  0.738139  0.250500  0.124731  1
  La  La6  1  0.737686  0.875900  0.751779  1
  La  La7  1  0.435927  0.538366  0.462165  1
  La  La8  1  0.435944  0.923815  0.462171  1
  La  La9  1  0.437369  0.538236  0.076476  1
  La  La10  1  0.935194  0.462032  0.539977  1
  La  La11  1  0.935194  0.077929  0.539984  1
  Pr  Pr12  1  0.939821  0.461091  0.922179  1
  Nd  Nd13  1  0.471118  0.334492  0.669000  1
  Rh  Rh14  1  0.201061  0.813046  0.187582  1
  Rh  Rh15  1  0.201053  0.374533  0.187601  1
  Rh  Rh16  1  0.196569  0.812423  0.624807  1
  Rh  Rh17  1  0.697617  0.182734  0.810488  1
  Rh  Rh18  1  0.697633  0.627744  0.810483  1
  Rh  Rh19  1  0.700439  0.187268  0.374567  1
