# generated using pymatgen
data_Y9Tm(Zn2Bi)2
_symmetry_space_group_name_H-M   'P 1'
_cell_length_a   8.65555674
_cell_length_b   8.65555705
_cell_length_c   8.65555843
_cell_angle_alpha   123.57630026
_cell_angle_beta   123.57629938
_cell_angle_gamma   83.90980199
_symmetry_Int_Tables_number   1
_chemical_formula_structural   Y9Tm(Zn2Bi)2
_chemical_formula_sum   'Y9 Tm1 Zn4 Bi2'
_cell_volume   431.08014476
_cell_formula_units_Z   1
loop_
 _symmetry_equiv_pos_site_id
 _symmetry_equiv_pos_as_xyz
  1  'x, y, z'
loop_
 _atom_site_type_symbol
 _atom_site_label
 _atom_site_symmetry_multiplicity
 _atom_site_fract_x
 _atom_site_fract_y
 _atom_site_fract_z
 _atom_site_occupancy
  Y  Y0  1  0.000000  0.000000  0.000000  1
  Y  Y1  1  0.794563  0.295015  0.806495  1
  Y  Y2  1  0.205437  0.704985  0.193505  1
  Y  Y3  1  0.488517  0.988066  0.193505  1
  Y  Y4  1  0.295015  0.488517  0.500452  1
  Y  Y5  1  0.011934  0.205437  0.500452  1
  Y  Y6  1  0.511483  0.011934  0.806495  1
  Y  Y7  1  0.704985  0.511483  0.499548  1
  Y  Y8  1  0.988066  0.794563  0.499548  1
  Tm  Tm9  1  0.500000  0.500000  0.000000  1
  Zn  Zn10  1  0.139811  0.639239  0.779049  1
  Zn  Zn11  1  0.860189  0.360761  0.220951  1
  Zn  Zn12  1  0.639239  0.860189  0.499428  1
  Zn  Zn13  1  0.360761  0.139811  0.500572  1
  Bi  Bi14  1  0.250403  0.250403  0.000000  1
  Bi  Bi15  1  0.749597  0.749597  0.000000  1
