# generated using pymatgen
data_NdTh(Al5Re)4
_symmetry_space_group_name_H-M   'P 1'
_cell_length_a   6.94724582
_cell_length_b   6.94724531
_cell_length_c   9.26654200
_cell_angle_alpha   90.00000000
_cell_angle_beta   90.00000000
_cell_angle_gamma   96.87047025
_symmetry_Int_Tables_number   1
_chemical_formula_structural   NdTh(Al5Re)4
_chemical_formula_sum   'Nd1 Th1 Al20 Re4'
_cell_volume   444.03083981
_cell_formula_units_Z   1
loop_
 _symmetry_equiv_pos_site_id
 _symmetry_equiv_pos_as_xyz
  1  'x, y, z'
loop_
 _atom_site_type_symbol
 _atom_site_label
 _atom_site_symmetry_multiplicity
 _atom_site_fract_x
 _atom_site_fract_y
 _atom_site_fract_z
 _atom_site_occupancy
  Nd  Nd0  1  0.126838  0.873162  0.250000  1
  Th  Th1  1  0.870865  0.129135  0.750000  1
  Al  Al2  1  0.404066  0.138314  0.750000  1
  Al  Al3  1  0.137356  0.403798  0.250000  1
  Al  Al4  1  0.596202  0.862644  0.250000  1
  Al  Al5  1  0.861686  0.595934  0.750000  1
  Al  Al6  1  0.521289  0.781593  0.750000  1
  Al  Al7  1  0.784360  0.525761  0.250000  1
  Al  Al8  1  0.474239  0.215640  0.250000  1
  Al  Al9  1  0.218407  0.478711  0.750000  1
  Al  Al10  1  0.843275  0.156725  0.400941  1
  Al  Al11  1  0.155883  0.844117  0.598630  1
  Al  Al12  1  0.843275  0.156725  0.099059  1
  Al  Al13  1  0.155883  0.844117  0.901370  1
  Al  Al14  1  0.621544  0.378456  0.543229  1
  Al  Al15  1  0.377127  0.622873  0.462002  1
  Al  Al16  1  0.621544  0.378456  0.956771  1
  Al  Al17  1  0.377127  0.622873  0.037998  1
  Al  Al18  1  0.775126  0.773156  0.000975  1
  Al  Al19  1  0.775126  0.773156  0.499025  1
  Al  Al20  1  0.226844  0.224874  0.000975  1
  Al  Al21  1  0.226844  0.224874  0.499025  1
  Re  Re22  1  0.502688  0.000141  0.998725  1
  Re  Re23  1  0.999859  0.497312  0.998725  1
  Re  Re24  1  0.502688  0.000141  0.501275  1
  Re  Re25  1  0.999859  0.497312  0.501275  1
