# generated using pymatgen
data_HoLu5Bi2W
_symmetry_space_group_name_H-M   'P 1'
_cell_length_a   8.14334807
_cell_length_b   8.14334861
_cell_length_c   4.36453400
_cell_angle_alpha   90.00000000
_cell_angle_beta   90.00000000
_cell_angle_gamma   119.97770038
_symmetry_Int_Tables_number   1
_chemical_formula_structural   HoLu5Bi2W
_chemical_formula_sum   'Ho1 Lu5 Bi2 W1'
_cell_volume   250.71024587
_cell_formula_units_Z   1
loop_
 _symmetry_equiv_pos_site_id
 _symmetry_equiv_pos_as_xyz
  1  'x, y, z'
loop_
 _atom_site_type_symbol
 _atom_site_label
 _atom_site_symmetry_multiplicity
 _atom_site_fract_x
 _atom_site_fract_y
 _atom_site_fract_z
 _atom_site_occupancy
  Ho  Ho0  1  0.385854  0.385854  0.000000  1
  Lu  Lu1  1  0.233407  0.999168  0.500000  1
  Lu  Lu2  1  0.999168  0.233407  0.500000  1
  Lu  Lu3  1  0.764429  0.764429  0.500000  1
  Lu  Lu4  1  0.618687  0.000372  0.000000  1
  Lu  Lu5  1  0.000372  0.618687  0.000000  1
  Bi  Bi6  1  0.332473  0.667779  0.500000  1
  Bi  Bi7  1  0.667779  0.332473  0.500000  1
  W  W8  1  0.997829  0.997829  0.000000  1
