# generated using pymatgen
data_Dy3HgRh4
_symmetry_space_group_name_H-M   'P 1'
_cell_length_a   5.80667900
_cell_length_b   5.80667851
_cell_length_c   9.43756000
_cell_angle_alpha   90.00000000
_cell_angle_beta   90.00000000
_cell_angle_gamma   105.08368975
_symmetry_Int_Tables_number   1
_chemical_formula_structural   Dy3HgRh4
_chemical_formula_sum   'Dy6 Hg2 Rh8'
_cell_volume   307.24769367
_cell_formula_units_Z   2
loop_
 _symmetry_equiv_pos_site_id
 _symmetry_equiv_pos_as_xyz
  1  'x, y, z'
loop_
 _atom_site_type_symbol
 _atom_site_label
 _atom_site_symmetry_multiplicity
 _atom_site_fract_x
 _atom_site_fract_y
 _atom_site_fract_z
 _atom_site_occupancy
  Dy  Dy0  1  0.773212  0.226788  0.000000  1
  Dy  Dy1  1  0.226788  0.773212  0.000000  1
  Dy  Dy2  1  0.226788  0.773212  0.500000  1
  Dy  Dy3  1  0.773212  0.226788  0.500000  1
  Dy  Dy4  1  0.512590  0.512590  0.250000  1
  Dy  Dy5  1  0.487410  0.487410  0.750000  1
  Hg  Hg6  1  0.995311  0.995311  0.250000  1
  Hg  Hg7  1  0.004689  0.004689  0.750000  1
  Rh  Rh8  1  0.007183  0.497401  0.250000  1
  Rh  Rh9  1  0.992817  0.502599  0.750000  1
  Rh  Rh10  1  0.497401  0.007183  0.250000  1
  Rh  Rh11  1  0.502599  0.992817  0.750000  1
  Rh  Rh12  1  0.272490  0.272490  0.005604  1
  Rh  Rh13  1  0.727510  0.727510  0.994396  1
  Rh  Rh14  1  0.727510  0.727510  0.505604  1
  Rh  Rh15  1  0.272490  0.272490  0.494396  1
