# generated using pymatgen
data_Nd2B2Pd5PtAu2
_symmetry_space_group_name_H-M   'P 1'
_cell_length_a   5.56230477
_cell_length_b   5.56999324
_cell_length_c   7.67657900
_cell_angle_alpha   90.00000000
_cell_angle_beta   90.00000000
_cell_angle_gamma   120.04573818
_symmetry_Int_Tables_number   1
_chemical_formula_structural   Nd2B2Pd5PtAu2
_chemical_formula_sum   'Nd2 B2 Pd5 Pt1 Au2'
_cell_volume   205.87682345
_cell_formula_units_Z   1
loop_
 _symmetry_equiv_pos_site_id
 _symmetry_equiv_pos_as_xyz
  1  'x, y, z'
loop_
 _atom_site_type_symbol
 _atom_site_label
 _atom_site_symmetry_multiplicity
 _atom_site_fract_x
 _atom_site_fract_y
 _atom_site_fract_z
 _atom_site_occupancy
  Nd  Nd0  1  0.000000  0.000000  0.504353  1
  Nd  Nd1  1  0.000000  0.000000  0.000934  1
  B  B2  1  0.329662  0.664832  0.998155  1
  B  B3  1  0.670338  0.335168  0.998155  1
  Pd  Pd4  1  0.500000  0.000000  0.191523  1
  Pd  Pd5  1  0.500000  0.000000  0.805964  1
  Pd  Pd6  1  0.000000  0.500000  0.195900  1
  Pd  Pd7  1  0.500000  0.500000  0.191523  1
  Pd  Pd8  1  0.500000  0.500000  0.805964  1
  Pt  Pt9  1  0.000000  0.500000  0.810084  1
  Au  Au10  1  0.333510  0.666756  0.498722  1
  Au  Au11  1  0.666490  0.333244  0.498722  1
