# generated using pymatgen
data_Ba8V3PN12
_symmetry_space_group_name_H-M   'P 1'
_cell_length_a   6.54700233
_cell_length_b   6.54700261
_cell_length_c   12.99368769
_cell_angle_alpha   89.62924398
_cell_angle_beta   90.37075646
_cell_angle_gamma   126.83994288
_symmetry_Int_Tables_number   1
_chemical_formula_structural   Ba8V3PN12
_chemical_formula_sum   'Ba8 V3 P1 N12'
_cell_volume   445.72423600
_cell_formula_units_Z   1
loop_
 _symmetry_equiv_pos_site_id
 _symmetry_equiv_pos_as_xyz
  1  'x, y, z'
loop_
 _atom_site_type_symbol
 _atom_site_label
 _atom_site_symmetry_multiplicity
 _atom_site_fract_x
 _atom_site_fract_y
 _atom_site_fract_z
 _atom_site_occupancy
  Ba  Ba0  1  0.856464  0.143536  0.427120  1
  Ba  Ba1  1  0.356120  0.643880  0.075309  1
  Ba  Ba2  1  0.641104  0.358896  0.918948  1
  Ba  Ba3  1  0.138436  0.861564  0.580435  1
  Ba  Ba4  1  0.446123  0.553877  0.644185  1
  Ba  Ba5  1  0.557946  0.442054  0.358035  1
  Ba  Ba6  1  0.055278  0.944722  0.145260  1
  Ba  Ba7  1  0.940515  0.059485  0.853855  1
  V  V8  1  0.742886  0.257114  0.167725  1
  V  V9  1  0.244078  0.755922  0.334213  1
  V  V10  1  0.257352  0.742648  0.824556  1
  P  P11  1  0.758884  0.241116  0.667263  1
  N  N12  1  0.963748  0.502602  0.743990  1
  N  N13  1  0.525114  0.975010  0.251173  1
  N  N14  1  0.024990  0.474886  0.251173  1
  N  N15  1  0.497398  0.036252  0.743990  1
  N  N16  1  0.403906  0.596094  0.863513  1
  N  N17  1  0.593326  0.406674  0.133938  1
  N  N18  1  0.094796  0.905204  0.367746  1
  N  N19  1  0.670316  0.329684  0.568395  1
  N  N20  1  0.168420  0.831580  0.935578  1
  N  N21  1  0.831345  0.168655  0.056661  1
  N  N22  1  0.333996  0.666004  0.445680  1
  N  N23  1  0.897459  0.102541  0.641261  1
