# generated using pymatgen
data_TbDy5Al23SiOs8
_symmetry_space_group_name_H-M   'P 1'
_cell_length_a   8.78714300
_cell_length_b   8.78549124
_cell_length_c   9.66034201
_cell_angle_alpha   90.00338858
_cell_angle_beta   90.00000000
_cell_angle_gamma   120.00621575
_symmetry_Int_Tables_number   1
_chemical_formula_structural   TbDy5Al23SiOs8
_chemical_formula_sum   'Tb1 Dy5 Al23 Si1 Os8'
_cell_volume   645.81729577
_cell_formula_units_Z   1
loop_
 _symmetry_equiv_pos_site_id
 _symmetry_equiv_pos_as_xyz
  1  'x, y, z'
loop_
 _atom_site_type_symbol
 _atom_site_label
 _atom_site_symmetry_multiplicity
 _atom_site_fract_x
 _atom_site_fract_y
 _atom_site_fract_z
 _atom_site_occupancy
  Tb  Tb0  1  0.194278  0.388559  0.249672  1
  Dy  Dy1  1  0.806113  0.612225  0.751308  1
  Dy  Dy2  1  0.610065  0.805067  0.249640  1
  Dy  Dy3  1  0.387961  0.194085  0.751331  1
  Dy  Dy4  1  0.195001  0.805067  0.249640  1
  Dy  Dy5  1  0.806125  0.194085  0.751331  1
  Al  Al6  1  0.666701  0.333402  0.981525  1
  Al  Al7  1  0.666670  0.333338  0.521449  1
  Al  Al8  1  0.333345  0.666690  0.478943  1
  Al  Al9  1  0.163580  0.327160  0.574999  1
  Al  Al10  1  0.836195  0.672388  0.424746  1
  Al  Al11  1  0.672955  0.836536  0.574757  1
  Al  Al12  1  0.836288  0.672573  0.074875  1
  Al  Al13  1  0.327792  0.163763  0.424788  1
  Al  Al14  1  0.164950  0.329900  0.922795  1
  Al  Al15  1  0.163580  0.836536  0.574757  1
  Al  Al16  1  0.327584  0.163671  0.074853  1
  Al  Al17  1  0.835972  0.163763  0.424788  1
  Al  Al18  1  0.670236  0.835180  0.922984  1
  Al  Al19  1  0.836088  0.163671  0.074853  1
  Al  Al20  1  0.164942  0.835180  0.922984  1
  Al  Al21  1  0.562211  0.124421  0.248572  1
  Al  Al22  1  0.437386  0.874773  0.748153  1
  Al  Al23  1  0.875386  0.437849  0.248593  1
  Al  Al24  1  0.125420  0.562833  0.748179  1
  Al  Al25  1  0.562463  0.437849  0.248593  1
  Al  Al26  1  0.437414  0.562833  0.748179  1
  Al  Al27  1  0.999484  0.998968  0.249044  1
  Al  Al28  1  0.000070  0.000141  0.748905  1
  Si  Si29  1  0.333385  0.666771  0.039084  1
  Os  Os30  1  0.495822  0.991645  0.000628  1
  Os  Os31  1  0.008329  0.504318  0.000500  1
  Os  Os32  1  0.500335  0.000670  0.498601  1
  Os  Os33  1  0.495989  0.504318  0.000500  1
  Os  Os34  1  0.999252  0.499789  0.498784  1
  Os  Os35  1  0.500536  0.499789  0.498784  1
  Os  Os36  1  0.000047  0.000095  0.999034  1
  Os  Os37  1  0.000050  0.000101  0.498850  1
