# generated using pymatgen
data_Ho8Re2TcB24Ru
_symmetry_space_group_name_H-M   'P 1'
_cell_length_a   3.66673900
_cell_length_b   9.14240168
_cell_length_c   11.51976222
_cell_angle_alpha   90.13792949
_cell_angle_beta   90.00000000
_cell_angle_gamma   90.00000000
_symmetry_Int_Tables_number   1
_chemical_formula_structural   Ho8Re2TcB24Ru
_chemical_formula_sum   'Ho8 Re2 Tc1 B24 Ru1'
_cell_volume   386.17357518
_cell_formula_units_Z   1
loop_
 _symmetry_equiv_pos_site_id
 _symmetry_equiv_pos_as_xyz
  1  'x, y, z'
loop_
 _atom_site_type_symbol
 _atom_site_label
 _atom_site_symmetry_multiplicity
 _atom_site_fract_x
 _atom_site_fract_y
 _atom_site_fract_z
 _atom_site_occupancy
  Ho  Ho0  1  0.000000  0.323060  0.412567  1
  Ho  Ho1  1  0.000000  0.677953  0.585502  1
  Ho  Ho2  1  0.000000  0.823568  0.086029  1
  Ho  Ho3  1  0.000000  0.175514  0.915811  1
  Ho  Ho4  1  0.000000  0.942415  0.370306  1
  Ho  Ho5  1  0.000000  0.058127  0.630136  1
  Ho  Ho6  1  0.000000  0.443617  0.129830  1
  Ho  Ho7  1  0.000000  0.556944  0.869624  1
  Re  Re8  1  0.000000  0.138221  0.179255  1
  Re  Re9  1  0.000000  0.861850  0.820308  1
  Tc  Tc10  1  0.000000  0.638058  0.321635  1
  B  B11  1  0.500000  0.552913  0.433264  1
  B  B12  1  0.500000  0.446153  0.567152  1
  B  B13  1  0.500000  0.053174  0.066875  1
  B  B14  1  0.500000  0.946988  0.933255  1
  B  B15  1  0.500000  0.748920  0.418819  1
  B  B16  1  0.500000  0.251514  0.581382  1
  B  B17  1  0.500000  0.249050  0.081249  1
  B  B18  1  0.500000  0.750614  0.918787  1
  B  B19  1  0.500000  0.791705  0.265382  1
  B  B20  1  0.500000  0.209139  0.734615  1
  B  B21  1  0.500000  0.292095  0.234635  1
  B  B22  1  0.500000  0.708096  0.764903  1
  B  B23  1  0.500000  0.630598  0.185893  1
  B  B24  1  0.500000  0.368739  0.814375  1
  B  B25  1  0.500000  0.130919  0.314711  1
  B  B26  1  0.500000  0.868947  0.684809  1
  B  B27  1  0.500000  0.982021  0.212026  1
  B  B28  1  0.500000  0.017924  0.788162  1
  B  B29  1  0.500000  0.481885  0.288313  1
  B  B30  1  0.500000  0.516658  0.711699  1
  B  B31  1  0.500000  0.601416  0.027972  1
  B  B32  1  0.500000  0.398489  0.971432  1
  B  B33  1  0.500000  0.102067  0.471720  1
  B  B34  1  0.500000  0.899100  0.528479  1
  Ru  Ru35  1  0.000000  0.361550  0.679086  1
