# generated using pymatgen
data_Pr4Sm3PI12
_symmetry_space_group_name_H-M   'P 1'
_cell_length_a   9.95417051
_cell_length_b   9.96801231
_cell_length_c   9.96624852
_cell_angle_alpha   107.89365714
_cell_angle_beta   107.75270396
_cell_angle_gamma   107.93529852
_symmetry_Int_Tables_number   1
_chemical_formula_structural   Pr4Sm3PI12
_chemical_formula_sum   'Pr4 Sm3 P1 I12'
_cell_volume   803.43387752
_cell_formula_units_Z   1
loop_
 _symmetry_equiv_pos_site_id
 _symmetry_equiv_pos_as_xyz
  1  'x, y, z'
loop_
 _atom_site_type_symbol
 _atom_site_label
 _atom_site_symmetry_multiplicity
 _atom_site_fract_x
 _atom_site_fract_y
 _atom_site_fract_z
 _atom_site_occupancy
  Pr  Pr0  1  0.194642  0.468186  0.398572  1
  Pr  Pr1  1  0.468312  0.398364  0.194718  1
  Pr  Pr2  1  0.601093  0.807267  0.528976  1
  Pr  Pr3  1  0.397686  0.192952  0.467889  1
  Sm  Sm4  1  0.803722  0.529713  0.599910  1
  Sm  Sm5  1  0.528428  0.599713  0.803308  1
  Sm  Sm6  1  0.004656  0.004662  0.004732  1
  P  P7  1  0.504165  0.502565  0.504679  1
  I  I8  1  0.733424  0.191895  0.577996  1
  I  I9  1  0.969337  0.884461  0.659023  1
  I  I10  1  0.576422  0.729077  0.182421  1
  I  I11  1  0.108033  0.341935  0.028246  1
  I  I12  1  0.656928  0.963932  0.889855  1
  I  I13  1  0.883731  0.656039  0.962159  1
  I  I14  1  0.027741  0.107951  0.342178  1
  I  I15  1  0.815593  0.425878  0.276463  1
  I  I16  1  0.342341  0.028099  0.108255  1
  I  I17  1  0.268979  0.813999  0.423350  1
  I  I18  1  0.188715  0.577152  0.731829  1
  I  I19  1  0.426053  0.276161  0.815441  1
