# generated using pymatgen
data_Cs2CdBi2Se4S
_symmetry_space_group_name_H-M   'P 1'
_cell_length_a   16.55678454
_cell_length_b   4.35414000
_cell_length_c   19.40658584
_cell_angle_alpha   90.00000000
_cell_angle_beta   89.60693492
_cell_angle_gamma   90.00000000
_symmetry_Int_Tables_number   1
_chemical_formula_structural   Cs2CdBi2Se4S
_chemical_formula_sum   'Cs8 Cd4 Bi8 Se16 S4'
_cell_volume   1398.99867755
_cell_formula_units_Z   4
loop_
 _symmetry_equiv_pos_site_id
 _symmetry_equiv_pos_as_xyz
  1  'x, y, z'
loop_
 _atom_site_type_symbol
 _atom_site_label
 _atom_site_symmetry_multiplicity
 _atom_site_fract_x
 _atom_site_fract_y
 _atom_site_fract_z
 _atom_site_occupancy
  Cs  Cs0  1  0.965163  0.250001  0.107720  1
  Cs  Cs1  1  0.495200  0.750001  0.121279  1
  Cs  Cs2  1  0.995784  0.750001  0.373350  1
  Cs  Cs3  1  0.465420  0.250001  0.389314  1
  Cs  Cs4  1  0.533610  0.750001  0.612112  1
  Cs  Cs5  1  0.001720  0.250001  0.627076  1
  Cs  Cs6  1  0.507588  0.250001  0.873860  1
  Cs  Cs7  1  0.039005  0.750001  0.885956  1
  Cd  Cd8  1  0.712279  0.250001  0.143917  1
  Cd  Cd9  1  0.210734  0.250001  0.354929  1
  Cd  Cd10  1  0.787591  0.750001  0.647025  1
  Cd  Cd11  1  0.286037  0.750001  0.857629  1
  Bi  Bi12  1  0.257752  0.250001  0.016952  1
  Bi  Bi13  1  0.209110  0.750001  0.195418  1
  Bi  Bi14  1  0.707755  0.750001  0.302835  1
  Bi  Bi15  1  0.754308  0.250001  0.481389  1
  Bi  Bi16  1  0.244341  0.750001  0.522100  1
  Bi  Bi17  1  0.289733  0.250001  0.701041  1
  Bi  Bi18  1  0.788960  0.250001  0.806734  1
  Bi  Bi19  1  0.749770  0.750001  0.976712  1
  Se  Se20  1  0.639183  0.250001  0.021551  1
  Se  Se21  1  0.138198  0.750001  0.057671  1
  Se  Se22  1  0.321359  0.250001  0.146989  1
  Se  Se23  1  0.803447  0.750001  0.166248  1
  Se  Se24  1  0.103882  0.250001  0.247677  1
  Se  Se25  1  0.602832  0.250001  0.249175  1
  Se  Se26  1  0.301784  0.750001  0.332011  1
  Se  Se27  1  0.819608  0.250001  0.350867  1
  Se  Se28  1  0.636756  0.750001  0.440670  1
  Se  Se29  1  0.134640  0.250001  0.476749  1
  Se  Se30  1  0.864518  0.750001  0.525165  1
  Se  Se31  1  0.361307  0.250001  0.563218  1
  Se  Se32  1  0.177972  0.750001  0.651897  1
  Se  Se33  1  0.695987  0.250001  0.666678  1
  Se  Se34  1  0.395396  0.750001  0.751877  1
  Se  Se35  1  0.894299  0.750001  0.753446  1
  S  S36  1  0.203551  0.250001  0.836444  1
  S  S37  1  0.684954  0.750001  0.855254  1
  S  S38  1  0.859183  0.250001  0.935141  1
  S  S39  1  0.359284  0.750001  0.973925  1
