# generated using pymatgen
data_Tm4GaTcRu6
_symmetry_space_group_name_H-M   'P 1'
_cell_length_a   5.17788894
_cell_length_b   5.35371042
_cell_length_c   8.80792300
_cell_angle_alpha   90.00000000
_cell_angle_beta   90.00000000
_cell_angle_gamma   119.41871160
_symmetry_Int_Tables_number   1
_chemical_formula_structural   Tm4GaTcRu6
_chemical_formula_sum   'Tm4 Ga1 Tc1 Ru6'
_cell_volume   212.67964209
_cell_formula_units_Z   1
loop_
 _symmetry_equiv_pos_site_id
 _symmetry_equiv_pos_as_xyz
  1  'x, y, z'
loop_
 _atom_site_type_symbol
 _atom_site_label
 _atom_site_symmetry_multiplicity
 _atom_site_fract_x
 _atom_site_fract_y
 _atom_site_fract_z
 _atom_site_occupancy
  Tm  Tm0  1  0.334903  0.669771  0.437552  1
  Tm  Tm1  1  0.662297  0.328812  0.566273  1
  Tm  Tm2  1  0.662297  0.328812  0.933727  1
  Tm  Tm3  1  0.334903  0.669771  0.062448  1
  Ga  Ga4  1  0.835848  0.170507  0.250000  1
  Tc  Tc5  1  0.655874  0.829970  0.750000  1
  Ru  Ru6  1  0.995643  0.988510  0.499953  1
  Ru  Ru7  1  0.995643  0.988510  0.000047  1
  Ru  Ru8  1  0.826620  0.657874  0.250000  1
  Ru  Ru9  1  0.349442  0.182939  0.250000  1
  Ru  Ru10  1  0.168381  0.834952  0.750000  1
  Ru  Ru11  1  0.178148  0.349568  0.750000  1
