# generated using pymatgen
data_FeCoSiMo3N
_symmetry_space_group_name_H-M   'P 1'
_cell_length_a   7.81703038
_cell_length_b   7.81702973
_cell_length_c   7.81703000
_cell_angle_alpha   59.99999885
_cell_angle_beta   60.00000160
_cell_angle_gamma   60.00000075
_symmetry_Int_Tables_number   1
_chemical_formula_structural   FeCoSiMo3N
_chemical_formula_sum   'Fe4 Co4 Si4 Mo12 N4'
_cell_volume   337.76165819
_cell_formula_units_Z   4
loop_
 _symmetry_equiv_pos_site_id
 _symmetry_equiv_pos_as_xyz
  1  'x, y, z'
loop_
 _atom_site_type_symbol
 _atom_site_label
 _atom_site_symmetry_multiplicity
 _atom_site_fract_x
 _atom_site_fract_y
 _atom_site_fract_z
 _atom_site_occupancy
  Fe  Fe0  1  0.240831  0.919723  0.919723  1
  Fe  Fe1  1  0.919723  0.240831  0.919723  1
  Fe  Fe2  1  0.919723  0.919723  0.919723  1
  Fe  Fe3  1  0.919723  0.919723  0.240831  1
  Co  Co4  1  0.997755  0.334081  0.334081  1
  Co  Co5  1  0.334081  0.334081  0.997755  1
  Co  Co6  1  0.334081  0.997755  0.334081  1
  Co  Co7  1  0.334081  0.334081  0.334081  1
  Si  Si8  1  0.612551  0.129150  0.129150  1
  Si  Si9  1  0.129150  0.129150  0.612551  1
  Si  Si10  1  0.129150  0.612551  0.129150  1
  Si  Si11  1  0.129150  0.129150  0.129150  1
  Mo  Mo12  1  0.698774  0.301226  0.698774  1
  Mo  Mo13  1  0.556793  0.556793  0.943207  1
  Mo  Mo14  1  0.556793  0.943207  0.556793  1
  Mo  Mo15  1  0.943207  0.943207  0.556793  1
  Mo  Mo16  1  0.943207  0.556793  0.556793  1
  Mo  Mo17  1  0.943207  0.556793  0.943207  1
  Mo  Mo18  1  0.698774  0.301226  0.301226  1
  Mo  Mo19  1  0.301226  0.698774  0.301226  1
  Mo  Mo20  1  0.301226  0.301226  0.698774  1
  Mo  Mo21  1  0.301226  0.698774  0.698774  1
  Mo  Mo22  1  0.698774  0.698774  0.301226  1
  Mo  Mo23  1  0.556793  0.943207  0.943207  1
  N  N24  1  0.624585  0.624585  0.624585  1
  N  N25  1  0.126244  0.624585  0.624585  1
  N  N26  1  0.624585  0.126244  0.624585  1
  N  N27  1  0.624585  0.624585  0.126244  1
