# generated using pymatgen
data_TmLu5Al17Si7Ru8
_symmetry_space_group_name_H-M   'P 1'
_cell_length_a   8.61285814
_cell_length_b   8.62448991
_cell_length_c   9.43339400
_cell_angle_alpha   90.00023524
_cell_angle_beta   89.99984036
_cell_angle_gamma   119.89660431
_symmetry_Int_Tables_number   1
_chemical_formula_structural   TmLu5Al17Si7Ru8
_chemical_formula_sum   'Tm1 Lu5 Al17 Si7 Ru8'
_cell_volume   607.47842777
_cell_formula_units_Z   1
loop_
 _symmetry_equiv_pos_site_id
 _symmetry_equiv_pos_as_xyz
  1  'x, y, z'
loop_
 _atom_site_type_symbol
 _atom_site_label
 _atom_site_symmetry_multiplicity
 _atom_site_fract_x
 _atom_site_fract_y
 _atom_site_fract_z
 _atom_site_occupancy
  Tm  Tm0  1  0.195749  0.390764  0.249925  1
  Lu  Lu1  1  0.806098  0.193302  0.749958  1
  Lu  Lu2  1  0.192973  0.803298  0.249953  1
  Lu  Lu3  1  0.389906  0.198140  0.749978  1
  Lu  Lu4  1  0.609375  0.802669  0.250003  1
  Lu  Lu5  1  0.801072  0.609094  0.749944  1
  Al  Al6  1  0.834700  0.163387  0.418700  1
  Al  Al7  1  0.163903  0.835003  0.580370  1
  Al  Al8  1  0.329623  0.164033  0.420342  1
  Al  Al9  1  0.163953  0.835064  0.919633  1
  Al  Al10  1  0.671535  0.835924  0.579701  1
  Al  Al11  1  0.834756  0.163466  0.081316  1
  Al  Al12  1  0.835543  0.671565  0.419934  1
  Al  Al13  1  0.671664  0.835969  0.920321  1
  Al  Al14  1  0.163742  0.328928  0.578665  1
  Al  Al15  1  0.329748  0.164084  0.079667  1
  Al  Al16  1  0.163755  0.328960  0.921310  1
  Al  Al17  1  0.835549  0.671596  0.080044  1
  Al  Al18  1  0.123722  0.559391  0.749984  1
  Al  Al19  1  0.439422  0.874283  0.750041  1
  Al  Al20  1  0.563303  0.127246  0.250032  1
  Al  Al21  1  0.999944  0.998495  0.750071  1
  Al  Al22  1  0.999307  0.999893  0.250053  1
  Si  Si23  1  0.666685  0.330668  0.957167  1
  Si  Si24  1  0.333659  0.669376  0.040773  1
  Si  Si25  1  0.333604  0.669354  0.459152  1
  Si  Si26  1  0.666639  0.330644  0.542772  1
  Si  Si27  1  0.437012  0.562345  0.749993  1
  Si  Si28  1  0.564599  0.441416  0.249990  1
  Si  Si29  1  0.875987  0.441231  0.249985  1
  Ru  Ru30  1  0.501378  0.499996  0.000683  1
  Ru  Ru31  1  0.998342  0.499271  0.006234  1
  Ru  Ru32  1  0.501326  0.499926  0.499294  1
  Ru  Ru33  1  0.500992  0.000828  0.000239  1
  Ru  Ru34  1  0.998287  0.499172  0.493806  1
  Ru  Ru35  1  0.500860  0.000694  0.499838  1
  Ru  Ru36  1  0.000717  0.000254  0.999943  1
  Ru  Ru37  1  0.000575  0.000268  0.500183  1
