# generated using pymatgen
data_Tb3Yb5(AgPb)4
_symmetry_space_group_name_H-M   'P 1'
_cell_length_a   7.75728501
_cell_length_b   5.30145100
_cell_length_c   10.60298900
_cell_angle_alpha   90.00000000
_cell_angle_beta   89.99788759
_cell_angle_gamma   90.00000000
_symmetry_Int_Tables_number   1
_chemical_formula_structural   Tb3Yb5(AgPb)4
_chemical_formula_sum   'Tb3 Yb5 Ag4 Pb4'
_cell_volume   436.04650522
_cell_formula_units_Z   1
loop_
 _symmetry_equiv_pos_site_id
 _symmetry_equiv_pos_as_xyz
  1  'x, y, z'
loop_
 _atom_site_type_symbol
 _atom_site_label
 _atom_site_symmetry_multiplicity
 _atom_site_fract_x
 _atom_site_fract_y
 _atom_site_fract_z
 _atom_site_occupancy
  Tb  Tb0  1  0.999002  0.750000  0.621385  1
  Tb  Tb1  1  0.502942  0.249999  0.875656  1
  Tb  Tb2  1  0.996636  0.249999  0.877691  1
  Yb  Yb3  1  0.000633  0.750000  0.128040  1
  Yb  Yb4  1  0.503022  0.750000  0.127976  1
  Yb  Yb5  1  0.002706  0.249999  0.372609  1
  Yb  Yb6  1  0.497770  0.249999  0.374222  1
  Yb  Yb7  1  0.496635  0.750000  0.622247  1
  Ag  Ag8  1  0.750550  0.249999  0.126027  1
  Ag  Ag9  1  0.249620  0.750000  0.374352  1
  Ag  Ag10  1  0.749791  0.249999  0.622464  1
  Ag  Ag11  1  0.249956  0.750000  0.877006  1
  Pb  Pb12  1  0.252301  0.249999  0.119927  1
  Pb  Pb13  1  0.750752  0.750000  0.377901  1
  Pb  Pb14  1  0.247256  0.249999  0.629491  1
  Pb  Pb15  1  0.750429  0.750000  0.873009  1
