# generated using pymatgen
data_TmLu2Si5
_symmetry_space_group_name_H-M   'P 1'
_cell_length_a   6.54359400
_cell_length_b   6.54033400
_cell_length_c   8.15724800
_cell_angle_alpha   90.00000000
_cell_angle_beta   90.00000000
_cell_angle_gamma   120.01648981
_symmetry_Int_Tables_number   1
_chemical_formula_structural   TmLu2Si5
_chemical_formula_sum   'Tm2 Lu4 Si10'
_cell_volume   302.28624326
_cell_formula_units_Z   2
loop_
 _symmetry_equiv_pos_site_id
 _symmetry_equiv_pos_as_xyz
  1  'x, y, z'
loop_
 _atom_site_type_symbol
 _atom_site_label
 _atom_site_symmetry_multiplicity
 _atom_site_fract_x
 _atom_site_fract_y
 _atom_site_fract_z
 _atom_site_occupancy
  Tm  Tm0  1  0.330543  0.000000  0.000000  1
  Tm  Tm1  1  0.330543  0.000000  0.500000  1
  Lu  Lu2  1  0.999989  0.330620  0.499996  1
  Lu  Lu3  1  0.999989  0.330620  0.000004  1
  Lu  Lu4  1  0.669369  0.669380  0.999996  1
  Lu  Lu5  1  0.669369  0.669380  0.500004  1
  Si  Si6  1  0.395414  0.332106  0.250000  1
  Si  Si7  1  0.669575  0.064254  0.250000  1
  Si  Si8  1  0.935750  0.604528  0.250000  1
  Si  Si9  1  0.605322  0.935746  0.750000  1
  Si  Si10  1  0.999651  0.000117  0.250000  1
  Si  Si11  1  0.667052  0.333682  0.750000  1
  Si  Si12  1  0.063309  0.667894  0.750000  1
  Si  Si13  1  0.331223  0.395472  0.750000  1
  Si  Si14  1  0.333369  0.666318  0.250000  1
  Si  Si15  1  0.999534  0.999883  0.750000  1
