# generated using pymatgen
data_DyTm3V3PtF28
_symmetry_space_group_name_H-M   'P 1'
_cell_length_a   5.49767049
_cell_length_b   8.77880500
_cell_length_c   11.74250943
_cell_angle_alpha   63.24597867
_cell_angle_beta   89.85255220
_cell_angle_gamma   89.85705912
_symmetry_Int_Tables_number   1
_chemical_formula_structural   DyTm3V3PtF28
_chemical_formula_sum   'Dy1 Tm3 V3 Pt1 F28'
_cell_volume   506.05643870
_cell_formula_units_Z   1
loop_
 _symmetry_equiv_pos_site_id
 _symmetry_equiv_pos_as_xyz
  1  'x, y, z'
loop_
 _atom_site_type_symbol
 _atom_site_label
 _atom_site_symmetry_multiplicity
 _atom_site_fract_x
 _atom_site_fract_y
 _atom_site_fract_z
 _atom_site_occupancy
  Dy  Dy0  1  0.743211  0.808575  0.271506  1
  Tm  Tm1  1  0.758772  0.812863  0.767357  1
  Tm  Tm2  1  0.257436  0.188881  0.733548  1
  Tm  Tm3  1  0.238974  0.192022  0.227149  1
  V  V4  1  0.752508  0.275961  0.953861  1
  V  V5  1  0.256102  0.723467  0.549536  1
  V  V6  1  0.247647  0.727500  0.042977  1
  Pt  Pt7  1  0.742490  0.268870  0.455955  1
  F  F8  1  0.459519  0.709433  0.922171  1
  F  F9  1  0.937626  0.302003  0.583145  1
  F  F10  1  0.536755  0.294130  0.073583  1
  F  F11  1  0.047817  0.706329  0.427348  1
  F  F12  1  0.438268  0.281700  0.540949  1
  F  F13  1  0.967753  0.716689  0.949405  1
  F  F14  1  0.537353  0.714048  0.456818  1
  F  F15  1  0.031875  0.287992  0.047952  1
  F  F16  1  0.762828  0.508533  0.862070  1
  F  F17  1  0.268817  0.487178  0.639813  1
  F  F18  1  0.236247  0.493344  0.137690  1
  F  F19  1  0.731259  0.517604  0.352721  1
  F  F20  1  0.758218  0.044314  0.046658  1
  F  F21  1  0.257074  0.954341  0.458575  1
  F  F22  1  0.242867  0.960696  0.949847  1
  F  F23  1  0.743720  0.018954  0.550403  1
  F  F24  1  0.985693  0.724873  0.650322  1
  F  F25  1  0.483557  0.266174  0.856184  1
  F  F26  1  0.041430  0.268044  0.363160  1
  F  F27  1  0.518752  0.738294  0.137940  1
  F  F28  1  0.042000  0.751626  0.165300  1
  F  F29  1  0.550269  0.245757  0.322844  1
  F  F30  1  0.965653  0.253137  0.832849  1
  F  F31  1  0.463014  0.741125  0.674121  1
  F  F32  1  0.420191  0.976290  0.232791  1
  F  F33  1  0.926966  0.029811  0.269092  1
  F  F34  1  0.574684  0.029982  0.764019  1
  F  F35  1  0.072655  0.979458  0.730339  1
