# generated using pymatgen
data_Sc4Fe2B4Ru3Rh7
_symmetry_space_group_name_H-M   'P 1'
_cell_length_a   9.37782934
_cell_length_b   9.35998134
_cell_length_c   3.02975500
_cell_angle_alpha   90.00000000
_cell_angle_beta   90.00000000
_cell_angle_gamma   89.93878357
_symmetry_Int_Tables_number   1
_chemical_formula_structural   Sc4Fe2B4Ru3Rh7
_chemical_formula_sum   'Sc4 Fe2 B4 Ru3 Rh7'
_cell_volume   265.94055496
_cell_formula_units_Z   1
loop_
 _symmetry_equiv_pos_site_id
 _symmetry_equiv_pos_as_xyz
  1  'x, y, z'
loop_
 _atom_site_type_symbol
 _atom_site_label
 _atom_site_symmetry_multiplicity
 _atom_site_fract_x
 _atom_site_fract_y
 _atom_site_fract_z
 _atom_site_occupancy
  Sc  Sc0  1  0.673180  0.174060  0.000000  1
  Sc  Sc1  1  0.175058  0.322147  0.000000  1
  Sc  Sc2  1  0.826384  0.674399  0.000000  1
  Sc  Sc3  1  0.323602  0.830497  0.000000  1
  Fe  Fe4  1  0.003149  0.000855  0.000000  1
  Fe  Fe5  1  0.499765  0.499931  0.000000  1
  B  B6  1  0.372646  0.119885  0.000000  1
  B  B7  1  0.877198  0.377237  0.000000  1
  B  B8  1  0.122689  0.622437  0.000000  1
  B  B9  1  0.623649  0.878551  0.000000  1
  Ru  Ru10  1  0.501549  0.000200  0.500001  1
  Ru  Ru11  1  0.213824  0.071975  0.500001  1
  Ru  Ru12  1  0.000036  0.499467  0.500001  1
  Rh  Rh13  1  0.927124  0.214380  0.500001  1
  Rh  Rh14  1  0.429452  0.286099  0.500001  1
  Rh  Rh15  1  0.714302  0.428617  0.500001  1
  Rh  Rh16  1  0.285572  0.572286  0.500001  1
  Rh  Rh17  1  0.572263  0.714407  0.500001  1
  Rh  Rh18  1  0.071469  0.784984  0.500001  1
  Rh  Rh19  1  0.787088  0.927584  0.500001  1
