# generated using pymatgen
data_Ho8Cd3SnAu8
_symmetry_space_group_name_H-M   'P 1'
_cell_length_a   8.00829100
_cell_length_b   8.00829100
_cell_length_c   7.31957300
_cell_angle_alpha   90.00000000
_cell_angle_beta   90.00000000
_cell_angle_gamma   90.00000000
_symmetry_Int_Tables_number   1
_chemical_formula_structural   Ho8Cd3SnAu8
_chemical_formula_sum   'Ho8 Cd3 Sn1 Au8'
_cell_volume   469.42416043
_cell_formula_units_Z   1
loop_
 _symmetry_equiv_pos_site_id
 _symmetry_equiv_pos_as_xyz
  1  'x, y, z'
loop_
 _atom_site_type_symbol
 _atom_site_label
 _atom_site_symmetry_multiplicity
 _atom_site_fract_x
 _atom_site_fract_y
 _atom_site_fract_z
 _atom_site_occupancy
  Ho  Ho0  1  0.844293  0.162174  0.499984  1
  Ho  Ho1  1  0.155707  0.837826  0.499984  1
  Ho  Ho2  1  0.337826  0.344293  0.000016  1
  Ho  Ho3  1  0.662174  0.655707  0.000016  1
  Ho  Ho4  1  0.685432  0.679262  0.499739  1
  Ho  Ho5  1  0.314568  0.320738  0.499739  1
  Ho  Ho6  1  0.179262  0.814568  0.000261  1
  Ho  Ho7  1  0.820738  0.185432  0.000261  1
  Cd  Cd8  1  0.500000  0.000000  0.250000  1
  Cd  Cd9  1  0.000000  0.500000  0.750000  1
  Cd  Cd10  1  0.500000  0.000000  0.750000  1
  Sn  Sn11  1  0.000000  0.500000  0.250000  1
  Au  Au12  1  0.624208  0.367636  0.274282  1
  Au  Au13  1  0.375792  0.632364  0.274282  1
  Au  Au14  1  0.130356  0.127567  0.773259  1
  Au  Au15  1  0.869644  0.872433  0.773259  1
  Au  Au16  1  0.372433  0.630356  0.726741  1
  Au  Au17  1  0.627567  0.369644  0.726741  1
  Au  Au18  1  0.867636  0.875792  0.225718  1
  Au  Au19  1  0.132364  0.124208  0.225718  1
