# generated using pymatgen
data_Hf6Al10Ga2Si4Ir7
_symmetry_space_group_name_H-M   'P 1'
_cell_length_a   8.65063720
_cell_length_b   8.68987090
_cell_length_c   8.68987180
_cell_angle_alpha   59.74816148
_cell_angle_beta   59.57070278
_cell_angle_gamma   59.57070580
_symmetry_Int_Tables_number   1
_chemical_formula_structural   Hf6Al10Ga2Si4Ir7
_chemical_formula_sum   'Hf6 Al10 Ga2 Si4 Ir7'
_cell_volume   458.02429184
_cell_formula_units_Z   1
loop_
 _symmetry_equiv_pos_site_id
 _symmetry_equiv_pos_as_xyz
  1  'x, y, z'
loop_
 _atom_site_type_symbol
 _atom_site_label
 _atom_site_symmetry_multiplicity
 _atom_site_fract_x
 _atom_site_fract_y
 _atom_site_fract_z
 _atom_site_occupancy
  Hf  Hf0  1  0.689271  0.312092  0.312092  1
  Hf  Hf1  1  0.313618  0.685763  0.685763  1
  Hf  Hf2  1  0.312134  0.686836  0.313809  1
  Hf  Hf3  1  0.688469  0.312927  0.685740  1
  Hf  Hf4  1  0.312134  0.313809  0.686836  1
  Hf  Hf5  1  0.688469  0.685740  0.312927  1
  Al  Al6  1  0.985477  0.338303  0.338303  1
  Al  Al7  1  0.012829  0.663227  0.663227  1
  Al  Al8  1  0.117456  0.121402  0.121402  1
  Al  Al9  1  0.881691  0.879754  0.879754  1
  Al  Al10  1  0.117802  0.120820  0.639514  1
  Al  Al11  1  0.117802  0.639514  0.120820  1
  Al  Al12  1  0.881360  0.880232  0.361044  1
  Al  Al13  1  0.881360  0.361044  0.880232  1
  Al  Al14  1  0.635880  0.121128  0.121128  1
  Al  Al15  1  0.361576  0.880133  0.880133  1
  Ga  Ga16  1  0.658704  0.659727  0.024485  1
  Ga  Ga17  1  0.658704  0.024485  0.659727  1
  Si  Si18  1  0.343351  0.345200  0.345200  1
  Si  Si19  1  0.656270  0.655900  0.655900  1
  Si  Si20  1  0.343699  0.345404  0.965366  1
  Si  Si21  1  0.343699  0.965366  0.345404  1
  Ir  Ir22  1  0.489527  0.010161  0.010161  1
  Ir  Ir23  1  0.999578  0.500635  0.500635  1
  Ir  Ir24  1  0.010368  0.496055  0.998681  1
  Ir  Ir25  1  0.494707  0.999040  0.495985  1
  Ir  Ir26  1  0.010368  0.998681  0.496055  1
  Ir  Ir27  1  0.494707  0.495985  0.999040  1
  Ir  Ir28  1  0.998993  0.000638  0.000638  1
