# generated using pymatgen
data_Eu6Ga4SiAs3P4
_symmetry_space_group_name_H-M   'P 1'
_cell_length_a   8.33354824
_cell_length_b   8.31123122
_cell_length_c   6.64071029
_cell_angle_alpha   89.54640217
_cell_angle_beta   89.40331293
_cell_angle_gamma   75.84060918
_symmetry_Int_Tables_number   1
_chemical_formula_structural   Eu6Ga4SiAs3P4
_chemical_formula_sum   'Eu6 Ga4 Si1 As3 P4'
_cell_volume   445.94443222
_cell_formula_units_Z   1
loop_
 _symmetry_equiv_pos_site_id
 _symmetry_equiv_pos_as_xyz
  1  'x, y, z'
loop_
 _atom_site_type_symbol
 _atom_site_label
 _atom_site_symmetry_multiplicity
 _atom_site_fract_x
 _atom_site_fract_y
 _atom_site_fract_z
 _atom_site_occupancy
  Eu  Eu0  1  0.751181  0.497008  0.030389  1
  Eu  Eu1  1  0.503342  0.243754  0.472107  1
  Eu  Eu2  1  0.248819  0.499209  0.971724  1
  Eu  Eu3  1  0.497100  0.754389  0.529451  1
  Eu  Eu4  1  0.095298  0.905005  0.247725  1
  Eu  Eu5  1  0.904466  0.092690  0.751559  1
  Ga  Ga6  1  0.083757  0.317343  0.404791  1
  Ga  Ga7  1  0.678847  0.926288  0.085761  1
  Ga  Ga8  1  0.916791  0.681032  0.595802  1
  Ga  Ga9  1  0.325337  0.091467  0.908495  1
  Si  Si10  1  0.561259  0.216321  0.975731  1
  As  As11  1  0.214113  0.560424  0.475445  1
  As  As12  1  0.437870  0.785298  0.023880  1
  As  As13  1  0.786565  0.438335  0.525183  1
  P  P14  1  0.063112  0.240292  0.061149  1
  P  P15  1  0.760032  0.930890  0.436650  1
  P  P16  1  0.934369  0.755074  0.940753  1
  P  P17  1  0.237745  0.065181  0.563405  1
