# generated using pymatgen
data_Nd8Be3ZnSi11Pd
_symmetry_space_group_name_H-M   'P 1'
_cell_length_a   8.08879033
_cell_length_b   8.08879095
_cell_length_c   8.52364200
_cell_angle_alpha   89.99788362
_cell_angle_beta   90.00211767
_cell_angle_gamma   120.03254334
_symmetry_Int_Tables_number   1
_chemical_formula_structural   Nd8Be3ZnSi11Pd
_chemical_formula_sum   'Nd8 Be3 Zn1 Si11 Pd1'
_cell_volume   482.81472964
_cell_formula_units_Z   1
loop_
 _symmetry_equiv_pos_site_id
 _symmetry_equiv_pos_as_xyz
  1  'x, y, z'
loop_
 _atom_site_type_symbol
 _atom_site_label
 _atom_site_symmetry_multiplicity
 _atom_site_fract_x
 _atom_site_fract_y
 _atom_site_fract_z
 _atom_site_occupancy
  Nd  Nd0  1  0.498366  0.501634  0.753027  1
  Nd  Nd1  1  0.498493  0.501507  0.247051  1
  Nd  Nd2  1  0.004865  0.504015  0.750630  1
  Nd  Nd3  1  0.004645  0.503921  0.249449  1
  Nd  Nd4  1  0.495985  0.995135  0.750630  1
  Nd  Nd5  1  0.496079  0.995355  0.249449  1
  Nd  Nd6  1  0.001111  0.998889  0.748967  1
  Nd  Nd7  1  0.001129  0.998871  0.251057  1
  Be  Be8  1  0.665698  0.334302  0.999003  1
  Be  Be9  1  0.334998  0.665002  0.000857  1
  Be  Be10  1  0.333878  0.666122  0.499464  1
  Zn  Zn11  1  0.826869  0.173131  0.000030  1
  Si  Si12  1  0.171742  0.828258  0.000072  1
  Si  Si13  1  0.347384  0.175740  0.000040  1
  Si  Si14  1  0.170219  0.829781  0.499856  1
  Si  Si15  1  0.658155  0.828680  0.000063  1
  Si  Si16  1  0.833556  0.166444  0.500205  1
  Si  Si17  1  0.824260  0.652616  0.000040  1
  Si  Si18  1  0.658379  0.829076  0.499799  1
  Si  Si19  1  0.171320  0.341845  0.000063  1
  Si  Si20  1  0.332944  0.167495  0.500206  1
  Si  Si21  1  0.170924  0.341621  0.499799  1
  Si  Si22  1  0.832505  0.667056  0.500206  1
  Pd  Pd23  1  0.666497  0.333503  0.500036  1
