# generated using pymatgen
data_Yb3Zr5(Si4Mo3)4
_symmetry_space_group_name_H-M   'P 1'
_cell_length_a   6.66120341
_cell_length_b   6.81729490
_cell_length_c   12.83287890
_cell_angle_alpha   90.21633405
_cell_angle_beta   89.96530554
_cell_angle_gamma   90.11350338
_symmetry_Int_Tables_number   1
_chemical_formula_structural   Yb3Zr5(Si4Mo3)4
_chemical_formula_sum   'Yb3 Zr5 Si16 Mo12'
_cell_volume   582.75344118
_cell_formula_units_Z   1
loop_
 _symmetry_equiv_pos_site_id
 _symmetry_equiv_pos_as_xyz
  1  'x, y, z'
loop_
 _atom_site_type_symbol
 _atom_site_label
 _atom_site_symmetry_multiplicity
 _atom_site_fract_x
 _atom_site_fract_y
 _atom_site_fract_z
 _atom_site_occupancy
  Yb  Yb0  1  0.994573  0.162432  0.089300  1
  Yb  Yb1  1  0.003125  0.835722  0.910909  1
  Yb  Yb2  1  0.503678  0.665854  0.908925  1
  Zr  Zr3  1  0.002494  0.831425  0.593131  1
  Zr  Zr4  1  0.495494  0.329403  0.097974  1
  Zr  Zr5  1  0.996091  0.169087  0.407125  1
  Zr  Zr6  1  0.495789  0.330893  0.406925  1
  Zr  Zr7  1  0.502658  0.670250  0.593123  1
  Si  Si8  1  0.035458  0.128379  0.748256  1
  Si  Si9  1  0.966893  0.870918  0.250849  1
  Si  Si10  1  0.465348  0.628213  0.251085  1
  Si  Si11  1  0.535016  0.374891  0.746644  1
  Si  Si12  1  0.301251  0.864713  0.750107  1
  Si  Si13  1  0.699360  0.136124  0.250669  1
  Si  Si14  1  0.197009  0.361800  0.251035  1
  Si  Si15  1  0.801955  0.637459  0.750060  1
  Si  Si16  1  0.167579  0.457619  0.542013  1
  Si  Si17  1  0.832911  0.543021  0.457355  1
  Si  Si18  1  0.333814  0.956915  0.457347  1
  Si  Si19  1  0.836227  0.537477  0.048292  1
  Si  Si20  1  0.666017  0.042776  0.540929  1
  Si  Si21  1  0.160935  0.458721  0.953966  1
  Si  Si22  1  0.655824  0.044911  0.954430  1
  Si  Si23  1  0.343905  0.960501  0.047991  1
  Mo  Mo24  1  0.166192  0.503498  0.744529  1
  Mo  Mo25  1  0.832454  0.494678  0.253799  1
  Mo  Mo26  1  0.335365  0.007458  0.253143  1
  Mo  Mo27  1  0.665732  0.999113  0.743853  1
  Mo  Mo28  1  0.332992  0.162021  0.622143  1
  Mo  Mo29  1  0.667913  0.838809  0.376416  1
  Mo  Mo30  1  0.167633  0.660809  0.377739  1
  Mo  Mo31  1  0.667960  0.834285  0.127616  1
  Mo  Mo32  1  0.834263  0.336492  0.620909  1
  Mo  Mo33  1  0.334840  0.170833  0.872438  1
  Mo  Mo34  1  0.832183  0.332102  0.870706  1
  Mo  Mo35  1  0.169071  0.660394  0.128273  1
