# generated using pymatgen
data_DyHf3Si4Mo
_symmetry_space_group_name_H-M   'P 1'
_cell_length_a   7.06289300
_cell_length_b   7.06289300
_cell_length_c   12.85639000
_cell_angle_alpha   90.00000000
_cell_angle_beta   90.00000000
_cell_angle_gamma   90.00000000
_symmetry_Int_Tables_number   1
_chemical_formula_structural   DyHf3Si4Mo
_chemical_formula_sum   'Dy4 Hf12 Si16 Mo4'
_cell_volume   641.33404094
_cell_formula_units_Z   4
loop_
 _symmetry_equiv_pos_site_id
 _symmetry_equiv_pos_as_xyz
  1  'x, y, z'
loop_
 _atom_site_type_symbol
 _atom_site_label
 _atom_site_symmetry_multiplicity
 _atom_site_fract_x
 _atom_site_fract_y
 _atom_site_fract_z
 _atom_site_occupancy
  Dy  Dy0  1  0.495528  0.156359  0.532636  1
  Dy  Dy1  1  0.504472  0.843641  0.032636  1
  Dy  Dy2  1  0.656359  0.004472  0.282636  1
  Dy  Dy3  1  0.343641  0.995528  0.782636  1
  Hf  Hf4  1  0.847002  0.499144  0.968658  1
  Hf  Hf5  1  0.152998  0.500856  0.468658  1
  Hf  Hf6  1  0.999144  0.652998  0.718658  1
  Hf  Hf7  1  0.000856  0.347002  0.218658  1
  Hf  Hf8  1  0.493307  0.356531  0.125048  1
  Hf  Hf9  1  0.506693  0.643469  0.625048  1
  Hf  Hf10  1  0.856531  0.006693  0.875048  1
  Hf  Hf11  1  0.143469  0.993307  0.375048  1
  Hf  Hf12  1  0.645206  0.503125  0.374605  1
  Hf  Hf13  1  0.354794  0.496875  0.874605  1
  Hf  Hf14  1  0.003125  0.854794  0.124605  1
  Hf  Hf15  1  0.996875  0.145206  0.624605  1
  Si  Si16  1  0.803482  0.151382  0.070244  1
  Si  Si17  1  0.196518  0.848618  0.570244  1
  Si  Si18  1  0.651382  0.696518  0.820244  1
  Si  Si19  1  0.348618  0.303482  0.320244  1
  Si  Si20  1  0.864749  0.211428  0.428925  1
  Si  Si21  1  0.135251  0.788572  0.928925  1
  Si  Si22  1  0.711428  0.635251  0.178925  1
  Si  Si23  1  0.288572  0.364749  0.678925  1
  Si  Si24  1  0.554328  0.207019  0.933475  1
  Si  Si25  1  0.445672  0.792981  0.433475  1
  Si  Si26  1  0.707019  0.945672  0.683475  1
  Si  Si27  1  0.292981  0.054328  0.183475  1
  Si  Si28  1  0.805499  0.454480  0.566323  1
  Si  Si29  1  0.194501  0.545520  0.066323  1
  Si  Si30  1  0.954480  0.694501  0.316323  1
  Si  Si31  1  0.045520  0.305499  0.816323  1
  Mo  Mo32  1  0.680524  0.329779  0.750085  1
  Mo  Mo33  1  0.319476  0.670221  0.250085  1
  Mo  Mo34  1  0.829779  0.819476  0.500085  1
  Mo  Mo35  1  0.170221  0.180524  0.000085  1
