# generated using pymatgen
data_Er4ScAl3Ir4
_symmetry_space_group_name_H-M   'P 1'
_cell_length_a   4.25537300
_cell_length_b   6.89427134
_cell_length_c   8.03832725
_cell_angle_alpha   91.25700681
_cell_angle_beta   90.00000000
_cell_angle_gamma   90.00000000
_symmetry_Int_Tables_number   1
_chemical_formula_structural   Er4ScAl3Ir4
_chemical_formula_sum   'Er4 Sc1 Al3 Ir4'
_cell_volume   235.76925093
_cell_formula_units_Z   1
loop_
 _symmetry_equiv_pos_site_id
 _symmetry_equiv_pos_as_xyz
  1  'x, y, z'
loop_
 _atom_site_type_symbol
 _atom_site_label
 _atom_site_symmetry_multiplicity
 _atom_site_fract_x
 _atom_site_fract_y
 _atom_site_fract_z
 _atom_site_occupancy
  Er  Er0  1  0.250000  0.960281  0.331033  1
  Er  Er1  1  0.250000  0.481658  0.182930  1
  Er  Er2  1  0.750000  0.027425  0.673866  1
  Er  Er3  1  0.750000  0.540836  0.818149  1
  Sc  Sc4  1  0.750000  0.135135  0.063505  1
  Al  Al5  1  0.250000  0.360927  0.557018  1
  Al  Al6  1  0.250000  0.859145  0.937101  1
  Al  Al7  1  0.750000  0.640634  0.437525  1
  Ir  Ir8  1  0.250000  0.238851  0.870645  1
  Ir  Ir9  1  0.250000  0.727970  0.618964  1
  Ir  Ir10  1  0.750000  0.760049  0.123486  1
  Ir  Ir11  1  0.750000  0.267089  0.385781  1
