# generated using pymatgen
data_Ba3Ga3Si2AuO14
_symmetry_space_group_name_H-M   'P 1'
_cell_length_a   8.54620800
_cell_length_b   8.54621209
_cell_length_c   5.32388600
_cell_angle_alpha   90.00000039
_cell_angle_beta   89.99992467
_cell_angle_gamma   120.00001042
_symmetry_Int_Tables_number   1
_chemical_formula_structural   Ba3Ga3Si2AuO14
_chemical_formula_sum   'Ba3 Ga3 Si2 Au1 O14'
_cell_volume   336.74911153
_cell_formula_units_Z   1
loop_
 _symmetry_equiv_pos_site_id
 _symmetry_equiv_pos_as_xyz
  1  'x, y, z'
loop_
 _atom_site_type_symbol
 _atom_site_label
 _atom_site_symmetry_multiplicity
 _atom_site_fract_x
 _atom_site_fract_y
 _atom_site_fract_z
 _atom_site_occupancy
  Ba  Ba0  1  0.434178  0.000000  0.000001  1
  Ba  Ba1  1  0.000000  0.434181  0.000000  1
  Ba  Ba2  1  0.565822  0.565821  0.999999  1
  Ga  Ga3  1  0.752785  0.000001  0.500000  1
  Ga  Ga4  1  0.000000  0.752782  0.500001  1
  Ga  Ga5  1  0.247216  0.247218  0.500001  1
  Si  Si6  1  0.333335  0.666667  0.484750  1
  Si  Si7  1  0.666665  0.333331  0.515251  1
  Au  Au8  1  0.000000  0.000000  0.000000  1
  O  O9  1  0.666665  0.333332  0.212430  1
  O  O10  1  0.879828  0.780460  0.229623  1
  O  O11  1  0.900636  0.120176  0.229626  1
  O  O12  1  0.219539  0.099365  0.229626  1
  O  O13  1  0.528061  0.823854  0.360418  1
  O  O14  1  0.295798  0.471941  0.360419  1
  O  O15  1  0.176148  0.704205  0.360421  1
  O  O16  1  0.823853  0.528057  0.639580  1
  O  O17  1  0.704203  0.176145  0.639581  1
  O  O18  1  0.471939  0.295793  0.639583  1
  O  O19  1  0.780462  0.879826  0.770375  1
  O  O20  1  0.099364  0.219538  0.770375  1
  O  O21  1  0.120172  0.900632  0.770378  1
  O  O22  1  0.333336  0.666667  0.787570  1
