# generated using pymatgen
data_DyHo3MnV3B16
_symmetry_space_group_name_H-M   'P 1'
_cell_length_a   3.44045900
_cell_length_b   5.96229493
_cell_length_c   11.53606704
_cell_angle_alpha   90.09222837
_cell_angle_beta   90.00000000
_cell_angle_gamma   90.00000000
_symmetry_Int_Tables_number   1
_chemical_formula_structural   DyHo3MnV3B16
_chemical_formula_sum   'Dy1 Ho3 Mn1 V3 B16'
_cell_volume   236.63939732
_cell_formula_units_Z   1
loop_
 _symmetry_equiv_pos_site_id
 _symmetry_equiv_pos_as_xyz
  1  'x, y, z'
loop_
 _atom_site_type_symbol
 _atom_site_label
 _atom_site_symmetry_multiplicity
 _atom_site_fract_x
 _atom_site_fract_y
 _atom_site_fract_z
 _atom_site_occupancy
  Dy  Dy0  1  0.500000  0.624939  0.149195  1
  Ho  Ho1  1  0.500000  0.375796  0.849560  1
  Ho  Ho2  1  0.500000  0.124336  0.347970  1
  Ho  Ho3  1  0.500000  0.876157  0.653175  1
  Mn  Mn4  1  0.500000  0.875621  0.919045  1
  V  V5  1  0.500000  0.627062  0.417500  1
  V  V6  1  0.500000  0.372952  0.585096  1
  V  V7  1  0.500000  0.124802  0.079443  1
  B  B8  1  0.000000  0.976051  0.190780  1
  B  B9  1  0.000000  0.020781  0.809756  1
  B  B10  1  0.000000  0.475088  0.307146  1
  B  B11  1  0.000000  0.526008  0.694131  1
  B  B12  1  0.000000  0.785701  0.313508  1
  B  B13  1  0.000000  0.213749  0.687549  1
  B  B14  1  0.000000  0.283535  0.184142  1
  B  B15  1  0.000000  0.720462  0.818295  1
  B  B16  1  0.000000  0.864933  0.467430  1
  B  B17  1  0.000000  0.135070  0.533167  1
  B  B18  1  0.000000  0.364137  0.030641  1
  B  B19  1  0.000000  0.638887  0.966404  1
  B  B20  1  0.000000  0.884452  0.044193  1
  B  B21  1  0.000000  0.109849  0.951008  1
  B  B22  1  0.000000  0.384434  0.452743  1
  B  B23  1  0.000000  0.615198  0.548123  1
