# generated using pymatgen
data_Yb3LuTh6(Ge3C)2
_symmetry_space_group_name_H-M   'P 1'
_cell_length_a   8.81384901
_cell_length_b   8.81375714
_cell_length_c   6.42679901
_cell_angle_alpha   90.00021987
_cell_angle_beta   90.00044268
_cell_angle_gamma   119.99530744
_symmetry_Int_Tables_number   1
_chemical_formula_structural   Yb3LuTh6(Ge3C)2
_chemical_formula_sum   'Yb3 Lu1 Th6 Ge6 C2'
_cell_volume   432.38694149
_cell_formula_units_Z   1
loop_
 _symmetry_equiv_pos_site_id
 _symmetry_equiv_pos_as_xyz
  1  'x, y, z'
loop_
 _atom_site_type_symbol
 _atom_site_label
 _atom_site_symmetry_multiplicity
 _atom_site_fract_x
 _atom_site_fract_y
 _atom_site_fract_z
 _atom_site_occupancy
  Yb  Yb0  1  0.666659  0.333328  0.499990  1
  Yb  Yb1  1  0.333312  0.666671  0.499993  1
  Yb  Yb2  1  0.333311  0.666665  0.999989  1
  Lu  Lu3  1  0.666687  0.333336  0.999993  1
  Th  Th4  1  0.767262  0.767843  0.250048  1
  Th  Th5  1  0.232180  0.999399  0.250043  1
  Th  Th6  1  0.000568  0.232761  0.250045  1
  Th  Th7  1  0.232129  0.232739  0.749934  1
  Th  Th8  1  0.767227  0.999425  0.749943  1
  Th  Th9  1  0.000600  0.767829  0.749941  1
  Ge  Ge10  1  0.404385  0.398869  0.244117  1
  Ge  Ge11  1  0.601094  0.005542  0.244096  1
  Ge  Ge12  1  0.994636  0.595568  0.244277  1
  Ge  Ge13  1  0.601114  0.595600  0.755848  1
  Ge  Ge14  1  0.404408  0.005500  0.755889  1
  Ge  Ge15  1  0.994457  0.398922  0.755872  1
  C  C16  1  0.999985  0.000002  0.499990  1
  C  C17  1  0.999985  0.999998  0.999991  1
