# generated using pymatgen
data_Rb4TbHo11Se20
_symmetry_space_group_name_H-M   'P 1'
_cell_length_a   4.14911200
_cell_length_b   12.32115743
_cell_length_c   22.17953000
_cell_angle_alpha   90.02765006
_cell_angle_beta   90.00000000
_cell_angle_gamma   90.00000000
_symmetry_Int_Tables_number   1
_chemical_formula_structural   Rb4TbHo11Se20
_chemical_formula_sum   'Rb4 Tb1 Ho11 Se20'
_cell_volume   1133.85874354
_cell_formula_units_Z   1
loop_
 _symmetry_equiv_pos_site_id
 _symmetry_equiv_pos_as_xyz
  1  'x, y, z'
loop_
 _atom_site_type_symbol
 _atom_site_label
 _atom_site_symmetry_multiplicity
 _atom_site_fract_x
 _atom_site_fract_y
 _atom_site_fract_z
 _atom_site_occupancy
  Rb  Rb0  1  0.250000  0.845513  0.097630  1
  Rb  Rb1  1  0.750000  0.154589  0.902393  1
  Rb  Rb2  1  0.750000  0.345538  0.402389  1
  Rb  Rb3  1  0.250000  0.654435  0.597575  1
  Tb  Tb4  1  0.750000  0.803690  0.828592  1
  Ho  Ho5  1  0.250000  0.196247  0.171499  1
  Ho  Ho6  1  0.250000  0.303735  0.671496  1
  Ho  Ho7  1  0.750000  0.696259  0.328503  1
  Ho  Ho8  1  0.250000  0.960589  0.698530  1
  Ho  Ho9  1  0.750000  0.039578  0.301321  1
  Ho  Ho10  1  0.750000  0.460130  0.801297  1
  Ho  Ho11  1  0.250000  0.539601  0.198687  1
  Ho  Ho12  1  0.750000  0.388720  0.052646  1
  Ho  Ho13  1  0.250000  0.611012  0.947547  1
  Ho  Ho14  1  0.250000  0.888749  0.447372  1
  Ho  Ho15  1  0.750000  0.111248  0.552630  1
  Se  Se16  1  0.250000  0.949214  0.569667  1
  Se  Se17  1  0.750000  0.050827  0.430294  1
  Se  Se18  1  0.750000  0.449161  0.930317  1
  Se  Se19  1  0.250000  0.550793  0.069724  1
  Se  Se20  1  0.750000  0.768688  0.956315  1
  Se  Se21  1  0.250000  0.231002  0.044383  1
  Se  Se22  1  0.250000  0.268984  0.544396  1
  Se  Se23  1  0.750000  0.731021  0.455609  1
  Se  Se24  1  0.250000  0.959814  0.827054  1
  Se  Se25  1  0.750000  0.041820  0.172763  1
  Se  Se26  1  0.750000  0.458177  0.672777  1
  Se  Se27  1  0.250000  0.541816  0.327222  1
  Se  Se28  1  0.750000  0.131129  0.683006  1
  Se  Se29  1  0.250000  0.868889  0.316986  1
  Se  Se30  1  0.250000  0.630088  0.816986  1
  Se  Se31  1  0.750000  0.368906  0.183009  1
  Se  Se32  1  0.750000  0.692182  0.200020  1
  Se  Se33  1  0.250000  0.307740  0.799983  1
  Se  Se34  1  0.250000  0.192184  0.299988  1
  Se  Se35  1  0.750000  0.807934  0.699398  1
