# generated using pymatgen
data_SrPr(Ga3Pd)2
_symmetry_space_group_name_H-M   'P 1'
_cell_length_a   6.17842221
_cell_length_b   6.17842281
_cell_length_c   5.96532500
_cell_angle_alpha   90.00000000
_cell_angle_beta   90.00000000
_cell_angle_gamma   117.02573124
_symmetry_Int_Tables_number   1
_chemical_formula_structural   SrPr(Ga3Pd)2
_chemical_formula_sum   'Sr1 Pr1 Ga6 Pd2'
_cell_volume   202.84801818
_cell_formula_units_Z   1
loop_
 _symmetry_equiv_pos_site_id
 _symmetry_equiv_pos_as_xyz
  1  'x, y, z'
loop_
 _atom_site_type_symbol
 _atom_site_label
 _atom_site_symmetry_multiplicity
 _atom_site_fract_x
 _atom_site_fract_y
 _atom_site_fract_z
 _atom_site_occupancy
  Sr  Sr0  1  0.765847  0.234153  0.250000  1
  Pr  Pr1  1  0.233531  0.766469  0.750000  1
  Ga  Ga2  1  0.663861  0.336139  0.750000  1
  Ga  Ga3  1  0.336438  0.663562  0.250000  1
  Ga  Ga4  1  0.718619  0.718564  0.997027  1
  Ga  Ga5  1  0.718619  0.718564  0.502973  1
  Ga  Ga6  1  0.281436  0.281381  0.997027  1
  Ga  Ga7  1  0.281436  0.281381  0.502973  1
  Pd  Pd8  1  0.901876  0.098124  0.750000  1
  Pd  Pd9  1  0.098335  0.901665  0.250000  1
