# generated using pymatgen
data_Er2Al2IrRh
_symmetry_space_group_name_H-M   'P 1'
_cell_length_a   4.24947700
_cell_length_b   6.79220130
_cell_length_c   7.90554679
_cell_angle_alpha   89.91348921
_cell_angle_beta   90.00000000
_cell_angle_gamma   90.00000000
_symmetry_Int_Tables_number   1
_chemical_formula_structural   Er2Al2IrRh
_chemical_formula_sum   'Er4 Al4 Ir2 Rh2'
_cell_volume   228.17993405
_cell_formula_units_Z   2
loop_
 _symmetry_equiv_pos_site_id
 _symmetry_equiv_pos_as_xyz
  1  'x, y, z'
loop_
 _atom_site_type_symbol
 _atom_site_label
 _atom_site_symmetry_multiplicity
 _atom_site_fract_x
 _atom_site_fract_y
 _atom_site_fract_z
 _atom_site_occupancy
  Er  Er0  1  0.250000  0.533454  0.179357  1
  Er  Er1  1  0.750000  0.466546  0.820643  1
  Er  Er2  1  0.750000  0.964446  0.679707  1
  Er  Er3  1  0.250000  0.035554  0.320293  1
  Al  Al4  1  0.250000  0.639078  0.561128  1
  Al  Al5  1  0.750000  0.360922  0.438872  1
  Al  Al6  1  0.750000  0.860433  0.060028  1
  Al  Al7  1  0.250000  0.139567  0.939972  1
  Ir  Ir8  1  0.250000  0.767295  0.878336  1
  Ir  Ir9  1  0.750000  0.232705  0.121664  1
  Rh  Rh10  1  0.750000  0.733584  0.380426  1
  Rh  Rh11  1  0.250000  0.266416  0.619574  1
