# generated using pymatgen
data_Ca2Al4Ga3Au
_symmetry_space_group_name_H-M   'P 1'
_cell_length_a   4.21548200
_cell_length_b   4.21548200
_cell_length_c   11.33923600
_cell_angle_alpha   90.00000000
_cell_angle_beta   90.00000000
_cell_angle_gamma   90.00000000
_symmetry_Int_Tables_number   1
_chemical_formula_structural   Ca2Al4Ga3Au
_chemical_formula_sum   'Ca2 Al4 Ga3 Au1'
_cell_volume   201.50149500
_cell_formula_units_Z   1
loop_
 _symmetry_equiv_pos_site_id
 _symmetry_equiv_pos_as_xyz
  1  'x, y, z'
loop_
 _atom_site_type_symbol
 _atom_site_label
 _atom_site_symmetry_multiplicity
 _atom_site_fract_x
 _atom_site_fract_y
 _atom_site_fract_z
 _atom_site_occupancy
  Ca  Ca0  1  0.000000  0.000000  0.998861  1
  Ca  Ca1  1  0.500000  0.500000  0.499228  1
  Al  Al2  1  0.000000  0.500000  0.250560  1
  Al  Al3  1  0.500000  0.000000  0.747708  1
  Al  Al4  1  0.500000  0.000000  0.250560  1
  Al  Al5  1  0.000000  0.500000  0.747708  1
  Ga  Ga6  1  0.000000  0.000000  0.609135  1
  Ga  Ga7  1  0.000000  0.000000  0.390001  1
  Ga  Ga8  1  0.500000  0.500000  0.889426  1
  Au  Au9  1  0.500000  0.500000  0.116812  1
