# generated using pymatgen
data_Tb3Y3Co16(P6Ru)2
_symmetry_space_group_name_H-M   'P 1'
_cell_length_a   3.71446700
_cell_length_b   10.53737101
_cell_length_c   12.26614601
_cell_angle_alpha   89.99581398
_cell_angle_beta   90.00000000
_cell_angle_gamma   90.00000000
_symmetry_Int_Tables_number   1
_chemical_formula_structural   Tb3Y3Co16(P6Ru)2
_chemical_formula_sum   'Tb3 Y3 Co16 P12 Ru2'
_cell_volume   480.10574674
_cell_formula_units_Z   1
loop_
 _symmetry_equiv_pos_site_id
 _symmetry_equiv_pos_as_xyz
  1  'x, y, z'
loop_
 _atom_site_type_symbol
 _atom_site_label
 _atom_site_symmetry_multiplicity
 _atom_site_fract_x
 _atom_site_fract_y
 _atom_site_fract_z
 _atom_site_occupancy
  Tb  Tb0  1  0.000000  0.500007  0.524265  1
  Tb  Tb1  1  0.500000  0.999996  0.475704  1
  Tb  Tb2  1  0.000000  0.317166  0.793303  1
  Y  Y3  1  0.500000  0.817139  0.206680  1
  Y  Y4  1  0.500000  0.182862  0.206678  1
  Y  Y5  1  0.000000  0.682907  0.793328  1
  Co  Co6  1  0.500000  0.500030  0.704136  1
  Co  Co7  1  0.000000  0.999992  0.295835  1
  Co  Co8  1  0.000000  0.500025  0.986377  1
  Co  Co9  1  0.500000  0.999990  0.013632  1
  Co  Co10  1  0.500000  0.332536  0.990790  1
  Co  Co11  1  0.500000  0.667491  0.990707  1
  Co  Co12  1  0.000000  0.167440  0.009313  1
  Co  Co13  1  0.000000  0.832532  0.009297  1
  Co  Co14  1  0.500000  0.297015  0.430844  1
  Co  Co15  1  0.500000  0.703001  0.430857  1
  Co  Co16  1  0.000000  0.202990  0.569125  1
  Co  Co17  1  0.000000  0.797015  0.569146  1
  Co  Co18  1  0.500000  0.879319  0.708270  1
  Co  Co19  1  0.500000  0.120607  0.708236  1
  Co  Co20  1  0.000000  0.620693  0.291739  1
  Co  Co21  1  0.000000  0.379312  0.291725  1
  P  P22  1  0.500000  0.500044  0.882354  1
  P  P23  1  0.000000  0.999994  0.117752  1
  P  P24  1  0.500000  0.499990  0.349286  1
  P  P25  1  0.000000  0.000030  0.650704  1
  P  P26  1  0.500000  0.310873  0.615913  1
  P  P27  1  0.500000  0.689062  0.616035  1
  P  P28  1  0.000000  0.189037  0.383954  1
  P  P29  1  0.000000  0.810948  0.383960  1
  P  P30  1  0.500000  0.846627  0.893824  1
  P  P31  1  0.500000  0.153327  0.893894  1
  P  P32  1  0.000000  0.653394  0.106196  1
  P  P33  1  0.000000  0.346612  0.106168  1
  Ru  Ru34  1  0.500000  0.499997  0.159028  1
  Ru  Ru35  1  0.000000  0.999999  0.840944  1
