# generated using pymatgen
data_Pr4BBr5
_symmetry_space_group_name_H-M   'P 1'
_cell_length_a   9.56570806
_cell_length_b   9.56570837
_cell_length_c   8.50665288
_cell_angle_alpha   102.96368495
_cell_angle_beta   102.96368431
_cell_angle_gamma   25.02991115
_symmetry_Int_Tables_number   1
_chemical_formula_structural   Pr4BBr5
_chemical_formula_sum   'Pr4 B1 Br5'
_cell_volume   320.51384862
_cell_formula_units_Z   1
loop_
 _symmetry_equiv_pos_site_id
 _symmetry_equiv_pos_as_xyz
  1  'x, y, z'
loop_
 _atom_site_type_symbol
 _atom_site_label
 _atom_site_symmetry_multiplicity
 _atom_site_fract_x
 _atom_site_fract_y
 _atom_site_fract_z
 _atom_site_occupancy
  Pr  Pr0  1  0.645051  0.645051  0.078670  1
  Pr  Pr1  1  0.999123  0.999123  0.212861  1
  Pr  Pr2  1  0.000877  0.000877  0.787139  1
  Pr  Pr3  1  0.354949  0.354949  0.921331  1
  B  B4  1  0.500000  0.500000  0.000000  1
  Br  Br5  1  0.829965  0.829965  0.168516  1
  Br  Br6  1  0.164014  0.164014  0.341751  1
  Br  Br7  1  0.500000  0.500000  0.500000  1
  Br  Br8  1  0.835986  0.835986  0.658250  1
  Br  Br9  1  0.170035  0.170035  0.831484  1
