# generated using pymatgen
data_Cs4Ac3Ce(GeSe4)4
_symmetry_space_group_name_H-M   'P 1'
_cell_length_a   7.32677450
_cell_length_b   7.10312242
_cell_length_c   20.05707759
_cell_angle_alpha   71.57180090
_cell_angle_beta   89.96849134
_cell_angle_gamma   89.93939207
_symmetry_Int_Tables_number   1
_chemical_formula_structural   Cs4Ac3Ce(GeSe4)4
_chemical_formula_sum   'Cs4 Ac3 Ce1 Ge4 Se16'
_cell_volume   990.30239785
_cell_formula_units_Z   1
loop_
 _symmetry_equiv_pos_site_id
 _symmetry_equiv_pos_as_xyz
  1  'x, y, z'
loop_
 _atom_site_type_symbol
 _atom_site_label
 _atom_site_symmetry_multiplicity
 _atom_site_fract_x
 _atom_site_fract_y
 _atom_site_fract_z
 _atom_site_occupancy
  Cs  Cs0  1  0.752677  0.735880  0.034072  1
  Cs  Cs1  1  0.246071  0.265295  0.968369  1
  Cs  Cs2  1  0.746615  0.738171  0.531444  1
  Cs  Cs3  1  0.253057  0.264293  0.466055  1
  Ac  Ac4  1  0.732497  0.767946  0.274417  1
  Ac  Ac5  1  0.765226  0.766592  0.775053  1
  Ac  Ac6  1  0.265025  0.233213  0.725086  1
  Ce  Ce7  1  0.227072  0.233670  0.225175  1
  Ge  Ge8  1  0.731511  0.208015  0.837848  1
  Ge  Ge9  1  0.768702  0.212910  0.333695  1
  Ge  Ge10  1  0.231712  0.791826  0.662339  1
  Ge  Ge11  1  0.267025  0.787073  0.165996  1
  Se  Se12  1  0.499151  0.036056  0.143175  1
  Se  Se13  1  0.761772  0.400612  0.412193  1
  Se  Se14  1  0.002255  0.011562  0.852455  1
  Se  Se15  1  0.834803  0.415111  0.215911  1
  Se  Se16  1  0.992124  0.032510  0.639725  1
  Se  Se17  1  0.260705  0.585548  0.091972  1
  Se  Se18  1  0.735089  0.403211  0.913687  1
  Se  Se19  1  0.325967  0.571124  0.282022  1
  Se  Se20  1  0.235320  0.596719  0.586495  1
  Se  Se21  1  0.491939  0.967625  0.860546  1
  Se  Se22  1  0.683429  0.407118  0.718149  1
  Se  Se23  1  0.183266  0.592635  0.782011  1
  Se  Se24  1  0.009051  0.971697  0.357036  1
  Se  Se25  1  0.002005  0.993301  0.151165  1
  Se  Se26  1  0.493411  0.022404  0.346147  1
  Se  Se27  1  0.502524  0.987883  0.647764  1
