# generated using pymatgen
data_HfNb6PbS12
_symmetry_space_group_name_H-M   'P 1'
_cell_length_a   5.83245900
_cell_length_b   5.83245904
_cell_length_c   13.93405400
_cell_angle_alpha   90.00000000
_cell_angle_beta   90.00000000
_cell_angle_gamma   119.99999408
_symmetry_Int_Tables_number   1
_chemical_formula_structural   HfNb6PbS12
_chemical_formula_sum   'Hf1 Nb6 Pb1 S12'
_cell_volume   410.49846667
_cell_formula_units_Z   1
loop_
 _symmetry_equiv_pos_site_id
 _symmetry_equiv_pos_as_xyz
  1  'x, y, z'
loop_
 _atom_site_type_symbol
 _atom_site_label
 _atom_site_symmetry_multiplicity
 _atom_site_fract_x
 _atom_site_fract_y
 _atom_site_fract_z
 _atom_site_occupancy
  Hf  Hf0  1  0.000000  0.000000  0.000000  1
  Nb  Nb1  1  0.000000  0.000000  0.768551  1
  Nb  Nb2  1  0.000000  0.000000  0.231449  1
  Nb  Nb3  1  0.333333  0.666667  0.230078  1
  Nb  Nb4  1  0.666667  0.333333  0.769922  1
  Nb  Nb5  1  0.666667  0.333333  0.230078  1
  Nb  Nb6  1  0.333333  0.666667  0.769922  1
  Pb  Pb7  1  0.000000  0.000000  0.500000  1
  S  S8  1  0.334963  0.000000  0.116155  1
  S  S9  1  0.000000  0.334963  0.116155  1
  S  S10  1  0.665037  0.665037  0.116155  1
  S  S11  1  0.338685  0.338685  0.656385  1
  S  S12  1  0.661315  0.661315  0.343615  1
  S  S13  1  0.661315  0.000000  0.656385  1
  S  S14  1  0.000000  0.661315  0.656385  1
  S  S15  1  0.000000  0.665037  0.883845  1
  S  S16  1  0.334963  0.334963  0.883845  1
  S  S17  1  0.000000  0.338685  0.343615  1
  S  S18  1  0.338685  0.000000  0.343615  1
  S  S19  1  0.665037  0.000000  0.883845  1
