# generated using pymatgen
data_MgCoTeBr2O3
_symmetry_space_group_name_H-M   'P 1'
_cell_length_a   7.88809000
_cell_length_b   10.74088500
_cell_length_c   16.49323800
_cell_angle_alpha   90.00000000
_cell_angle_beta   90.00000000
_cell_angle_gamma   90.00000000
_symmetry_Int_Tables_number   1
_chemical_formula_structural   MgCoTeBr2O3
_chemical_formula_sum   'Mg8 Co8 Te8 Br16 O24'
_cell_volume   1397.39070383
_cell_formula_units_Z   8
loop_
 _symmetry_equiv_pos_site_id
 _symmetry_equiv_pos_as_xyz
  1  'x, y, z'
loop_
 _atom_site_type_symbol
 _atom_site_label
 _atom_site_symmetry_multiplicity
 _atom_site_fract_x
 _atom_site_fract_y
 _atom_site_fract_z
 _atom_site_occupancy
  Mg  Mg0  1  0.605921  0.768409  0.963133  1
  Mg  Mg1  1  0.394079  0.268409  0.463133  1
  Mg  Mg2  1  0.894079  0.268409  0.036867  1
  Mg  Mg3  1  0.605921  0.731591  0.536867  1
  Mg  Mg4  1  0.105921  0.731591  0.963133  1
  Mg  Mg5  1  0.894079  0.231591  0.463133  1
  Mg  Mg6  1  0.105921  0.768409  0.536867  1
  Mg  Mg7  1  0.394079  0.231591  0.036867  1
  Co  Co8  1  0.346116  0.994275  0.600604  1
  Co  Co9  1  0.653884  0.494275  0.100604  1
  Co  Co10  1  0.153884  0.005725  0.100604  1
  Co  Co11  1  0.846116  0.505725  0.600604  1
  Co  Co12  1  0.846116  0.994275  0.899396  1
  Co  Co13  1  0.346116  0.505725  0.899396  1
  Co  Co14  1  0.153884  0.494275  0.399396  1
  Co  Co15  1  0.653884  0.005725  0.399396  1
  Te  Te16  1  0.787358  0.972634  0.594923  1
  Te  Te17  1  0.287358  0.527366  0.594923  1
  Te  Te18  1  0.287358  0.972634  0.905077  1
  Te  Te19  1  0.212642  0.027366  0.405077  1
  Te  Te20  1  0.787358  0.527366  0.905077  1
  Te  Te21  1  0.712642  0.472634  0.405077  1
  Te  Te22  1  0.212642  0.472634  0.094923  1
  Te  Te23  1  0.712642  0.027366  0.094923  1
  Br  Br24  1  0.656684  0.909695  0.798819  1
  Br  Br25  1  0.156684  0.909695  0.701181  1
  Br  Br26  1  0.439975  0.292318  0.878833  1
  Br  Br27  1  0.439975  0.207682  0.621167  1
  Br  Br28  1  0.156684  0.590305  0.798819  1
  Br  Br29  1  0.343316  0.409695  0.298819  1
  Br  Br30  1  0.060025  0.792318  0.121167  1
  Br  Br31  1  0.560025  0.707682  0.121167  1
  Br  Br32  1  0.843316  0.090305  0.298819  1
  Br  Br33  1  0.560025  0.792318  0.378833  1
  Br  Br34  1  0.939975  0.207682  0.878833  1
  Br  Br35  1  0.343316  0.090305  0.201181  1
  Br  Br36  1  0.060025  0.707682  0.378833  1
  Br  Br37  1  0.656684  0.590305  0.701181  1
  Br  Br38  1  0.843316  0.409695  0.201181  1
  Br  Br39  1  0.939975  0.292318  0.621167  1
  O  O40  1  0.197965  0.942615  0.507953  1
  O  O41  1  0.561875  0.590409  0.918587  1
  O  O42  1  0.856776  0.686130  0.943164  1
  O  O43  1  0.302035  0.442615  0.492047  1
  O  O44  1  0.143224  0.186130  0.443164  1
  O  O45  1  0.061875  0.590409  0.581413  1
  O  O46  1  0.438125  0.090409  0.418587  1
  O  O47  1  0.643224  0.313870  0.443164  1
  O  O48  1  0.697965  0.557385  0.507953  1
  O  O49  1  0.197965  0.557385  0.992047  1
  O  O50  1  0.061875  0.909591  0.918587  1
  O  O51  1  0.938125  0.409591  0.418587  1
  O  O52  1  0.302035  0.057385  0.007953  1
  O  O53  1  0.938125  0.090409  0.081413  1
  O  O54  1  0.561875  0.909591  0.581413  1
  O  O55  1  0.643224  0.186130  0.056836  1
  O  O56  1  0.697965  0.942615  0.992047  1
  O  O57  1  0.802035  0.442615  0.007953  1
  O  O58  1  0.356776  0.813870  0.943164  1
  O  O59  1  0.856776  0.813870  0.556836  1
  O  O60  1  0.356776  0.686130  0.556836  1
  O  O61  1  0.802035  0.057385  0.492047  1
  O  O62  1  0.143224  0.313870  0.056836  1
  O  O63  1  0.438125  0.409591  0.081413  1
