# generated using pymatgen
data_Ca3TbSn3SbAs2Rh7
_symmetry_space_group_name_H-M   'P 1'
_cell_length_a   7.54203968
_cell_length_b   7.51354903
_cell_length_c   7.51241148
_cell_angle_alpha   109.09839236
_cell_angle_beta   109.33539063
_cell_angle_gamma   110.07436032
_symmetry_Int_Tables_number   1
_chemical_formula_structural   Ca3TbSn3SbAs2Rh7
_chemical_formula_sum   'Ca3 Tb1 Sn3 Sb1 As2 Rh7'
_cell_volume   327.30921430
_cell_formula_units_Z   1
loop_
 _symmetry_equiv_pos_site_id
 _symmetry_equiv_pos_as_xyz
  1  'x, y, z'
loop_
 _atom_site_type_symbol
 _atom_site_label
 _atom_site_symmetry_multiplicity
 _atom_site_fract_x
 _atom_site_fract_y
 _atom_site_fract_z
 _atom_site_occupancy
  Ca  Ca0  1  0.458057  0.992717  0.999071  1
  Ca  Ca1  1  0.006492  0.534476  0.000095  1
  Ca  Ca2  1  0.007258  0.992765  0.504858  1
  Tb  Tb3  1  0.500927  0.488156  0.495512  1
  Sn  Sn4  1  0.983321  0.295877  0.291022  1
  Sn  Sn5  1  0.696457  0.008436  0.708484  1
  Sn  Sn6  1  0.681740  0.700303  0.004243  1
  Sb  Sb7  1  0.315353  0.331194  0.996980  1
  As  As8  1  0.993486  0.659175  0.655687  1
  As  As9  1  0.335979  0.001862  0.343541  1
  Rh  Rh10  1  0.023296  0.990751  0.000828  1
  Rh  Rh11  1  0.504611  0.760839  0.266571  1
  Rh  Rh12  1  0.748062  0.499592  0.249002  1
  Rh  Rh13  1  0.251365  0.743483  0.499287  1
  Rh  Rh14  1  0.242059  0.497470  0.733093  1
  Rh  Rh15  1  0.503454  0.255109  0.751315  1
  Rh  Rh16  1  0.748086  0.247794  0.500410  1
