# generated using pymatgen
data_Rb2Ba2SbAsSe6
_symmetry_space_group_name_H-M   'P 1'
_cell_length_a   9.33396300
_cell_length_b   9.99052515
_cell_length_c   9.55136628
_cell_angle_alpha   72.20374091
_cell_angle_beta   90.00000000
_cell_angle_gamma   90.00000000
_symmetry_Int_Tables_number   1
_chemical_formula_structural   Rb2Ba2SbAsSe6
_chemical_formula_sum   'Rb4 Ba4 Sb2 As2 Se12'
_cell_volume   848.05685222
_cell_formula_units_Z   2
loop_
 _symmetry_equiv_pos_site_id
 _symmetry_equiv_pos_as_xyz
  1  'x, y, z'
loop_
 _atom_site_type_symbol
 _atom_site_label
 _atom_site_symmetry_multiplicity
 _atom_site_fract_x
 _atom_site_fract_y
 _atom_site_fract_z
 _atom_site_occupancy
  Rb  Rb0  1  0.092428  0.581183  0.293163  1
  Rb  Rb1  1  0.592428  0.418817  0.206837  1
  Rb  Rb2  1  0.920725  0.409951  0.733244  1
  Rb  Rb3  1  0.420725  0.590049  0.766756  1
  Ba  Ba4  1  0.712919  0.922382  0.031566  1
  Ba  Ba5  1  0.212919  0.077618  0.468434  1
  Ba  Ba6  1  0.282076  0.079654  0.970150  1
  Ba  Ba7  1  0.782076  0.920346  0.529850  1
  Sb  Sb8  1  0.548007  0.244456  0.638793  1
  Sb  Sb9  1  0.048007  0.755544  0.861207  1
  As  As10  1  0.460395  0.761265  0.352449  1
  As  As11  1  0.960395  0.238735  0.147551  1
  Se  Se12  1  0.198499  0.337870  0.104159  1
  Se  Se13  1  0.698499  0.662130  0.395841  1
  Se  Se14  1  0.790168  0.659517  0.897730  1
  Se  Se15  1  0.290168  0.340483  0.602270  1
  Se  Se16  1  0.005537  0.983782  0.220303  1
  Se  Se17  1  0.505537  0.016218  0.279697  1
  Se  Se18  1  0.989652  0.025151  0.775368  1
  Se  Se19  1  0.489652  0.974849  0.724632  1
  Se  Se20  1  0.398541  0.741689  0.113714  1
  Se  Se21  1  0.898541  0.258311  0.386286  1
  Se  Se22  1  0.601053  0.261746  0.897982  1
  Se  Se23  1  0.101053  0.738254  0.602018  1
