# generated using pymatgen
data_Li4PuO5
_symmetry_space_group_name_H-M   'P 1'
_cell_length_a   5.24133347
_cell_length_b   5.24133398
_cell_length_c   5.24133301
_cell_angle_alpha   100.23390033
_cell_angle_beta   100.23389382
_cell_angle_gamma   130.14062358
_symmetry_Int_Tables_number   1
_chemical_formula_structural   Li4PuO5
_chemical_formula_sum   'Li4 Pu1 O5'
_cell_volume   99.81748150
_cell_formula_units_Z   1
loop_
 _symmetry_equiv_pos_site_id
 _symmetry_equiv_pos_as_xyz
  1  'x, y, z'
loop_
 _atom_site_type_symbol
 _atom_site_label
 _atom_site_symmetry_multiplicity
 _atom_site_fract_x
 _atom_site_fract_y
 _atom_site_fract_z
 _atom_site_occupancy
  Li  Li0  1  0.413741  0.809959  0.223699  1
  Li  Li1  1  0.586259  0.190041  0.776301  1
  Li  Li2  1  0.190041  0.413741  0.603782  1
  Li  Li3  1  0.809959  0.586259  0.396218  1
  Pu  Pu4  1  0.000000  0.000000  0.000000  1
  O  O5  1  0.714225  0.914324  0.628548  1
  O  O6  1  0.085676  0.714225  0.799901  1
  O  O7  1  0.500000  0.500000  0.000000  1
  O  O8  1  0.285775  0.085676  0.371452  1
  O  O9  1  0.914324  0.285775  0.200099  1
