# generated using pymatgen
data_LiYSi4Tc3
_symmetry_space_group_name_H-M   'P 1'
_cell_length_a   6.65831800
_cell_length_b   6.54598258
_cell_length_c   6.65398997
_cell_angle_alpha   70.64452669
_cell_angle_beta   90.00000000
_cell_angle_gamma   90.00000000
_symmetry_Int_Tables_number   1
_chemical_formula_structural   LiYSi4Tc3
_chemical_formula_sum   'Li2 Y2 Si8 Tc6'
_cell_volume   273.62416684
_cell_formula_units_Z   2
loop_
 _symmetry_equiv_pos_site_id
 _symmetry_equiv_pos_as_xyz
  1  'x, y, z'
loop_
 _atom_site_type_symbol
 _atom_site_label
 _atom_site_symmetry_multiplicity
 _atom_site_fract_x
 _atom_site_fract_y
 _atom_site_fract_z
 _atom_site_occupancy
  Li  Li0  1  0.164692  0.959918  0.183570  1
  Li  Li1  1  0.335308  0.459918  0.183570  1
  Y  Y2  1  0.838789  0.056762  0.813680  1
  Y  Y3  1  0.661211  0.556762  0.813680  1
  Si  Si4  1  0.521873  0.125206  0.110809  1
  Si  Si5  1  0.350115  0.639627  0.478878  1
  Si  Si6  1  0.876596  0.864952  0.484577  1
  Si  Si7  1  0.059239  0.369774  0.922038  1
  Si  Si8  1  0.149885  0.139627  0.478878  1
  Si  Si9  1  0.623404  0.364952  0.484577  1
  Si  Si10  1  0.978127  0.625206  0.110809  1
  Si  Si11  1  0.440761  0.869774  0.922038  1
  Tc  Tc12  1  0.839655  0.241072  0.242123  1
  Tc  Tc13  1  0.337828  0.248827  0.759405  1
  Tc  Tc14  1  0.162172  0.748827  0.759405  1
  Tc  Tc15  1  0.660345  0.741072  0.242123  1
  Tc  Tc16  1  0.499200  0.993862  0.504922  1
  Tc  Tc17  1  0.000800  0.493862  0.504922  1
