# generated using pymatgen
data_Sm5Eu3(MoO6)4
_symmetry_space_group_name_H-M   'P 1'
_cell_length_a   10.11212838
_cell_length_b   10.12834103
_cell_length_c   5.50554614
_cell_angle_alpha   75.25723307
_cell_angle_beta   75.29018820
_cell_angle_gamma   68.38431584
_symmetry_Int_Tables_number   1
_chemical_formula_structural   Sm5Eu3(MoO6)4
_chemical_formula_sum   'Sm5 Eu3 Mo4 O24'
_cell_volume   498.85007587
_cell_formula_units_Z   1
loop_
 _symmetry_equiv_pos_site_id
 _symmetry_equiv_pos_as_xyz
  1  'x, y, z'
loop_
 _atom_site_type_symbol
 _atom_site_label
 _atom_site_symmetry_multiplicity
 _atom_site_fract_x
 _atom_site_fract_y
 _atom_site_fract_z
 _atom_site_occupancy
  Sm  Sm0  1  0.055041  0.288372  0.116723  1
  Sm  Sm1  1  0.889935  0.111232  0.750106  1
  Sm  Sm2  1  0.111444  0.890116  0.249063  1
  Sm  Sm3  1  0.367227  0.632486  0.749958  1
  Sm  Sm4  1  0.633432  0.366937  0.250099  1
  Eu  Eu5  1  0.288390  0.054642  0.614881  1
  Eu  Eu6  1  0.944816  0.711816  0.886497  1
  Eu  Eu7  1  0.711167  0.945247  0.385987  1
  Mo  Mo8  1  0.797736  0.508436  0.560475  1
  Mo  Mo9  1  0.491706  0.202736  0.940145  1
  Mo  Mo10  1  0.202384  0.492609  0.439333  1
  Mo  Mo11  1  0.508139  0.796860  0.060429  1
  O  O12  1  0.827003  0.382502  0.866348  1
  O  O13  1  0.616294  0.175395  0.633900  1
  O  O14  1  0.174982  0.617457  0.132843  1
  O  O15  1  0.382611  0.824215  0.366090  1
  O  O16  1  0.932936  0.524201  0.263647  1
  O  O17  1  0.477349  0.065598  0.235520  1
  O  O18  1  0.067033  0.475720  0.736505  1
  O  O19  1  0.522591  0.934517  0.765809  1
  O  O20  1  0.784697  0.678262  0.636605  1
  O  O21  1  0.320421  0.215209  0.867846  1
  O  O22  1  0.212039  0.323322  0.360990  1
  O  O23  1  0.678185  0.784794  0.135844  1
  O  O24  1  0.075280  0.106950  0.924804  1
  O  O25  1  0.894431  0.923350  0.574147  1
  O  O26  1  0.923170  0.893969  0.074713  1
  O  O27  1  0.107587  0.077101  0.423409  1
  O  O28  1  0.312199  0.836485  0.914519  1
  O  O29  1  0.163010  0.687103  0.583182  1
  O  O30  1  0.687959  0.163345  0.084659  1
  O  O31  1  0.838325  0.311359  0.414101  1
  O  O32  1  0.545645  0.613439  0.016179  1
  O  O33  1  0.386125  0.453575  0.483652  1
  O  O34  1  0.454478  0.386167  0.984079  1
  O  O35  1  0.614233  0.544477  0.516913  1
