# generated using pymatgen
data_Dy2Sc8Bi5Sb
_symmetry_space_group_name_H-M   'P 1'
_cell_length_a   7.83669700
_cell_length_b   9.05575700
_cell_length_c   11.54750500
_cell_angle_alpha   90.00000000
_cell_angle_beta   90.00000000
_cell_angle_gamma   90.00000000
_symmetry_Int_Tables_number   1
_chemical_formula_structural   Dy2Sc8Bi5Sb
_chemical_formula_sum   'Dy4 Sc16 Bi10 Sb2'
_cell_volume   819.49437068
_cell_formula_units_Z   2
loop_
 _symmetry_equiv_pos_site_id
 _symmetry_equiv_pos_as_xyz
  1  'x, y, z'
loop_
 _atom_site_type_symbol
 _atom_site_label
 _atom_site_symmetry_multiplicity
 _atom_site_fract_x
 _atom_site_fract_y
 _atom_site_fract_z
 _atom_site_occupancy
  Dy  Dy0  1  0.316114  0.250000  0.218965  1
  Dy  Dy1  1  0.816114  0.250000  0.281035  1
  Dy  Dy2  1  0.680935  0.750000  0.782298  1
  Dy  Dy3  1  0.180935  0.750000  0.717702  1
  Sc  Sc4  1  0.349346  0.750000  0.217158  1
  Sc  Sc5  1  0.849346  0.750000  0.282842  1
  Sc  Sc6  1  0.652138  0.250000  0.778887  1
  Sc  Sc7  1  0.152138  0.250000  0.721113  1
  Sc  Sc8  1  0.689242  0.569585  0.061332  1
  Sc  Sc9  1  0.189242  0.930415  0.438668  1
  Sc  Sc10  1  0.308694  0.062162  0.938045  1
  Sc  Sc11  1  0.808694  0.437838  0.561955  1
  Sc  Sc12  1  0.308694  0.437838  0.938045  1
  Sc  Sc13  1  0.808694  0.062162  0.561955  1
  Sc  Sc14  1  0.689242  0.930415  0.061332  1
  Sc  Sc15  1  0.189242  0.569585  0.438668  1
  Sc  Sc16  1  0.483192  0.250000  0.489050  1
  Sc  Sc17  1  0.983192  0.250000  0.010950  1
  Sc  Sc18  1  0.522458  0.750000  0.511626  1
  Sc  Sc19  1  0.022458  0.750000  0.988374  1
  Bi  Bi20  1  0.598429  0.250000  0.032685  1
  Bi  Bi21  1  0.098429  0.250000  0.467315  1
  Bi  Bi22  1  0.563671  0.989716  0.328660  1
  Bi  Bi23  1  0.063671  0.510284  0.171340  1
  Bi  Bi24  1  0.435622  0.490065  0.671429  1
  Bi  Bi25  1  0.935622  0.009935  0.828571  1
  Bi  Bi26  1  0.435622  0.009935  0.671429  1
  Bi  Bi27  1  0.935622  0.490065  0.828571  1
  Bi  Bi28  1  0.563671  0.510284  0.328660  1
  Bi  Bi29  1  0.063671  0.989716  0.171340  1
  Sb  Sb30  1  0.402928  0.750000  0.967522  1
  Sb  Sb31  1  0.902928  0.750000  0.532478  1
