# generated using pymatgen
data_Sc3NbGa2(B2Ru5)2
_symmetry_space_group_name_H-M   'P 1'
_cell_length_a   9.37310327
_cell_length_b   9.37310327
_cell_length_c   3.03458000
_cell_angle_alpha   90.00000000
_cell_angle_beta   90.00000000
_cell_angle_gamma   90.02754422
_symmetry_Int_Tables_number   1
_chemical_formula_structural   Sc3NbGa2(B2Ru5)2
_chemical_formula_sum   'Sc3 Nb1 Ga2 B4 Ru10'
_cell_volume   266.60319211
_cell_formula_units_Z   1
loop_
 _symmetry_equiv_pos_site_id
 _symmetry_equiv_pos_as_xyz
  1  'x, y, z'
loop_
 _atom_site_type_symbol
 _atom_site_label
 _atom_site_symmetry_multiplicity
 _atom_site_fract_x
 _atom_site_fract_y
 _atom_site_fract_z
 _atom_site_occupancy
  Sc  Sc0  1  0.826336  0.675546  0.000000  1
  Sc  Sc1  1  0.175546  0.326336  0.000000  1
  Sc  Sc2  1  0.324310  0.824310  0.000000  1
  Nb  Nb3  1  0.675955  0.175955  0.000000  1
  Ga  Ga4  1  0.499678  0.501103  0.000000  1
  Ga  Ga5  1  0.001103  0.999678  0.000000  1
  B  B6  1  0.624725  0.873814  0.000000  1
  B  B7  1  0.373814  0.124725  0.000000  1
  B  B8  1  0.123549  0.623549  0.000000  1
  B  B9  1  0.876724  0.376724  0.000000  1
  Ru  Ru10  1  0.572487  0.714871  0.500000  1
  Ru  Ru11  1  0.436343  0.283421  0.500000  1
  Ru  Ru12  1  0.070832  0.784463  0.500000  1
  Ru  Ru13  1  0.921052  0.212593  0.500000  1
  Ru  Ru14  1  0.284463  0.570832  0.500000  1
  Ru  Ru15  1  0.712593  0.421052  0.500000  1
  Ru  Ru16  1  0.214871  0.072487  0.500000  1
  Ru  Ru17  1  0.783421  0.936343  0.500000  1
  Ru  Ru18  1  0.503461  0.003461  0.500000  1
  Ru  Ru19  1  0.998735  0.498735  0.500000  1
