# generated using pymatgen
data_Lu3In3Cu2Ni
_symmetry_space_group_name_H-M   'P 1'
_cell_length_a   7.36125100
_cell_length_b   7.36125130
_cell_length_c   3.82487100
_cell_angle_alpha   90.00000000
_cell_angle_beta   90.00000000
_cell_angle_gamma   119.99999418
_symmetry_Int_Tables_number   1
_chemical_formula_structural   Lu3In3Cu2Ni
_chemical_formula_sum   'Lu3 In3 Cu2 Ni1'
_cell_volume   179.49432398
_cell_formula_units_Z   1
loop_
 _symmetry_equiv_pos_site_id
 _symmetry_equiv_pos_as_xyz
  1  'x, y, z'
loop_
 _atom_site_type_symbol
 _atom_site_label
 _atom_site_symmetry_multiplicity
 _atom_site_fract_x
 _atom_site_fract_y
 _atom_site_fract_z
 _atom_site_occupancy
  Lu  Lu0  1  0.593520  0.009878  0.000000  1
  Lu  Lu1  1  0.990122  0.583643  0.000000  1
  Lu  Lu2  1  0.416357  0.406480  0.000000  1
  In  In3  1  0.257639  0.001324  0.500000  1
  In  In4  1  0.998676  0.256315  0.500000  1
  In  In5  1  0.743685  0.742361  0.500000  1
  Cu  Cu6  1  0.333333  0.666667  0.500000  1
  Cu  Cu7  1  0.000000  0.000000  0.000000  1
  Ni  Ni8  1  0.666667  0.333333  0.500000  1
