# generated using pymatgen
data_CaSmPPt8
_symmetry_space_group_name_H-M   'P 1'
_cell_length_a   9.13010500
_cell_length_b   9.13673370
_cell_length_c   4.30743400
_cell_angle_alpha   90.00000000
_cell_angle_beta   90.00000000
_cell_angle_gamma   145.48325777
_symmetry_Int_Tables_number   1
_chemical_formula_structural   CaSmPPt8
_chemical_formula_sum   'Ca1 Sm1 P1 Pt8'
_cell_volume   203.60947615
_cell_formula_units_Z   1
loop_
 _symmetry_equiv_pos_site_id
 _symmetry_equiv_pos_as_xyz
  1  'x, y, z'
loop_
 _atom_site_type_symbol
 _atom_site_label
 _atom_site_symmetry_multiplicity
 _atom_site_fract_x
 _atom_site_fract_y
 _atom_site_fract_z
 _atom_site_occupancy
  Ca  Ca0  1  0.373830  0.617443  0.500000  1
  Sm  Sm1  1  0.620545  0.372413  0.500000  1
  P  P2  1  0.222277  0.224851  0.000000  1
  Pt  Pt3  1  0.113727  0.894561  0.000000  1
  Pt  Pt4  1  0.885793  0.106593  0.000000  1
  Pt  Pt5  1  0.489676  0.988293  0.000000  1
  Pt  Pt6  1  0.981342  0.489527  0.000000  1
  Pt  Pt7  1  0.194645  0.790591  0.500000  1
  Pt  Pt8  1  0.790887  0.194641  0.500000  1
  Pt  Pt9  1  0.007497  0.006665  0.500000  1
  Pt  Pt10  1  0.633379  0.628021  0.000000  1
