# generated using pymatgen
data_SmDy(NbSe2)6
_symmetry_space_group_name_H-M   'P 1'
_cell_length_a   6.09304100
_cell_length_b   6.09304186
_cell_length_c   14.66453700
_cell_angle_alpha   90.00000000
_cell_angle_beta   90.00000000
_cell_angle_gamma   120.00000074
_symmetry_Int_Tables_number   1
_chemical_formula_structural   SmDy(NbSe2)6
_chemical_formula_sum   'Sm1 Dy1 Nb6 Se12'
_cell_volume   471.48431182
_cell_formula_units_Z   1
loop_
 _symmetry_equiv_pos_site_id
 _symmetry_equiv_pos_as_xyz
  1  'x, y, z'
loop_
 _atom_site_type_symbol
 _atom_site_label
 _atom_site_symmetry_multiplicity
 _atom_site_fract_x
 _atom_site_fract_y
 _atom_site_fract_z
 _atom_site_occupancy
  Sm  Sm0  1  0.666667  0.333333  0.750000  1
  Dy  Dy1  1  0.333333  0.666667  0.250000  1
  Nb  Nb2  1  0.333333  0.666667  0.004574  1
  Nb  Nb3  1  0.000000  0.000000  0.003408  1
  Nb  Nb4  1  0.666667  0.333333  0.001100  1
  Nb  Nb5  1  0.333333  0.666667  0.495426  1
  Nb  Nb6  1  0.000000  0.000000  0.496592  1
  Nb  Nb7  1  0.666667  0.333333  0.498900  1
  Se  Se8  1  0.672499  0.664854  0.382434  1
  Se  Se9  1  0.665955  0.674202  0.611382  1
  Se  Se10  1  0.008247  0.674202  0.888618  1
  Se  Se11  1  0.665955  0.991753  0.888618  1
  Se  Se12  1  0.672499  0.007645  0.117566  1
  Se  Se13  1  0.335146  0.007645  0.382434  1
  Se  Se14  1  0.008247  0.334045  0.611382  1
  Se  Se15  1  0.325798  0.991753  0.611382  1
  Se  Se16  1  0.992355  0.664854  0.117566  1
  Se  Se17  1  0.325798  0.334045  0.888618  1
  Se  Se18  1  0.992355  0.327501  0.382434  1
  Se  Se19  1  0.335146  0.327501  0.117566  1
