# generated using pymatgen
data_Tb3Ho5Cd2PdRu
_symmetry_space_group_name_H-M   'P 1'
_cell_length_a   9.64705405
_cell_length_b   9.64705449
_cell_length_c   9.69427000
_cell_angle_alpha   59.83795873
_cell_angle_beta   59.83795720
_cell_angle_gamma   59.72796821
_symmetry_Int_Tables_number   1
_chemical_formula_structural   Tb3Ho5Cd2PdRu
_chemical_formula_sum   'Tb6 Ho10 Cd4 Pd2 Ru2'
_cell_volume   635.07506494
_cell_formula_units_Z   2
loop_
 _symmetry_equiv_pos_site_id
 _symmetry_equiv_pos_as_xyz
  1  'x, y, z'
loop_
 _atom_site_type_symbol
 _atom_site_label
 _atom_site_symmetry_multiplicity
 _atom_site_fract_x
 _atom_site_fract_y
 _atom_site_fract_z
 _atom_site_occupancy
  Tb  Tb0  1  0.936625  0.559164  0.567074  1
  Tb  Tb1  1  0.559164  0.936625  0.937138  1
  Tb  Tb2  1  0.559164  0.936625  0.567074  1
  Tb  Tb3  1  0.936625  0.559164  0.937138  1
  Tb  Tb4  1  0.564400  0.564400  0.935600  1
  Tb  Tb5  1  0.937976  0.937976  0.562024  1
  Ho  Ho6  1  0.349166  0.349166  0.354848  1
  Ho  Ho7  1  0.349166  0.349166  0.946820  1
  Ho  Ho8  1  0.345032  0.954222  0.350374  1
  Ho  Ho9  1  0.954222  0.345032  0.350374  1
  Ho  Ho10  1  0.817127  0.187326  0.189473  1
  Ho  Ho11  1  0.187326  0.817127  0.806074  1
  Ho  Ho12  1  0.187326  0.817127  0.189473  1
  Ho  Ho13  1  0.817127  0.187326  0.806074  1
  Ho  Ho14  1  0.187456  0.187456  0.812544  1
  Ho  Ho15  1  0.809269  0.809269  0.190731  1
  Cd  Cd16  1  0.580064  0.580064  0.581246  1
  Cd  Cd17  1  0.580064  0.580064  0.258625  1
  Cd  Cd18  1  0.581334  0.255474  0.581595  1
  Cd  Cd19  1  0.255474  0.581334  0.581595  1
  Pd  Pd20  1  0.145325  0.571722  0.141476  1
  Pd  Pd21  1  0.571722  0.145325  0.141476  1
  Ru  Ru22  1  0.144423  0.144423  0.138222  1
  Ru  Ru23  1  0.144423  0.144423  0.572931  1
