# generated using pymatgen
data_TbHoFe3P7Ru9
_symmetry_space_group_name_H-M   'P 1'
_cell_length_a   3.85725600
_cell_length_b   9.30074343
_cell_length_c   9.29883015
_cell_angle_alpha   119.98830036
_cell_angle_beta   90.00000000
_cell_angle_gamma   90.00000000
_symmetry_Int_Tables_number   1
_chemical_formula_structural   TbHoFe3P7Ru9
_chemical_formula_sum   'Tb1 Ho1 Fe3 P7 Ru9'
_cell_volume   288.93906439
_cell_formula_units_Z   1
loop_
 _symmetry_equiv_pos_site_id
 _symmetry_equiv_pos_as_xyz
  1  'x, y, z'
loop_
 _atom_site_type_symbol
 _atom_site_label
 _atom_site_symmetry_multiplicity
 _atom_site_fract_x
 _atom_site_fract_y
 _atom_site_fract_z
 _atom_site_occupancy
  Tb  Tb0  1  0.000000  0.666625  0.333257  1
  Ho  Ho1  1  0.500000  0.333324  0.666685  1
  Fe  Fe2  1  0.000000  0.890292  0.732669  1
  Fe  Fe3  1  0.000000  0.267837  0.157870  1
  Fe  Fe4  1  0.000000  0.842096  0.109939  1
  P  P5  1  0.000000  0.108571  0.695096  1
  P  P6  1  0.000000  0.304878  0.413477  1
  P  P7  1  0.000000  0.586583  0.891374  1
  P  P8  1  0.500000  0.719836  0.604309  1
  P  P9  1  0.500000  0.395718  0.115503  1
  P  P10  1  0.500000  0.884456  0.280140  1
  P  P11  1  0.000000  0.000034  0.000108  1
  Ru  Ru12  1  0.000000  0.360181  0.939155  1
  Ru  Ru13  1  0.000000  0.060713  0.420836  1
  Ru  Ru14  1  0.000000  0.579106  0.639741  1
  Ru  Ru15  1  0.500000  0.948460  0.562266  1
  Ru  Ru16  1  0.500000  0.437707  0.386253  1
  Ru  Ru17  1  0.500000  0.613732  0.051478  1
  Ru  Ru18  1  0.500000  0.116289  0.912068  1
  Ru  Ru19  1  0.500000  0.087808  0.204064  1
  Ru  Ru20  1  0.500000  0.795755  0.883713  1
