# generated using pymatgen
data_Lu20(Bi3Te)3
_symmetry_space_group_name_H-M   'P 1'
_cell_length_a   8.04735660
_cell_length_b   9.33721700
_cell_length_c   11.69721988
_cell_angle_alpha   90.00000000
_cell_angle_beta   90.04441849
_cell_angle_gamma   90.00000000
_symmetry_Int_Tables_number   1
_chemical_formula_structural   Lu20(Bi3Te)3
_chemical_formula_sum   'Lu20 Bi9 Te3'
_cell_volume   878.92784206
_cell_formula_units_Z   1
loop_
 _symmetry_equiv_pos_site_id
 _symmetry_equiv_pos_as_xyz
  1  'x, y, z'
loop_
 _atom_site_type_symbol
 _atom_site_label
 _atom_site_symmetry_multiplicity
 _atom_site_fract_x
 _atom_site_fract_y
 _atom_site_fract_z
 _atom_site_occupancy
  Lu  Lu0  1  0.020773  0.250000  0.509969  1
  Lu  Lu1  1  0.977856  0.750000  0.489102  1
  Lu  Lu2  1  0.476326  0.750000  0.011286  1
  Lu  Lu3  1  0.521585  0.250000  0.990823  1
  Lu  Lu4  1  0.357786  0.250000  0.285099  1
  Lu  Lu5  1  0.643021  0.750000  0.714759  1
  Lu  Lu6  1  0.144300  0.750000  0.783398  1
  Lu  Lu7  1  0.853406  0.250000  0.218801  1
  Lu  Lu8  1  0.186648  0.250000  0.781112  1
  Lu  Lu9  1  0.818342  0.750000  0.215518  1
  Lu  Lu10  1  0.319235  0.750000  0.285293  1
  Lu  Lu11  1  0.681279  0.250000  0.713794  1
  Lu  Lu12  1  0.190838  0.063823  0.058251  1
  Lu  Lu13  1  0.809733  0.930532  0.942303  1
  Lu  Lu14  1  0.311317  0.933524  0.557243  1
  Lu  Lu15  1  0.809733  0.569468  0.942303  1
  Lu  Lu16  1  0.688150  0.065804  0.443097  1
  Lu  Lu17  1  0.190838  0.436177  0.058251  1
  Lu  Lu18  1  0.688150  0.434196  0.443097  1
  Lu  Lu19  1  0.311317  0.566476  0.557243  1
  Bi  Bi20  1  0.902557  0.250000  0.955798  1
  Bi  Bi21  1  0.068946  0.003237  0.324524  1
  Bi  Bi22  1  0.931214  0.996031  0.674471  1
  Bi  Bi23  1  0.431728  0.996112  0.825055  1
  Bi  Bi24  1  0.931214  0.503969  0.674471  1
  Bi  Bi25  1  0.568175  0.002647  0.176245  1
  Bi  Bi26  1  0.068946  0.496763  0.324524  1
  Bi  Bi27  1  0.568175  0.497353  0.176245  1
  Bi  Bi28  1  0.431728  0.503888  0.825055  1
  Te  Te29  1  0.399245  0.250000  0.543305  1
  Te  Te30  1  0.599639  0.750000  0.456870  1
  Te  Te31  1  0.097805  0.750000  0.042697  1
