# generated using pymatgen
data_Dy2Y2Tm8Co5Sb
_symmetry_space_group_name_H-M   'P 1'
_cell_length_a   8.18271782
_cell_length_b   8.18271625
_cell_length_c   8.17559657
_cell_angle_alpha   106.74869474
_cell_angle_beta   110.77749312
_cell_angle_gamma   110.95564612
_symmetry_Int_Tables_number   1
_chemical_formula_structural   Dy2Y2Tm8Co5Sb
_chemical_formula_sum   'Dy2 Y2 Tm8 Co5 Sb1'
_cell_volume   420.50499767
_cell_formula_units_Z   1
loop_
 _symmetry_equiv_pos_site_id
 _symmetry_equiv_pos_as_xyz
  1  'x, y, z'
loop_
 _atom_site_type_symbol
 _atom_site_label
 _atom_site_symmetry_multiplicity
 _atom_site_fract_x
 _atom_site_fract_y
 _atom_site_fract_z
 _atom_site_occupancy
  Dy  Dy0  1  0.193619  0.789844  0.983889  1
  Dy  Dy1  1  0.805953  0.209729  0.016111  1
  Y  Y2  1  0.476113  0.290123  0.187540  1
  Y  Y3  1  0.102584  0.288574  0.812460  1
  Tm  Tm4  1  0.896147  0.713057  0.184597  1
  Tm  Tm5  1  0.528461  0.711550  0.815403  1
  Tm  Tm6  1  0.309157  0.622187  0.315472  1
  Tm  Tm7  1  0.306715  0.993686  0.684528  1
  Tm  Tm8  1  0.690294  0.379416  0.686740  1
  Tm  Tm9  1  0.692676  0.003555  0.313260  1
  Tm  Tm10  1  0.194341  0.210390  0.405213  1
  Tm  Tm11  1  0.805178  0.789128  0.594787  1
  Co  Co12  1  0.504426  0.615435  0.114767  1
  Co  Co13  1  0.500669  0.389659  0.885233  1
  Co  Co14  1  0.373247  0.999890  0.375515  1
  Co  Co15  1  0.624374  0.997731  0.624485  1
  Co  Co16  1  0.996566  0.996566  0.000000  1
  Sb  Sb17  1  0.999480  0.499480  0.500000  1
