# generated using pymatgen
data_LiLa10Pr6Cd3Ir4
_symmetry_space_group_name_H-M   'P 1'
_cell_length_a   10.10566575
_cell_length_b   10.10566592
_cell_length_c   10.10566622
_cell_angle_alpha   59.85185586
_cell_angle_beta   59.85185653
_cell_angle_gamma   59.85185549
_symmetry_Int_Tables_number   1
_chemical_formula_structural   LiLa10Pr6Cd3Ir4
_chemical_formula_sum   'Li1 La10 Pr6 Cd3 Ir4'
_cell_volume   727.30621523
_cell_formula_units_Z   1
loop_
 _symmetry_equiv_pos_site_id
 _symmetry_equiv_pos_as_xyz
  1  'x, y, z'
loop_
 _atom_site_type_symbol
 _atom_site_label
 _atom_site_symmetry_multiplicity
 _atom_site_fract_x
 _atom_site_fract_y
 _atom_site_fract_z
 _atom_site_occupancy
  Li  Li0  1  0.571380  0.571380  0.571380  1
  La  La1  1  0.347639  0.347639  0.347639  1
  La  La2  1  0.347106  0.347106  0.958834  1
  La  La3  1  0.347106  0.958834  0.347106  1
  La  La4  1  0.958834  0.347106  0.347106  1
  La  La5  1  0.809314  0.191545  0.191545  1
  La  La6  1  0.187845  0.811250  0.811250  1
  La  La7  1  0.191545  0.809314  0.191545  1
  La  La8  1  0.811250  0.187845  0.811250  1
  La  La9  1  0.191545  0.191545  0.809314  1
  La  La10  1  0.811250  0.811250  0.187845  1
  Pr  Pr11  1  0.938156  0.562627  0.562627  1
  Pr  Pr12  1  0.561850  0.937817  0.937817  1
  Pr  Pr13  1  0.562627  0.938156  0.562627  1
  Pr  Pr14  1  0.937817  0.561850  0.937817  1
  Pr  Pr15  1  0.562627  0.562627  0.938156  1
  Pr  Pr16  1  0.937817  0.937817  0.561850  1
  Cd  Cd17  1  0.581126  0.581126  0.259148  1
  Cd  Cd18  1  0.581126  0.259148  0.581126  1
  Cd  Cd19  1  0.259148  0.581126  0.581126  1
  Ir  Ir20  1  0.141649  0.141649  0.141649  1
  Ir  Ir21  1  0.142000  0.142000  0.577242  1
  Ir  Ir22  1  0.142000  0.577242  0.142000  1
  Ir  Ir23  1  0.577242  0.142000  0.142000  1
