# generated using pymatgen
data_Nb12AlZn2Au5N4
_symmetry_space_group_name_H-M   'P 1'
_cell_length_a   7.12935712
_cell_length_b   7.13053035
_cell_length_c   7.13036609
_cell_angle_alpha   89.98579483
_cell_angle_beta   89.90248272
_cell_angle_gamma   89.87833707
_symmetry_Int_Tables_number   1
_chemical_formula_structural   Nb12AlZn2Au5N4
_chemical_formula_sum   'Nb12 Al1 Zn2 Au5 N4'
_cell_volume   362.47863108
_cell_formula_units_Z   1
loop_
 _symmetry_equiv_pos_site_id
 _symmetry_equiv_pos_as_xyz
  1  'x, y, z'
loop_
 _atom_site_type_symbol
 _atom_site_label
 _atom_site_symmetry_multiplicity
 _atom_site_fract_x
 _atom_site_fract_y
 _atom_site_fract_z
 _atom_site_occupancy
  Nb  Nb0  1  0.786191  0.955746  0.377544  1
  Nb  Nb1  1  0.712312  0.043850  0.879170  1
  Nb  Nb2  1  0.211996  0.457796  0.127412  1
  Nb  Nb3  1  0.292033  0.541880  0.625065  1
  Nb  Nb4  1  0.955109  0.378836  0.786754  1
  Nb  Nb5  1  0.043280  0.876935  0.712201  1
  Nb  Nb6  1  0.459284  0.126206  0.208862  1
  Nb  Nb7  1  0.542888  0.626903  0.289095  1
  Nb  Nb8  1  0.373808  0.787009  0.956152  1
  Nb  Nb9  1  0.874878  0.708442  0.041591  1
  Nb  Nb10  1  0.124305  0.212867  0.458344  1
  Nb  Nb11  1  0.621710  0.288216  0.543975  1
  Al  Al12  1  0.071888  0.068785  0.072961  1
  Zn  Zn13  1  0.427595  0.930264  0.566763  1
  Zn  Zn14  1  0.933302  0.571112  0.428971  1
  Au  Au15  1  0.177745  0.823290  0.319119  1
  Au  Au16  1  0.309845  0.170120  0.819109  1
  Au  Au17  1  0.831356  0.314869  0.187232  1
  Au  Au18  1  0.683355  0.688717  0.670710  1
  Au  Au19  1  0.568053  0.431344  0.932164  1
  N  N20  1  0.873025  0.125601  0.624390  1
  N  N21  1  0.622550  0.873137  0.122643  1
  N  N22  1  0.125701  0.621146  0.874838  1
  N  N23  1  0.377791  0.376933  0.374938  1
