# generated using pymatgen
data_Ta12Al3Zn9C4
_symmetry_space_group_name_H-M   'P 1'
_cell_length_a   8.32133462
_cell_length_b   8.31607928
_cell_length_c   8.31607976
_cell_angle_alpha   119.95742500
_cell_angle_beta   120.02260564
_cell_angle_gamma   89.99918584
_symmetry_Int_Tables_number   1
_chemical_formula_structural   Ta12Al3Zn9C4
_chemical_formula_sum   'Ta12 Al3 Zn9 C4'
_cell_volume   407.05137850
_cell_formula_units_Z   1
loop_
 _symmetry_equiv_pos_site_id
 _symmetry_equiv_pos_as_xyz
  1  'x, y, z'
loop_
 _atom_site_type_symbol
 _atom_site_label
 _atom_site_symmetry_multiplicity
 _atom_site_fract_x
 _atom_site_fract_y
 _atom_site_fract_z
 _atom_site_occupancy
  Ta  Ta0  1  0.556550  0.056618  0.499932  1
  Ta  Ta1  1  0.194521  0.693923  0.500597  1
  Ta  Ta2  1  0.193211  0.056634  0.499915  1
  Ta  Ta3  1  0.555912  0.693942  0.500616  1
  Ta  Ta4  1  0.555912  0.055295  0.861970  1
  Ta  Ta5  1  0.193211  0.693296  0.136576  1
  Ta  Ta6  1  0.943264  0.943232  0.000032  1
  Ta  Ta7  1  0.305399  0.305980  0.999419  1
  Ta  Ta8  1  0.306781  0.943382  0.000184  1
  Ta  Ta9  1  0.943968  0.305913  0.999258  1
  Ta  Ta10  1  0.943968  0.944708  0.638055  1
  Ta  Ta11  1  0.306781  0.306598  0.363398  1
  Al  Al12  1  0.250107  0.500134  0.749974  1
  Al  Al13  1  0.750018  0.499937  0.749931  1
  Al  Al14  1  0.750018  0.000087  0.250081  1
  Zn  Zn15  1  0.750218  0.500169  0.250047  1
  Zn  Zn16  1  0.958292  0.292118  0.666174  1
  Zn  Zn17  1  0.625762  0.293089  0.332675  1
  Zn  Zn18  1  0.957269  0.292941  0.332628  1
  Zn  Zn19  1  0.957269  0.624641  0.664327  1
  Zn  Zn20  1  0.542039  0.708073  0.833966  1
  Zn  Zn21  1  0.874312  0.707113  0.167199  1
  Zn  Zn22  1  0.542769  0.707107  0.167397  1
  Zn  Zn23  1  0.542769  0.375372  0.835661  1
  C  C24  1  0.249922  0.999924  0.249999  1
  C  C25  1  0.749924  0.999925  0.749999  1
  C  C26  1  0.249919  0.999924  0.749993  1
  C  C27  1  0.249919  0.499926  0.249995  1
