# generated using pymatgen
data_Dy8Tm2(BiPb)3
_symmetry_space_group_name_H-M   'P 1'
_cell_length_a   9.13355000
_cell_length_b   9.13354972
_cell_length_c   6.48713700
_cell_angle_alpha   90.00000000
_cell_angle_beta   90.00000000
_cell_angle_gamma   120.00000102
_symmetry_Int_Tables_number   1
_chemical_formula_structural   Dy8Tm2(BiPb)3
_chemical_formula_sum   'Dy8 Tm2 Bi3 Pb3'
_cell_volume   468.66541349
_cell_formula_units_Z   1
loop_
 _symmetry_equiv_pos_site_id
 _symmetry_equiv_pos_as_xyz
  1  'x, y, z'
loop_
 _atom_site_type_symbol
 _atom_site_label
 _atom_site_symmetry_multiplicity
 _atom_site_fract_x
 _atom_site_fract_y
 _atom_site_fract_z
 _atom_site_occupancy
  Dy  Dy0  1  0.333333  0.666667  0.497205  1
  Dy  Dy1  1  0.666667  0.333333  0.497205  1
  Dy  Dy2  1  0.761383  0.761383  0.750388  1
  Dy  Dy3  1  0.238617  0.000000  0.750388  1
  Dy  Dy4  1  0.000000  0.238617  0.750388  1
  Dy  Dy5  1  0.239140  0.239140  0.249666  1
  Dy  Dy6  1  0.760860  0.000000  0.249666  1
  Dy  Dy7  1  0.000000  0.760860  0.249666  1
  Tm  Tm8  1  0.666667  0.333333  0.003398  1
  Tm  Tm9  1  0.333333  0.666667  0.003398  1
  Bi  Bi10  1  0.393656  0.393656  0.751401  1
  Bi  Bi11  1  0.606344  0.000000  0.751401  1
  Bi  Bi12  1  0.000000  0.606344  0.751401  1
  Pb  Pb13  1  0.606682  0.606682  0.248143  1
  Pb  Pb14  1  0.393318  0.000000  0.248143  1
  Pb  Pb15  1  0.000000  0.393318  0.248143  1
