# generated using pymatgen
data_Dy5Co7Mo2(P6Ru5)2
_symmetry_space_group_name_H-M   'P 1'
_cell_length_a   12.43393061
_cell_length_b   12.41860765
_cell_length_c   3.82072300
_cell_angle_alpha   90.00000000
_cell_angle_beta   90.00000000
_cell_angle_gamma   119.90590861
_symmetry_Int_Tables_number   1
_chemical_formula_structural   Dy5Co7Mo2(P6Ru5)2
_chemical_formula_sum   'Dy5 Co7 Mo2 P12 Ru10'
_cell_volume   511.40917609
_cell_formula_units_Z   1
loop_
 _symmetry_equiv_pos_site_id
 _symmetry_equiv_pos_as_xyz
  1  'x, y, z'
loop_
 _atom_site_type_symbol
 _atom_site_label
 _atom_site_symmetry_multiplicity
 _atom_site_fract_x
 _atom_site_fract_y
 _atom_site_fract_z
 _atom_site_occupancy
  Dy  Dy0  1  0.665593  0.332794  0.000000  1
  Dy  Dy1  1  0.333193  0.666639  0.000000  1
  Dy  Dy2  1  0.182300  0.181591  0.500000  1
  Dy  Dy3  1  0.817383  0.999387  0.500000  1
  Dy  Dy4  1  0.999408  0.818121  0.500000  1
  Co  Co5  1  0.193994  0.823146  0.000000  1
  Co  Co6  1  0.630463  0.806071  0.000000  1
  Co  Co7  1  0.174817  0.369827  0.000000  1
  Co  Co8  1  0.717573  0.723238  0.500000  1
  Co  Co9  1  0.275737  0.992382  0.500000  1
  Co  Co10  1  0.006543  0.284302  0.500000  1
  Co  Co11  1  0.999606  0.000490  0.000000  1
  Mo  Mo12  1  0.557588  0.564859  0.000000  1
  Mo  Mo13  1  0.435418  0.992550  0.000000  1
  P  P14  1  0.362688  0.368031  0.000000  1
  P  P15  1  0.633618  0.997804  0.000000  1
  P  P16  1  0.003837  0.634758  0.000000  1
  P  P17  1  0.838791  0.313290  0.500000  1
  P  P18  1  0.686333  0.524029  0.500000  1
  P  P19  1  0.474611  0.160356  0.500000  1
  P  P20  1  0.315662  0.837310  0.500000  1
  P  P21  1  0.522465  0.683909  0.500000  1
  P  P22  1  0.159978  0.476650  0.500000  1
  P  P23  1  0.818165  0.823802  0.000000  1
  P  P24  1  0.175629  0.993998  0.000000  1
  P  P25  1  0.006013  0.182374  0.000000  1
  Ru  Ru26  1  0.011602  0.449272  0.000000  1
  Ru  Ru27  1  0.827980  0.198810  0.000000  1
  Ru  Ru28  1  0.804099  0.629048  0.000000  1
  Ru  Ru29  1  0.369384  0.174006  0.000000  1
  Ru  Ru30  1  0.641490  0.124392  0.500000  1
  Ru  Ru31  1  0.877242  0.515699  0.500000  1
  Ru  Ru32  1  0.482382  0.358124  0.500000  1
  Ru  Ru33  1  0.129662  0.648036  0.500000  1
  Ru  Ru34  1  0.519204  0.869743  0.500000  1
  Ru  Ru35  1  0.349550  0.481163  0.500000  1
