# generated using pymatgen
data_Nd2Sm2Zn10SiSn
_symmetry_space_group_name_H-M   'P 1'
_cell_length_a   8.43203847
_cell_length_b   8.43203770
_cell_length_c   8.93647900
_cell_angle_alpha   90.00000000
_cell_angle_beta   90.00000000
_cell_angle_gamma   149.49794619
_symmetry_Int_Tables_number   1
_chemical_formula_structural   Nd2Sm2Zn10SiSn
_chemical_formula_sum   'Nd2 Sm2 Zn10 Si1 Sn1'
_cell_volume   322.49787697
_cell_formula_units_Z   1
loop_
 _symmetry_equiv_pos_site_id
 _symmetry_equiv_pos_as_xyz
  1  'x, y, z'
loop_
 _atom_site_type_symbol
 _atom_site_label
 _atom_site_symmetry_multiplicity
 _atom_site_fract_x
 _atom_site_fract_y
 _atom_site_fract_z
 _atom_site_occupancy
  Nd  Nd0  1  0.000514  0.999486  0.486181  1
  Nd  Nd1  1  0.000514  0.999486  0.013819  1
  Sm  Sm2  1  0.202910  0.797090  0.250000  1
  Sm  Sm3  1  0.794569  0.205431  0.750000  1
  Zn  Zn4  1  0.813071  0.186929  0.391276  1
  Zn  Zn5  1  0.185780  0.814220  0.606645  1
  Zn  Zn6  1  0.813071  0.186929  0.108724  1
  Zn  Zn7  1  0.185780  0.814220  0.893355  1
  Zn  Zn8  1  0.649993  0.350007  0.474429  1
  Zn  Zn9  1  0.344483  0.655517  0.514710  1
  Zn  Zn10  1  0.649993  0.350007  0.025571  1
  Zn  Zn11  1  0.344483  0.655517  0.985290  1
  Zn  Zn12  1  0.405593  0.594407  0.250000  1
  Zn  Zn13  1  0.605672  0.394328  0.750000  1
  Si  Si14  1  0.558404  0.441596  0.250000  1
  Sn  Sn15  1  0.445165  0.554835  0.750000  1
