# generated using pymatgen
data_Er3Al3GaCuAu
_symmetry_space_group_name_H-M   'P 1'
_cell_length_a   7.02468500
_cell_length_b   7.02468418
_cell_length_c   4.15614500
_cell_angle_alpha   90.00000000
_cell_angle_beta   90.00000000
_cell_angle_gamma   119.99999917
_symmetry_Int_Tables_number   1
_chemical_formula_structural   Er3Al3GaCuAu
_chemical_formula_sum   'Er3 Al3 Ga1 Cu1 Au1'
_cell_volume   177.61309578
_cell_formula_units_Z   1
loop_
 _symmetry_equiv_pos_site_id
 _symmetry_equiv_pos_as_xyz
  1  'x, y, z'
loop_
 _atom_site_type_symbol
 _atom_site_label
 _atom_site_symmetry_multiplicity
 _atom_site_fract_x
 _atom_site_fract_y
 _atom_site_fract_z
 _atom_site_occupancy
  Er  Er0  1  0.410569  0.997262  0.500000  1
  Er  Er1  1  0.002738  0.413308  0.500000  1
  Er  Er2  1  0.586692  0.589431  0.500000  1
  Al  Al3  1  0.767757  0.003965  0.000000  1
  Al  Al4  1  0.996035  0.763792  0.000000  1
  Al  Al5  1  0.236208  0.232243  0.000000  1
  Ga  Ga6  1  0.333333  0.666667  0.000000  1
  Cu  Cu7  1  0.000000  0.000000  0.500000  1
  Au  Au8  1  0.666667  0.333333  0.000000  1
