# generated using pymatgen
data_Pr3Al12Os3Ru
_symmetry_space_group_name_H-M   'P 1'
_cell_length_a   8.92621200
_cell_length_b   8.92621120
_cell_length_c   9.69532700
_cell_angle_alpha   90.00000000
_cell_angle_beta   90.00000000
_cell_angle_gamma   119.99999557
_symmetry_Int_Tables_number   1
_chemical_formula_structural   Pr3Al12Os3Ru
_chemical_formula_sum   'Pr6 Al24 Os6 Ru2'
_cell_volume   669.00207962
_cell_formula_units_Z   2
loop_
 _symmetry_equiv_pos_site_id
 _symmetry_equiv_pos_as_xyz
  1  'x, y, z'
loop_
 _atom_site_type_symbol
 _atom_site_label
 _atom_site_symmetry_multiplicity
 _atom_site_fract_x
 _atom_site_fract_y
 _atom_site_fract_z
 _atom_site_occupancy
  Pr  Pr0  1  0.192410  0.384820  0.250000  1
  Pr  Pr1  1  0.807590  0.615180  0.750000  1
  Pr  Pr2  1  0.615180  0.807590  0.250000  1
  Pr  Pr3  1  0.384820  0.192410  0.750000  1
  Pr  Pr4  1  0.192410  0.807590  0.250000  1
  Pr  Pr5  1  0.807590  0.192410  0.750000  1
  Al  Al6  1  0.333333  0.666667  0.009098  1
  Al  Al7  1  0.666667  0.333333  0.990902  1
  Al  Al8  1  0.666667  0.333333  0.509098  1
  Al  Al9  1  0.333333  0.666667  0.490902  1
  Al  Al10  1  0.162358  0.324715  0.575471  1
  Al  Al11  1  0.837642  0.675285  0.424529  1
  Al  Al12  1  0.675285  0.837642  0.575471  1
  Al  Al13  1  0.837642  0.675285  0.075471  1
  Al  Al14  1  0.324715  0.162358  0.424529  1
  Al  Al15  1  0.162358  0.324715  0.924529  1
  Al  Al16  1  0.162358  0.837642  0.575471  1
  Al  Al17  1  0.324715  0.162358  0.075471  1
  Al  Al18  1  0.837642  0.162358  0.424529  1
  Al  Al19  1  0.675285  0.837642  0.924529  1
  Al  Al20  1  0.837642  0.162358  0.075471  1
  Al  Al21  1  0.162358  0.837642  0.924529  1
  Al  Al22  1  0.562326  0.124652  0.250000  1
  Al  Al23  1  0.437674  0.875348  0.750000  1
  Al  Al24  1  0.875348  0.437674  0.250000  1
  Al  Al25  1  0.124652  0.562326  0.750000  1
  Al  Al26  1  0.562326  0.437674  0.250000  1
  Al  Al27  1  0.437674  0.562326  0.750000  1
  Al  Al28  1  0.000000  0.000000  0.250000  1
  Al  Al29  1  0.000000  0.000000  0.750000  1
  Os  Os30  1  0.500000  0.000000  0.000000  1
  Os  Os31  1  0.000000  0.500000  0.000000  1
  Os  Os32  1  0.500000  0.000000  0.500000  1
  Os  Os33  1  0.500000  0.500000  0.000000  1
  Os  Os34  1  0.000000  0.500000  0.500000  1
  Os  Os35  1  0.500000  0.500000  0.500000  1
  Ru  Ru36  1  0.000000  0.000000  0.000000  1
  Ru  Ru37  1  0.000000  0.000000  0.500000  1
