# generated using pymatgen
data_YHoMn2Co10As7
_symmetry_space_group_name_H-M   'P 1'
_cell_length_a   3.74787000
_cell_length_b   9.40021626
_cell_length_c   9.43504402
_cell_angle_alpha   119.83854557
_cell_angle_beta   90.00000000
_cell_angle_gamma   90.00000000
_symmetry_Int_Tables_number   1
_chemical_formula_structural   YHoMn2Co10As7
_chemical_formula_sum   'Y1 Ho1 Mn2 Co10 As7'
_cell_volume   288.33754228
_cell_formula_units_Z   1
loop_
 _symmetry_equiv_pos_site_id
 _symmetry_equiv_pos_as_xyz
  1  'x, y, z'
loop_
 _atom_site_type_symbol
 _atom_site_label
 _atom_site_symmetry_multiplicity
 _atom_site_fract_x
 _atom_site_fract_y
 _atom_site_fract_z
 _atom_site_occupancy
  Y  Y0  1  0.000000  0.669415  0.334901  1
  Ho  Ho1  1  0.500000  0.332093  0.666943  1
  Mn  Mn2  1  0.500000  0.779869  0.894846  1
  Mn  Mn3  1  0.500000  0.118652  0.220320  1
  Co  Co4  1  0.000000  0.568324  0.940928  1
  Co  Co5  1  0.000000  0.370772  0.430398  1
  Co  Co6  1  0.000000  0.057922  0.629531  1
  Co  Co7  1  0.500000  0.096219  0.878517  1
  Co  Co8  1  0.000000  0.882804  0.156756  1
  Co  Co9  1  0.000000  0.279685  0.120995  1
  Co  Co10  1  0.000000  0.843345  0.723354  1
  Co  Co11  1  0.500000  0.948937  0.383474  1
  Co  Co12  1  0.500000  0.431740  0.049393  1
  Co  Co13  1  0.500000  0.617350  0.566733  1
  As  As14  1  0.000000  0.002911  0.998050  1
  As  As15  1  0.500000  0.708068  0.116247  1
  As  As16  1  0.500000  0.411063  0.292489  1
  As  As17  1  0.500000  0.885982  0.595716  1
  As  As18  1  0.000000  0.584993  0.700870  1
  As  As19  1  0.000000  0.114797  0.414674  1
  As  As20  1  0.000000  0.295061  0.884867  1
