# generated using pymatgen
data_La4Mn(Sb4Pt)2
_symmetry_space_group_name_H-M   'P 1'
_cell_length_a   11.19500957
_cell_length_b   11.19500964
_cell_length_c   11.19501018
_cell_angle_alpha   147.12361187
_cell_angle_beta   147.12361602
_cell_angle_gamma   47.18078483
_symmetry_Int_Tables_number   1
_chemical_formula_structural   La4Mn(Sb4Pt)2
_chemical_formula_sum   'La4 Mn1 Sb8 Pt2'
_cell_volume   411.85732758
_cell_formula_units_Z   1
loop_
 _symmetry_equiv_pos_site_id
 _symmetry_equiv_pos_as_xyz
  1  'x, y, z'
loop_
 _atom_site_type_symbol
 _atom_site_label
 _atom_site_symmetry_multiplicity
 _atom_site_fract_x
 _atom_site_fract_y
 _atom_site_fract_z
 _atom_site_occupancy
  La  La0  1  0.629627  0.127314  0.000000  1
  La  La1  1  0.127314  0.629627  0.000000  1
  La  La2  1  0.872686  0.872686  0.502313  1
  La  La3  1  0.370373  0.370373  0.497687  1
  Mn  Mn4  1  0.000000  0.000000  0.000000  1
  Sb  Sb5  1  0.249833  0.249833  0.000000  1
  Sb  Sb6  1  0.750167  0.750167  0.000000  1
  Sb  Sb7  1  0.250000  0.750000  0.500000  1
  Sb  Sb8  1  0.750000  0.250000  0.500000  1
  Sb  Sb9  1  0.330054  0.814685  0.000000  1
  Sb  Sb10  1  0.814685  0.330054  0.000000  1
  Sb  Sb11  1  0.185315  0.185315  0.515369  1
  Sb  Sb12  1  0.669946  0.669946  0.484631  1
  Pt  Pt13  1  0.500000  0.000000  0.500000  1
  Pt  Pt14  1  0.000000  0.500000  0.500000  1
