# generated using pymatgen
data_Zr10HgSb6
_symmetry_space_group_name_H-M   'P 1'
_cell_length_a   5.92355510
_cell_length_b   8.66523739
_cell_length_c   8.64727300
_cell_angle_alpha   119.93367594
_cell_angle_beta   89.76201632
_cell_angle_gamma   90.11716602
_symmetry_Int_Tables_number   1
_chemical_formula_structural   Zr10HgSb6
_chemical_formula_sum   'Zr10 Hg1 Sb6'
_cell_volume   384.64386936
_cell_formula_units_Z   1
loop_
 _symmetry_equiv_pos_site_id
 _symmetry_equiv_pos_as_xyz
  1  'x, y, z'
loop_
 _atom_site_type_symbol
 _atom_site_label
 _atom_site_symmetry_multiplicity
 _atom_site_fract_x
 _atom_site_fract_y
 _atom_site_fract_z
 _atom_site_occupancy
  Zr  Zr0  1  0.499471  0.336713  0.669612  1
  Zr  Zr1  1  0.499479  0.663286  0.332904  1
  Zr  Zr2  1  0.001144  0.664847  0.333003  1
  Zr  Zr3  1  0.001148  0.335157  0.668157  1
  Zr  Zr4  1  0.772046  0.268150  0.000160  1
  Zr  Zr5  1  0.772049  0.731853  0.732010  1
  Zr  Zr6  1  0.783562  0.000002  0.265878  1
  Zr  Zr7  1  0.225034  0.730108  0.999396  1
  Zr  Zr8  1  0.225028  0.269890  0.269289  1
  Zr  Zr9  1  0.229020  0.999999  0.729869  1
  Hg  Hg10  1  0.258702  0.999994  0.384705  1
  Sb  Sb11  1  0.742458  0.614743  0.002380  1
  Sb  Sb12  1  0.742451  0.385268  0.387639  1
  Sb  Sb13  1  0.743381  0.999999  0.609048  1
  Sb  Sb14  1  0.253541  0.385795  0.999679  1
  Sb  Sb15  1  0.253541  0.614200  0.613886  1
  Sb  Sb16  1  0.497945  0.000002  0.002386  1
