# generated using pymatgen
data_Sr4Si10GePt5
_symmetry_space_group_name_H-M   'P 1'
_cell_length_a   8.47679141
_cell_length_b   8.47678980
_cell_length_c   8.47679123
_cell_angle_alpha   137.48940478
_cell_angle_beta   106.85206342
_cell_angle_gamma   88.44973867
_symmetry_Int_Tables_number   1
_chemical_formula_structural   Sr4Si10GePt5
_chemical_formula_sum   'Sr4 Si10 Ge1 Pt5'
_cell_volume   377.15276390
_cell_formula_units_Z   1
loop_
 _symmetry_equiv_pos_site_id
 _symmetry_equiv_pos_as_xyz
  1  'x, y, z'
loop_
 _atom_site_type_symbol
 _atom_site_label
 _atom_site_symmetry_multiplicity
 _atom_site_fract_x
 _atom_site_fract_y
 _atom_site_fract_z
 _atom_site_occupancy
  Sr  Sr0  1  0.631266  0.372314  0.253113  1
  Sr  Sr1  1  0.368734  0.621846  0.741046  1
  Sr  Sr2  1  0.119201  0.878154  0.246887  1
  Sr  Sr3  1  0.880799  0.127686  0.758954  1
  Si  Si4  1  0.483300  0.111798  0.350020  1
  Si  Si5  1  0.516700  0.866719  0.628497  1
  Si  Si6  1  0.761778  0.633281  0.149980  1
  Si  Si7  1  0.238222  0.388202  0.871503  1
  Si  Si8  1  0.254218  0.504218  0.250000  1
  Si  Si9  1  0.747652  0.497652  0.750000  1
  Si  Si10  1  0.745782  0.995782  0.250000  1
  Si  Si11  1  0.252348  0.002348  0.750000  1
  Si  Si12  1  0.000000  0.250000  0.250000  1
  Si  Si13  1  0.000000  0.750000  0.750000  1
  Ge  Ge14  1  0.500000  0.250000  0.750000  1
  Pt  Pt15  1  0.500000  0.750000  0.250000  1
  Pt  Pt16  1  0.246387  0.130230  0.118152  1
  Pt  Pt17  1  0.753613  0.871765  0.883844  1
  Pt  Pt18  1  0.012079  0.628235  0.381848  1
  Pt  Pt19  1  0.987921  0.369770  0.616156  1
