# generated using pymatgen
data_Pu(S2Cl3)2
_symmetry_space_group_name_H-M   'P 1'
_cell_length_a   7.41306896
_cell_length_b   7.52797405
_cell_length_c   8.22902884
_cell_angle_alpha   63.92484607
_cell_angle_beta   62.18377471
_cell_angle_gamma   60.15510989
_symmetry_Int_Tables_number   1
_chemical_formula_structural   Pu(S2Cl3)2
_chemical_formula_sum   'Pu1 S4 Cl6'
_cell_volume   339.18434150
_cell_formula_units_Z   1
loop_
 _symmetry_equiv_pos_site_id
 _symmetry_equiv_pos_as_xyz
  1  'x, y, z'
loop_
 _atom_site_type_symbol
 _atom_site_label
 _atom_site_symmetry_multiplicity
 _atom_site_fract_x
 _atom_site_fract_y
 _atom_site_fract_z
 _atom_site_occupancy
  Pu  Pu0  1  0.000000  0.000000  0.000000  1
  S  S1  1  0.554362  0.664939  0.331021  1
  S  S2  1  0.275061  0.601449  0.501800  1
  S  S3  1  0.724939  0.398551  0.498200  1
  S  S4  1  0.445640  0.335060  0.668980  1
  Cl  Cl5  1  0.028228  0.606020  0.192168  1
  Cl  Cl6  1  0.166373  0.005063  0.218401  1
  Cl  Cl7  1  0.617817  0.132724  0.228253  1
  Cl  Cl8  1  0.382182  0.867276  0.771748  1
  Cl  Cl9  1  0.833627  0.994936  0.781600  1
  Cl  Cl10  1  0.971773  0.393981  0.807831  1
