# generated using pymatgen
data_Y4Er7LuOs4
_symmetry_space_group_name_H-M   'P 1'
_cell_length_a   6.28405197
_cell_length_b   7.37926803
_cell_length_c   8.98130228
_cell_angle_alpha   89.97953510
_cell_angle_beta   89.96924610
_cell_angle_gamma   89.96682396
_symmetry_Int_Tables_number   1
_chemical_formula_structural   Y4Er7LuOs4
_chemical_formula_sum   'Y4 Er7 Lu1 Os4'
_cell_volume   416.47813252
_cell_formula_units_Z   1
loop_
 _symmetry_equiv_pos_site_id
 _symmetry_equiv_pos_as_xyz
  1  'x, y, z'
loop_
 _atom_site_type_symbol
 _atom_site_label
 _atom_site_symmetry_multiplicity
 _atom_site_fract_x
 _atom_site_fract_y
 _atom_site_fract_z
 _atom_site_occupancy
  Y  Y0  1  0.870617  0.537960  0.249976  1
  Y  Y1  1  0.629110  0.037649  0.250001  1
  Y  Y2  1  0.129598  0.462443  0.749944  1
  Y  Y3  1  0.370691  0.962171  0.749963  1
  Er  Er4  1  0.167238  0.175455  0.437023  1
  Er  Er5  1  0.667120  0.324566  0.562826  1
  Er  Er6  1  0.832535  0.824722  0.937157  1
  Er  Er7  1  0.667170  0.324793  0.937070  1
  Er  Er8  1  0.832846  0.824651  0.562923  1
  Er  Er9  1  0.332891  0.675239  0.436703  1
  Er  Er10  1  0.167379  0.175289  0.062938  1
  Lu  Lu11  1  0.332897  0.675309  0.063072  1
  Os  Os12  1  0.043969  0.883015  0.250236  1
  Os  Os13  1  0.455929  0.383353  0.250368  1
  Os  Os14  1  0.955896  0.116607  0.750032  1
  Os  Os15  1  0.544114  0.616780  0.749768  1
