# generated using pymatgen
data_Np4B12OsW
_symmetry_space_group_name_H-M   'P 1'
_cell_length_a   3.61239500
_cell_length_b   9.32069692
_cell_length_c   11.37802829
_cell_angle_alpha   89.87056269
_cell_angle_beta   90.00000000
_cell_angle_gamma   90.00000000
_symmetry_Int_Tables_number   1
_chemical_formula_structural   Np4B12OsW
_chemical_formula_sum   'Np8 B24 Os2 W2'
_cell_volume   383.09767813
_cell_formula_units_Z   2
loop_
 _symmetry_equiv_pos_site_id
 _symmetry_equiv_pos_as_xyz
  1  'x, y, z'
loop_
 _atom_site_type_symbol
 _atom_site_label
 _atom_site_symmetry_multiplicity
 _atom_site_fract_x
 _atom_site_fract_y
 _atom_site_fract_z
 _atom_site_occupancy
  Np  Np0  1  0.000000  0.338487  0.408280  1
  Np  Np1  1  0.000000  0.661513  0.591720  1
  Np  Np2  1  0.000000  0.836718  0.093586  1
  Np  Np3  1  0.000000  0.163282  0.906414  1
  Np  Np4  1  0.000000  0.957324  0.401478  1
  Np  Np5  1  0.000000  0.042676  0.598522  1
  Np  Np6  1  0.000000  0.461322  0.099875  1
  Np  Np7  1  0.000000  0.538678  0.900125  1
  B  B8  1  0.500000  0.551496  0.432654  1
  B  B9  1  0.500000  0.448504  0.567346  1
  B  B10  1  0.500000  0.051509  0.068232  1
  B  B11  1  0.500000  0.948491  0.931768  1
  B  B12  1  0.500000  0.744794  0.424916  1
  B  B13  1  0.500000  0.255206  0.575084  1
  B  B14  1  0.500000  0.243084  0.076795  1
  B  B15  1  0.500000  0.756916  0.923205  1
  B  B16  1  0.500000  0.807257  0.273849  1
  B  B17  1  0.500000  0.192743  0.726150  1
  B  B18  1  0.500000  0.304869  0.225632  1
  B  B19  1  0.500000  0.695131  0.774369  1
  B  B20  1  0.500000  0.646646  0.186229  1
  B  B21  1  0.500000  0.353354  0.813771  1
  B  B22  1  0.500000  0.146343  0.311135  1
  B  B23  1  0.500000  0.853657  0.688865  1
  B  B24  1  0.500000  0.988937  0.219807  1
  B  B25  1  0.500000  0.011063  0.780193  1
  B  B26  1  0.500000  0.486729  0.278738  1
  B  B27  1  0.500000  0.513271  0.721262  1
  B  B28  1  0.500000  0.643214  0.038148  1
  B  B29  1  0.500000  0.356786  0.961852  1
  B  B30  1  0.500000  0.142653  0.459126  1
  B  B31  1  0.500000  0.857347  0.540874  1
  Os  Os32  1  0.000000  0.146530  0.180428  1
  Os  Os33  1  0.000000  0.853470  0.819572  1
  W  W34  1  0.000000  0.646745  0.318552  1
  W  W35  1  0.000000  0.353255  0.681448  1
