# generated using pymatgen
data_Yb3Sm4Lu(B6Ru)4
_symmetry_space_group_name_H-M   'P 1'
_cell_length_a   3.69444000
_cell_length_b   9.11975200
_cell_length_c   11.53334300
_cell_angle_alpha   89.99770666
_cell_angle_beta   90.00000000
_cell_angle_gamma   90.00000000
_symmetry_Int_Tables_number   1
_chemical_formula_structural   Yb3Sm4Lu(B6Ru)4
_chemical_formula_sum   'Yb3 Sm4 Lu1 B24 Ru4'
_cell_volume   388.58573541
_cell_formula_units_Z   1
loop_
 _symmetry_equiv_pos_site_id
 _symmetry_equiv_pos_as_xyz
  1  'x, y, z'
loop_
 _atom_site_type_symbol
 _atom_site_label
 _atom_site_symmetry_multiplicity
 _atom_site_fract_x
 _atom_site_fract_y
 _atom_site_fract_z
 _atom_site_occupancy
  Yb  Yb0  1  0.000000  0.942187  0.367986  1
  Yb  Yb1  1  0.000000  0.058118  0.631843  1
  Yb  Yb2  1  0.000000  0.442402  0.131287  1
  Sm  Sm3  1  0.000000  0.322483  0.412654  1
  Sm  Sm4  1  0.000000  0.678517  0.584266  1
  Sm  Sm5  1  0.000000  0.822701  0.087428  1
  Sm  Sm6  1  0.000000  0.177162  0.915399  1
  Lu  Lu7  1  0.000000  0.557311  0.869295  1
  B  B8  1  0.500000  0.555580  0.430949  1
  B  B9  1  0.500000  0.444977  0.568865  1
  B  B10  1  0.500000  0.055161  0.068982  1
  B  B11  1  0.500000  0.943889  0.931344  1
  B  B12  1  0.500000  0.750866  0.416643  1
  B  B13  1  0.500000  0.249719  0.583520  1
  B  B14  1  0.500000  0.250355  0.083171  1
  B  B15  1  0.500000  0.748574  0.917494  1
  B  B16  1  0.500000  0.790380  0.265812  1
  B  B17  1  0.500000  0.209513  0.734697  1
  B  B18  1  0.500000  0.290263  0.233924  1
  B  B19  1  0.500000  0.708766  0.765607  1
  B  B20  1  0.500000  0.629169  0.185814  1
  B  B21  1  0.500000  0.370874  0.815120  1
  B  B22  1  0.500000  0.129133  0.314186  1
  B  B23  1  0.500000  0.870743  0.685382  1
  B  B24  1  0.500000  0.983957  0.212918  1
  B  B25  1  0.500000  0.015523  0.787270  1
  B  B26  1  0.500000  0.484051  0.286991  1
  B  B27  1  0.500000  0.516834  0.713247  1
  B  B28  1  0.500000  0.597682  0.025877  1
  B  B29  1  0.500000  0.403194  0.972263  1
  B  B30  1  0.500000  0.096015  0.473596  1
  B  B31  1  0.500000  0.904418  0.526363  1
  Ru  Ru32  1  0.000000  0.638715  0.319941  1
  Ru  Ru33  1  0.000000  0.362481  0.680550  1
  Ru  Ru34  1  0.000000  0.138993  0.179978  1
  Ru  Ru35  1  0.000000  0.859295  0.819338  1
