# generated using pymatgen
data_Sr(PrSn4)3
_symmetry_space_group_name_H-M   'P 1'
_cell_length_a   12.12303045
_cell_length_b   12.12303043
_cell_length_c   12.12303120
_cell_angle_alpha   32.18675371
_cell_angle_beta   32.18675332
_cell_angle_gamma   32.18675661
_symmetry_Int_Tables_number   1
_chemical_formula_structural   Sr(PrSn4)3
_chemical_formula_sum   'Sr1 Pr3 Sn12'
_cell_volume   449.31393313
_cell_formula_units_Z   1
loop_
 _symmetry_equiv_pos_site_id
 _symmetry_equiv_pos_as_xyz
  1  'x, y, z'
loop_
 _atom_site_type_symbol
 _atom_site_label
 _atom_site_symmetry_multiplicity
 _atom_site_fract_x
 _atom_site_fract_y
 _atom_site_fract_z
 _atom_site_occupancy
  Sr  Sr0  1  0.291780  0.291780  0.291780  1
  Pr  Pr1  1  0.877693  0.877693  0.877693  1
  Pr  Pr2  1  0.123383  0.123383  0.123383  1
  Pr  Pr3  1  0.706197  0.706197  0.706197  1
  Sn  Sn4  1  0.291266  0.792837  0.792837  1
  Sn  Sn5  1  0.792837  0.792837  0.291266  1
  Sn  Sn6  1  0.849985  0.387447  0.387447  1
  Sn  Sn7  1  0.387447  0.387447  0.849985  1
  Sn  Sn8  1  0.387447  0.849985  0.387447  1
  Sn  Sn9  1  0.616315  0.140991  0.616315  1
  Sn  Sn10  1  0.140991  0.616315  0.616315  1
  Sn  Sn11  1  0.616315  0.616315  0.140991  1
  Sn  Sn12  1  0.792837  0.291266  0.792837  1
  Sn  Sn13  1  0.208723  0.708062  0.208723  1
  Sn  Sn14  1  0.208723  0.208723  0.708062  1
  Sn  Sn15  1  0.708062  0.208723  0.208723  1
