# generated using pymatgen
data_Eu10Si5Bi
_symmetry_space_group_name_H-M   'P 1'
_cell_length_a   7.96854600
_cell_length_b   7.96854624
_cell_length_c   9.36194764
_cell_angle_alpha   115.18748975
_cell_angle_beta   115.18749075
_cell_angle_gamma   89.99999507
_symmetry_Int_Tables_number   1
_chemical_formula_structural   Eu10Si5Bi
_chemical_formula_sum   'Eu10 Si5 Bi1'
_cell_volume   474.73709867
_cell_formula_units_Z   1
loop_
 _symmetry_equiv_pos_site_id
 _symmetry_equiv_pos_as_xyz
  1  'x, y, z'
loop_
 _atom_site_type_symbol
 _atom_site_label
 _atom_site_symmetry_multiplicity
 _atom_site_fract_x
 _atom_site_fract_y
 _atom_site_fract_z
 _atom_site_occupancy
  Eu  Eu0  1  0.506359  0.506359  0.012720  1
  Eu  Eu1  1  0.993641  0.993641  0.987280  1
  Eu  Eu2  1  0.976412  0.826317  0.282744  1
  Eu  Eu3  1  0.306332  0.456427  0.282744  1
  Eu  Eu4  1  0.826317  0.306332  0.282744  1
  Eu  Eu5  1  0.456427  0.976412  0.282744  1
  Eu  Eu6  1  0.043573  0.193668  0.717256  1
  Eu  Eu7  1  0.673683  0.523588  0.717256  1
  Eu  Eu8  1  0.193668  0.673683  0.717256  1
  Eu  Eu9  1  0.523588  0.043573  0.717256  1
  Si  Si10  1  0.250000  0.250000  0.500000  1
  Si  Si11  1  0.610944  0.889056  0.000000  1
  Si  Si12  1  0.389056  0.110944  0.000000  1
  Si  Si13  1  0.889056  0.389056  0.000000  1
  Si  Si14  1  0.110944  0.610944  0.000000  1
  Bi  Bi15  1  0.750000  0.750000  0.500000  1
