# generated using pymatgen
data_Nd3Y2P12Pd3Ru16
_symmetry_space_group_name_H-M   'P 1'
_cell_length_a   12.66688100
_cell_length_b   12.66688185
_cell_length_c   4.00139200
_cell_angle_alpha   90.00000000
_cell_angle_beta   90.00000000
_cell_angle_gamma   119.99999518
_symmetry_Int_Tables_number   1
_chemical_formula_structural   Nd3Y2P12Pd3Ru16
_chemical_formula_sum   'Nd3 Y2 P12 Pd3 Ru16'
_cell_volume   556.00815634
_cell_formula_units_Z   1
loop_
 _symmetry_equiv_pos_site_id
 _symmetry_equiv_pos_as_xyz
  1  'x, y, z'
loop_
 _atom_site_type_symbol
 _atom_site_label
 _atom_site_symmetry_multiplicity
 _atom_site_fract_x
 _atom_site_fract_y
 _atom_site_fract_z
 _atom_site_occupancy
  Nd  Nd0  1  0.000000  0.182158  0.500000  1
  Nd  Nd1  1  0.817842  0.817842  0.500000  1
  Nd  Nd2  1  0.182158  0.000000  0.500000  1
  Y  Y3  1  0.666667  0.333333  0.000000  1
  Y  Y4  1  0.333333  0.666667  0.000000  1
  P  P5  1  0.000000  0.810765  0.000000  1
  P  P6  1  0.189235  0.189235  0.000000  1
  P  P7  1  0.810765  0.000000  0.000000  1
  P  P8  1  0.699880  0.180954  0.500000  1
  P  P9  1  0.819046  0.518926  0.500000  1
  P  P10  1  0.481074  0.300120  0.500000  1
  P  P11  1  0.180954  0.699880  0.500000  1
  P  P12  1  0.518926  0.819046  0.500000  1
  P  P13  1  0.300120  0.481074  0.500000  1
  P  P14  1  0.000000  0.368507  0.000000  1
  P  P15  1  0.631493  0.631493  0.000000  1
  P  P16  1  0.368507  0.000000  0.000000  1
  Pd  Pd17  1  0.000000  0.553327  0.000000  1
  Pd  Pd18  1  0.446673  0.446673  0.000000  1
  Pd  Pd19  1  0.553327  0.000000  0.000000  1
  Ru  Ru20  1  0.000000  0.709510  0.500000  1
  Ru  Ru21  1  0.290490  0.290490  0.500000  1
  Ru  Ru22  1  0.709510  0.000000  0.500000  1
  Ru  Ru23  1  0.804807  0.186614  0.000000  1
  Ru  Ru24  1  0.813386  0.618194  0.000000  1
  Ru  Ru25  1  0.381806  0.195193  0.000000  1
  Ru  Ru26  1  0.186614  0.804807  0.000000  1
  Ru  Ru27  1  0.618194  0.813386  0.000000  1
  Ru  Ru28  1  0.195193  0.381806  0.000000  1
  Ru  Ru29  1  0.876060  0.370049  0.500000  1
  Ru  Ru30  1  0.629951  0.506011  0.500000  1
  Ru  Ru31  1  0.493989  0.123940  0.500000  1
  Ru  Ru32  1  0.370049  0.876060  0.500000  1
  Ru  Ru33  1  0.506011  0.629951  0.500000  1
  Ru  Ru34  1  0.123940  0.493989  0.500000  1
  Ru  Ru35  1  0.000000  0.000000  0.000000  1
