# generated using pymatgen
data_Tb7Ho3Si5P
_symmetry_space_group_name_H-M   'P 1'
_cell_length_a   8.44721701
_cell_length_b   8.45214141
_cell_length_c   6.32454303
_cell_angle_alpha   90.01099342
_cell_angle_beta   89.99551724
_cell_angle_gamma   119.98111075
_symmetry_Int_Tables_number   1
_chemical_formula_structural   Tb7Ho3Si5P
_chemical_formula_sum   'Tb7 Ho3 Si5 P1'
_cell_volume   391.13151787
_cell_formula_units_Z   1
loop_
 _symmetry_equiv_pos_site_id
 _symmetry_equiv_pos_as_xyz
  1  'x, y, z'
loop_
 _atom_site_type_symbol
 _atom_site_label
 _atom_site_symmetry_multiplicity
 _atom_site_fract_x
 _atom_site_fract_y
 _atom_site_fract_z
 _atom_site_occupancy
  Tb  Tb0  1  0.000762  0.756483  0.750148  1
  Tb  Tb1  1  0.000865  0.244531  0.249860  1
  Tb  Tb2  1  0.756487  0.755365  0.249845  1
  Tb  Tb3  1  0.754738  0.000108  0.750117  1
  Tb  Tb4  1  0.244358  0.243418  0.750108  1
  Tb  Tb5  1  0.244135  0.000112  0.249879  1
  Tb  Tb6  1  0.333808  0.667617  0.500428  1
  Ho  Ho7  1  0.666263  0.332435  0.999821  1
  Ho  Ho8  1  0.666323  0.332501  0.500106  1
  Ho  Ho9  1  0.333828  0.667490  0.999839  1
  Si  Si10  1  0.394877  0.393825  0.249561  1
  Si  Si11  1  0.000137  0.605703  0.249511  1
  Si  Si12  1  0.999647  0.393626  0.750431  1
  Si  Si13  1  0.606465  0.605848  0.750417  1
  Si  Si14  1  0.607131  0.000487  0.249551  1
  P  P15  1  0.390175  0.000450  0.750378  1
