# generated using pymatgen
data_Dy7Hf(Si4Mo3)4
_symmetry_space_group_name_H-M   'P 1'
_cell_length_a   6.74995012
_cell_length_b   6.91630035
_cell_length_c   12.92264328
_cell_angle_alpha   89.85766108
_cell_angle_beta   90.01562340
_cell_angle_gamma   90.12406835
_symmetry_Int_Tables_number   1
_chemical_formula_structural   Dy7Hf(Si4Mo3)4
_chemical_formula_sum   'Dy7 Hf1 Si16 Mo12'
_cell_volume   603.28619931
_cell_formula_units_Z   1
loop_
 _symmetry_equiv_pos_site_id
 _symmetry_equiv_pos_as_xyz
  1  'x, y, z'
loop_
 _atom_site_type_symbol
 _atom_site_label
 _atom_site_symmetry_multiplicity
 _atom_site_fract_x
 _atom_site_fract_y
 _atom_site_fract_z
 _atom_site_occupancy
  Dy  Dy0  1  0.996944  0.166345  0.094317  1
  Dy  Dy1  1  0.003434  0.833349  0.904672  1
  Dy  Dy2  1  0.503525  0.666053  0.906204  1
  Dy  Dy3  1  0.004553  0.832717  0.593494  1
  Dy  Dy4  1  0.496996  0.332637  0.094232  1
  Dy  Dy5  1  0.997589  0.167673  0.407254  1
  Dy  Dy6  1  0.497688  0.333682  0.407718  1
  Hf  Hf7  1  0.505171  0.670899  0.597974  1
  Si  Si8  1  0.034381  0.135785  0.749044  1
  Si  Si9  1  0.963491  0.864338  0.250506  1
  Si  Si10  1  0.464367  0.633532  0.249805  1
  Si  Si11  1  0.534697  0.368554  0.747506  1
  Si  Si12  1  0.305469  0.868261  0.748349  1
  Si  Si13  1  0.696179  0.128495  0.251048  1
  Si  Si14  1  0.197349  0.369397  0.250618  1
  Si  Si15  1  0.799874  0.631254  0.748634  1
  Si  Si16  1  0.168134  0.461006  0.546373  1
  Si  Si17  1  0.837351  0.543444  0.455998  1
  Si  Si18  1  0.341092  0.953878  0.455940  1
  Si  Si19  1  0.841128  0.542843  0.046784  1
  Si  Si20  1  0.658135  0.038912  0.546751  1
  Si  Si21  1  0.157789  0.457025  0.952159  1
  Si  Si22  1  0.658380  0.042905  0.951964  1
  Si  Si23  1  0.340940  0.957376  0.046707  1
  Mo  Mo24  1  0.167274  0.505088  0.746910  1
  Mo  Mo25  1  0.834269  0.498157  0.251676  1
  Mo  Mo26  1  0.333494  0.000044  0.250664  1
  Mo  Mo27  1  0.665467  0.994786  0.747533  1
  Mo  Mo28  1  0.331668  0.164099  0.624495  1
  Mo  Mo29  1  0.665997  0.832347  0.377411  1
  Mo  Mo30  1  0.169067  0.663975  0.375635  1
  Mo  Mo31  1  0.667624  0.834425  0.125370  1
  Mo  Mo32  1  0.830498  0.340133  0.624246  1
  Mo  Mo33  1  0.331921  0.166121  0.873215  1
  Mo  Mo34  1  0.829926  0.337132  0.873960  1
  Mo  Mo35  1  0.168139  0.663335  0.124833  1
