# generated using pymatgen
data_La10Ga3GeIr2
_symmetry_space_group_name_H-M   'P 1'
_cell_length_a   8.30113475
_cell_length_b   9.09539424
_cell_length_c   12.52598824
_cell_angle_alpha   90.16986988
_cell_angle_beta   90.40543744
_cell_angle_gamma   89.85686873
_symmetry_Int_Tables_number   1
_chemical_formula_structural   La10Ga3GeIr2
_chemical_formula_sum   'La20 Ga6 Ge2 Ir4'
_cell_volume   945.70759537
_cell_formula_units_Z   2
loop_
 _symmetry_equiv_pos_site_id
 _symmetry_equiv_pos_as_xyz
  1  'x, y, z'
loop_
 _atom_site_type_symbol
 _atom_site_label
 _atom_site_symmetry_multiplicity
 _atom_site_fract_x
 _atom_site_fract_y
 _atom_site_fract_z
 _atom_site_occupancy
  La  La0  1  0.670688  0.748492  0.714120  1
  La  La1  1  0.329312  0.251508  0.285880  1
  La  La2  1  0.174960  0.253070  0.787951  1
  La  La3  1  0.825040  0.746930  0.212049  1
  La  La4  1  0.147201  0.748760  0.803648  1
  La  La5  1  0.852799  0.251240  0.196352  1
  La  La6  1  0.639226  0.252479  0.699128  1
  La  La7  1  0.360774  0.747521  0.300872  1
  La  La8  1  0.542461  0.746698  0.999379  1
  La  La9  1  0.457539  0.253302  0.000621  1
  La  La10  1  0.043701  0.249680  0.500224  1
  La  La11  1  0.956299  0.750320  0.499776  1
  La  La12  1  0.818574  0.462974  0.925451  1
  La  La13  1  0.181426  0.537026  0.074549  1
  La  La14  1  0.323101  0.536596  0.577707  1
  La  La15  1  0.178380  0.963808  0.076181  1
  La  La16  1  0.676899  0.463404  0.422293  1
  La  La17  1  0.821620  0.036192  0.923819  1
  La  La18  1  0.678413  0.036572  0.423713  1
  La  La19  1  0.321587  0.963428  0.576287  1
  Ga  Ga20  1  0.940990  0.009292  0.669962  1
  Ga  Ga21  1  0.059010  0.990708  0.330038  1
  Ga  Ga22  1  0.441299  0.991797  0.828488  1
  Ga  Ga23  1  0.059866  0.509146  0.329192  1
  Ga  Ga24  1  0.558701  0.008203  0.171512  1
  Ga  Ga25  1  0.940134  0.490854  0.670808  1
  Ge  Ge26  1  0.557991  0.493012  0.172579  1
  Ge  Ge27  1  0.442009  0.506988  0.827421  1
  Ir  Ir28  1  0.925413  0.749179  0.986407  1
  Ir  Ir29  1  0.074587  0.250821  0.013593  1
  Ir  Ir30  1  0.424376  0.250719  0.513761  1
  Ir  Ir31  1  0.575624  0.749281  0.486239  1
