# generated using pymatgen
data_ErPa(CoSi2)2
_symmetry_space_group_name_H-M   'P 1'
_cell_length_a   8.37079268
_cell_length_b   8.37079255
_cell_length_c   3.95987100
_cell_angle_alpha   90.00000000
_cell_angle_beta   90.00000000
_cell_angle_gamma   152.41225629
_symmetry_Int_Tables_number   1
_chemical_formula_structural   ErPa(CoSi2)2
_chemical_formula_sum   'Er1 Pa1 Co2 Si4'
_cell_volume   128.49760614
_cell_formula_units_Z   1
loop_
 _symmetry_equiv_pos_site_id
 _symmetry_equiv_pos_as_xyz
  1  'x, y, z'
loop_
 _atom_site_type_symbol
 _atom_site_label
 _atom_site_symmetry_multiplicity
 _atom_site_fract_x
 _atom_site_fract_y
 _atom_site_fract_z
 _atom_site_occupancy
  Er  Er0  1  0.892675  0.107325  0.750000  1
  Pa  Pa1  1  0.108605  0.891395  0.250000  1
  Co  Co2  1  0.675556  0.324444  0.750000  1
  Co  Co3  1  0.320909  0.679091  0.250000  1
  Si  Si4  1  0.752691  0.247309  0.250000  1
  Si  Si5  1  0.250797  0.749203  0.750000  1
  Si  Si6  1  0.539842  0.460158  0.750000  1
  Si  Si7  1  0.458925  0.541075  0.250000  1
