# generated using pymatgen
data_AlV12Ga3(NiN)4
_symmetry_space_group_name_H-M   'P 1'
_cell_length_a   6.51158673
_cell_length_b   6.51158710
_cell_length_c   6.51158735
_cell_angle_alpha   89.96253658
_cell_angle_beta   90.03746063
_cell_angle_gamma   90.03746728
_symmetry_Int_Tables_number   1
_chemical_formula_structural   AlV12Ga3(NiN)4
_chemical_formula_sum   'Al1 V12 Ga3 Ni4 N4'
_cell_volume   276.09610237
_cell_formula_units_Z   1
loop_
 _symmetry_equiv_pos_site_id
 _symmetry_equiv_pos_as_xyz
  1  'x, y, z'
loop_
 _atom_site_type_symbol
 _atom_site_label
 _atom_site_symmetry_multiplicity
 _atom_site_fract_x
 _atom_site_fract_y
 _atom_site_fract_z
 _atom_site_occupancy
  Al  Al0  1  0.573321  0.426679  0.926679  1
  V  V1  1  0.791717  0.960159  0.374194  1
  V  V2  1  0.709188  0.039454  0.873659  1
  V  V3  1  0.208061  0.460184  0.124860  1
  V  V4  1  0.290520  0.540198  0.625894  1
  V  V5  1  0.960546  0.373659  0.790812  1
  V  V6  1  0.039841  0.874194  0.708283  1
  V  V7  1  0.459802  0.125894  0.209480  1
  V  V8  1  0.539816  0.624860  0.291939  1
  V  V9  1  0.375140  0.791939  0.960184  1
  V  V10  1  0.874106  0.709480  0.040198  1
  V  V11  1  0.125806  0.208283  0.460159  1
  V  V12  1  0.626341  0.290812  0.539454  1
  Ga  Ga13  1  0.427727  0.927579  0.572894  1
  Ga  Ga14  1  0.927106  0.572273  0.427579  1
  Ga  Ga15  1  0.072421  0.072894  0.072273  1
  Ni  Ni16  1  0.177653  0.822347  0.322347  1
  Ni  Ni17  1  0.324245  0.179076  0.823067  1
  Ni  Ni18  1  0.820924  0.323067  0.175755  1
  Ni  Ni19  1  0.676933  0.675755  0.679076  1
  N  N20  1  0.876174  0.123826  0.623826  1
  N  N21  1  0.624048  0.876259  0.125176  1
  N  N22  1  0.123741  0.625176  0.875952  1
  N  N23  1  0.374824  0.375952  0.376259  1
