# generated using pymatgen
data_DyEr7(TcC2)4
_symmetry_space_group_name_H-M   'P 1'
_cell_length_a   5.05292800
_cell_length_b   6.53218307
_cell_length_c   9.80288211
_cell_angle_alpha   89.90870631
_cell_angle_beta   90.00000000
_cell_angle_gamma   90.00000000
_symmetry_Int_Tables_number   1
_chemical_formula_structural   DyEr7(TcC2)4
_chemical_formula_sum   'Dy1 Er7 Tc4 C8'
_cell_volume   323.55989545
_cell_formula_units_Z   1
loop_
 _symmetry_equiv_pos_site_id
 _symmetry_equiv_pos_as_xyz
  1  'x, y, z'
loop_
 _atom_site_type_symbol
 _atom_site_label
 _atom_site_symmetry_multiplicity
 _atom_site_fract_x
 _atom_site_fract_y
 _atom_site_fract_z
 _atom_site_occupancy
  Dy  Dy0  1  0.750000  0.533358  0.783460  1
  Er  Er1  1  0.250000  0.966258  0.282995  1
  Er  Er2  1  0.750000  0.676627  0.441596  1
  Er  Er3  1  0.250000  0.823613  0.941863  1
  Er  Er4  1  0.750000  0.176673  0.058401  1
  Er  Er5  1  0.250000  0.323250  0.558167  1
  Er  Er6  1  0.250000  0.466250  0.216894  1
  Er  Er7  1  0.750000  0.033632  0.716849  1
  Tc  Tc8  1  0.250000  0.282224  0.867763  1
  Tc  Tc9  1  0.250000  0.782879  0.632043  1
  Tc  Tc10  1  0.750000  0.217084  0.367544  1
  Tc  Tc11  1  0.750000  0.717598  0.132464  1
  C  C12  1  0.250000  0.676442  0.448808  1
  C  C13  1  0.250000  0.550021  0.758204  1
  C  C14  1  0.750000  0.449990  0.241497  1
  C  C15  1  0.750000  0.824919  0.949386  1
  C  C16  1  0.250000  0.049856  0.741511  1
  C  C17  1  0.250000  0.176266  0.051332  1
  C  C18  1  0.750000  0.323036  0.550699  1
  C  C19  1  0.750000  0.950024  0.258526  1
