# generated using pymatgen
data_Ag3Bi(Sb2O7)2
_symmetry_space_group_name_H-M   'P 1'
_cell_length_a   7.40966627
_cell_length_b   7.40966585
_cell_length_c   7.45799200
_cell_angle_alpha   60.21412268
_cell_angle_beta   60.21412452
_cell_angle_gamma   59.99999782
_symmetry_Int_Tables_number   1
_chemical_formula_structural   Ag3Bi(Sb2O7)2
_chemical_formula_sum   'Ag3 Bi1 Sb4 O14'
_cell_volume   290.47061730
_cell_formula_units_Z   1
loop_
 _symmetry_equiv_pos_site_id
 _symmetry_equiv_pos_as_xyz
  1  'x, y, z'
loop_
 _atom_site_type_symbol
 _atom_site_label
 _atom_site_symmetry_multiplicity
 _atom_site_fract_x
 _atom_site_fract_y
 _atom_site_fract_z
 _atom_site_occupancy
  Ag  Ag0  1  0.625000  0.125000  0.125000  1
  Ag  Ag1  1  0.125000  0.625000  0.125000  1
  Ag  Ag2  1  0.125000  0.125000  0.125000  1
  Bi  Bi3  1  0.125000  0.125000  0.625000  1
  Sb  Sb4  1  0.125000  0.625000  0.625000  1
  Sb  Sb5  1  0.625000  0.125000  0.625000  1
  Sb  Sb6  1  0.625000  0.625000  0.125000  1
  Sb  Sb7  1  0.625000  0.625000  0.625000  1
  O  O8  1  0.696900  0.696900  0.305338  1
  O  O9  1  0.301048  0.301048  0.689696  1
  O  O10  1  0.708208  0.301048  0.689696  1
  O  O11  1  0.300862  0.696900  0.305338  1
  O  O12  1  0.301048  0.708208  0.689696  1
  O  O13  1  0.696900  0.300862  0.305338  1
  O  O14  1  0.553100  0.553100  0.944662  1
  O  O15  1  0.948952  0.948952  0.560304  1
  O  O16  1  0.541792  0.948952  0.560304  1
  O  O17  1  0.949138  0.553100  0.944662  1
  O  O18  1  0.948952  0.541792  0.560304  1
  O  O19  1  0.553100  0.949138  0.944662  1
  O  O20  1  0.252416  0.252416  0.242751  1
  O  O21  1  0.997584  0.997584  0.007249  1
