# generated using pymatgen
data_Mg4MnFe19P12
_symmetry_space_group_name_H-M   'P 1'
_cell_length_a   3.58558800
_cell_length_b   10.14786250
_cell_length_c   11.70255208
_cell_angle_alpha   89.82809946
_cell_angle_beta   90.00000000
_cell_angle_gamma   90.00000000
_symmetry_Int_Tables_number   1
_chemical_formula_structural   Mg4MnFe19P12
_chemical_formula_sum   'Mg4 Mn1 Fe19 P12'
_cell_volume   425.80777531
_cell_formula_units_Z   1
loop_
 _symmetry_equiv_pos_site_id
 _symmetry_equiv_pos_as_xyz
  1  'x, y, z'
loop_
 _atom_site_type_symbol
 _atom_site_label
 _atom_site_symmetry_multiplicity
 _atom_site_fract_x
 _atom_site_fract_y
 _atom_site_fract_z
 _atom_site_occupancy
  Mg  Mg0  1  0.250000  0.576485  0.704150  1
  Mg  Mg1  1  0.250000  0.923582  0.205301  1
  Mg  Mg2  1  0.750000  0.422545  0.295758  1
  Mg  Mg3  1  0.750000  0.078442  0.794586  1
  Mn  Mn4  1  0.250000  0.704244  0.988292  1
  Fe  Fe5  1  0.250000  0.794904  0.488772  1
  Fe  Fe6  1  0.750000  0.294686  0.011981  1
  Fe  Fe7  1  0.750000  0.205361  0.512331  1
  Fe  Fe8  1  0.250000  0.407655  0.485182  1
  Fe  Fe9  1  0.250000  0.093337  0.985782  1
  Fe  Fe10  1  0.750000  0.592609  0.514446  1
  Fe  Fe11  1  0.750000  0.907736  0.014511  1
  Fe  Fe12  1  0.250000  0.217697  0.175551  1
  Fe  Fe13  1  0.250000  0.281390  0.674910  1
  Fe  Fe14  1  0.750000  0.781404  0.824840  1
  Fe  Fe15  1  0.750000  0.719260  0.326344  1
  Fe  Fe16  1  0.250000  0.875740  0.702033  1
  Fe  Fe17  1  0.250000  0.623014  0.202476  1
  Fe  Fe18  1  0.750000  0.125516  0.297737  1
  Fe  Fe19  1  0.750000  0.372993  0.796754  1
  Fe  Fe20  1  0.250000  0.462627  0.930009  1
  Fe  Fe21  1  0.250000  0.036139  0.430456  1
  Fe  Fe22  1  0.750000  0.535503  0.070165  1
  Fe  Fe23  1  0.750000  0.963871  0.569867  1
  P  P24  1  0.250000  0.418677  0.112606  1
  P  P25  1  0.250000  0.080613  0.613200  1
  P  P26  1  0.750000  0.577257  0.884385  1
  P  P27  1  0.750000  0.919427  0.386920  1
  P  P28  1  0.250000  0.260002  0.869265  1
  P  P29  1  0.250000  0.239835  0.369450  1
  P  P30  1  0.750000  0.740602  0.134922  1
  P  P31  1  0.750000  0.759670  0.631044  1
  P  P32  1  0.250000  0.603169  0.395852  1
  P  P33  1  0.250000  0.903776  0.893199  1
  P  P34  1  0.750000  0.398746  0.603379  1
  P  P35  1  0.750000  0.101484  0.103543  1
