# generated using pymatgen
data_Zr3ZnPd2N
_symmetry_space_group_name_H-M   'P 1'
_cell_length_a   8.63739792
_cell_length_b   8.63739804
_cell_length_c   8.63739900
_cell_angle_alpha   60.00000017
_cell_angle_beta   59.99999970
_cell_angle_gamma   60.00000027
_symmetry_Int_Tables_number   1
_chemical_formula_structural   Zr3ZnPd2N
_chemical_formula_sum   'Zr12 Zn4 Pd8 N4'
_cell_volume   455.65259347
_cell_formula_units_Z   4
loop_
 _symmetry_equiv_pos_site_id
 _symmetry_equiv_pos_as_xyz
  1  'x, y, z'
loop_
 _atom_site_type_symbol
 _atom_site_label
 _atom_site_symmetry_multiplicity
 _atom_site_fract_x
 _atom_site_fract_y
 _atom_site_fract_z
 _atom_site_occupancy
  Zr  Zr0  1  0.811814  0.188186  0.188186  1
  Zr  Zr1  1  0.188186  0.811814  0.188186  1
  Zr  Zr2  1  0.811814  0.811814  0.188186  1
  Zr  Zr3  1  0.188186  0.811814  0.811814  1
  Zr  Zr4  1  0.811814  0.188186  0.811814  1
  Zr  Zr5  1  0.188186  0.188186  0.811814  1
  Zr  Zr6  1  0.438186  0.061814  0.061814  1
  Zr  Zr7  1  0.061814  0.438186  0.061814  1
  Zr  Zr8  1  0.438186  0.438186  0.061814  1
  Zr  Zr9  1  0.061814  0.438186  0.438186  1
  Zr  Zr10  1  0.438186  0.061814  0.438186  1
  Zr  Zr11  1  0.061814  0.061814  0.438186  1
  Zn  Zn12  1  0.625000  0.625000  0.125000  1
  Zn  Zn13  1  0.625000  0.625000  0.625000  1
  Zn  Zn14  1  0.125000  0.625000  0.625000  1
  Zn  Zn15  1  0.625000  0.125000  0.625000  1
  Pd  Pd16  1  0.413571  0.413571  0.759284  1
  Pd  Pd17  1  0.413571  0.413571  0.413571  1
  Pd  Pd18  1  0.759284  0.413571  0.413571  1
  Pd  Pd19  1  0.413571  0.759284  0.413571  1
  Pd  Pd20  1  0.836429  0.836429  0.490716  1
  Pd  Pd21  1  0.836429  0.836429  0.836429  1
  Pd  Pd22  1  0.490716  0.836429  0.836429  1
  Pd  Pd23  1  0.836429  0.490716  0.836429  1
  N  N24  1  0.125000  0.125000  0.625000  1
  N  N25  1  0.125000  0.125000  0.125000  1
  N  N26  1  0.625000  0.125000  0.125000  1
  N  N27  1  0.125000  0.625000  0.125000  1
