# generated using pymatgen
data_YbSmPa2(B4Os)4
_symmetry_space_group_name_H-M   'P 1'
_cell_length_a   3.58990400
_cell_length_b   5.99567326
_cell_length_c   11.60781522
_cell_angle_alpha   89.99448860
_cell_angle_beta   90.00000000
_cell_angle_gamma   90.00000000
_symmetry_Int_Tables_number   1
_chemical_formula_structural   YbSmPa2(B4Os)4
_chemical_formula_sum   'Yb1 Sm1 Pa2 B16 Os4'
_cell_volume   249.84535312
_cell_formula_units_Z   1
loop_
 _symmetry_equiv_pos_site_id
 _symmetry_equiv_pos_as_xyz
  1  'x, y, z'
loop_
 _atom_site_type_symbol
 _atom_site_label
 _atom_site_symmetry_multiplicity
 _atom_site_fract_x
 _atom_site_fract_y
 _atom_site_fract_z
 _atom_site_occupancy
  Yb  Yb0  1  0.000000  0.371279  0.147938  1
  Sm  Sm1  1  0.000000  0.627419  0.852842  1
  Pa  Pa2  1  0.000000  0.128585  0.650407  1
  Pa  Pa3  1  0.000000  0.871437  0.347843  1
  B  B4  1  0.500000  0.472156  0.689937  1
  B  B5  1  0.500000  0.525957  0.308467  1
  B  B6  1  0.500000  0.972574  0.810144  1
  B  B7  1  0.500000  0.027502  0.190423  1
  B  B8  1  0.500000  0.286176  0.814367  1
  B  B9  1  0.500000  0.711659  0.185863  1
  B  B10  1  0.500000  0.790457  0.686620  1
  B  B11  1  0.500000  0.211157  0.312652  1
  B  B12  1  0.500000  0.361985  0.970538  1
  B  B13  1  0.500000  0.637631  0.032551  1
  B  B14  1  0.500000  0.865710  0.530817  1
  B  B15  1  0.500000  0.133656  0.466968  1
  B  B16  1  0.500000  0.386572  0.545526  1
  B  B17  1  0.500000  0.612405  0.452476  1
  B  B18  1  0.500000  0.888870  0.956745  1
  B  B19  1  0.500000  0.114911  0.046864  1
  Os  Os20  1  0.000000  0.138345  0.904703  1
  Os  Os21  1  0.000000  0.862061  0.096046  1
  Os  Os22  1  0.000000  0.643111  0.593644  1
  Os  Os23  1  0.000000  0.358386  0.405619  1
