# generated using pymatgen
data_Li3Sm3Pd2Rh
_symmetry_space_group_name_H-M   'P 1'
_cell_length_a   7.31005000
_cell_length_b   7.31004900
_cell_length_c   4.04614300
_cell_angle_alpha   90.00000000
_cell_angle_beta   90.00000000
_cell_angle_gamma   119.99998644
_symmetry_Int_Tables_number   1
_chemical_formula_structural   Li3Sm3Pd2Rh
_chemical_formula_sum   'Li3 Sm3 Pd2 Rh1'
_cell_volume   187.24600225
_cell_formula_units_Z   1
loop_
 _symmetry_equiv_pos_site_id
 _symmetry_equiv_pos_as_xyz
  1  'x, y, z'
loop_
 _atom_site_type_symbol
 _atom_site_label
 _atom_site_symmetry_multiplicity
 _atom_site_fract_x
 _atom_site_fract_y
 _atom_site_fract_z
 _atom_site_occupancy
  Li  Li0  1  0.764140  0.764655  0.500000  1
  Li  Li1  1  0.235345  0.999486  0.500000  1
  Li  Li2  1  0.000514  0.235860  0.500000  1
  Sm  Sm3  1  0.420082  0.410968  0.000000  1
  Sm  Sm4  1  0.589032  0.009115  0.000000  1
  Sm  Sm5  1  0.990885  0.579918  0.000000  1
  Pd  Pd6  1  0.000000  0.000000  0.000000  1
  Pd  Pd7  1  0.333333  0.666667  0.500000  1
  Rh  Rh8  1  0.666667  0.333333  0.500000  1
