# generated using pymatgen
data_Gd3Y(Rh2O7)2
_symmetry_space_group_name_H-M   'P 1'
_cell_length_a   7.27509219
_cell_length_b   7.27517358
_cell_length_c   7.27498212
_cell_angle_alpha   60.01369731
_cell_angle_beta   60.01934849
_cell_angle_gamma   60.01862026
_symmetry_Int_Tables_number   1
_chemical_formula_structural   Gd3Y(Rh2O7)2
_chemical_formula_sum   'Gd3 Y1 Rh4 O14'
_cell_volume   272.37567284
_cell_formula_units_Z   1
loop_
 _symmetry_equiv_pos_site_id
 _symmetry_equiv_pos_as_xyz
  1  'x, y, z'
loop_
 _atom_site_type_symbol
 _atom_site_label
 _atom_site_symmetry_multiplicity
 _atom_site_fract_x
 _atom_site_fract_y
 _atom_site_fract_z
 _atom_site_occupancy
  Gd  Gd0  1  0.500000  0.000000  0.500000  1
  Gd  Gd1  1  0.000000  0.500000  0.500000  1
  Gd  Gd2  1  0.500000  0.500000  0.000000  1
  Y  Y3  1  0.500000  0.500000  0.500000  1
  Rh  Rh4  1  0.000000  0.000000  0.000000  1
  Rh  Rh5  1  0.000000  0.500000  0.000000  1
  Rh  Rh6  1  0.500000  0.000000  0.000000  1
  Rh  Rh7  1  0.000000  0.000000  0.500000  1
  O  O8  1  0.624237  0.624179  0.624259  1
  O  O9  1  0.375763  0.375821  0.375741  1
  O  O10  1  0.915414  0.915124  0.334859  1
  O  O11  1  0.334833  0.915162  0.915348  1
  O  O12  1  0.915302  0.334839  0.915248  1
  O  O13  1  0.335655  0.335715  0.912007  1
  O  O14  1  0.912033  0.335682  0.335692  1
  O  O15  1  0.335640  0.911940  0.335719  1
  O  O16  1  0.084586  0.084876  0.665141  1
  O  O17  1  0.665167  0.084838  0.084652  1
  O  O18  1  0.084698  0.665161  0.084752  1
  O  O19  1  0.664345  0.664285  0.087993  1
  O  O20  1  0.087967  0.664318  0.664308  1
  O  O21  1  0.664360  0.088060  0.664281  1
