# generated using pymatgen
data_Pr6RhI10
_symmetry_space_group_name_H-M   'P 1'
_cell_length_a   8.08764177
_cell_length_b   10.03049769
_cell_length_c   10.15615942
_cell_angle_alpha   107.52846341
_cell_angle_beta   97.32180558
_cell_angle_gamma   104.96978979
_symmetry_Int_Tables_number   1
_chemical_formula_structural   Pr6RhI10
_chemical_formula_sum   'Pr6 Rh1 I10'
_cell_volume   739.90342278
_cell_formula_units_Z   1
loop_
 _symmetry_equiv_pos_site_id
 _symmetry_equiv_pos_as_xyz
  1  'x, y, z'
loop_
 _atom_site_type_symbol
 _atom_site_label
 _atom_site_symmetry_multiplicity
 _atom_site_fract_x
 _atom_site_fract_y
 _atom_site_fract_z
 _atom_site_occupancy
  Pr  Pr0  1  0.531837  0.218230  0.415526  1
  Pr  Pr1  1  0.468163  0.781770  0.584474  1
  Pr  Pr2  1  0.144426  0.370295  0.328425  1
  Pr  Pr3  1  0.855574  0.629705  0.671575  1
  Pr  Pr4  1  0.617744  0.543453  0.256128  1
  Pr  Pr5  1  0.382256  0.456547  0.743872  1
  Rh  Rh6  1  0.500000  0.500000  0.500000  1
  I  I7  1  0.147832  0.045221  0.226670  1
  I  I8  1  0.852168  0.954779  0.773330  1
  I  I9  1  0.239332  0.411891  0.040272  1
  I  I10  1  0.760668  0.588109  0.959728  1
  I  I11  1  0.713689  0.240364  0.151879  1
  I  I12  1  0.286311  0.759636  0.848121  1
  I  I13  1  0.045815  0.683888  0.410017  1
  I  I14  1  0.954185  0.316112  0.589983  1
  I  I15  1  0.413664  0.128528  0.678458  1
  I  I16  1  0.586336  0.871472  0.321542  1
