# generated using pymatgen
data_AcYbMg2(SiIr2)2
_symmetry_space_group_name_H-M   'P 1'
_cell_length_a   4.17233100
_cell_length_b   4.17233100
_cell_length_c   10.94286000
_cell_angle_alpha   90.00000000
_cell_angle_beta   90.00000000
_cell_angle_gamma   90.00000000
_symmetry_Int_Tables_number   1
_chemical_formula_structural   AcYbMg2(SiIr2)2
_chemical_formula_sum   'Ac1 Yb1 Mg2 Si2 Ir4'
_cell_volume   190.49709282
_cell_formula_units_Z   1
loop_
 _symmetry_equiv_pos_site_id
 _symmetry_equiv_pos_as_xyz
  1  'x, y, z'
loop_
 _atom_site_type_symbol
 _atom_site_label
 _atom_site_symmetry_multiplicity
 _atom_site_fract_x
 _atom_site_fract_y
 _atom_site_fract_z
 _atom_site_occupancy
  Ac  Ac0  1  0.500000  0.000000  0.755429  1
  Yb  Yb1  1  0.000000  0.500000  0.239922  1
  Mg  Mg2  1  0.000000  0.000000  0.488867  1
  Mg  Mg3  1  0.500000  0.500000  0.488867  1
  Si  Si4  1  0.000000  0.500000  0.893139  1
  Si  Si5  1  0.500000  0.000000  0.119669  1
  Ir  Ir6  1  0.000000  0.000000  0.006517  1
  Ir  Ir7  1  0.500000  0.500000  0.006517  1
  Ir  Ir8  1  0.000000  0.500000  0.667766  1
  Ir  Ir9  1  0.500000  0.000000  0.333308  1
