# generated using pymatgen
data_CaThZn5Ge
_symmetry_space_group_name_H-M   'P 1'
_cell_length_a   8.28608615
_cell_length_b   8.28608646
_cell_length_c   9.01053100
_cell_angle_alpha   90.00000000
_cell_angle_beta   90.00000000
_cell_angle_gamma   148.67701863
_symmetry_Int_Tables_number   1
_chemical_formula_structural   CaThZn5Ge
_chemical_formula_sum   'Ca2 Th2 Zn10 Ge2'
_cell_volume   321.61566308
_cell_formula_units_Z   2
loop_
 _symmetry_equiv_pos_site_id
 _symmetry_equiv_pos_as_xyz
  1  'x, y, z'
loop_
 _atom_site_type_symbol
 _atom_site_label
 _atom_site_symmetry_multiplicity
 _atom_site_fract_x
 _atom_site_fract_y
 _atom_site_fract_z
 _atom_site_occupancy
  Ca  Ca0  1  0.000000  0.000000  0.500000  1
  Ca  Ca1  1  0.000000  0.000000  0.000000  1
  Th  Th2  1  0.202718  0.797282  0.250000  1
  Th  Th3  1  0.797282  0.202718  0.750000  1
  Zn  Zn4  1  0.814944  0.185056  0.391218  1
  Zn  Zn5  1  0.185056  0.814944  0.608782  1
  Zn  Zn6  1  0.814944  0.185056  0.108782  1
  Zn  Zn7  1  0.185056  0.814944  0.891218  1
  Zn  Zn8  1  0.653460  0.346540  0.481310  1
  Zn  Zn9  1  0.346540  0.653460  0.518690  1
  Zn  Zn10  1  0.653460  0.346540  0.018690  1
  Zn  Zn11  1  0.346540  0.653460  0.981310  1
  Zn  Zn12  1  0.402957  0.597043  0.250000  1
  Zn  Zn13  1  0.597043  0.402957  0.750000  1
  Ge  Ge14  1  0.560095  0.439905  0.250000  1
  Ge  Ge15  1  0.439905  0.560095  0.750000  1
