# generated using pymatgen
data_Dy4OsRuC4
_symmetry_space_group_name_H-M   'P 1'
_cell_length_a   5.12579200
_cell_length_b   6.44494724
_cell_length_c   9.79290366
_cell_angle_alpha   89.86747521
_cell_angle_beta   90.00000000
_cell_angle_gamma   90.00000000
_symmetry_Int_Tables_number   1
_chemical_formula_structural   Dy4OsRuC4
_chemical_formula_sum   'Dy8 Os2 Ru2 C8'
_cell_volume   323.51220187
_cell_formula_units_Z   2
loop_
 _symmetry_equiv_pos_site_id
 _symmetry_equiv_pos_as_xyz
  1  'x, y, z'
loop_
 _atom_site_type_symbol
 _atom_site_label
 _atom_site_symmetry_multiplicity
 _atom_site_fract_x
 _atom_site_fract_y
 _atom_site_fract_z
 _atom_site_occupancy
  Dy  Dy0  1  0.250000  0.683948  0.552747  1
  Dy  Dy1  1  0.750000  0.316052  0.447253  1
  Dy  Dy2  1  0.750000  0.819696  0.053025  1
  Dy  Dy3  1  0.250000  0.180304  0.946975  1
  Dy  Dy4  1  0.250000  0.525896  0.216974  1
  Dy  Dy5  1  0.750000  0.474104  0.783026  1
  Dy  Dy6  1  0.750000  0.974923  0.719861  1
  Dy  Dy7  1  0.250000  0.025077  0.280139  1
  Os  Os8  1  0.750000  0.776522  0.365171  1
  Os  Os9  1  0.250000  0.223478  0.634829  1
  Ru  Ru10  1  0.250000  0.722668  0.865284  1
  Ru  Ru11  1  0.750000  0.277332  0.134716  1
  C  C12  1  0.250000  0.458723  0.756120  1
  C  C13  1  0.750000  0.541277  0.243880  1
  C  C14  1  0.750000  0.039900  0.259036  1
  C  C15  1  0.250000  0.960100  0.740964  1
  C  C16  1  0.250000  0.825970  0.053338  1
  C  C17  1  0.750000  0.174030  0.946662  1
  C  C18  1  0.750000  0.676250  0.552952  1
  C  C19  1  0.250000  0.323750  0.447048  1
