# generated using pymatgen
data_PrSc2Al7Cu2
_symmetry_space_group_name_H-M   'P 1'
_cell_length_a   8.98329634
_cell_length_b   8.98329714
_cell_length_c   8.98329649
_cell_angle_alpha   35.04821792
_cell_angle_beta   35.04821027
_cell_angle_gamma   35.04821909
_symmetry_Int_Tables_number   1
_chemical_formula_structural   PrSc2Al7Cu2
_chemical_formula_sum   'Pr1 Sc2 Al7 Cu2'
_cell_volume   213.48236654
_cell_formula_units_Z   1
loop_
 _symmetry_equiv_pos_site_id
 _symmetry_equiv_pos_as_xyz
  1  'x, y, z'
loop_
 _atom_site_type_symbol
 _atom_site_label
 _atom_site_symmetry_multiplicity
 _atom_site_fract_x
 _atom_site_fract_y
 _atom_site_fract_z
 _atom_site_occupancy
  Pr  Pr0  1  0.000000  0.000000  0.000000  1
  Sc  Sc1  1  0.856773  0.856773  0.856773  1
  Sc  Sc2  1  0.143227  0.143227  0.143227  1
  Al  Al3  1  0.414704  0.414704  0.924658  1
  Al  Al4  1  0.924658  0.414704  0.414704  1
  Al  Al5  1  0.414704  0.924658  0.414704  1
  Al  Al6  1  0.500000  0.500000  0.500000  1
  Al  Al7  1  0.585296  0.075342  0.585296  1
  Al  Al8  1  0.075342  0.585296  0.585296  1
  Al  Al9  1  0.585296  0.585296  0.075342  1
  Cu  Cu10  1  0.664981  0.664981  0.664981  1
  Cu  Cu11  1  0.335019  0.335019  0.335019  1
