# generated using pymatgen
data_TbPu7(BeSi3)4
_symmetry_space_group_name_H-M   'P 1'
_cell_length_a   7.83510000
_cell_length_b   7.83509994
_cell_length_c   8.03553500
_cell_angle_alpha   90.00000000
_cell_angle_beta   90.00000000
_cell_angle_gamma   120.00000868
_symmetry_Int_Tables_number   1
_chemical_formula_structural   TbPu7(BeSi3)4
_chemical_formula_sum   'Tb1 Pu7 Be4 Si12'
_cell_volume   427.20317848
_cell_formula_units_Z   1
loop_
 _symmetry_equiv_pos_site_id
 _symmetry_equiv_pos_as_xyz
  1  'x, y, z'
loop_
 _atom_site_type_symbol
 _atom_site_label
 _atom_site_symmetry_multiplicity
 _atom_site_fract_x
 _atom_site_fract_y
 _atom_site_fract_z
 _atom_site_occupancy
  Tb  Tb0  1  0.000000  0.000000  0.250000  1
  Pu  Pu1  1  0.000000  0.000000  0.750000  1
  Pu  Pu2  1  0.500579  0.499421  0.250000  1
  Pu  Pu3  1  0.500579  0.001158  0.250000  1
  Pu  Pu4  1  0.998842  0.499421  0.250000  1
  Pu  Pu5  1  0.499435  0.500565  0.750000  1
  Pu  Pu6  1  0.499435  0.998872  0.750000  1
  Pu  Pu7  1  0.001128  0.500565  0.750000  1
  Be  Be8  1  0.333333  0.666667  0.496263  1
  Be  Be9  1  0.666667  0.333333  0.501460  1
  Be  Be10  1  0.666667  0.333333  0.998540  1
  Be  Be11  1  0.333333  0.666667  0.003737  1
  Si  Si12  1  0.172087  0.827913  0.500951  1
  Si  Si13  1  0.172087  0.344172  0.500951  1
  Si  Si14  1  0.655828  0.827913  0.500951  1
  Si  Si15  1  0.827885  0.172115  0.501359  1
  Si  Si16  1  0.827885  0.655771  0.501359  1
  Si  Si17  1  0.344229  0.172115  0.501359  1
  Si  Si18  1  0.827885  0.172115  0.998641  1
  Si  Si19  1  0.827885  0.655771  0.998641  1
  Si  Si20  1  0.344229  0.172115  0.998641  1
  Si  Si21  1  0.172087  0.827913  0.999049  1
  Si  Si22  1  0.172087  0.344172  0.999049  1
  Si  Si23  1  0.655828  0.827913  0.999049  1
