# generated using pymatgen
data_Cs3RbCd2(BSe)18
_symmetry_space_group_name_H-M   'P 1'
_cell_length_a   10.18200130
_cell_length_b   10.89195556
_cell_length_c   11.35254375
_cell_angle_alpha   100.74832868
_cell_angle_beta   90.62668904
_cell_angle_gamma   115.68183786
_symmetry_Int_Tables_number   1
_chemical_formula_structural   Cs3RbCd2(BSe)18
_chemical_formula_sum   'Cs3 Rb1 Cd2 B18 Se18'
_cell_volume   1108.73690436
_cell_formula_units_Z   1
loop_
 _symmetry_equiv_pos_site_id
 _symmetry_equiv_pos_as_xyz
  1  'x, y, z'
loop_
 _atom_site_type_symbol
 _atom_site_label
 _atom_site_symmetry_multiplicity
 _atom_site_fract_x
 _atom_site_fract_y
 _atom_site_fract_z
 _atom_site_occupancy
  Cs  Cs0  1  0.792450  0.174062  0.002397  1
  Cs  Cs1  1  0.207436  0.825725  0.998119  1
  Cs  Cs2  1  0.174259  0.343385  0.509233  1
  Rb  Rb3  1  0.821794  0.654062  0.495466  1
  Cd  Cd4  1  0.322295  0.315944  0.080899  1
  Cd  Cd5  1  0.678444  0.684486  0.918490  1
  B  B6  1  0.513925  0.161346  0.551370  1
  B  B7  1  0.486047  0.838921  0.448533  1
  B  B8  1  0.658200  0.119268  0.585979  1
  B  B9  1  0.341968  0.881042  0.414197  1
  B  B10  1  0.487325  0.044203  0.648091  1
  B  B11  1  0.513060  0.956280  0.351980  1
  B  B12  1  0.342555  0.008941  0.538863  1
  B  B13  1  0.657549  0.990854  0.461193  1
  B  B14  1  0.423809  0.061649  0.406141  1
  B  B15  1  0.576556  0.938603  0.593761  1
  B  B16  1  0.617036  0.128675  0.435671  1
  B  B17  1  0.383635  0.871863  0.564507  1
  B  B18  1  0.743743  0.412027  0.710682  1
  B  B19  1  0.256618  0.589271  0.288211  1
  B  B20  1  0.255888  0.087797  0.779852  1
  B  B21  1  0.743155  0.909987  0.220200  1
  B  B22  1  0.565702  0.279781  0.262012  1
  B  B23  1  0.435302  0.720949  0.737866  1
  Se  Se24  1  0.552471  0.358617  0.625088  1
  Se  Se25  1  0.447923  0.642162  0.373720  1
  Se  Se26  1  0.830542  0.278890  0.692012  1
  Se  Se27  1  0.168295  0.721482  0.309665  1
  Se  Se28  1  0.449514  0.099300  0.819016  1
  Se  Se29  1  0.551245  0.902158  0.180983  1
  Se  Se30  1  0.168490  0.025614  0.609908  1
  Se  Se31  1  0.828800  0.967800  0.390457  1
  Se  Se32  1  0.364823  0.153437  0.290225  1
  Se  Se33  1  0.636243  0.845576  0.707965  1
  Se  Se34  1  0.735692  0.281015  0.348476  1
  Se  Se35  1  0.265315  0.721255  0.653073  1
  Se  Se36  1  0.860484  0.597774  0.808208  1
  Se  Se37  1  0.140828  0.405426  0.187396  1
  Se  Se38  1  0.138451  0.124448  0.902396  1
  Se  Se39  1  0.861386  0.875000  0.097574  1
  Se  Se40  1  0.599557  0.401209  0.148591  1
  Se  Se41  1  0.401189  0.599717  0.851537  1
