# generated using pymatgen
data_InGe3(Sb4Pt3)2
_symmetry_space_group_name_H-M   'P 1'
_cell_length_a   3.92247800
_cell_length_b   8.52341007
_cell_length_c   12.51007540
_cell_angle_alpha   97.46497667
_cell_angle_beta   90.00000000
_cell_angle_gamma   90.00000000
_symmetry_Int_Tables_number   1
_chemical_formula_structural   InGe3(Sb4Pt3)2
_chemical_formula_sum   'In1 Ge3 Sb8 Pt6'
_cell_volume   414.70307995
_cell_formula_units_Z   1
loop_
 _symmetry_equiv_pos_site_id
 _symmetry_equiv_pos_as_xyz
  1  'x, y, z'
loop_
 _atom_site_type_symbol
 _atom_site_label
 _atom_site_symmetry_multiplicity
 _atom_site_fract_x
 _atom_site_fract_y
 _atom_site_fract_z
 _atom_site_occupancy
  In  In0  1  0.500000  0.680019  0.188607  1
  Ge  Ge1  1  0.500000  0.322640  0.805242  1
  Ge  Ge2  1  0.500000  0.997260  0.142925  1
  Ge  Ge3  1  0.500000  0.659403  0.480111  1
  Sb  Sb4  1  0.500000  0.351031  0.522054  1
  Sb  Sb5  1  0.500000  0.019259  0.857360  1
  Sb  Sb6  1  0.000000  0.310185  0.050986  1
  Sb  Sb7  1  0.000000  0.975020  0.380764  1
  Sb  Sb8  1  0.000000  0.642673  0.720451  1
  Sb  Sb9  1  0.000000  0.687018  0.950671  1
  Sb  Sb10  1  0.000000  0.357275  0.280493  1
  Sb  Sb11  1  0.000000  0.021458  0.611765  1
  Pt  Pt12  1  0.500000  0.829162  0.663962  1
  Pt  Pt13  1  0.500000  0.490649  0.989591  1
  Pt  Pt14  1  0.500000  0.164081  0.327646  1
  Pt  Pt15  1  0.000000  0.329928  0.670825  1
  Pt  Pt16  1  0.000000  0.998734  0.006242  1
  Pt  Pt17  1  0.000000  0.664203  0.350307  1
