# generated using pymatgen
data_Sm5Ho3Cu3Si12Rh
_symmetry_space_group_name_H-M   'P 1'
_cell_length_a   8.06616700
_cell_length_b   8.06613438
_cell_length_c   8.26219800
_cell_angle_alpha   89.99992123
_cell_angle_beta   90.00050031
_cell_angle_gamma   120.00003953
_symmetry_Int_Tables_number   1
_chemical_formula_structural   Sm5Ho3Cu3Si12Rh
_chemical_formula_sum   'Sm5 Ho3 Cu3 Si12 Rh1'
_cell_volume   465.54184066
_cell_formula_units_Z   1
loop_
 _symmetry_equiv_pos_site_id
 _symmetry_equiv_pos_as_xyz
  1  'x, y, z'
loop_
 _atom_site_type_symbol
 _atom_site_label
 _atom_site_symmetry_multiplicity
 _atom_site_fract_x
 _atom_site_fract_y
 _atom_site_fract_z
 _atom_site_occupancy
  Sm  Sm0  1  0.999999  0.999999  0.250052  1
  Sm  Sm1  1  0.999999  0.999999  0.750148  1
  Sm  Sm2  1  0.500130  0.499866  0.248615  1
  Sm  Sm3  1  0.500130  0.000264  0.248615  1
  Sm  Sm4  1  0.999732  0.499865  0.248616  1
  Ho  Ho5  1  0.498296  0.501709  0.752176  1
  Ho  Ho6  1  0.498296  0.996587  0.752176  1
  Ho  Ho7  1  0.003419  0.501709  0.752177  1
  Cu  Cu8  1  0.333337  0.666672  0.501003  1
  Cu  Cu9  1  0.666668  0.333337  0.508081  1
  Cu  Cu10  1  0.666665  0.333330  0.993076  1
  Si  Si11  1  0.169303  0.830696  0.502680  1
  Si  Si12  1  0.169303  0.338608  0.502680  1
  Si  Si13  1  0.661397  0.830698  0.502680  1
  Si  Si14  1  0.830621  0.169380  0.502594  1
  Si  Si15  1  0.830622  0.661241  0.502594  1
  Si  Si16  1  0.338758  0.169379  0.502594  1
  Si  Si17  1  0.831760  0.168237  0.996575  1
  Si  Si18  1  0.831760  0.663521  0.996575  1
  Si  Si19  1  0.336482  0.168241  0.996575  1
  Si  Si20  1  0.168214  0.831785  0.998324  1
  Si  Si21  1  0.168214  0.336427  0.998324  1
  Si  Si22  1  0.663566  0.831783  0.998325  1
  Rh  Rh23  1  0.333332  0.666666  0.994744  1
