# generated using pymatgen
data_Tb3Lu2Bi3S
_symmetry_space_group_name_H-M   'P 1'
_cell_length_a   9.16201300
_cell_length_b   9.16201324
_cell_length_c   6.53357600
_cell_angle_alpha   90.00000000
_cell_angle_beta   90.00000000
_cell_angle_gamma   120.00000273
_symmetry_Int_Tables_number   1
_chemical_formula_structural   Tb3Lu2Bi3S
_chemical_formula_sum   'Tb6 Lu4 Bi6 S2'
_cell_volume   474.96694458
_cell_formula_units_Z   2
loop_
 _symmetry_equiv_pos_site_id
 _symmetry_equiv_pos_as_xyz
  1  'x, y, z'
loop_
 _atom_site_type_symbol
 _atom_site_label
 _atom_site_symmetry_multiplicity
 _atom_site_fract_x
 _atom_site_fract_y
 _atom_site_fract_z
 _atom_site_occupancy
  Tb  Tb0  1  0.752683  0.752683  0.250000  1
  Tb  Tb1  1  0.247317  0.000000  0.250000  1
  Tb  Tb2  1  0.000000  0.247317  0.250000  1
  Tb  Tb3  1  0.247317  0.247317  0.750000  1
  Tb  Tb4  1  0.752683  0.000000  0.750000  1
  Tb  Tb5  1  0.000000  0.752683  0.750000  1
  Lu  Lu6  1  0.666667  0.333333  0.500000  1
  Lu  Lu7  1  0.333333  0.666667  0.500000  1
  Lu  Lu8  1  0.333333  0.666667  0.000000  1
  Lu  Lu9  1  0.666667  0.333333  0.000000  1
  Bi  Bi10  1  0.398200  0.398200  0.250000  1
  Bi  Bi11  1  0.601800  0.000000  0.250000  1
  Bi  Bi12  1  0.000000  0.601800  0.250000  1
  Bi  Bi13  1  0.601800  0.601800  0.750000  1
  Bi  Bi14  1  0.398200  0.000000  0.750000  1
  Bi  Bi15  1  0.000000  0.398200  0.750000  1
  S  S16  1  0.000000  0.000000  0.500000  1
  S  S17  1  0.000000  0.000000  0.000000  1
