# generated using pymatgen
data_FeHgPt4(PbO7)2
_symmetry_space_group_name_H-M   'P 1'
_cell_length_a   7.25863608
_cell_length_b   7.15374816
_cell_length_c   7.25863596
_cell_angle_alpha   60.41000696
_cell_angle_beta   60.94536302
_cell_angle_gamma   60.41000577
_symmetry_Int_Tables_number   1
_chemical_formula_structural   FeHgPt4(PbO7)2
_chemical_formula_sum   'Fe1 Hg1 Pt4 Pb2 O14'
_cell_volume   270.04622999
_cell_formula_units_Z   1
loop_
 _symmetry_equiv_pos_site_id
 _symmetry_equiv_pos_as_xyz
  1  'x, y, z'
loop_
 _atom_site_type_symbol
 _atom_site_label
 _atom_site_symmetry_multiplicity
 _atom_site_fract_x
 _atom_site_fract_y
 _atom_site_fract_z
 _atom_site_occupancy
  Fe  Fe0  1  0.125000  0.125000  0.125000  1
  Hg  Hg1  1  0.125000  0.625000  0.125000  1
  Pt  Pt2  1  0.625000  0.625000  0.125000  1
  Pt  Pt3  1  0.625000  0.625000  0.625000  1
  Pt  Pt4  1  0.625000  0.125000  0.625000  1
  Pt  Pt5  1  0.125000  0.625000  0.625000  1
  Pb  Pb6  1  0.625000  0.125000  0.125000  1
  Pb  Pb7  1  0.125000  0.125000  0.625000  1
  O  O8  1  0.712583  0.285799  0.290158  1
  O  O9  1  0.710710  0.288546  0.710710  1
  O  O10  1  0.995780  0.029270  0.995780  1
  O  O11  1  0.286631  0.726085  0.286631  1
  O  O12  1  0.705545  0.715550  0.290529  1
  O  O13  1  0.959471  0.534450  0.544455  1
  O  O14  1  0.290529  0.715550  0.705545  1
  O  O15  1  0.254220  0.220730  0.254220  1
  O  O16  1  0.963369  0.523915  0.963369  1
  O  O17  1  0.539290  0.961454  0.539290  1
  O  O18  1  0.544455  0.534450  0.959471  1
  O  O19  1  0.959842  0.964201  0.537417  1
  O  O20  1  0.537417  0.964201  0.959842  1
  O  O21  1  0.290158  0.285799  0.712583  1
