# generated using pymatgen
data_Zr3V2Ga3N
_symmetry_space_group_name_H-M   'P 1'
_cell_length_a   7.86795200
_cell_length_b   7.86795137
_cell_length_c   5.32821200
_cell_angle_alpha   90.00000000
_cell_angle_beta   90.00000000
_cell_angle_gamma   120.00001107
_symmetry_Int_Tables_number   1
_chemical_formula_structural   Zr3V2Ga3N
_chemical_formula_sum   'Zr6 V4 Ga6 N2'
_cell_volume   285.65080228
_cell_formula_units_Z   2
loop_
 _symmetry_equiv_pos_site_id
 _symmetry_equiv_pos_as_xyz
  1  'x, y, z'
loop_
 _atom_site_type_symbol
 _atom_site_label
 _atom_site_symmetry_multiplicity
 _atom_site_fract_x
 _atom_site_fract_y
 _atom_site_fract_z
 _atom_site_occupancy
  Zr  Zr0  1  0.234207  0.000000  0.250000  1
  Zr  Zr1  1  0.000000  0.234207  0.250000  1
  Zr  Zr2  1  0.765793  0.765793  0.250000  1
  Zr  Zr3  1  0.765793  0.000000  0.750000  1
  Zr  Zr4  1  0.000000  0.765793  0.750000  1
  Zr  Zr5  1  0.234207  0.234207  0.750000  1
  V  V6  1  0.666667  0.333333  0.000000  1
  V  V7  1  0.333333  0.666667  0.000000  1
  V  V8  1  0.666667  0.333333  0.500000  1
  V  V9  1  0.333333  0.666667  0.500000  1
  Ga  Ga10  1  0.586407  0.000000  0.250000  1
  Ga  Ga11  1  0.000000  0.586407  0.250000  1
  Ga  Ga12  1  0.413593  0.413593  0.250000  1
  Ga  Ga13  1  0.413593  0.000000  0.750000  1
  Ga  Ga14  1  0.000000  0.413593  0.750000  1
  Ga  Ga15  1  0.586407  0.586407  0.750000  1
  N  N16  1  0.000000  0.000000  0.000000  1
  N  N17  1  0.000000  0.000000  0.500000  1
