# generated using pymatgen
data_Ta9Nb3Co8(OsC)4
_symmetry_space_group_name_H-M   'P 1'
_cell_length_a   8.12992278
_cell_length_b   8.13232453
_cell_length_c   8.13006728
_cell_angle_alpha   59.99662995
_cell_angle_beta   60.02044547
_cell_angle_gamma   60.01433786
_symmetry_Int_Tables_number   1
_chemical_formula_structural   Ta9Nb3Co8(OsC)4
_chemical_formula_sum   'Ta9 Nb3 Co8 Os4 C4'
_cell_volume   380.17478388
_cell_formula_units_Z   1
loop_
 _symmetry_equiv_pos_site_id
 _symmetry_equiv_pos_as_xyz
  1  'x, y, z'
loop_
 _atom_site_type_symbol
 _atom_site_label
 _atom_site_symmetry_multiplicity
 _atom_site_fract_x
 _atom_site_fract_y
 _atom_site_fract_z
 _atom_site_occupancy
  Ta  Ta0  1  0.693978  0.306238  0.693737  1
  Ta  Ta1  1  0.944468  0.555959  0.556145  1
  Ta  Ta2  1  0.555764  0.943899  0.944052  1
  Ta  Ta3  1  0.943863  0.556140  0.943481  1
  Ta  Ta4  1  0.555904  0.555996  0.944365  1
  Ta  Ta5  1  0.944493  0.943904  0.555711  1
  Ta  Ta6  1  0.693790  0.693808  0.306512  1
  Ta  Ta7  1  0.306246  0.694298  0.693942  1
  Ta  Ta8  1  0.694273  0.305553  0.306047  1
  Nb  Nb9  1  0.307246  0.306604  0.692985  1
  Nb  Nb10  1  0.557018  0.943013  0.557389  1
  Nb  Nb11  1  0.307086  0.693136  0.306921  1
  Co  Co12  1  0.327810  0.327475  0.327139  1
  Co  Co13  1  0.233375  0.921818  0.922608  1
  Co  Co14  1  0.921393  0.234607  0.921762  1
  Co  Co15  1  0.922324  0.921955  0.233544  1
  Co  Co16  1  0.327842  0.016610  0.327935  1
  Co  Co17  1  0.327731  0.328201  0.016450  1
  Co  Co18  1  0.015395  0.328241  0.327930  1
  Co  Co19  1  0.921408  0.922059  0.921741  1
  Os  Os20  1  0.123716  0.125736  0.125500  1
  Os  Os21  1  0.624872  0.125568  0.123831  1
  Os  Os22  1  0.124196  0.624999  0.124382  1
  Os  Os23  1  0.123143  0.125079  0.624942  1
  C  C24  1  0.625549  0.623494  0.625405  1
  C  C25  1  0.123493  0.626127  0.626233  1
  C  C26  1  0.626966  0.124855  0.625091  1
  C  C27  1  0.626658  0.624631  0.124221  1
