# generated using pymatgen
data_Eu2Fe2P7Ru10
_symmetry_space_group_name_H-M   'P 1'
_cell_length_a   9.39461936
_cell_length_b   9.40026701
_cell_length_c   3.89202300
_cell_angle_alpha   90.00000000
_cell_angle_beta   90.00000000
_cell_angle_gamma   120.20458778
_symmetry_Int_Tables_number   1
_chemical_formula_structural   Eu2Fe2P7Ru10
_chemical_formula_sum   'Eu2 Fe2 P7 Ru10'
_cell_volume   297.04783145
_cell_formula_units_Z   1
loop_
 _symmetry_equiv_pos_site_id
 _symmetry_equiv_pos_as_xyz
  1  'x, y, z'
loop_
 _atom_site_type_symbol
 _atom_site_label
 _atom_site_symmetry_multiplicity
 _atom_site_fract_x
 _atom_site_fract_y
 _atom_site_fract_z
 _atom_site_occupancy
  Eu  Eu0  1  0.666899  0.333305  0.000000  1
  Eu  Eu1  1  0.334176  0.665531  0.500000  1
  Fe  Fe2  1  0.842263  0.732488  0.000000  1
  Fe  Fe3  1  0.890763  0.158207  0.000000  1
  P  P4  1  0.308593  0.887452  0.000000  1
  P  P5  1  0.590265  0.696270  0.000000  1
  P  P6  1  0.105508  0.411916  0.000000  1
  P  P7  1  0.395846  0.285459  0.500000  1
  P  P8  1  0.886071  0.605179  0.500000  1
  P  P9  1  0.720721  0.112993  0.500000  1
  P  P10  1  0.990003  0.996472  0.000000  1
  Ru  Ru11  1  0.056555  0.638670  0.000000  1
  Ru  Ru12  1  0.584817  0.942909  0.000000  1
  Ru  Ru13  1  0.361906  0.425184  0.000000  1
  Ru  Ru14  1  0.265496  0.108584  0.000000  1
  Ru  Ru15  1  0.437669  0.046392  0.500000  1
  Ru  Ru16  1  0.615740  0.565007  0.500000  1
  Ru  Ru17  1  0.949276  0.385529  0.500000  1
  Ru  Ru18  1  0.083153  0.879969  0.500000  1
  Ru  Ru19  1  0.798241  0.913156  0.500000  1
  Ru  Ru20  1  0.116040  0.209328  0.500000  1
