# generated using pymatgen
data_Ta2Mn4Nb3P4
_symmetry_space_group_name_H-M   'P 1'
_cell_length_a   7.24139674
_cell_length_b   7.24139609
_cell_length_c   7.21495749
_cell_angle_alpha   93.58759282
_cell_angle_beta   93.48864128
_cell_angle_gamma   151.28563981
_symmetry_Int_Tables_number   1
_chemical_formula_structural   Ta2Mn4Nb3P4
_chemical_formula_sum   'Ta2 Mn4 Nb3 P4'
_cell_volume   176.04998570
_cell_formula_units_Z   1
loop_
 _symmetry_equiv_pos_site_id
 _symmetry_equiv_pos_as_xyz
  1  'x, y, z'
loop_
 _atom_site_type_symbol
 _atom_site_label
 _atom_site_symmetry_multiplicity
 _atom_site_fract_x
 _atom_site_fract_y
 _atom_site_fract_z
 _atom_site_occupancy
  Ta  Ta0  1  0.801065  0.129232  0.930297  1
  Ta  Ta1  1  0.499551  0.500290  0.999841  1
  Mn  Mn2  1  0.926295  0.399542  0.325837  1
  Mn  Mn3  1  0.074516  0.600695  0.675211  1
  Mn  Mn4  1  0.599804  0.926821  0.526623  1
  Mn  Mn5  1  0.400349  0.072806  0.473156  1
  Nb  Nb6  1  0.129296  0.198760  0.328056  1
  Nb  Nb7  1  0.870802  0.801510  0.672312  1
  Nb  Nb8  1  0.198469  0.870242  0.068711  1
  P  P9  1  0.556487  0.240479  0.796967  1
  P  P10  1  0.240457  0.443500  0.683956  1
  P  P11  1  0.759732  0.556851  0.316585  1
  P  P12  1  0.443177  0.759270  0.202447  1
