# generated using pymatgen
data_Ho3Er(ScIr)4
_symmetry_space_group_name_H-M   'P 1'
_cell_length_a   4.26896900
_cell_length_b   7.12405918
_cell_length_c   8.62012079
_cell_angle_alpha   90.06655893
_cell_angle_beta   90.00000000
_cell_angle_gamma   90.00000000
_symmetry_Int_Tables_number   1
_chemical_formula_structural   Ho3Er(ScIr)4
_chemical_formula_sum   'Ho3 Er1 Sc4 Ir4'
_cell_volume   262.15827944
_cell_formula_units_Z   1
loop_
 _symmetry_equiv_pos_site_id
 _symmetry_equiv_pos_as_xyz
  1  'x, y, z'
loop_
 _atom_site_type_symbol
 _atom_site_label
 _atom_site_symmetry_multiplicity
 _atom_site_fract_x
 _atom_site_fract_y
 _atom_site_fract_z
 _atom_site_occupancy
  Ho  Ho0  1  0.250000  0.980970  0.327696  1
  Ho  Ho1  1  0.250000  0.481020  0.171728  1
  Ho  Ho2  1  0.750000  0.019381  0.671994  1
  Er  Er3  1  0.750000  0.518164  0.828015  1
  Sc  Sc4  1  0.250000  0.359682  0.565713  1
  Sc  Sc5  1  0.250000  0.857821  0.934280  1
  Sc  Sc6  1  0.750000  0.641801  0.434175  1
  Sc  Sc7  1  0.750000  0.141008  0.066307  1
  Ir  Ir8  1  0.250000  0.240176  0.892629  1
  Ir  Ir9  1  0.250000  0.741075  0.607180  1
  Ir  Ir10  1  0.750000  0.759017  0.107645  1
  Ir  Ir11  1  0.750000  0.259886  0.392637  1
