# generated using pymatgen
data_Sm3HoAl18(RePd2)2
_symmetry_space_group_name_H-M   'P 1'
_cell_length_a   7.63050257
_cell_length_b   7.63951343
_cell_length_c   9.57401800
_cell_angle_alpha   90.00000000
_cell_angle_beta   90.00000000
_cell_angle_gamma   118.52122658
_symmetry_Int_Tables_number   1
_chemical_formula_structural   Sm3HoAl18(RePd2)2
_chemical_formula_sum   'Sm3 Ho1 Al18 Re2 Pd4'
_cell_volume   490.37033438
_cell_formula_units_Z   1
loop_
 _symmetry_equiv_pos_site_id
 _symmetry_equiv_pos_as_xyz
  1  'x, y, z'
loop_
 _atom_site_type_symbol
 _atom_site_label
 _atom_site_symmetry_multiplicity
 _atom_site_fract_x
 _atom_site_fract_y
 _atom_site_fract_z
 _atom_site_occupancy
  Sm  Sm0  1  0.994904  0.680705  0.250000  1
  Sm  Sm1  1  0.006432  0.319009  0.750000  1
  Sm  Sm2  1  0.680480  0.994169  0.250000  1
  Ho  Ho3  1  0.315869  0.005936  0.750000  1
  Al  Al4  1  0.135528  0.134916  0.250000  1
  Al  Al5  1  0.866149  0.865473  0.750000  1
  Al  Al6  1  0.003938  0.335314  0.076169  1
  Al  Al7  1  0.997994  0.665949  0.922566  1
  Al  Al8  1  0.997994  0.665949  0.577434  1
  Al  Al9  1  0.335235  0.003339  0.425536  1
  Al  Al10  1  0.003938  0.335314  0.423831  1
  Al  Al11  1  0.663127  0.996449  0.577503  1
  Al  Al12  1  0.663127  0.996449  0.922497  1
  Al  Al13  1  0.335235  0.003339  0.074464  1
  Al  Al14  1  0.330479  0.329149  0.547220  1
  Al  Al15  1  0.670024  0.669824  0.454910  1
  Al  Al16  1  0.670024  0.669824  0.045090  1
  Al  Al17  1  0.330479  0.329149  0.952780  1
  Al  Al18  1  0.345781  0.552816  0.250000  1
  Al  Al19  1  0.652748  0.445036  0.750000  1
  Al  Al20  1  0.552765  0.345199  0.250000  1
  Al  Al21  1  0.446752  0.655983  0.750000  1
  Re  Re22  1  0.999981  0.000307  0.999462  1
  Re  Re23  1  0.999981  0.000307  0.500538  1
  Pd  Pd24  1  0.672614  0.328083  0.999688  1
  Pd  Pd25  1  0.327902  0.671963  0.999723  1
  Pd  Pd26  1  0.327902  0.671963  0.500277  1
  Pd  Pd27  1  0.672614  0.328083  0.500312  1
