# generated using pymatgen
data_Li2PrDySi4
_symmetry_space_group_name_H-M   'P 1'
_cell_length_a   3.84787100
_cell_length_b   7.69764542
_cell_length_c   10.36038816
_cell_angle_alpha   89.78511021
_cell_angle_beta   90.00000000
_cell_angle_gamma   90.00000000
_symmetry_Int_Tables_number   1
_chemical_formula_structural   Li2PrDySi4
_chemical_formula_sum   'Li4 Pr2 Dy2 Si8'
_cell_volume   306.86784146
_cell_formula_units_Z   2
loop_
 _symmetry_equiv_pos_site_id
 _symmetry_equiv_pos_as_xyz
  1  'x, y, z'
loop_
 _atom_site_type_symbol
 _atom_site_label
 _atom_site_symmetry_multiplicity
 _atom_site_fract_x
 _atom_site_fract_y
 _atom_site_fract_z
 _atom_site_occupancy
  Li  Li0  1  0.250000  0.995357  0.388789  1
  Li  Li1  1  0.750000  0.004643  0.611211  1
  Li  Li2  1  0.250000  0.490643  0.107018  1
  Li  Li3  1  0.750000  0.509357  0.892982  1
  Pr  Pr4  1  0.250000  0.640950  0.636042  1
  Pr  Pr5  1  0.750000  0.359050  0.363958  1
  Dy  Dy6  1  0.250000  0.134607  0.865394  1
  Dy  Dy7  1  0.750000  0.865393  0.134606  1
  Si  Si8  1  0.750000  0.264916  0.063985  1
  Si  Si9  1  0.250000  0.735084  0.936015  1
  Si  Si10  1  0.750000  0.777624  0.424154  1
  Si  Si11  1  0.250000  0.222376  0.575846  1
  Si  Si12  1  0.750000  0.844413  0.826683  1
  Si  Si13  1  0.250000  0.155587  0.173317  1
  Si  Si14  1  0.750000  0.332979  0.683869  1
  Si  Si15  1  0.250000  0.667021  0.316131  1
