# generated using pymatgen
data_ErTmLu2(FeSi2)2
_symmetry_space_group_name_H-M   'P 1'
_cell_length_a   5.53460512
_cell_length_b   5.53460503
_cell_length_c   9.79825600
_cell_angle_alpha   63.44118155
_cell_angle_beta   63.44118193
_cell_angle_gamma   43.56126631
_symmetry_Int_Tables_number   1
_chemical_formula_structural   ErTmLu2(FeSi2)2
_chemical_formula_sum   'Er1 Tm1 Lu2 Fe2 Si4'
_cell_volume   181.28056904
_cell_formula_units_Z   1
loop_
 _symmetry_equiv_pos_site_id
 _symmetry_equiv_pos_as_xyz
  1  'x, y, z'
loop_
 _atom_site_type_symbol
 _atom_site_label
 _atom_site_symmetry_multiplicity
 _atom_site_fract_x
 _atom_site_fract_y
 _atom_site_fract_z
 _atom_site_occupancy
  Er  Er0  1  0.811323  0.811323  0.108896  1
  Tm  Tm1  1  0.188539  0.188539  0.890775  1
  Lu  Lu2  1  0.999154  0.999154  0.329033  1
  Lu  Lu3  1  0.000796  0.000796  0.671071  1
  Fe  Fe4  1  0.729960  0.729960  0.624679  1
  Fe  Fe5  1  0.270093  0.270093  0.375498  1
  Si  Si6  1  0.650172  0.650172  0.437286  1
  Si  Si7  1  0.349671  0.349671  0.562979  1
  Si  Si8  1  0.502489  0.502489  0.126810  1
  Si  Si9  1  0.497803  0.497803  0.872972  1
