# generated using pymatgen
data_Tb8Hf2Zr10Si15Sn
_symmetry_space_group_name_H-M   'P 1'
_cell_length_a   7.36449117
_cell_length_b   7.39218529
_cell_length_c   13.55969816
_cell_angle_alpha   89.78053263
_cell_angle_beta   90.01762800
_cell_angle_gamma   89.84256593
_symmetry_Int_Tables_number   1
_chemical_formula_structural   Tb8Hf2Zr10Si15Sn
_chemical_formula_sum   'Tb8 Hf2 Zr10 Si15 Sn1'
_cell_volume   738.17743363
_cell_formula_units_Z   1
loop_
 _symmetry_equiv_pos_site_id
 _symmetry_equiv_pos_as_xyz
  1  'x, y, z'
loop_
 _atom_site_type_symbol
 _atom_site_label
 _atom_site_symmetry_multiplicity
 _atom_site_fract_x
 _atom_site_fract_y
 _atom_site_fract_z
 _atom_site_occupancy
  Tb  Tb0  1  0.989191  0.345673  0.211509  1
  Tb  Tb1  1  0.004083  0.655199  0.715386  1
  Tb  Tb2  1  0.147600  0.505619  0.469771  1
  Tb  Tb3  1  0.505392  0.843983  0.033647  1
  Tb  Tb4  1  0.845994  0.503124  0.963179  1
  Tb  Tb5  1  0.498279  0.152504  0.539705  1
  Tb  Tb6  1  0.345301  0.996234  0.785666  1
  Tb  Tb7  1  0.660737  0.997368  0.284141  1
  Hf  Hf8  1  0.993801  0.148084  0.626659  1
  Hf  Hf9  1  0.003606  0.850341  0.123876  1
  Zr  Zr10  1  0.174624  0.174933  0.999031  1
  Zr  Zr11  1  0.825241  0.826780  0.501185  1
  Zr  Zr12  1  0.325602  0.681600  0.248126  1
  Zr  Zr13  1  0.675318  0.324403  0.750212  1
  Zr  Zr14  1  0.140995  0.988239  0.374018  1
  Zr  Zr15  1  0.853179  0.003502  0.874050  1
  Zr  Zr16  1  0.503820  0.649168  0.624954  1
  Zr  Zr17  1  0.351546  0.495134  0.875298  1
  Zr  Zr18  1  0.496347  0.351976  0.119391  1
  Zr  Zr19  1  0.659286  0.514782  0.379152  1
  Si  Si20  1  0.638076  0.706166  0.816423  1
  Si  Si21  1  0.204967  0.864851  0.567864  1
  Si  Si22  1  0.138416  0.793687  0.933599  1
  Si  Si23  1  0.795287  0.136160  0.065120  1
  Si  Si24  1  0.861270  0.205751  0.434949  1
  Si  Si25  1  0.292695  0.361253  0.683693  1
  Si  Si26  1  0.705738  0.638510  0.182682  1
  Si  Si27  1  0.293754  0.042849  0.181487  1
  Si  Si28  1  0.706384  0.948952  0.687338  1
  Si  Si29  1  0.448768  0.797441  0.436776  1
  Si  Si30  1  0.203480  0.551500  0.063470  1
  Si  Si31  1  0.550557  0.203379  0.935051  1
  Si  Si32  1  0.794595  0.447951  0.565879  1
  Si  Si33  1  0.050613  0.294415  0.812688  1
  Si  Si34  1  0.951601  0.702817  0.311156  1
  Sn  Sn35  1  0.363854  0.295672  0.322868  1
