# generated using pymatgen
data_PrY(CrN3)2
_symmetry_space_group_name_H-M   'P 1'
_cell_length_a   7.06474181
_cell_length_b   7.06474173
_cell_length_c   5.90482634
_cell_angle_alpha   77.79958281
_cell_angle_beta   77.79957786
_cell_angle_gamma   87.14118963
_symmetry_Int_Tables_number   1
_chemical_formula_structural   PrY(CrN3)2
_chemical_formula_sum   'Pr2 Y2 Cr4 N12'
_cell_volume   281.54684483
_cell_formula_units_Z   2
loop_
 _symmetry_equiv_pos_site_id
 _symmetry_equiv_pos_as_xyz
  1  'x, y, z'
loop_
 _atom_site_type_symbol
 _atom_site_label
 _atom_site_symmetry_multiplicity
 _atom_site_fract_x
 _atom_site_fract_y
 _atom_site_fract_z
 _atom_site_occupancy
  Pr  Pr0  1  0.330444  0.669556  0.750000  1
  Pr  Pr1  1  0.669556  0.330444  0.250000  1
  Y  Y2  1  0.090724  0.909276  0.250000  1
  Y  Y3  1  0.909276  0.090724  0.750000  1
  Cr  Cr4  1  0.375277  0.198493  0.762006  1
  Cr  Cr5  1  0.624723  0.801507  0.237994  1
  Cr  Cr6  1  0.801507  0.624723  0.737994  1
  Cr  Cr7  1  0.198493  0.375277  0.262006  1
  N  N8  1  0.993911  0.779673  0.651179  1
  N  N9  1  0.873697  0.401285  0.830409  1
  N  N10  1  0.779673  0.993911  0.151179  1
  N  N11  1  0.126303  0.598715  0.169591  1
  N  N12  1  0.006089  0.220327  0.348821  1
  N  N13  1  0.220327  0.006089  0.848821  1
  N  N14  1  0.598715  0.126303  0.669591  1
  N  N15  1  0.630340  0.674726  0.993324  1
  N  N16  1  0.369660  0.325274  0.006676  1
  N  N17  1  0.401285  0.873697  0.330409  1
  N  N18  1  0.674726  0.630340  0.493324  1
  N  N19  1  0.325274  0.369660  0.506676  1
