# generated using pymatgen
data_Lu6Sc4(SnSb)3
_symmetry_space_group_name_H-M   'P 1'
_cell_length_a   8.66494900
_cell_length_b   8.66494929
_cell_length_c   6.11235400
_cell_angle_alpha   90.00000000
_cell_angle_beta   90.00000000
_cell_angle_gamma   120.00000272
_symmetry_Int_Tables_number   1
_chemical_formula_structural   Lu6Sc4(SnSb)3
_chemical_formula_sum   'Lu6 Sc4 Sn3 Sb3'
_cell_volume   397.43961612
_cell_formula_units_Z   1
loop_
 _symmetry_equiv_pos_site_id
 _symmetry_equiv_pos_as_xyz
  1  'x, y, z'
loop_
 _atom_site_type_symbol
 _atom_site_label
 _atom_site_symmetry_multiplicity
 _atom_site_fract_x
 _atom_site_fract_y
 _atom_site_fract_z
 _atom_site_occupancy
  Lu  Lu0  1  0.760655  0.760655  0.750000  1
  Lu  Lu1  1  0.239345  0.000000  0.750000  1
  Lu  Lu2  1  0.000000  0.239345  0.750000  1
  Lu  Lu3  1  0.238942  0.238942  0.250000  1
  Lu  Lu4  1  0.761058  0.000000  0.250000  1
  Lu  Lu5  1  0.000000  0.761058  0.250000  1
  Sc  Sc6  1  0.666667  0.333333  0.998913  1
  Sc  Sc7  1  0.333333  0.666667  0.998913  1
  Sc  Sc8  1  0.333333  0.666667  0.501087  1
  Sc  Sc9  1  0.666667  0.333333  0.501087  1
  Sn  Sn10  1  0.602399  0.602399  0.250000  1
  Sn  Sn11  1  0.397601  0.000000  0.250000  1
  Sn  Sn12  1  0.000000  0.397601  0.250000  1
  Sb  Sb13  1  0.397234  0.397234  0.750000  1
  Sb  Sb14  1  0.602766  0.000000  0.750000  1
  Sb  Sb15  1  0.000000  0.602766  0.750000  1
