# generated using pymatgen
data_Ba3CoP6Os5
_symmetry_space_group_name_H-M   'P 1'
_cell_length_a   8.86562799
_cell_length_b   8.87285991
_cell_length_c   8.87286199
_cell_angle_alpha   153.63239317
_cell_angle_beta   91.40056648
_cell_angle_gamma   94.57016750
_symmetry_Int_Tables_number   1
_chemical_formula_structural   Ba3CoP6Os5
_chemical_formula_sum   'Ba3 Co1 P6 Os5'
_cell_volume   301.67667955
_cell_formula_units_Z   1
loop_
 _symmetry_equiv_pos_site_id
 _symmetry_equiv_pos_as_xyz
  1  'x, y, z'
loop_
 _atom_site_type_symbol
 _atom_site_label
 _atom_site_symmetry_multiplicity
 _atom_site_fract_x
 _atom_site_fract_y
 _atom_site_fract_z
 _atom_site_occupancy
  Ba  Ba0  1  0.332967  0.332739  0.000228  1
  Ba  Ba1  1  0.664845  0.667166  0.997680  1
  Ba  Ba2  1  0.000522  0.000228  0.000294  1
  Co  Co3  1  0.921251  0.166514  0.754737  1
  P  P4  1  0.321650  0.666333  0.655317  1
  P  P5  1  0.680395  0.336715  0.343680  1
  P  P6  1  0.981720  0.325377  0.656343  1
  P  P7  1  0.341631  0.997266  0.344365  1
  P  P8  1  0.013470  0.666450  0.347020  1
  P  P9  1  0.663101  0.007731  0.655370  1
  Os  Os10  1  0.585357  0.837443  0.747913  1
  Os  Os11  1  0.244483  0.495839  0.748643  1
  Os  Os12  1  0.754879  0.506204  0.248674  1
  Os  Os13  1  0.076889  0.827269  0.249620  1
  Os  Os14  1  0.416839  0.166725  0.250116  1
