# generated using pymatgen
data_Nd3C2Br3
_symmetry_space_group_name_H-M   'P 1'
_cell_length_a   10.15910900
_cell_length_b   10.15910962
_cell_length_c   16.82704200
_cell_angle_alpha   90.00000000
_cell_angle_beta   90.00000000
_cell_angle_gamma   112.11156877
_symmetry_Int_Tables_number   1
_chemical_formula_structural   Nd3C2Br3
_chemical_formula_sum   'Nd24 C16 Br24'
_cell_volume   1608.94897645
_cell_formula_units_Z   8
loop_
 _symmetry_equiv_pos_site_id
 _symmetry_equiv_pos_as_xyz
  1  'x, y, z'
loop_
 _atom_site_type_symbol
 _atom_site_label
 _atom_site_symmetry_multiplicity
 _atom_site_fract_x
 _atom_site_fract_y
 _atom_site_fract_z
 _atom_site_occupancy
  Nd  Nd0  1  0.859153  0.114695  0.004332  1
  Nd  Nd1  1  0.390082  0.677311  0.017540  1
  Nd  Nd2  1  0.015127  0.549970  0.103328  1
  Nd  Nd3  1  0.746215  0.776867  0.105332  1
  Nd  Nd4  1  0.477247  0.988574  0.124817  1
  Nd  Nd5  1  0.376856  0.623143  0.250000  1
  Nd  Nd6  1  0.166219  0.833780  0.250000  1
  Nd  Nd7  1  0.011425  0.522752  0.375183  1
  Nd  Nd8  1  0.223134  0.253785  0.394669  1
  Nd  Nd9  1  0.450030  0.984872  0.396672  1
  Nd  Nd10  1  0.322689  0.609917  0.482461  1
  Nd  Nd11  1  0.885304  0.140846  0.495668  1
  Nd  Nd12  1  0.140846  0.885304  0.504332  1
  Nd  Nd13  1  0.609917  0.322689  0.517540  1
  Nd  Nd14  1  0.984872  0.450030  0.603328  1
  Nd  Nd15  1  0.253785  0.223134  0.605331  1
  Nd  Nd16  1  0.522752  0.011425  0.624817  1
  Nd  Nd17  1  0.833780  0.166219  0.750000  1
  Nd  Nd18  1  0.623143  0.376856  0.750000  1
  Nd  Nd19  1  0.988574  0.477247  0.875183  1
  Nd  Nd20  1  0.776867  0.746215  0.894669  1
  Nd  Nd21  1  0.549970  0.015127  0.896672  1
  Nd  Nd22  1  0.677311  0.390082  0.982461  1
  Nd  Nd23  1  0.114695  0.859153  0.995668  1
  C  C24  1  0.859698  0.663641  0.024932  1
  C  C25  1  0.600517  0.913947  0.032810  1
  C  C26  1  0.226379  0.784388  0.094058  1
  C  C27  1  0.287291  0.725265  0.150448  1
  C  C28  1  0.274735  0.712708  0.349552  1
  C  C29  1  0.215612  0.773622  0.405942  1
  C  C30  1  0.086053  0.399482  0.467190  1
  C  C31  1  0.336359  0.140302  0.475068  1
  C  C32  1  0.140302  0.336359  0.524931  1
  C  C33  1  0.399482  0.086053  0.532809  1
  C  C34  1  0.773622  0.215612  0.594058  1
  C  C35  1  0.712708  0.274735  0.650448  1
  C  C36  1  0.725265  0.287291  0.849552  1
  C  C37  1  0.784388  0.226379  0.905942  1
  C  C38  1  0.913947  0.600517  0.967191  1
  C  C39  1  0.663641  0.859698  0.975068  1
  Br  Br40  1  0.144995  0.381503  0.003398  1
  Br  Br41  1  0.505244  0.492177  0.116414  1
  Br  Br42  1  0.754759  0.269021  0.131154  1
  Br  Br43  1  0.024321  0.017092  0.131507  1
  Br  Br44  1  0.864482  0.630199  0.241902  1
  Br  Br45  1  0.100758  0.364915  0.240982  1
  Br  Br46  1  0.635086  0.899242  0.259018  1
  Br  Br47  1  0.369801  0.135517  0.258098  1
  Br  Br48  1  0.982908  0.975680  0.368493  1
  Br  Br49  1  0.730979  0.245241  0.368846  1
  Br  Br50  1  0.507824  0.494757  0.383586  1
  Br  Br51  1  0.618498  0.855006  0.496602  1
  Br  Br52  1  0.855006  0.618498  0.503398  1
  Br  Br53  1  0.494757  0.507824  0.616414  1
  Br  Br54  1  0.245241  0.730979  0.631154  1
  Br  Br55  1  0.975680  0.982908  0.631507  1
  Br  Br56  1  0.135517  0.369801  0.741902  1
  Br  Br57  1  0.899242  0.635086  0.740982  1
  Br  Br58  1  0.364915  0.100758  0.759018  1
  Br  Br59  1  0.630199  0.864482  0.758098  1
  Br  Br60  1  0.017092  0.024321  0.868493  1
  Br  Br61  1  0.269021  0.754759  0.868846  1
  Br  Br62  1  0.492177  0.505244  0.883586  1
  Br  Br63  1  0.381503  0.144995  0.996602  1
