# generated using pymatgen
data_CaPu3H10
_symmetry_space_group_name_H-M   'P 1'
_cell_length_a   6.46732446
_cell_length_b   6.46732479
_cell_length_c   6.46732481
_cell_angle_alpha   130.86579843
_cell_angle_beta   132.54098123
_cell_angle_gamma   70.70652250
_symmetry_Int_Tables_number   1
_chemical_formula_structural   CaPu3H10
_chemical_formula_sum   'Ca1 Pu3 H10'
_cell_volume   147.64928567
_cell_formula_units_Z   1
loop_
 _symmetry_equiv_pos_site_id
 _symmetry_equiv_pos_as_xyz
  1  'x, y, z'
loop_
 _atom_site_type_symbol
 _atom_site_label
 _atom_site_symmetry_multiplicity
 _atom_site_fract_x
 _atom_site_fract_y
 _atom_site_fract_z
 _atom_site_occupancy
  Ca  Ca0  1  0.491278  0.991278  0.500000  1
  Pu  Pu1  1  0.736796  0.736796  0.000000  1
  Pu  Pu2  1  0.011722  0.511722  0.500000  1
  Pu  Pu3  1  0.264089  0.264089  0.000000  1
  H  H4  1  0.371861  0.352267  0.470307  1
  H  H5  1  0.881959  0.901553  0.529693  1
  H  H6  1  0.654113  0.126097  0.032483  1
  H  H7  1  0.093613  0.621629  0.967517  1
  H  H8  1  0.371861  0.901553  0.019594  1
  H  H9  1  0.881959  0.352267  0.980406  1
  H  H10  1  0.654113  0.621629  0.528016  1
  H  H11  1  0.093613  0.126097  0.471984  1
  H  H12  1  0.241054  0.741054  0.500000  1
  H  H13  1  0.501968  0.501968  0.000000  1
