# generated using pymatgen
data_Dy2Mn2Ni8P7W2
_symmetry_space_group_name_H-M   'P 1'
_cell_length_a   9.21755768
_cell_length_b   9.14566575
_cell_length_c   3.70572000
_cell_angle_alpha   90.00000000
_cell_angle_beta   90.00000000
_cell_angle_gamma   119.86104567
_symmetry_Int_Tables_number   1
_chemical_formula_structural   Dy2Mn2Ni8P7W2
_chemical_formula_sum   'Dy2 Mn2 Ni8 P7 W2'
_cell_volume   270.91984494
_cell_formula_units_Z   1
loop_
 _symmetry_equiv_pos_site_id
 _symmetry_equiv_pos_as_xyz
  1  'x, y, z'
loop_
 _atom_site_type_symbol
 _atom_site_label
 _atom_site_symmetry_multiplicity
 _atom_site_fract_x
 _atom_site_fract_y
 _atom_site_fract_z
 _atom_site_occupancy
  Dy  Dy0  1  0.669222  0.335787  0.000000  1
  Dy  Dy1  1  0.332421  0.664921  0.500000  1
  Mn  Mn2  1  0.841372  0.118806  0.000000  1
  Mn  Mn3  1  0.776810  0.879538  0.500000  1
  Ni  Ni4  1  0.370685  0.936690  0.000000  1
  Ni  Ni5  1  0.064892  0.433264  0.000000  1
  Ni  Ni6  1  0.567423  0.631853  0.000000  1
  Ni  Ni7  1  0.875286  0.722272  0.000000  1
  Ni  Ni8  1  0.284898  0.157163  0.000000  1
  Ni  Ni9  1  0.942396  0.558738  0.500000  1
  Ni  Ni10  1  0.440896  0.385642  0.500000  1
  Ni  Ni11  1  0.611628  0.049215  0.500000  1
  P  P12  1  0.111407  0.700501  0.000000  1
  P  P13  1  0.300701  0.412436  0.000000  1
  P  P14  1  0.591173  0.889103  0.000000  1
  P  P15  1  0.709117  0.596742  0.500000  1
  P  P16  1  0.410128  0.119016  0.500000  1
  P  P17  1  0.880210  0.285977  0.500000  1
  P  P18  1  0.996858  0.001313  0.000000  1
  W  W19  1  0.120817  0.903325  0.500000  1
  W  W20  1  0.101659  0.217698  0.500000  1
