# generated using pymatgen
data_Ba11La9Sn16
_symmetry_space_group_name_H-M   'P 1'
_cell_length_a   8.53962400
_cell_length_b   9.13094409
_cell_length_c   17.24947700
_cell_angle_alpha   90.00000000
_cell_angle_beta   90.00000000
_cell_angle_gamma   89.93382487
_symmetry_Int_Tables_number   1
_chemical_formula_structural   Ba11La9Sn16
_chemical_formula_sum   'Ba11 La9 Sn16'
_cell_volume   1345.02412740
_cell_formula_units_Z   1
loop_
 _symmetry_equiv_pos_site_id
 _symmetry_equiv_pos_as_xyz
  1  'x, y, z'
loop_
 _atom_site_type_symbol
 _atom_site_label
 _atom_site_symmetry_multiplicity
 _atom_site_fract_x
 _atom_site_fract_y
 _atom_site_fract_z
 _atom_site_occupancy
  Ba  Ba0  1  0.507957  0.678841  0.594663  1
  Ba  Ba1  1  0.006137  0.822385  0.907923  1
  Ba  Ba2  1  0.491717  0.321465  0.091828  1
  Ba  Ba3  1  0.992134  0.180269  0.408729  1
  Ba  Ba4  1  0.491717  0.321465  0.408172  1
  Ba  Ba5  1  0.992134  0.180269  0.091271  1
  Ba  Ba6  1  0.507957  0.678841  0.905337  1
  Ba  Ba7  1  0.006137  0.822385  0.592077  1
  Ba  Ba8  1  0.329180  0.976482  0.750000  1
  Ba  Ba9  1  0.169683  0.475451  0.250000  1
  Ba  Ba10  1  0.669146  0.024143  0.250000  1
  La  La11  1  0.675450  0.169284  0.622057  1
  La  La12  1  0.176764  0.328735  0.878181  1
  La  La13  1  0.324698  0.827248  0.120710  1
  La  La14  1  0.824967  0.670977  0.379814  1
  La  La15  1  0.324698  0.827248  0.379290  1
  La  La16  1  0.824967  0.670977  0.120186  1
  La  La17  1  0.675450  0.169284  0.877943  1
  La  La18  1  0.176764  0.328735  0.621819  1
  La  La19  1  0.836245  0.514448  0.750000  1
  Sn  Sn20  1  0.655252  0.957460  0.463112  1
  Sn  Sn21  1  0.154643  0.542248  0.036186  1
  Sn  Sn22  1  0.345083  0.043376  0.961615  1
  Sn  Sn23  1  0.843991  0.461642  0.544568  1
  Sn  Sn24  1  0.345083  0.043376  0.538385  1
  Sn  Sn25  1  0.843991  0.461642  0.955432  1
  Sn  Sn26  1  0.655252  0.957460  0.036888  1
  Sn  Sn27  1  0.154643  0.542248  0.463814  1
  Sn  Sn28  1  0.473627  0.376514  0.750000  1
  Sn  Sn29  1  0.960902  0.144719  0.750000  1
  Sn  Sn30  1  0.536062  0.637122  0.250000  1
  Sn  Sn31  1  0.035014  0.861745  0.250000  1
  Sn  Sn32  1  0.736780  0.882680  0.750000  1
  Sn  Sn33  1  0.213607  0.599975  0.750000  1
  Sn  Sn34  1  0.270435  0.098330  0.250000  1
  Sn  Sn35  1  0.771730  0.400533  0.250000  1
