# generated using pymatgen
data_K2MgTe(PO5)2
_symmetry_space_group_name_H-M   'P 1'
_cell_length_a   9.30047577
_cell_length_b   9.33999795
_cell_length_c   10.64148741
_cell_angle_alpha   90.13585544
_cell_angle_beta   90.07589216
_cell_angle_gamma   90.12143209
_symmetry_Int_Tables_number   1
_chemical_formula_structural   K2MgTe(PO5)2
_chemical_formula_sum   'K8 Mg4 Te4 P8 O40'
_cell_volume   924.38247245
_cell_formula_units_Z   4
loop_
 _symmetry_equiv_pos_site_id
 _symmetry_equiv_pos_as_xyz
  1  'x, y, z'
loop_
 _atom_site_type_symbol
 _atom_site_label
 _atom_site_symmetry_multiplicity
 _atom_site_fract_x
 _atom_site_fract_y
 _atom_site_fract_z
 _atom_site_occupancy
  K  K0  1  0.985415  0.743445  0.062107  1
  K  K1  1  0.516126  0.211641  0.191539  1
  K  K2  1  0.818374  0.494589  0.342231  1
  K  K3  1  0.247629  0.010490  0.438776  1
  K  K4  1  0.505034  0.745522  0.584616  1
  K  K5  1  0.006650  0.301226  0.667048  1
  K  K6  1  0.691893  0.992739  0.880392  1
  K  K7  1  0.262613  0.487562  0.923555  1
  Mg  Mg8  1  0.634632  0.614085  0.013469  1
  Mg  Mg9  1  0.876583  0.113077  0.241706  1
  Mg  Mg10  1  0.365105  0.365912  0.496924  1
  Mg  Mg11  1  0.141670  0.858010  0.750320  1
  Te  Te12  1  0.373093  0.617189  0.252845  1
  Te  Te13  1  0.882986  0.884367  0.507619  1
  Te  Te14  1  0.618646  0.382798  0.746011  1
  Te  Te15  1  0.129654  0.109122  0.996202  1
  P  P16  1  0.341223  0.827495  0.008105  1
  P  P17  1  0.171312  0.325570  0.235326  1
  P  P18  1  0.666972  0.816997  0.267834  1
  P  P19  1  0.673852  0.175663  0.494785  1
  P  P20  1  0.158856  0.657757  0.496727  1
  P  P21  1  0.339362  0.154603  0.743997  1
  P  P22  1  0.835843  0.673464  0.758573  1
  P  P23  1  0.835426  0.312513  0.987593  1
  O  O24  1  0.501233  0.803534  0.996920  1
  O  O25  1  0.314645  0.994793  0.029496  1
  O  O26  1  0.813992  0.467189  0.025148  1
  O  O27  1  0.777196  0.200588  0.078280  1
  O  O28  1  0.232399  0.255653  0.106296  1
  O  O29  1  0.034546  0.027353  0.130577  1
  O  O30  1  0.275082  0.752619  0.132268  1
  O  O31  1  0.474682  0.528173  0.124402  1
  O  O32  1  0.726912  0.706743  0.175924  1
  O  O33  1  0.194836  0.492899  0.211739  1
  O  O34  1  0.692578  0.971854  0.234614  1
  O  O35  1  0.012390  0.299298  0.251911  1
  O  O36  1  0.498448  0.793847  0.290527  1
  O  O37  1  0.270074  0.271212  0.338603  1
  O  O38  1  0.764001  0.219899  0.382260  1
  O  O39  1  0.232004  0.716708  0.368959  1
  O  O40  1  0.456912  0.518722  0.384928  1
  O  O41  1  0.961424  0.969916  0.367334  1
  O  O42  1  0.731219  0.775476  0.404796  1
  O  O43  1  0.513313  0.187225  0.474503  1
  O  O44  1  0.991931  0.693644  0.478284  1
  O  O45  1  0.173179  0.497176  0.510551  1
  O  O46  1  0.712203  0.017874  0.541153  1
  O  O47  1  0.727507  0.275303  0.609122  1
  O  O48  1  0.224907  0.749438  0.599929  1
  O  O49  1  0.007540  0.966850  0.622743  1
  O  O50  1  0.278330  0.238962  0.634083  1
  O  O51  1  0.496805  0.463425  0.629273  1
  O  O52  1  0.778300  0.779059  0.650193  1
  O  O53  1  0.788963  0.518216  0.710862  1
  O  O54  1  0.329710  0.993635  0.730322  1
  O  O55  1  0.503608  0.195938  0.772447  1
  O  O56  1  0.997684  0.679371  0.771056  1
  O  O57  1  0.767409  0.275434  0.850700  1
  O  O58  1  0.253864  0.212069  0.865476  1
  O  O59  1  0.042935  0.998307  0.873151  1
  O  O60  1  0.545122  0.473153  0.886114  1
  O  O61  1  0.754359  0.716722  0.876513  1
  O  O62  1  0.247851  0.769673  0.902061  1
  O  O63  1  0.002256  0.285970  0.958926  1
