# generated using pymatgen
data_Lu9Sc3Tc4
_symmetry_space_group_name_H-M   'P 1'
_cell_length_a   6.09322788
_cell_length_b   7.18002412
_cell_length_c   8.85272700
_cell_angle_alpha   90.00000000
_cell_angle_beta   90.00000000
_cell_angle_gamma   90.65812885
_symmetry_Int_Tables_number   1
_chemical_formula_structural   Lu9Sc3Tc4
_chemical_formula_sum   'Lu9 Sc3 Tc4'
_cell_volume   387.27703484
_cell_formula_units_Z   1
loop_
 _symmetry_equiv_pos_site_id
 _symmetry_equiv_pos_as_xyz
  1  'x, y, z'
loop_
 _atom_site_type_symbol
 _atom_site_label
 _atom_site_symmetry_multiplicity
 _atom_site_fract_x
 _atom_site_fract_y
 _atom_site_fract_z
 _atom_site_occupancy
  Lu  Lu0  1  0.340433  0.673361  0.062312  1
  Lu  Lu1  1  0.157189  0.179342  0.436859  1
  Lu  Lu2  1  0.662228  0.325486  0.559752  1
  Lu  Lu3  1  0.842895  0.821567  0.939530  1
  Lu  Lu4  1  0.662228  0.325486  0.940248  1
  Lu  Lu5  1  0.842895  0.821567  0.560470  1
  Lu  Lu6  1  0.340433  0.673361  0.437688  1
  Lu  Lu7  1  0.157189  0.179342  0.063141  1
  Lu  Lu8  1  0.372147  0.961743  0.750000  1
  Sc  Sc9  1  0.868870  0.545751  0.250000  1
  Sc  Sc10  1  0.630668  0.043621  0.250000  1
  Sc  Sc11  1  0.130295  0.454469  0.750000  1
  Tc  Tc12  1  0.026827  0.881384  0.250000  1
  Tc  Tc13  1  0.475143  0.380042  0.250000  1
  Tc  Tc14  1  0.962055  0.120302  0.750000  1
  Tc  Tc15  1  0.528507  0.613176  0.750000  1
