# generated using pymatgen
data_SmY2CI3
_symmetry_space_group_name_H-M   'P 1'
_cell_length_a   3.94912500
_cell_length_b   8.78708649
_cell_length_c   12.00490670
_cell_angle_alpha   92.11703327
_cell_angle_beta   90.00000000
_cell_angle_gamma   90.00000000
_symmetry_Int_Tables_number   1
_chemical_formula_structural   SmY2CI3
_chemical_formula_sum   'Sm2 Y4 C2 I6'
_cell_volume   416.30156571
_cell_formula_units_Z   2
loop_
 _symmetry_equiv_pos_site_id
 _symmetry_equiv_pos_as_xyz
  1  'x, y, z'
loop_
 _atom_site_type_symbol
 _atom_site_label
 _atom_site_symmetry_multiplicity
 _atom_site_fract_x
 _atom_site_fract_y
 _atom_site_fract_z
 _atom_site_occupancy
  Sm  Sm0  1  0.250000  0.915081  0.600386  1
  Sm  Sm1  1  0.750000  0.084919  0.399614  1
  Y  Y2  1  0.250000  0.886522  0.187745  1
  Y  Y3  1  0.750000  0.113478  0.812255  1
  Y  Y4  1  0.250000  0.292622  0.615531  1
  Y  Y5  1  0.750000  0.707378  0.384469  1
  C  C6  1  0.250000  0.877850  0.384479  1
  C  C7  1  0.750000  0.122150  0.615521  1
  I  I8  1  0.250000  0.861439  0.874270  1
  I  I9  1  0.750000  0.138561  0.125730  1
  I  I10  1  0.250000  0.373211  0.870092  1
  I  I11  1  0.750000  0.626789  0.129908  1
  I  I12  1  0.250000  0.387240  0.368465  1
  I  I13  1  0.750000  0.612760  0.631535  1
