# generated using pymatgen
data_Sr6TiIr(RhO5)3
_symmetry_space_group_name_H-M   'P 1'
_cell_length_a   7.15244906
_cell_length_b   7.15244987
_cell_length_c   7.15245000
_cell_angle_alpha   86.39629945
_cell_angle_beta   86.39630314
_cell_angle_gamma   86.39630644
_symmetry_Int_Tables_number   1
_chemical_formula_structural   Sr6TiIr(RhO5)3
_chemical_formula_sum   'Sr6 Ti1 Ir1 Rh3 O15'
_cell_volume   363.81825568
_cell_formula_units_Z   1
loop_
 _symmetry_equiv_pos_site_id
 _symmetry_equiv_pos_as_xyz
  1  'x, y, z'
loop_
 _atom_site_type_symbol
 _atom_site_label
 _atom_site_symmetry_multiplicity
 _atom_site_fract_x
 _atom_site_fract_y
 _atom_site_fract_z
 _atom_site_occupancy
  Sr  Sr0  1  0.324659  0.674193  0.001150  1
  Sr  Sr1  1  0.674193  0.001150  0.324659  1
  Sr  Sr2  1  0.001150  0.324659  0.674193  1
  Sr  Sr3  1  0.144007  0.861574  0.497292  1
  Sr  Sr4  1  0.861574  0.497292  0.144007  1
  Sr  Sr5  1  0.497292  0.144007  0.861574  1
  Ti  Ti6  1  0.498025  0.498025  0.498025  1
  Ir  Ir7  1  0.901571  0.901571  0.901571  1
  Rh  Rh8  1  0.094634  0.094634  0.094634  1
  Rh  Rh9  1  0.705564  0.705564  0.705564  1
  Rh  Rh10  1  0.297018  0.297018  0.297018  1
  O  O11  1  0.259289  0.565759  0.375559  1
  O  O12  1  0.375559  0.259289  0.565759  1
  O  O13  1  0.565759  0.375559  0.259289  1
  O  O14  1  0.741803  0.625685  0.439850  1
  O  O15  1  0.439850  0.741803  0.625685  1
  O  O16  1  0.625685  0.439850  0.741803  1
  O  O17  1  0.998247  0.830769  0.162562  1
  O  O18  1  0.162562  0.998247  0.830769  1
  O  O19  1  0.830769  0.162562  0.998247  1
  O  O20  1  0.349168  0.022674  0.204894  1
  O  O21  1  0.204894  0.349168  0.022674  1
  O  O22  1  0.795882  0.980824  0.647349  1
  O  O23  1  0.980824  0.647349  0.795882  1
  O  O24  1  0.647349  0.795882  0.980824  1
  O  O25  1  0.022674  0.204894  0.349168  1
