# generated using pymatgen
data_La2Cu7NiRh2
_symmetry_space_group_name_H-M   'P 1'
_cell_length_a   4.06234600
_cell_length_b   4.99549586
_cell_length_c   9.40041953
_cell_angle_alpha   89.78948605
_cell_angle_beta   90.00000000
_cell_angle_gamma   90.00000000
_symmetry_Int_Tables_number   1
_chemical_formula_structural   La2Cu7NiRh2
_chemical_formula_sum   'La2 Cu7 Ni1 Rh2'
_cell_volume   190.76549269
_cell_formula_units_Z   1
loop_
 _symmetry_equiv_pos_site_id
 _symmetry_equiv_pos_as_xyz
  1  'x, y, z'
loop_
 _atom_site_type_symbol
 _atom_site_label
 _atom_site_symmetry_multiplicity
 _atom_site_fract_x
 _atom_site_fract_y
 _atom_site_fract_z
 _atom_site_occupancy
  La  La0  1  0.000000  0.251086  0.753792  1
  La  La1  1  0.000000  0.748914  0.246208  1
  Cu  Cu2  1  0.000000  0.241745  0.074920  1
  Cu  Cu3  1  0.000000  0.750922  0.575385  1
  Cu  Cu4  1  0.000000  0.758255  0.925080  1
  Cu  Cu5  1  0.000000  0.249078  0.424615  1
  Cu  Cu6  1  0.500000  0.500000  0.500000  1
  Cu  Cu7  1  0.500000  0.500000  0.000000  1
  Cu  Cu8  1  0.500000  0.000000  0.500000  1
  Ni  Ni9  1  0.500000  0.000000  0.000000  1
  Rh  Rh10  1  0.500000  0.753318  0.750387  1
  Rh  Rh11  1  0.500000  0.246682  0.249613  1
