# generated using pymatgen
data_LiTm4Sc5Si8
_symmetry_space_group_name_H-M   'P 1'
_cell_length_a   6.95567762
_cell_length_b   7.35661662
_cell_length_c   13.93577600
_cell_angle_alpha   90.00000000
_cell_angle_beta   90.00000000
_cell_angle_gamma   89.95233221
_symmetry_Int_Tables_number   1
_chemical_formula_structural   LiTm4Sc5Si8
_chemical_formula_sum   'Li2 Tm8 Sc10 Si16'
_cell_volume   713.09694477
_cell_formula_units_Z   2
loop_
 _symmetry_equiv_pos_site_id
 _symmetry_equiv_pos_as_xyz
  1  'x, y, z'
loop_
 _atom_site_type_symbol
 _atom_site_label
 _atom_site_symmetry_multiplicity
 _atom_site_fract_x
 _atom_site_fract_y
 _atom_site_fract_z
 _atom_site_occupancy
  Li  Li0  1  0.159705  0.506142  0.750000  1
  Li  Li1  1  0.840295  0.493858  0.250000  1
  Tm  Tm2  1  0.010127  0.184572  0.098036  1
  Tm  Tm3  1  0.989873  0.815428  0.901964  1
  Tm  Tm4  1  0.485234  0.675030  0.902850  1
  Tm  Tm5  1  0.989873  0.815428  0.598036  1
  Tm  Tm6  1  0.514766  0.324970  0.097150  1
  Tm  Tm7  1  0.010127  0.184572  0.401964  1
  Tm  Tm8  1  0.514766  0.324970  0.402850  1
  Tm  Tm9  1  0.485234  0.675030  0.597150  1
  Sc  Sc10  1  0.340863  0.004010  0.250000  1
  Sc  Sc11  1  0.659137  0.995990  0.750000  1
  Sc  Sc12  1  0.326726  0.181125  0.626233  1
  Sc  Sc13  1  0.673274  0.818875  0.373767  1
  Sc  Sc14  1  0.166215  0.674638  0.373190  1
  Sc  Sc15  1  0.673274  0.818875  0.126233  1
  Sc  Sc16  1  0.833785  0.325362  0.626810  1
  Sc  Sc17  1  0.326726  0.181125  0.873767  1
  Sc  Sc18  1  0.833785  0.325362  0.873190  1
  Sc  Sc19  1  0.166215  0.674638  0.126810  1
  Si  Si20  1  0.029278  0.100336  0.750000  1
  Si  Si21  1  0.970722  0.899664  0.250000  1
  Si  Si22  1  0.466682  0.610661  0.250000  1
  Si  Si23  1  0.533318  0.389339  0.750000  1
  Si  Si24  1  0.287242  0.876690  0.750000  1
  Si  Si25  1  0.712758  0.123310  0.250000  1
  Si  Si26  1  0.219782  0.370932  0.250000  1
  Si  Si27  1  0.780218  0.629068  0.750000  1
  Si  Si28  1  0.161056  0.461544  0.533489  1
  Si  Si29  1  0.838944  0.538456  0.466511  1
  Si  Si30  1  0.341891  0.967066  0.461229  1
  Si  Si31  1  0.838944  0.538456  0.033489  1
  Si  Si32  1  0.658109  0.032934  0.538771  1
  Si  Si33  1  0.161056  0.461544  0.966511  1
  Si  Si34  1  0.658109  0.032934  0.961229  1
  Si  Si35  1  0.341891  0.967066  0.038771  1
