# generated using pymatgen
data_Ba3Te2(IO3)2
_symmetry_space_group_name_H-M   'P 1'
_cell_length_a   7.75586001
_cell_length_b   7.75586003
_cell_length_c   15.64218331
_cell_angle_alpha   87.91970029
_cell_angle_beta   87.91969995
_cell_angle_gamma   46.78988427
_symmetry_Int_Tables_number   1
_chemical_formula_structural   Ba3Te2(IO3)2
_chemical_formula_sum   'Ba6 Te4 I4 O12'
_cell_volume   685.25807268
_cell_formula_units_Z   2
loop_
 _symmetry_equiv_pos_site_id
 _symmetry_equiv_pos_as_xyz
  1  'x, y, z'
loop_
 _atom_site_type_symbol
 _atom_site_label
 _atom_site_symmetry_multiplicity
 _atom_site_fract_x
 _atom_site_fract_y
 _atom_site_fract_z
 _atom_site_occupancy
  Ba  Ba0  1  0.555498  0.444502  0.250000  1
  Ba  Ba1  1  0.444502  0.555498  0.750000  1
  Ba  Ba2  1  0.798513  0.786505  0.344199  1
  Ba  Ba3  1  0.213495  0.201487  0.155801  1
  Ba  Ba4  1  0.201487  0.213495  0.655801  1
  Ba  Ba5  1  0.786505  0.798513  0.844199  1
  Te  Te6  1  0.889742  0.906340  0.623230  1
  Te  Te7  1  0.093660  0.110258  0.876770  1
  Te  Te8  1  0.110258  0.093660  0.376770  1
  Te  Te9  1  0.906340  0.889742  0.123230  1
  I  I10  1  0.349496  0.360524  0.452083  1
  I  I11  1  0.639476  0.650504  0.047917  1
  I  I12  1  0.650504  0.639476  0.547917  1
  I  I13  1  0.360524  0.349496  0.952083  1
  O  O14  1  0.942513  0.370042  0.304674  1
  O  O15  1  0.629958  0.057487  0.195326  1
  O  O16  1  0.057487  0.629958  0.695326  1
  O  O17  1  0.370042  0.942513  0.804674  1
  O  O18  1  0.974314  0.071820  0.148789  1
  O  O19  1  0.928180  0.025686  0.351211  1
  O  O20  1  0.025686  0.928180  0.851211  1
  O  O21  1  0.071820  0.974314  0.648789  1
  O  O22  1  0.112000  0.618436  0.196616  1
  O  O23  1  0.381564  0.888000  0.303384  1
  O  O24  1  0.888000  0.381564  0.803384  1
  O  O25  1  0.618436  0.112000  0.696616  1
