# generated using pymatgen
data_Sr4Li4Si7Ge
_symmetry_space_group_name_H-M   'P 1'
_cell_length_a   4.44117800
_cell_length_b   7.05822279
_cell_length_c   11.41708127
_cell_angle_alpha   89.94586759
_cell_angle_beta   90.00000000
_cell_angle_gamma   90.00000000
_symmetry_Int_Tables_number   1
_chemical_formula_structural   Sr4Li4Si7Ge
_chemical_formula_sum   'Sr4 Li4 Si7 Ge1'
_cell_volume   357.88907485
_cell_formula_units_Z   1
loop_
 _symmetry_equiv_pos_site_id
 _symmetry_equiv_pos_as_xyz
  1  'x, y, z'
loop_
 _atom_site_type_symbol
 _atom_site_label
 _atom_site_symmetry_multiplicity
 _atom_site_fract_x
 _atom_site_fract_y
 _atom_site_fract_z
 _atom_site_occupancy
  Sr  Sr0  1  0.250000  0.137683  0.143532  1
  Sr  Sr1  1  0.750000  0.860983  0.857157  1
  Sr  Sr2  1  0.250000  0.637396  0.357760  1
  Sr  Sr3  1  0.750000  0.362183  0.641538  1
  Li  Li4  1  0.250000  0.124371  0.439590  1
  Li  Li5  1  0.750000  0.876232  0.559182  1
  Li  Li6  1  0.250000  0.624052  0.059630  1
  Li  Li7  1  0.750000  0.378287  0.940565  1
  Si  Si8  1  0.750000  0.469745  0.166066  1
  Si  Si9  1  0.250000  0.535705  0.834195  1
  Si  Si10  1  0.750000  0.968890  0.333846  1
  Si  Si11  1  0.250000  0.028739  0.663172  1
  Si  Si12  1  0.750000  0.302727  0.348428  1
  Si  Si13  1  0.250000  0.696035  0.650573  1
  Si  Si14  1  0.750000  0.803204  0.151586  1
  Ge  Ge15  1  0.250000  0.193768  0.853180  1
