# generated using pymatgen
data_HfZr8Si16Mo11
_symmetry_space_group_name_H-M   'P 1'
_cell_length_a   6.77923966
_cell_length_b   6.77924046
_cell_length_c   12.54427639
_cell_angle_alpha   89.93079298
_cell_angle_beta   90.06921005
_cell_angle_gamma   90.27698654
_symmetry_Int_Tables_number   1
_chemical_formula_structural   HfZr8Si16Mo11
_chemical_formula_sum   'Hf1 Zr8 Si16 Mo11'
_cell_volume   576.50348275
_cell_formula_units_Z   1
loop_
 _symmetry_equiv_pos_site_id
 _symmetry_equiv_pos_as_xyz
  1  'x, y, z'
loop_
 _atom_site_type_symbol
 _atom_site_label
 _atom_site_symmetry_multiplicity
 _atom_site_fract_x
 _atom_site_fract_y
 _atom_site_fract_z
 _atom_site_occupancy
  Hf  Hf0  1  0.332785  0.332785  0.000000  1
  Zr  Zr1  1  0.002385  0.664117  0.031619  1
  Zr  Zr2  1  0.992985  0.337789  0.532177  1
  Zr  Zr3  1  0.664117  0.002385  0.968381  1
  Zr  Zr4  1  0.160448  0.497433  0.780948  1
  Zr  Zr5  1  0.838500  0.507406  0.284717  1
  Zr  Zr6  1  0.497433  0.160448  0.219052  1
  Zr  Zr7  1  0.507406  0.838500  0.715283  1
  Zr  Zr8  1  0.337789  0.992985  0.467823  1
  Si  Si9  1  0.037203  0.712364  0.436944  1
  Si  Si10  1  0.953620  0.293598  0.932108  1
  Si  Si11  1  0.712364  0.037203  0.563056  1
  Si  Si12  1  0.208752  0.467307  0.191851  1
  Si  Si13  1  0.787023  0.537260  0.685239  1
  Si  Si14  1  0.467307  0.208752  0.808149  1
  Si  Si15  1  0.537260  0.787023  0.314761  1
  Si  Si16  1  0.293598  0.953620  0.067892  1
  Si  Si17  1  0.874460  0.796735  0.820266  1
  Si  Si18  1  0.125037  0.202438  0.321015  1
  Si  Si19  1  0.796735  0.874460  0.179734  1
  Si  Si20  1  0.295002  0.623991  0.571025  1
  Si  Si21  1  0.712882  0.371861  0.073221  1
  Si  Si22  1  0.623991  0.295002  0.428975  1
  Si  Si23  1  0.371861  0.712882  0.926779  1
  Si  Si24  1  0.202438  0.125037  0.678985  1
  Mo  Mo25  1  0.331568  0.492688  0.381121  1
  Mo  Mo26  1  0.831587  0.006431  0.370871  1
  Mo  Mo27  1  0.002756  0.165666  0.125719  1
  Mo  Mo28  1  0.006431  0.831587  0.629129  1
  Mo  Mo29  1  0.658650  0.505219  0.878378  1
  Mo  Mo30  1  0.492688  0.331568  0.618879  1
  Mo  Mo31  1  0.505219  0.658650  0.121622  1
  Mo  Mo32  1  0.165666  0.002756  0.874281  1
  Mo  Mo33  1  0.668929  0.668929  0.500000  1
  Mo  Mo34  1  0.832818  0.170306  0.747355  1
  Mo  Mo35  1  0.170306  0.832818  0.252645  1
