# generated using pymatgen
data_Ba2Hg3Bi
_symmetry_space_group_name_H-M   'P 1'
_cell_length_a   5.42371819
_cell_length_b   6.74063404
_cell_length_c   6.75354002
_cell_angle_alpha   95.96792050
_cell_angle_beta   113.67488994
_cell_angle_gamma   66.27701132
_symmetry_Int_Tables_number   1
_chemical_formula_structural   Ba2Hg3Bi
_chemical_formula_sum   'Ba2 Hg3 Bi1'
_cell_volume   206.52891130
_cell_formula_units_Z   1
loop_
 _symmetry_equiv_pos_site_id
 _symmetry_equiv_pos_as_xyz
  1  'x, y, z'
loop_
 _atom_site_type_symbol
 _atom_site_label
 _atom_site_symmetry_multiplicity
 _atom_site_fract_x
 _atom_site_fract_y
 _atom_site_fract_z
 _atom_site_occupancy
  Ba  Ba0  1  0.754869  0.717689  0.227428  1
  Ba  Ba1  1  0.250586  0.277537  0.778710  1
  Hg  Hg2  1  0.555760  0.292475  0.403997  1
  Hg  Hg3  1  0.460697  0.712641  0.634037  1
  Hg  Hg4  1  0.940632  0.879817  0.761083  1
  Bi  Bi5  1  0.037453  0.119839  0.194746  1
