# generated using pymatgen
data_Dy3Y4Th(ReB6)4
_symmetry_space_group_name_H-M   'P 1'
_cell_length_a   3.71441500
_cell_length_b   9.21468163
_cell_length_c   11.61563204
_cell_angle_alpha   90.03907461
_cell_angle_beta   90.00000000
_cell_angle_gamma   90.00000000
_symmetry_Int_Tables_number   1
_chemical_formula_structural   Dy3Y4Th(ReB6)4
_chemical_formula_sum   'Dy3 Y4 Th1 Re4 B24'
_cell_volume   397.56990727
_cell_formula_units_Z   1
loop_
 _symmetry_equiv_pos_site_id
 _symmetry_equiv_pos_as_xyz
  1  'x, y, z'
loop_
 _atom_site_type_symbol
 _atom_site_label
 _atom_site_symmetry_multiplicity
 _atom_site_fract_x
 _atom_site_fract_y
 _atom_site_fract_z
 _atom_site_occupancy
  Dy  Dy0  1  0.000000  0.056527  0.631406  1
  Dy  Dy1  1  0.000000  0.443063  0.128413  1
  Dy  Dy2  1  0.000000  0.557813  0.870450  1
  Y  Y3  1  0.000000  0.677892  0.587175  1
  Y  Y4  1  0.000000  0.823149  0.085027  1
  Y  Y5  1  0.000000  0.176233  0.914095  1
  Y  Y6  1  0.000000  0.941608  0.369506  1
  Th  Th7  1  0.000000  0.322387  0.414161  1
  Re  Re8  1  0.000000  0.638230  0.320592  1
  Re  Re9  1  0.000000  0.362277  0.680084  1
  Re  Re10  1  0.000000  0.138071  0.178278  1
  Re  Re11  1  0.000000  0.861946  0.820937  1
  B  B12  1  0.500000  0.555403  0.432028  1
  B  B13  1  0.500000  0.447021  0.569591  1
  B  B14  1  0.500000  0.052906  0.066521  1
  B  B15  1  0.500000  0.946665  0.932760  1
  B  B16  1  0.500000  0.749390  0.417908  1
  B  B17  1  0.500000  0.251555  0.585239  1
  B  B18  1  0.500000  0.248203  0.080537  1
  B  B19  1  0.500000  0.751421  0.918129  1
  B  B20  1  0.500000  0.791295  0.264999  1
  B  B21  1  0.500000  0.208896  0.736009  1
  B  B22  1  0.500000  0.289733  0.232178  1
  B  B23  1  0.500000  0.708839  0.765873  1
  B  B24  1  0.500000  0.631515  0.184741  1
  B  B25  1  0.500000  0.370069  0.815008  1
  B  B26  1  0.500000  0.129080  0.312087  1
  B  B27  1  0.500000  0.869360  0.686433  1
  B  B28  1  0.500000  0.981957  0.210808  1
  B  B29  1  0.500000  0.017128  0.788647  1
  B  B30  1  0.500000  0.485269  0.286340  1
  B  B31  1  0.500000  0.518128  0.713492  1
  B  B32  1  0.500000  0.601329  0.027788  1
  B  B33  1  0.500000  0.399397  0.971438  1
  B  B34  1  0.500000  0.097350  0.472806  1
  B  B35  1  0.500000  0.898897  0.528512  1
