# generated using pymatgen
data_TbNdMo3As7Rh9
_symmetry_space_group_name_H-M   'P 1'
_cell_length_a   4.03898814
_cell_length_b   9.88152231
_cell_length_c   9.88145429
_cell_angle_alpha   119.99517057
_cell_angle_beta   89.99761965
_cell_angle_gamma   90.00300745
_symmetry_Int_Tables_number   1
_chemical_formula_structural   TbNdMo3As7Rh9
_chemical_formula_sum   'Tb1 Nd1 Mo3 As7 Rh9'
_cell_volume   341.56161872
_cell_formula_units_Z   1
loop_
 _symmetry_equiv_pos_site_id
 _symmetry_equiv_pos_as_xyz
  1  'x, y, z'
loop_
 _atom_site_type_symbol
 _atom_site_label
 _atom_site_symmetry_multiplicity
 _atom_site_fract_x
 _atom_site_fract_y
 _atom_site_fract_z
 _atom_site_occupancy
  Tb  Tb0  1  0.761893  0.333326  0.666658  1
  Nd  Nd1  1  0.261884  0.666668  0.333330  1
  Mo  Mo2  1  0.761971  0.093255  0.875249  1
  Mo  Mo3  1  0.761949  0.124774  0.218078  1
  Mo  Mo4  1  0.761962  0.781961  0.906700  1
  As  As5  1  0.262320  0.000000  0.000010  1
  As  As6  1  0.761846  0.883786  0.595327  1
  As  As7  1  0.761817  0.404711  0.288473  1
  As  As8  1  0.761838  0.711509  0.116212  1
  As  As9  1  0.261791  0.117343  0.412666  1
  As  As10  1  0.261806  0.587314  0.704663  1
  As  As11  1  0.261790  0.295343  0.882657  1
  Rh  Rh12  1  0.261894  0.881791  0.158539  1
  Rh  Rh13  1  0.261945  0.841454  0.723261  1
  Rh  Rh14  1  0.261906  0.276759  0.118210  1
  Rh  Rh15  1  0.761894  0.612580  0.564118  1
  Rh  Rh16  1  0.761901  0.435838  0.048405  1
  Rh  Rh17  1  0.761914  0.951548  0.387440  1
  Rh  Rh18  1  0.261885  0.369304  0.436204  1
  Rh  Rh19  1  0.261904  0.563819  0.933071  1
  Rh  Rh20  1  0.261888  0.066914  0.630726  1
