# generated using pymatgen
data_Rb4Re3Ag2H27
_symmetry_space_group_name_H-M   'P 1'
_cell_length_a   10.79362800
_cell_length_b   10.79362689
_cell_length_c   5.62534800
_cell_angle_alpha   90.00000000
_cell_angle_beta   90.00000000
_cell_angle_gamma   124.09713375
_symmetry_Int_Tables_number   1
_chemical_formula_structural   Rb4Re3Ag2H27
_chemical_formula_sum   'Rb4 Re3 Ag2 H27'
_cell_volume   542.70138777
_cell_formula_units_Z   1
loop_
 _symmetry_equiv_pos_site_id
 _symmetry_equiv_pos_as_xyz
  1  'x, y, z'
loop_
 _atom_site_type_symbol
 _atom_site_label
 _atom_site_symmetry_multiplicity
 _atom_site_fract_x
 _atom_site_fract_y
 _atom_site_fract_z
 _atom_site_occupancy
  Rb  Rb0  1  0.259656  0.982822  0.500000  1
  Rb  Rb1  1  0.982822  0.259656  0.500000  1
  Rb  Rb2  1  0.771130  0.771130  0.500000  1
  Rb  Rb3  1  0.388365  0.388365  0.000000  1
  Re  Re4  1  0.019346  0.019346  0.000000  1
  Re  Re5  1  0.359590  0.674397  0.500000  1
  Re  Re6  1  0.674397  0.359590  0.500000  1
  Ag  Ag7  1  0.367320  0.710247  0.000000  1
  Ag  Ag8  1  0.710247  0.367320  0.000000  1
  H  H9  1  0.892074  0.019802  0.179093  1
  H  H10  1  0.019802  0.892074  0.179093  1
  H  H11  1  0.892074  0.019802  0.820907  1
  H  H12  1  0.019802  0.892074  0.820907  1
  H  H13  1  0.099179  0.099179  0.263893  1
  H  H14  1  0.099179  0.099179  0.736107  1
  H  H15  1  0.202684  0.071769  0.000000  1
  H  H16  1  0.071769  0.202684  0.000000  1
  H  H17  1  0.853688  0.853688  0.000000  1
  H  H18  1  0.241285  0.549804  0.286447  1
  H  H19  1  0.482362  0.688829  0.287270  1
  H  H20  1  0.241285  0.549804  0.713553  1
  H  H21  1  0.549804  0.241285  0.713553  1
  H  H22  1  0.356058  0.794996  0.298396  1
  H  H23  1  0.482362  0.688829  0.712730  1
  H  H24  1  0.688829  0.482362  0.712730  1
  H  H25  1  0.549804  0.241285  0.286447  1
  H  H26  1  0.356058  0.794996  0.701604  1
  H  H27  1  0.688829  0.482362  0.287270  1
  H  H28  1  0.794996  0.356058  0.701604  1
  H  H29  1  0.794996  0.356058  0.298396  1
  H  H30  1  0.363417  0.519740  0.500000  1
  H  H31  1  0.520340  0.844864  0.500000  1
  H  H32  1  0.519740  0.363417  0.500000  1
  H  H33  1  0.191729  0.650118  0.500000  1
  H  H34  1  0.844864  0.520340  0.500000  1
  H  H35  1  0.650118  0.191729  0.500000  1
