# generated using pymatgen
data_Sm2Be2SiO7
_symmetry_space_group_name_H-M   'P 1'
_cell_length_a   7.44624200
_cell_length_b   7.44624200
_cell_length_c   4.86515100
_cell_angle_alpha   90.00000000
_cell_angle_beta   90.00000000
_cell_angle_gamma   90.00000000
_symmetry_Int_Tables_number   1
_chemical_formula_structural   Sm2Be2SiO7
_chemical_formula_sum   'Sm4 Be4 Si2 O14'
_cell_volume   269.75569185
_cell_formula_units_Z   2
loop_
 _symmetry_equiv_pos_site_id
 _symmetry_equiv_pos_as_xyz
  1  'x, y, z'
loop_
 _atom_site_type_symbol
 _atom_site_label
 _atom_site_symmetry_multiplicity
 _atom_site_fract_x
 _atom_site_fract_y
 _atom_site_fract_z
 _atom_site_occupancy
  Sm  Sm0  1  0.159818  0.340182  0.506725  1
  Sm  Sm1  1  0.659818  0.159818  0.493275  1
  Sm  Sm2  1  0.340182  0.840182  0.493275  1
  Sm  Sm3  1  0.840182  0.659818  0.506725  1
  Be  Be4  1  0.135678  0.635678  0.037704  1
  Be  Be5  1  0.635678  0.864322  0.962296  1
  Be  Be6  1  0.364322  0.135678  0.962296  1
  Be  Be7  1  0.864322  0.364322  0.037704  1
  Si  Si8  1  0.500000  0.500000  0.000000  1
  Si  Si9  1  0.000000  0.000000  0.000000  1
  O  O10  1  0.920981  0.163785  0.193593  1
  O  O11  1  0.836215  0.920981  0.806407  1
  O  O12  1  0.163785  0.079019  0.806407  1
  O  O13  1  0.079019  0.836215  0.193593  1
  O  O14  1  0.420981  0.336215  0.806407  1
  O  O15  1  0.579019  0.663785  0.806407  1
  O  O16  1  0.663785  0.420981  0.193593  1
  O  O17  1  0.336215  0.579019  0.193593  1
  O  O18  1  0.641127  0.858873  0.289016  1
  O  O19  1  0.141127  0.641127  0.710984  1
  O  O20  1  0.858873  0.358873  0.710984  1
  O  O21  1  0.358873  0.141127  0.289016  1
  O  O22  1  0.500000  0.000000  0.825141  1
  O  O23  1  0.000000  0.500000  0.174859  1
