# generated using pymatgen
data_Pr3Co8ReP6
_symmetry_space_group_name_H-M   'P 1'
_cell_length_a   3.79574500
_cell_length_b   10.70013800
_cell_length_c   12.44449000
_cell_angle_alpha   90.00000000
_cell_angle_beta   90.00000000
_cell_angle_gamma   90.00000000
_symmetry_Int_Tables_number   1
_chemical_formula_structural   Pr3Co8ReP6
_chemical_formula_sum   'Pr6 Co16 Re2 P12'
_cell_volume   505.43290302
_cell_formula_units_Z   2
loop_
 _symmetry_equiv_pos_site_id
 _symmetry_equiv_pos_as_xyz
  1  'x, y, z'
loop_
 _atom_site_type_symbol
 _atom_site_label
 _atom_site_symmetry_multiplicity
 _atom_site_fract_x
 _atom_site_fract_y
 _atom_site_fract_z
 _atom_site_occupancy
  Pr  Pr0  1  0.000000  0.500000  0.522781  1
  Pr  Pr1  1  0.500000  0.000000  0.477219  1
  Pr  Pr2  1  0.500000  0.818071  0.205589  1
  Pr  Pr3  1  0.500000  0.181929  0.205589  1
  Pr  Pr4  1  0.000000  0.681929  0.794411  1
  Pr  Pr5  1  0.000000  0.318071  0.794411  1
  Co  Co6  1  0.500000  0.500000  0.704138  1
  Co  Co7  1  0.000000  0.000000  0.295862  1
  Co  Co8  1  0.000000  0.500000  0.988774  1
  Co  Co9  1  0.500000  0.000000  0.011226  1
  Co  Co10  1  0.500000  0.332392  0.992649  1
  Co  Co11  1  0.500000  0.667608  0.992649  1
  Co  Co12  1  0.000000  0.167608  0.007351  1
  Co  Co13  1  0.000000  0.832392  0.007351  1
  Co  Co14  1  0.500000  0.296753  0.429869  1
  Co  Co15  1  0.500000  0.703247  0.429869  1
  Co  Co16  1  0.000000  0.203247  0.570131  1
  Co  Co17  1  0.000000  0.796753  0.570131  1
  Co  Co18  1  0.500000  0.881945  0.711437  1
  Co  Co19  1  0.500000  0.118055  0.711437  1
  Co  Co20  1  0.000000  0.618055  0.288563  1
  Co  Co21  1  0.000000  0.381945  0.288563  1
  Re  Re22  1  0.500000  0.500000  0.153547  1
  Re  Re23  1  0.000000  0.000000  0.846453  1
  P  P24  1  0.500000  0.500000  0.886077  1
  P  P25  1  0.000000  0.000000  0.113923  1
  P  P26  1  0.500000  0.500000  0.342705  1
  P  P27  1  0.000000  0.000000  0.657295  1
  P  P28  1  0.500000  0.305747  0.613909  1
  P  P29  1  0.500000  0.694253  0.613909  1
  P  P30  1  0.000000  0.194253  0.386091  1
  P  P31  1  0.000000  0.805747  0.386091  1
  P  P32  1  0.500000  0.847826  0.895372  1
  P  P33  1  0.500000  0.152174  0.895372  1
  P  P34  1  0.000000  0.652174  0.104628  1
  P  P35  1  0.000000  0.347826  0.104628  1
