# generated using pymatgen
data_Sm6Al25Os7
_symmetry_space_group_name_H-M   'P 1'
_cell_length_a   8.92429847
_cell_length_b   8.92429927
_cell_length_c   9.63003269
_cell_angle_alpha   90.26399690
_cell_angle_beta   89.73600226
_cell_angle_gamma   119.86643144
_symmetry_Int_Tables_number   1
_chemical_formula_structural   Sm6Al25Os7
_chemical_formula_sum   'Sm6 Al25 Os7'
_cell_volume   665.09457588
_cell_formula_units_Z   1
loop_
 _symmetry_equiv_pos_site_id
 _symmetry_equiv_pos_as_xyz
  1  'x, y, z'
loop_
 _atom_site_type_symbol
 _atom_site_label
 _atom_site_symmetry_multiplicity
 _atom_site_fract_x
 _atom_site_fract_y
 _atom_site_fract_z
 _atom_site_occupancy
  Sm  Sm0  1  0.191783  0.382569  0.244306  1
  Sm  Sm1  1  0.808217  0.617431  0.755694  1
  Sm  Sm2  1  0.617431  0.808217  0.244306  1
  Sm  Sm3  1  0.382569  0.191783  0.755694  1
  Sm  Sm4  1  0.192236  0.807764  0.256915  1
  Sm  Sm5  1  0.807764  0.192236  0.743085  1
  Al  Al6  1  0.326175  0.673825  0.019569  1
  Al  Al7  1  0.673825  0.326175  0.980431  1
  Al  Al8  1  0.666181  0.333819  0.515795  1
  Al  Al9  1  0.333819  0.666181  0.484205  1
  Al  Al10  1  0.162826  0.326011  0.569955  1
  Al  Al11  1  0.837174  0.673989  0.430045  1
  Al  Al12  1  0.673989  0.837174  0.569955  1
  Al  Al13  1  0.852503  0.678130  0.081142  1
  Al  Al14  1  0.326011  0.162826  0.430045  1
  Al  Al15  1  0.147497  0.321870  0.918858  1
  Al  Al16  1  0.163017  0.836983  0.576103  1
  Al  Al17  1  0.321870  0.147497  0.081142  1
  Al  Al18  1  0.836983  0.163017  0.423897  1
  Al  Al19  1  0.678130  0.852503  0.918858  1
  Al  Al20  1  0.836967  0.163033  0.075473  1
  Al  Al21  1  0.163033  0.836967  0.924527  1
  Al  Al22  1  0.562473  0.121412  0.249411  1
  Al  Al23  1  0.437527  0.878588  0.750589  1
  Al  Al24  1  0.878588  0.437527  0.249411  1
  Al  Al25  1  0.121412  0.562473  0.750589  1
  Al  Al26  1  0.566421  0.433579  0.259530  1
  Al  Al27  1  0.433579  0.566421  0.740470  1
  Al  Al28  1  0.998598  0.001402  0.250790  1
  Al  Al29  1  0.001402  0.998598  0.749210  1
  Al  Al30  1  0.500000  0.500000  0.000000  1
  Os  Os31  1  0.500000  0.000000  0.000000  1
  Os  Os32  1  0.000000  0.500000  0.000000  1
  Os  Os33  1  0.500000  0.000000  0.500000  1
  Os  Os34  1  0.000000  0.500000  0.500000  1
  Os  Os35  1  0.500000  0.500000  0.500000  1
  Os  Os36  1  0.000000  0.000000  0.000000  1
  Os  Os37  1  0.000000  0.000000  0.500000  1
