# generated using pymatgen
data_Dy3Th5(ZnIr)8
_symmetry_space_group_name_H-M   'P 1'
_cell_length_a   3.89280400
_cell_length_b   7.47904599
_cell_length_c   16.49757200
_cell_angle_alpha   90.39305783
_cell_angle_beta   90.00000000
_cell_angle_gamma   90.00000000
_symmetry_Int_Tables_number   1
_chemical_formula_structural   Dy3Th5(ZnIr)8
_chemical_formula_sum   'Dy3 Th5 Zn8 Ir8'
_cell_volume   480.30660010
_cell_formula_units_Z   1
loop_
 _symmetry_equiv_pos_site_id
 _symmetry_equiv_pos_as_xyz
  1  'x, y, z'
loop_
 _atom_site_type_symbol
 _atom_site_label
 _atom_site_symmetry_multiplicity
 _atom_site_fract_x
 _atom_site_fract_y
 _atom_site_fract_z
 _atom_site_occupancy
  Dy  Dy0  1  0.750000  0.444250  0.213483  1
  Dy  Dy1  1  0.250000  0.053668  0.713769  1
  Dy  Dy2  1  0.250000  0.553964  0.785843  1
  Th  Th3  1  0.250000  0.173779  0.936112  1
  Th  Th4  1  0.250000  0.671581  0.563985  1
  Th  Th5  1  0.750000  0.326697  0.439310  1
  Th  Th6  1  0.750000  0.945145  0.284395  1
  Th  Th7  1  0.750000  0.829550  0.060144  1
  Zn  Zn8  1  0.750000  0.007350  0.564517  1
  Zn  Zn9  1  0.250000  0.609891  0.342922  1
  Zn  Zn10  1  0.750000  0.382705  0.658908  1
  Zn  Zn11  1  0.250000  0.495186  0.063254  1
  Zn  Zn12  1  0.750000  0.507728  0.935864  1
  Zn  Zn13  1  0.250000  0.992681  0.442484  1
  Zn  Zn14  1  0.250000  0.126034  0.153072  1
  Zn  Zn15  1  0.750000  0.882168  0.841574  1
  Ir  Ir16  1  0.750000  0.743329  0.438054  1
  Ir  Ir17  1  0.250000  0.234862  0.315418  1
  Ir  Ir18  1  0.750000  0.253436  0.814810  1
  Ir  Ir19  1  0.750000  0.755106  0.684659  1
  Ir  Ir20  1  0.250000  0.257616  0.563292  1
  Ir  Ir21  1  0.250000  0.749209  0.186260  1
  Ir  Ir22  1  0.750000  0.247387  0.060458  1
  Ir  Ir23  1  0.250000  0.756680  0.937411  1
