# generated using pymatgen
data_Pr2Si4P2Pd21
_symmetry_space_group_name_H-M   'P 1'
_cell_length_a   8.71911294
_cell_length_b   8.69883766
_cell_length_c   8.69883848
_cell_angle_alpha   60.03187825
_cell_angle_beta   59.92286355
_cell_angle_gamma   59.92285886
_symmetry_Int_Tables_number   1
_chemical_formula_structural   Pr2Si4P2Pd21
_chemical_formula_sum   'Pr2 Si4 P2 Pd21'
_cell_volume   466.09744473
_cell_formula_units_Z   1
loop_
 _symmetry_equiv_pos_site_id
 _symmetry_equiv_pos_as_xyz
  1  'x, y, z'
loop_
 _atom_site_type_symbol
 _atom_site_label
 _atom_site_symmetry_multiplicity
 _atom_site_fract_x
 _atom_site_fract_y
 _atom_site_fract_z
 _atom_site_occupancy
  Pr  Pr0  1  0.749977  0.749327  0.750719  1
  Pr  Pr1  1  0.250023  0.249281  0.250673  1
  Si  Si2  1  0.737559  0.261068  0.263815  1
  Si  Si3  1  0.263294  0.262181  0.737819  1
  Si  Si4  1  0.736706  0.262181  0.737819  1
  Si  Si5  1  0.262441  0.736185  0.738932  1
  P  P6  1  0.737771  0.735950  0.264050  1
  P  P7  1  0.262229  0.735950  0.264050  1
  Pd  Pd8  1  0.000000  0.002883  0.997117  1
  Pd  Pd9  1  0.613117  0.614080  0.159688  1
  Pd  Pd10  1  0.614464  0.157188  0.613885  1
  Pd  Pd11  1  0.158229  0.614914  0.612635  1
  Pd  Pd12  1  0.614223  0.614914  0.612635  1
  Pd  Pd13  1  0.385536  0.386115  0.842812  1
  Pd  Pd14  1  0.386883  0.840312  0.385920  1
  Pd  Pd15  1  0.841771  0.387365  0.385086  1
  Pd  Pd16  1  0.385777  0.387365  0.385086  1
  Pd  Pd17  1  0.003138  0.999012  0.342982  1
  Pd  Pd18  1  0.654869  0.999012  0.342982  1
  Pd  Pd19  1  0.000000  0.657759  0.342241  1
  Pd  Pd20  1  0.654946  0.345820  0.000041  1
  Pd  Pd21  1  0.999193  0.345820  0.000041  1
  Pd  Pd22  1  0.000000  0.345643  0.654357  1
  Pd  Pd23  1  0.345131  0.657018  0.000988  1
  Pd  Pd24  1  0.345054  0.999959  0.654180  1
  Pd  Pd25  1  0.343915  0.997861  0.002139  1
  Pd  Pd26  1  0.000807  0.999959  0.654180  1
  Pd  Pd27  1  0.996862  0.657018  0.000988  1
  Pd  Pd28  1  0.656085  0.997861  0.002139  1
