# generated using pymatgen
data_Nb2ZnCo5B2
_symmetry_space_group_name_H-M   'P 1'
_cell_length_a   8.65473800
_cell_length_b   8.65473800
_cell_length_c   2.96312400
_cell_angle_alpha   90.00000000
_cell_angle_beta   90.00000000
_cell_angle_gamma   90.00000000
_symmetry_Int_Tables_number   1
_chemical_formula_structural   Nb2ZnCo5B2
_chemical_formula_sum   'Nb4 Zn2 Co10 B4'
_cell_volume   221.95129158
_cell_formula_units_Z   2
loop_
 _symmetry_equiv_pos_site_id
 _symmetry_equiv_pos_as_xyz
  1  'x, y, z'
loop_
 _atom_site_type_symbol
 _atom_site_label
 _atom_site_symmetry_multiplicity
 _atom_site_fract_x
 _atom_site_fract_y
 _atom_site_fract_z
 _atom_site_occupancy
  Nb  Nb0  1  0.677271  0.177271  0.000000  1
  Nb  Nb1  1  0.322729  0.822729  0.000000  1
  Nb  Nb2  1  0.177271  0.322729  0.000000  1
  Nb  Nb3  1  0.822729  0.677271  0.000000  1
  Zn  Zn4  1  0.000000  0.000000  0.000000  1
  Zn  Zn5  1  0.500000  0.500000  0.000000  1
  Co  Co6  1  0.500000  0.000000  0.500000  1
  Co  Co7  1  0.000000  0.500000  0.500000  1
  Co  Co8  1  0.222943  0.068107  0.500000  1
  Co  Co9  1  0.777057  0.931893  0.500000  1
  Co  Co10  1  0.068107  0.777057  0.500000  1
  Co  Co11  1  0.722943  0.431893  0.500000  1
  Co  Co12  1  0.931893  0.222943  0.500000  1
  Co  Co13  1  0.277057  0.568107  0.500000  1
  Co  Co14  1  0.568107  0.722943  0.500000  1
  Co  Co15  1  0.431893  0.277057  0.500000  1
  B  B16  1  0.120634  0.620634  0.000000  1
  B  B17  1  0.879366  0.379366  0.000000  1
  B  B18  1  0.620634  0.879366  0.000000  1
  B  B19  1  0.379366  0.120634  0.000000  1
