# generated using pymatgen
data_TbErGa5Rh3
_symmetry_space_group_name_H-M   'P 1'
_cell_length_a   5.66459700
_cell_length_b   8.59705269
_cell_length_c   8.59950162
_cell_angle_alpha   97.10171090
_cell_angle_beta   109.26866597
_cell_angle_gamma   109.27070888
_symmetry_Int_Tables_number   1
_chemical_formula_structural   TbErGa5Rh3
_chemical_formula_sum   'Tb2 Er2 Ga10 Rh6'
_cell_volume   360.24489283
_cell_formula_units_Z   2
loop_
 _symmetry_equiv_pos_site_id
 _symmetry_equiv_pos_as_xyz
  1  'x, y, z'
loop_
 _atom_site_type_symbol
 _atom_site_label
 _atom_site_symmetry_multiplicity
 _atom_site_fract_x
 _atom_site_fract_y
 _atom_site_fract_z
 _atom_site_occupancy
  Tb  Tb0  1  0.775583  0.418345  0.130991  1
  Tb  Tb1  1  0.275470  0.130868  0.418292  1
  Er  Er2  1  0.724109  0.868936  0.581203  1
  Er  Er3  1  0.223971  0.581080  0.868912  1
  Ga  Ga4  1  0.181048  0.264807  0.096314  1
  Ga  Ga5  1  0.249794  0.799371  0.199516  1
  Ga  Ga6  1  0.749272  0.798863  0.200232  1
  Ga  Ga7  1  0.680886  0.096301  0.264677  1
  Ga  Ga8  1  0.751067  0.501296  0.500610  1
  Ga  Ga9  1  0.250930  0.500596  0.501276  1
  Ga  Ga10  1  0.318406  0.902583  0.735196  1
  Ga  Ga11  1  0.249211  0.200321  0.798902  1
  Ga  Ga12  1  0.749958  0.199665  0.799485  1
  Ga  Ga13  1  0.818270  0.735107  0.902612  1
  Rh  Rh14  1  0.249374  0.999803  0.999285  1
  Rh  Rh15  1  0.414460  0.566809  0.263741  1
  Rh  Rh16  1  0.087257  0.738259  0.434224  1
  Rh  Rh17  1  0.914246  0.263548  0.566679  1
  Rh  Rh18  1  0.587068  0.434110  0.738069  1
  Rh  Rh19  1  0.749624  0.999330  0.999786  1
