# generated using pymatgen
data_Ho3Zr5Ir4
_symmetry_space_group_name_H-M   'P 1'
_cell_length_a   4.58021900
_cell_length_b   6.98127663
_cell_length_c   8.25230785
_cell_angle_alpha   89.21114771
_cell_angle_beta   90.00000000
_cell_angle_gamma   90.00000000
_symmetry_Int_Tables_number   1
_chemical_formula_structural   Ho3Zr5Ir4
_chemical_formula_sum   'Ho3 Zr5 Ir4'
_cell_volume   263.84893636
_cell_formula_units_Z   1
loop_
 _symmetry_equiv_pos_site_id
 _symmetry_equiv_pos_as_xyz
  1  'x, y, z'
loop_
 _atom_site_type_symbol
 _atom_site_label
 _atom_site_symmetry_multiplicity
 _atom_site_fract_x
 _atom_site_fract_y
 _atom_site_fract_z
 _atom_site_occupancy
  Ho  Ho0  1  0.250000  0.484491  0.178852  1
  Ho  Ho1  1  0.750000  0.012739  0.675953  1
  Ho  Ho2  1  0.750000  0.512190  0.822937  1
  Zr  Zr3  1  0.250000  0.854651  0.924686  1
  Zr  Zr4  1  0.250000  0.354674  0.576628  1
  Zr  Zr5  1  0.750000  0.139668  0.082856  1
  Zr  Zr6  1  0.750000  0.650579  0.419388  1
  Zr  Zr7  1  0.250000  0.990495  0.328743  1
  Ir  Ir8  1  0.250000  0.235516  0.910049  1
  Ir  Ir9  1  0.250000  0.744348  0.582181  1
  Ir  Ir10  1  0.750000  0.762165  0.090481  1
  Ir  Ir11  1  0.750000  0.258483  0.407244  1
