# generated using pymatgen
data_U6CuSb8Pt5
_symmetry_space_group_name_H-M   'P 1'
_cell_length_a   8.43885005
_cell_length_b   8.43884964
_cell_length_c   8.43884954
_cell_angle_alpha   109.11677837
_cell_angle_beta   110.18245260
_cell_angle_gamma   109.11677978
_symmetry_Int_Tables_number   1
_chemical_formula_structural   U6CuSb8Pt5
_chemical_formula_sum   'U6 Cu1 Sb8 Pt5'
_cell_volume   462.57015703
_cell_formula_units_Z   1
loop_
 _symmetry_equiv_pos_site_id
 _symmetry_equiv_pos_as_xyz
  1  'x, y, z'
loop_
 _atom_site_type_symbol
 _atom_site_label
 _atom_site_symmetry_multiplicity
 _atom_site_fract_x
 _atom_site_fract_y
 _atom_site_fract_z
 _atom_site_occupancy
  U  U0  1  0.875000  0.250000  0.125000  1
  U  U1  1  0.625000  0.750000  0.375000  1
  U  U2  1  0.244005  0.121305  0.875632  1
  U  U3  1  0.754327  0.378695  0.622700  1
  U  U4  1  0.124368  0.868373  0.245673  1
  U  U5  1  0.377300  0.631627  0.755995  1
  Cu  Cu6  1  0.375000  0.250000  0.625000  1
  Sb  Sb7  1  0.668007  0.494802  0.989204  1
  Sb  Sb8  1  0.494403  0.005198  0.673206  1
  Sb  Sb9  1  0.999540  0.678262  0.498209  1
  Sb  Sb10  1  0.819948  0.821738  0.821279  1
  Sb  Sb11  1  0.501791  0.001331  0.180052  1
  Sb  Sb12  1  0.178721  0.498669  0.000460  1
  Sb  Sb13  1  0.010796  0.178803  0.505597  1
  Sb  Sb14  1  0.326794  0.321197  0.331993  1
  Pt  Pt15  1  0.125000  0.750000  0.875000  1
  Pt  Pt16  1  0.250487  0.624038  0.375687  1
  Pt  Pt17  1  0.751649  0.875962  0.126449  1
  Pt  Pt18  1  0.624313  0.374800  0.248351  1
  Pt  Pt19  1  0.873551  0.125200  0.749513  1
