# generated using pymatgen
data_Ce3Sm7(Si2Ru3)2
_symmetry_space_group_name_H-M   'P 1'
_cell_length_a   8.43749777
_cell_length_b   8.43749644
_cell_length_c   8.43749729
_cell_angle_alpha   110.19167776
_cell_angle_beta   110.19167091
_cell_angle_gamma   110.19167481
_symmetry_Int_Tables_number   1
_chemical_formula_structural   Ce3Sm7(Si2Ru3)2
_chemical_formula_sum   'Ce3 Sm7 Si4 Ru6'
_cell_volume   449.64469431
_cell_formula_units_Z   1
loop_
 _symmetry_equiv_pos_site_id
 _symmetry_equiv_pos_as_xyz
  1  'x, y, z'
loop_
 _atom_site_type_symbol
 _atom_site_label
 _atom_site_symmetry_multiplicity
 _atom_site_fract_x
 _atom_site_fract_y
 _atom_site_fract_z
 _atom_site_occupancy
  Ce  Ce0  1  0.252727  0.208906  0.956855  1
  Ce  Ce1  1  0.956855  0.252727  0.208906  1
  Ce  Ce2  1  0.208906  0.956855  0.252727  1
  Sm  Sm3  1  0.770768  0.770768  0.770768  1
  Sm  Sm4  1  0.302957  0.556474  0.752428  1
  Sm  Sm5  1  0.752428  0.302957  0.556474  1
  Sm  Sm6  1  0.556474  0.752428  0.302957  1
  Sm  Sm7  1  0.731317  0.502894  0.994691  1
  Sm  Sm8  1  0.994691  0.731317  0.502894  1
  Sm  Sm9  1  0.502894  0.994691  0.731317  1
  Si  Si10  1  0.398018  0.398018  0.398018  1
  Si  Si11  1  0.099238  0.497636  0.003342  1
  Si  Si12  1  0.003342  0.099238  0.497636  1
  Si  Si13  1  0.497636  0.003342  0.099238  1
  Ru  Ru14  1  0.914705  0.129891  0.752235  1
  Ru  Ru15  1  0.752235  0.914705  0.129891  1
  Ru  Ru16  1  0.129891  0.752235  0.914705  1
  Ru  Ru17  1  0.226019  0.592020  0.356878  1
  Ru  Ru18  1  0.356878  0.226019  0.592020  1
  Ru  Ru19  1  0.592020  0.356878  0.226019  1
