# generated using pymatgen
data_Er2TmTa3(B2Ru5)2
_symmetry_space_group_name_H-M   'P 1'
_cell_length_a   9.57346228
_cell_length_b   9.57346331
_cell_length_c   3.11388500
_cell_angle_alpha   90.00000000
_cell_angle_beta   90.00000000
_cell_angle_gamma   90.33238172
_symmetry_Int_Tables_number   1
_chemical_formula_structural   Er2TmTa3(B2Ru5)2
_chemical_formula_sum   'Er2 Tm1 Ta3 B4 Ru10'
_cell_volume   285.38646346
_cell_formula_units_Z   1
loop_
 _symmetry_equiv_pos_site_id
 _symmetry_equiv_pos_as_xyz
  1  'x, y, z'
loop_
 _atom_site_type_symbol
 _atom_site_label
 _atom_site_symmetry_multiplicity
 _atom_site_fract_x
 _atom_site_fract_y
 _atom_site_fract_z
 _atom_site_occupancy
  Er  Er0  1  0.824067  0.674765  0.000000  1
  Er  Er1  1  0.174765  0.324067  0.000000  1
  Tm  Tm2  1  0.325795  0.825795  0.000000  1
  Ta  Ta3  1  0.675550  0.175550  0.000000  1
  Ta  Ta4  1  0.498078  0.503214  0.000000  1
  Ta  Ta5  1  0.003214  0.998078  0.000000  1
  B  B6  1  0.623399  0.881167  0.000000  1
  B  B7  1  0.381167  0.123399  0.000000  1
  B  B8  1  0.118998  0.618998  0.000000  1
  B  B9  1  0.876159  0.376159  0.000000  1
  Ru  Ru10  1  0.570887  0.721856  0.500000  1
  Ru  Ru11  1  0.440418  0.280865  0.500000  1
  Ru  Ru12  1  0.069811  0.780608  0.500000  1
  Ru  Ru13  1  0.916279  0.213076  0.500000  1
  Ru  Ru14  1  0.280608  0.569811  0.500000  1
  Ru  Ru15  1  0.713076  0.416279  0.500000  1
  Ru  Ru16  1  0.221856  0.070887  0.500000  1
  Ru  Ru17  1  0.780865  0.940418  0.500000  1
  Ru  Ru18  1  0.509080  0.009080  0.500000  1
  Ru  Ru19  1  0.995930  0.495930  0.500000  1
