# generated using pymatgen
data_Gd6IO12
_symmetry_space_group_name_H-M   'P 1'
_cell_length_a   6.62102008
_cell_length_b   6.62095811
_cell_length_c   6.62102338
_cell_angle_alpha   98.68492481
_cell_angle_beta   98.68443540
_cell_angle_gamma   98.68495628
_symmetry_Int_Tables_number   1
_chemical_formula_structural   Gd6IO12
_chemical_formula_sum   'Gd6 I1 O12'
_cell_volume   279.10933893
_cell_formula_units_Z   1
loop_
 _symmetry_equiv_pos_site_id
 _symmetry_equiv_pos_as_xyz
  1  'x, y, z'
loop_
 _atom_site_type_symbol
 _atom_site_label
 _atom_site_symmetry_multiplicity
 _atom_site_fract_x
 _atom_site_fract_y
 _atom_site_fract_z
 _atom_site_occupancy
  Gd  Gd0  1  0.609634  0.314492  0.144523  1
  Gd  Gd1  1  0.144523  0.609633  0.314481  1
  Gd  Gd2  1  0.685512  0.855480  0.390366  1
  Gd  Gd3  1  0.314488  0.144520  0.609634  1
  Gd  Gd4  1  0.855477  0.390367  0.685519  1
  Gd  Gd5  1  0.390365  0.685508  0.855477  1
  I  I6  1  0.000000  0.000000  0.000000  1
  O  O7  1  0.698805  0.929360  0.037396  1
  O  O8  1  0.962602  0.301195  0.070638  1
  O  O9  1  0.433919  0.592180  0.177399  1
  O  O10  1  0.070638  0.962602  0.301194  1
  O  O11  1  0.822602  0.566083  0.407821  1
  O  O12  1  0.592179  0.177396  0.433917  1
  O  O13  1  0.407821  0.822604  0.566083  1
  O  O14  1  0.177398  0.433917  0.592179  1
  O  O15  1  0.929362  0.037398  0.698806  1
  O  O16  1  0.566081  0.407819  0.822601  1
  O  O17  1  0.037398  0.698805  0.929362  1
  O  O18  1  0.301195  0.070640  0.962604  1
