# generated using pymatgen
data_Pr2Nd4Ga7Si4Ge
_symmetry_space_group_name_H-M   'P 1'
_cell_length_a   4.22929402
_cell_length_b   4.28008365
_cell_length_c   21.90750082
_cell_angle_alpha   84.39410137
_cell_angle_beta   84.46082958
_cell_angle_gamma   89.99999704
_symmetry_Int_Tables_number   1
_chemical_formula_structural   Pr2Nd4Ga7Si4Ge
_chemical_formula_sum   'Pr2 Nd4 Ga7 Si4 Ge1'
_cell_volume   392.80636826
_cell_formula_units_Z   1
loop_
 _symmetry_equiv_pos_site_id
 _symmetry_equiv_pos_as_xyz
  1  'x, y, z'
loop_
 _atom_site_type_symbol
 _atom_site_label
 _atom_site_symmetry_multiplicity
 _atom_site_fract_x
 _atom_site_fract_y
 _atom_site_fract_z
 _atom_site_occupancy
  Pr  Pr0  1  0.958199  0.708199  0.083601  1
  Pr  Pr1  1  0.291468  0.041468  0.417064  1
  Nd  Nd2  1  0.623601  0.373601  0.752797  1
  Nd  Nd3  1  0.376062  0.626062  0.247875  1
  Nd  Nd4  1  0.709268  0.959268  0.581463  1
  Nd  Nd5  1  0.041056  0.291056  0.917886  1
  Ga  Ga6  1  0.152876  0.902876  0.694249  1
  Ga  Ga7  1  0.431013  0.181013  0.137975  1
  Ga  Ga8  1  0.763175  0.513175  0.473650  1
  Ga  Ga9  1  0.096892  0.846892  0.806217  1
  Ga  Ga10  1  0.848567  0.098567  0.302866  1
  Ga  Ga11  1  0.180514  0.430514  0.638972  1
  Ga  Ga12  1  0.513642  0.763642  0.972716  1
  Si  Si13  1  0.903274  0.153274  0.193453  1
  Si  Si14  1  0.235583  0.485583  0.528835  1
  Si  Si15  1  0.568893  0.818893  0.862212  1
  Si  Si16  1  0.486328  0.236328  0.027344  1
  Ge  Ge17  1  0.819588  0.569588  0.360823  1
