# generated using pymatgen
data_Ac17Yb3Si15Hg
_symmetry_space_group_name_H-M   'P 1'
_cell_length_a   8.37269201
_cell_length_b   8.34651161
_cell_length_c   16.01247400
_cell_angle_alpha   90.07416557
_cell_angle_beta   89.51093986
_cell_angle_gamma   89.85867737
_symmetry_Int_Tables_number   1
_chemical_formula_structural   Ac17Yb3Si15Hg
_chemical_formula_sum   'Ac17 Yb3 Si15 Hg1'
_cell_volume   1118.95091893
_cell_formula_units_Z   1
loop_
 _symmetry_equiv_pos_site_id
 _symmetry_equiv_pos_as_xyz
  1  'x, y, z'
loop_
 _atom_site_type_symbol
 _atom_site_label
 _atom_site_symmetry_multiplicity
 _atom_site_fract_x
 _atom_site_fract_y
 _atom_site_fract_z
 _atom_site_occupancy
  Ac  Ac0  1  0.692565  0.690246  0.498241  1
  Ac  Ac1  1  0.377056  0.012552  0.445687  1
  Ac  Ac2  1  0.491468  0.877534  0.702214  1
  Ac  Ac3  1  0.510322  0.117587  0.194450  1
  Ac  Ac4  1  0.881864  0.489260  0.298728  1
  Ac  Ac5  1  0.114158  0.515243  0.807138  1
  Ac  Ac6  1  0.621897  0.989698  0.949338  1
  Ac  Ac7  1  0.002796  0.382836  0.550769  1
  Ac  Ac8  1  0.990820  0.620365  0.053525  1
  Ac  Ac9  1  0.125611  0.981592  0.880012  1
  Ac  Ac10  1  0.519900  0.625073  0.127424  1
  Ac  Ac11  1  0.483611  0.380344  0.630230  1
  Ac  Ac12  1  0.626344  0.519743  0.875964  1
  Ac  Ac13  1  0.378401  0.479995  0.368362  1
  Ac  Ac14  1  0.876189  0.023308  0.374633  1
  Ac  Ac15  1  0.983595  0.122850  0.121862  1
  Ac  Ac16  1  0.015227  0.865995  0.621418  1
  Yb  Yb17  1  0.314247  0.310779  0.999362  1
  Yb  Yb18  1  0.190500  0.811551  0.249225  1
  Yb  Yb19  1  0.802892  0.189120  0.752984  1
  Si  Si20  1  0.331761  0.699512  0.956801  1
  Si  Si21  1  0.663816  0.299058  0.456308  1
  Si  Si22  1  0.701691  0.329309  0.046303  1
  Si  Si23  1  0.303656  0.670276  0.539998  1
  Si  Si24  1  0.802508  0.829995  0.205118  1
  Si  Si25  1  0.170174  0.200641  0.291845  1
  Si  Si26  1  0.831923  0.800597  0.796666  1
  Si  Si27  1  0.288556  0.913968  0.061348  1
  Si  Si28  1  0.583362  0.792894  0.308922  1
  Si  Si29  1  0.431166  0.209294  0.817527  1
  Si  Si30  1  0.787546  0.582160  0.693086  1
  Si  Si31  1  0.212175  0.415827  0.186764  1
  Si  Si32  1  0.706798  0.082504  0.560598  1
  Si  Si33  1  0.915729  0.288216  0.940735  1
  Si  Si34  1  0.083897  0.711056  0.436893  1
  Hg  Hg35  1  0.185773  0.169022  0.699524  1
