# generated using pymatgen
data_Nd3Er5Cd2RuPt
_symmetry_space_group_name_H-M   'P 1'
_cell_length_a   9.70856200
_cell_length_b   9.70856133
_cell_length_c   9.72706500
_cell_angle_alpha   59.93692262
_cell_angle_beta   59.93692491
_cell_angle_gamma   60.04251358
_symmetry_Int_Tables_number   1
_chemical_formula_structural   Nd3Er5Cd2RuPt
_chemical_formula_sum   'Nd6 Er10 Cd4 Ru2 Pt2'
_cell_volume   647.88954082
_cell_formula_units_Z   2
loop_
 _symmetry_equiv_pos_site_id
 _symmetry_equiv_pos_as_xyz
  1  'x, y, z'
loop_
 _atom_site_type_symbol
 _atom_site_label
 _atom_site_symmetry_multiplicity
 _atom_site_fract_x
 _atom_site_fract_y
 _atom_site_fract_z
 _atom_site_occupancy
  Nd  Nd0  1  0.939957  0.555788  0.562792  1
  Nd  Nd1  1  0.555788  0.939957  0.941462  1
  Nd  Nd2  1  0.555788  0.939957  0.562792  1
  Nd  Nd3  1  0.939957  0.555788  0.941462  1
  Nd  Nd4  1  0.560106  0.560106  0.939894  1
  Nd  Nd5  1  0.940613  0.940613  0.559387  1
  Er  Er6  1  0.347816  0.347816  0.351571  1
  Er  Er7  1  0.347816  0.347816  0.952799  1
  Er  Er8  1  0.344448  0.960243  0.347654  1
  Er  Er9  1  0.960243  0.344448  0.347654  1
  Er  Er10  1  0.817732  0.185057  0.187755  1
  Er  Er11  1  0.185057  0.817732  0.809456  1
  Er  Er12  1  0.185057  0.817732  0.187755  1
  Er  Er13  1  0.817732  0.185057  0.809456  1
  Er  Er14  1  0.185603  0.185603  0.814397  1
  Er  Er15  1  0.810955  0.810955  0.189045  1
  Cd  Cd16  1  0.579085  0.579085  0.579530  1
  Cd  Cd17  1  0.579085  0.579085  0.262301  1
  Cd  Cd18  1  0.580102  0.260280  0.579809  1
  Cd  Cd19  1  0.260280  0.580102  0.579809  1
  Ru  Ru20  1  0.143662  0.143662  0.137601  1
  Ru  Ru21  1  0.143662  0.143662  0.575076  1
  Pt  Pt22  1  0.144411  0.575046  0.140272  1
  Pt  Pt23  1  0.575046  0.144411  0.140272  1
