# generated using pymatgen
data_TbEr19(Cd3Pt)2
_symmetry_space_group_name_H-M   'P 1'
_cell_length_a   9.62762800
_cell_length_b   9.62788990
_cell_length_c   9.67553200
_cell_angle_alpha   90.00000000
_cell_angle_beta   90.00000000
_cell_angle_gamma   120.00090740
_symmetry_Int_Tables_number   1
_chemical_formula_structural   TbEr19(Cd3Pt)2
_chemical_formula_sum   'Tb1 Er19 Cd6 Pt2'
_cell_volume   776.69754225
_cell_formula_units_Z   1
loop_
 _symmetry_equiv_pos_site_id
 _symmetry_equiv_pos_as_xyz
  1  'x, y, z'
loop_
 _atom_site_type_symbol
 _atom_site_label
 _atom_site_symmetry_multiplicity
 _atom_site_fract_x
 _atom_site_fract_y
 _atom_site_fract_z
 _atom_site_occupancy
  Tb  Tb0  1  0.085315  0.542658  0.250000  1
  Er  Er1  1  0.208060  0.792477  0.940857  1
  Er  Er2  1  0.208060  0.415584  0.940857  1
  Er  Er3  1  0.584279  0.792140  0.941107  1
  Er  Er4  1  0.791635  0.207412  0.058340  1
  Er  Er5  1  0.791635  0.584222  0.058340  1
  Er  Er6  1  0.415708  0.207855  0.058406  1
  Er  Er7  1  0.791635  0.207412  0.441660  1
  Er  Er8  1  0.791635  0.584222  0.441660  1
  Er  Er9  1  0.415708  0.207855  0.441594  1
  Er  Er10  1  0.208060  0.792477  0.559143  1
  Er  Er11  1  0.208060  0.415584  0.559143  1
  Er  Er12  1  0.584279  0.792140  0.558893  1
  Er  Er13  1  0.542715  0.457369  0.750000  1
  Er  Er14  1  0.542715  0.085346  0.750000  1
  Er  Er15  1  0.914811  0.457405  0.750000  1
  Er  Er16  1  0.457873  0.542721  0.250000  1
  Er  Er17  1  0.457873  0.915152  0.250000  1
  Er  Er18  1  0.000061  0.000031  0.999957  1
  Er  Er19  1  0.000061  0.000031  0.500043  1
  Cd  Cd20  1  0.884221  0.115388  0.750000  1
  Cd  Cd21  1  0.884221  0.768834  0.750000  1
  Cd  Cd22  1  0.231722  0.115862  0.750000  1
  Cd  Cd23  1  0.115739  0.885653  0.250000  1
  Cd  Cd24  1  0.115739  0.230085  0.250000  1
  Cd  Cd25  1  0.769007  0.884502  0.250000  1
  Pt  Pt26  1  0.333005  0.666504  0.750000  1
  Pt  Pt27  1  0.666171  0.333085  0.250000  1
