# generated using pymatgen
data_Sc6Al6Zn3GeAu2
_symmetry_space_group_name_H-M   'P 1'
_cell_length_a   6.74581700
_cell_length_b   6.74581684
_cell_length_c   8.27993300
_cell_angle_alpha   90.00000000
_cell_angle_beta   90.00000000
_cell_angle_gamma   119.99999586
_symmetry_Int_Tables_number   1
_chemical_formula_structural   Sc6Al6Zn3GeAu2
_chemical_formula_sum   'Sc6 Al6 Zn3 Ge1 Au2'
_cell_volume   326.30713741
_cell_formula_units_Z   1
loop_
 _symmetry_equiv_pos_site_id
 _symmetry_equiv_pos_as_xyz
  1  'x, y, z'
loop_
 _atom_site_type_symbol
 _atom_site_label
 _atom_site_symmetry_multiplicity
 _atom_site_fract_x
 _atom_site_fract_y
 _atom_site_fract_z
 _atom_site_occupancy
  Sc  Sc0  1  0.572646  0.999811  0.748466  1
  Sc  Sc1  1  0.000189  0.572835  0.748466  1
  Sc  Sc2  1  0.427165  0.427354  0.748466  1
  Sc  Sc3  1  0.000134  0.572802  0.251543  1
  Sc  Sc4  1  0.572668  0.999866  0.251543  1
  Sc  Sc5  1  0.427198  0.427332  0.251543  1
  Al  Al6  1  0.747835  0.758181  0.000002  1
  Al  Al7  1  0.241819  0.989654  0.000002  1
  Al  Al8  1  0.010346  0.252165  0.000002  1
  Al  Al9  1  0.752218  0.751722  0.499993  1
  Al  Al10  1  0.248278  0.000496  0.499993  1
  Al  Al11  1  0.999504  0.247782  0.499993  1
  Zn  Zn12  1  0.666667  0.333333  0.500034  1
  Zn  Zn13  1  0.333333  0.666667  0.499934  1
  Zn  Zn14  1  0.333333  0.666667  0.000066  1
  Ge  Ge15  1  0.666667  0.333333  0.999974  1
  Au  Au16  1  0.000000  0.000000  0.752654  1
  Au  Au17  1  0.000000  0.000000  0.247324  1
