# generated using pymatgen
data_TbY2IrI3
_symmetry_space_group_name_H-M   'P 1'
_cell_length_a   4.31052900
_cell_length_b   8.89066502
_cell_length_c   12.33526172
_cell_angle_alpha   86.54157579
_cell_angle_beta   90.00000000
_cell_angle_gamma   90.00000000
_symmetry_Int_Tables_number   1
_chemical_formula_structural   TbY2IrI3
_chemical_formula_sum   'Tb2 Y4 Ir2 I6'
_cell_volume   471.86910561
_cell_formula_units_Z   2
loop_
 _symmetry_equiv_pos_site_id
 _symmetry_equiv_pos_as_xyz
  1  'x, y, z'
loop_
 _atom_site_type_symbol
 _atom_site_label
 _atom_site_symmetry_multiplicity
 _atom_site_fract_x
 _atom_site_fract_y
 _atom_site_fract_z
 _atom_site_occupancy
  Tb  Tb0  1  0.750000  0.140965  0.129358  1
  Tb  Tb1  1  0.250000  0.859035  0.870642  1
  Y  Y2  1  0.750000  0.096467  0.684326  1
  Y  Y3  1  0.250000  0.903533  0.315674  1
  Y  Y4  1  0.250000  0.250567  0.900056  1
  Y  Y5  1  0.750000  0.749433  0.099944  1
  Ir  Ir6  1  0.750000  0.048983  0.908200  1
  Ir  Ir7  1  0.250000  0.951017  0.091800  1
  I  I8  1  0.250000  0.428189  0.132684  1
  I  I9  1  0.750000  0.571811  0.867316  1
  I  I10  1  0.250000  0.348600  0.639274  1
  I  I11  1  0.750000  0.651400  0.360726  1
  I  I12  1  0.750000  0.141095  0.394502  1
  I  I13  1  0.250000  0.858905  0.605498  1
