# generated using pymatgen
data_Hf2Zr3Ga3O
_symmetry_space_group_name_H-M   'P 1'
_cell_length_a   8.03505800
_cell_length_b   8.03505906
_cell_length_c   5.72227700
_cell_angle_alpha   90.00000000
_cell_angle_beta   90.00000000
_cell_angle_gamma   120.00000385
_symmetry_Int_Tables_number   1
_chemical_formula_structural   Hf2Zr3Ga3O
_chemical_formula_sum   'Hf4 Zr6 Ga6 O2'
_cell_volume   319.94666039
_cell_formula_units_Z   2
loop_
 _symmetry_equiv_pos_site_id
 _symmetry_equiv_pos_as_xyz
  1  'x, y, z'
loop_
 _atom_site_type_symbol
 _atom_site_label
 _atom_site_symmetry_multiplicity
 _atom_site_fract_x
 _atom_site_fract_y
 _atom_site_fract_z
 _atom_site_occupancy
  Hf  Hf0  1  0.666667  0.333333  0.000000  1
  Hf  Hf1  1  0.333333  0.666667  0.000000  1
  Hf  Hf2  1  0.666667  0.333333  0.500000  1
  Hf  Hf3  1  0.333333  0.666667  0.500000  1
  Zr  Zr4  1  0.235614  0.000000  0.250000  1
  Zr  Zr5  1  0.000000  0.235614  0.250000  1
  Zr  Zr6  1  0.764386  0.764386  0.250000  1
  Zr  Zr7  1  0.764386  0.000000  0.750000  1
  Zr  Zr8  1  0.000000  0.764386  0.750000  1
  Zr  Zr9  1  0.235614  0.235614  0.750000  1
  Ga  Ga10  1  0.599171  0.000000  0.250000  1
  Ga  Ga11  1  0.000000  0.599171  0.250000  1
  Ga  Ga12  1  0.400829  0.400829  0.250000  1
  Ga  Ga13  1  0.400829  0.000000  0.750000  1
  Ga  Ga14  1  0.000000  0.400829  0.750000  1
  Ga  Ga15  1  0.599171  0.599171  0.750000  1
  O  O16  1  0.000000  0.000000  0.000000  1
  O  O17  1  0.000000  0.000000  0.500000  1
