# generated using pymatgen
data_Eu2VSeO8
_symmetry_space_group_name_H-M   'P 1'
_cell_length_a   6.20539489
_cell_length_b   6.20539402
_cell_length_c   6.20539567
_cell_angle_alpha   106.04257704
_cell_angle_beta   106.04257678
_cell_angle_gamma   116.57037537
_symmetry_Int_Tables_number   1
_chemical_formula_structural   Eu2VSeO8
_chemical_formula_sum   'Eu2 V1 Se1 O8'
_cell_volume   181.80126268
_cell_formula_units_Z   1
loop_
 _symmetry_equiv_pos_site_id
 _symmetry_equiv_pos_as_xyz
  1  'x, y, z'
loop_
 _atom_site_type_symbol
 _atom_site_label
 _atom_site_symmetry_multiplicity
 _atom_site_fract_x
 _atom_site_fract_y
 _atom_site_fract_z
 _atom_site_occupancy
  Eu  Eu0  1  0.500000  0.500000  0.000000  1
  Eu  Eu1  1  0.750000  0.250000  0.500000  1
  V  V2  1  0.000000  0.000000  0.000000  1
  Se  Se3  1  0.250000  0.750000  0.500000  1
  O  O4  1  0.829063  0.009725  0.180661  1
  O  O5  1  0.915081  0.589475  0.325606  1
  O  O6  1  0.263869  0.589475  0.674394  1
  O  O7  1  0.829063  0.648402  0.819339  1
  O  O8  1  0.351598  0.170937  0.180661  1
  O  O9  1  0.410525  0.736131  0.325606  1
  O  O10  1  0.410525  0.084919  0.674394  1
  O  O11  1  0.990275  0.170937  0.819339  1
