# generated using pymatgen
data_Tb18Ho2Co3Bi8Ru
_symmetry_space_group_name_H-M   'P 1'
_cell_length_a   8.04761153
_cell_length_b   8.92469036
_cell_length_c   12.47623138
_cell_angle_alpha   89.96501383
_cell_angle_beta   90.22513473
_cell_angle_gamma   89.92436264
_symmetry_Int_Tables_number   1
_chemical_formula_structural   Tb18Ho2Co3Bi8Ru
_chemical_formula_sum   'Tb18 Ho2 Co3 Bi8 Ru1'
_cell_volume   896.06552435
_cell_formula_units_Z   1
loop_
 _symmetry_equiv_pos_site_id
 _symmetry_equiv_pos_as_xyz
  1  'x, y, z'
loop_
 _atom_site_type_symbol
 _atom_site_label
 _atom_site_symmetry_multiplicity
 _atom_site_fract_x
 _atom_site_fract_y
 _atom_site_fract_z
 _atom_site_occupancy
  Tb  Tb0  1  0.847686  0.750111  0.800352  1
  Tb  Tb1  1  0.151436  0.249951  0.198289  1
  Tb  Tb2  1  0.348936  0.249314  0.698267  1
  Tb  Tb3  1  0.652292  0.750461  0.297067  1
  Tb  Tb4  1  0.378885  0.750853  0.693100  1
  Tb  Tb5  1  0.618630  0.249015  0.310219  1
  Tb  Tb6  1  0.880894  0.249869  0.810260  1
  Tb  Tb7  1  0.118511  0.749961  0.188425  1
  Tb  Tb8  1  0.951233  0.750566  0.503826  1
  Tb  Tb9  1  0.047878  0.249571  0.496711  1
  Tb  Tb10  1  0.453378  0.249992  0.997344  1
  Tb  Tb11  1  0.546803  0.749995  0.002493  1
  Tb  Tb12  1  0.176606  0.966465  0.936946  1
  Tb  Tb13  1  0.322732  0.532283  0.436694  1
  Tb  Tb14  1  0.822676  0.035453  0.062956  1
  Tb  Tb15  1  0.677850  0.459930  0.564285  1
  Tb  Tb16  1  0.822624  0.464658  0.062810  1
  Tb  Tb17  1  0.176579  0.533483  0.937179  1
  Ho  Ho18  1  0.676166  0.041835  0.563964  1
  Ho  Ho19  1  0.324398  0.966126  0.437007  1
  Co  Co20  1  0.436739  0.249436  0.491072  1
  Co  Co21  1  0.059849  0.249948  0.991789  1
  Co  Co22  1  0.938643  0.749985  0.007480  1
  Bi  Bi23  1  0.571850  0.491938  0.826463  1
  Bi  Bi24  1  0.427504  0.507590  0.173771  1
  Bi  Bi25  1  0.072527  0.507366  0.674489  1
  Bi  Bi26  1  0.426892  0.992183  0.173792  1
  Bi  Bi27  1  0.928825  0.492332  0.325835  1
  Bi  Bi28  1  0.572466  0.008147  0.826607  1
  Bi  Bi29  1  0.930202  0.007694  0.325815  1
  Bi  Bi30  1  0.071390  0.992501  0.674572  1
  Ru  Ru31  1  0.566919  0.750987  0.510121  1
