# generated using pymatgen
data_Yb(CdAg2)2
_symmetry_space_group_name_H-M   'P 1'
_cell_length_a   5.83956033
_cell_length_b   5.83955938
_cell_length_c   5.83956099
_cell_angle_alpha   103.68099190
_cell_angle_beta   103.68099409
_cell_angle_gamma   121.80085266
_symmetry_Int_Tables_number   1
_chemical_formula_structural   Yb(CdAg2)2
_chemical_formula_sum   'Yb1 Cd2 Ag4'
_cell_volume   147.87696039
_cell_formula_units_Z   1
loop_
 _symmetry_equiv_pos_site_id
 _symmetry_equiv_pos_as_xyz
  1  'x, y, z'
loop_
 _atom_site_type_symbol
 _atom_site_label
 _atom_site_symmetry_multiplicity
 _atom_site_fract_x
 _atom_site_fract_y
 _atom_site_fract_z
 _atom_site_occupancy
  Yb  Yb0  1  0.000000  0.000000  0.000000  1
  Cd  Cd1  1  0.250000  0.750000  0.500000  1
  Cd  Cd2  1  0.750000  0.250000  0.500000  1
  Ag  Ag3  1  0.305254  0.305254  0.610508  1
  Ag  Ag4  1  0.694746  0.694746  0.389492  1
  Ag  Ag5  1  0.694746  0.305254  0.000000  1
  Ag  Ag6  1  0.305254  0.694746  0.000000  1
