# generated using pymatgen
data_CeHo3Al16(GaIr3)2
_symmetry_space_group_name_H-M   'P 1'
_cell_length_a   7.56911300
_cell_length_b   7.57911749
_cell_length_c   9.50075100
_cell_angle_alpha   90.00000000
_cell_angle_beta   90.00000000
_cell_angle_gamma   119.46333525
_symmetry_Int_Tables_number   1
_chemical_formula_structural   CeHo3Al16(GaIr3)2
_chemical_formula_sum   'Ce1 Ho3 Al16 Ga2 Ir6'
_cell_volume   474.54287737
_cell_formula_units_Z   1
loop_
 _symmetry_equiv_pos_site_id
 _symmetry_equiv_pos_as_xyz
  1  'x, y, z'
loop_
 _atom_site_type_symbol
 _atom_site_label
 _atom_site_symmetry_multiplicity
 _atom_site_fract_x
 _atom_site_fract_y
 _atom_site_fract_z
 _atom_site_occupancy
  Ce  Ce0  1  0.997411  0.673586  0.250000  1
  Ho  Ho1  1  0.003434  0.328745  0.750000  1
  Ho  Ho2  1  0.671944  0.991707  0.250000  1
  Ho  Ho3  1  0.327319  0.002249  0.750000  1
  Al  Al4  1  0.871654  0.873561  0.750000  1
  Al  Al5  1  0.001322  0.333210  0.072215  1
  Al  Al6  1  0.998958  0.664117  0.921036  1
  Al  Al7  1  0.998958  0.664117  0.578964  1
  Al  Al8  1  0.338258  0.004294  0.427886  1
  Al  Al9  1  0.001322  0.333210  0.427785  1
  Al  Al10  1  0.664518  0.000354  0.575778  1
  Al  Al11  1  0.664518  0.000354  0.924222  1
  Al  Al12  1  0.338258  0.004294  0.072114  1
  Al  Al13  1  0.332096  0.332170  0.559165  1
  Al  Al14  1  0.664345  0.665479  0.455088  1
  Al  Al15  1  0.664345  0.665479  0.044912  1
  Al  Al16  1  0.332096  0.332170  0.940835  1
  Al  Al17  1  0.659756  0.449368  0.750000  1
  Al  Al18  1  0.547977  0.339308  0.250000  1
  Al  Al19  1  0.449800  0.661823  0.750000  1
  Ga  Ga20  1  0.132277  0.133993  0.250000  1
  Ga  Ga21  1  0.343874  0.547486  0.250000  1
  Ir  Ir22  1  0.671131  0.328579  0.999882  1
  Ir  Ir23  1  0.326773  0.671716  0.997842  1
  Ir  Ir24  1  0.326773  0.671716  0.502158  1
  Ir  Ir25  1  0.671131  0.328579  0.500118  1
  Ir  Ir26  1  0.999877  0.999168  0.997880  1
  Ir  Ir27  1  0.999877  0.999168  0.502120  1
