# generated using pymatgen
data_Ag6HgCO11
_symmetry_space_group_name_H-M   'P 1'
_cell_length_a   7.08029315
_cell_length_b   7.08029345
_cell_length_c   7.08029296
_cell_angle_alpha   60.99694717
_cell_angle_beta   60.99694995
_cell_angle_gamma   60.99693960
_symmetry_Int_Tables_number   1
_chemical_formula_structural   Ag6HgCO11
_chemical_formula_sum   'Ag6 Hg1 C1 O11'
_cell_volume   256.61591283
_cell_formula_units_Z   1
loop_
 _symmetry_equiv_pos_site_id
 _symmetry_equiv_pos_as_xyz
  1  'x, y, z'
loop_
 _atom_site_type_symbol
 _atom_site_label
 _atom_site_symmetry_multiplicity
 _atom_site_fract_x
 _atom_site_fract_y
 _atom_site_fract_z
 _atom_site_occupancy
  Ag  Ag0  1  0.499824  0.000447  0.000447  1
  Ag  Ag1  1  0.500325  0.500325  0.000753  1
  Ag  Ag2  1  0.500325  0.000753  0.500325  1
  Ag  Ag3  1  0.000447  0.000447  0.499824  1
  Ag  Ag4  1  0.000753  0.500325  0.500325  1
  Ag  Ag5  1  0.000447  0.499824  0.000447  1
  Hg  Hg6  1  0.999438  0.999438  0.999438  1
  C  C7  1  0.499570  0.499570  0.499570  1
  O  O8  1  0.573756  0.147087  0.147087  1
  O  O9  1  0.147087  0.573756  0.147087  1
  O  O10  1  0.140691  0.140691  0.140691  1
  O  O11  1  0.147087  0.147087  0.573756  1
  O  O12  1  0.603110  0.603110  0.292388  1
  O  O13  1  0.603110  0.292388  0.603110  1
  O  O14  1  0.292388  0.603110  0.603110  1
  O  O15  1  0.854126  0.854126  0.424096  1
  O  O16  1  0.854126  0.424096  0.854126  1
  O  O17  1  0.859294  0.859294  0.859294  1
  O  O18  1  0.424096  0.854126  0.854126  1
