# generated using pymatgen
data_Eu3As6(Pd9Rh)2
_symmetry_space_group_name_H-M   'P 1'
_cell_length_a   8.98439686
_cell_length_b   8.98439678
_cell_length_c   8.98439900
_cell_angle_alpha   59.35405362
_cell_angle_beta   59.35405392
_cell_angle_gamma   59.35405207
_symmetry_Int_Tables_number   1
_chemical_formula_structural   Eu3As6(Pd9Rh)2
_chemical_formula_sum   'Eu3 As6 Pd18 Rh2'
_cell_volume   505.26454265
_cell_formula_units_Z   1
loop_
 _symmetry_equiv_pos_site_id
 _symmetry_equiv_pos_as_xyz
  1  'x, y, z'
loop_
 _atom_site_type_symbol
 _atom_site_label
 _atom_site_symmetry_multiplicity
 _atom_site_fract_x
 _atom_site_fract_y
 _atom_site_fract_z
 _atom_site_occupancy
  Eu  Eu0  1  0.254520  0.254520  0.254520  1
  Eu  Eu1  1  0.745480  0.745480  0.745480  1
  Eu  Eu2  1  0.000000  0.000000  0.000000  1
  As  As3  1  0.729019  0.266892  0.266892  1
  As  As4  1  0.270981  0.733108  0.733108  1
  As  As5  1  0.266892  0.729019  0.266892  1
  As  As6  1  0.733108  0.270981  0.733108  1
  As  As7  1  0.266892  0.266892  0.729019  1
  As  As8  1  0.733108  0.733108  0.270981  1
  Pd  Pd9  1  0.381948  0.381948  0.847334  1
  Pd  Pd10  1  0.381948  0.847334  0.381948  1
  Pd  Pd11  1  0.618052  0.618052  0.152666  1
  Pd  Pd12  1  0.618052  0.152666  0.618052  1
  Pd  Pd13  1  0.847334  0.381948  0.381948  1
  Pd  Pd14  1  0.152666  0.618052  0.618052  1
  Pd  Pd15  1  0.346568  0.001788  0.001788  1
  Pd  Pd16  1  0.653432  0.998212  0.998212  1
  Pd  Pd17  1  0.000000  0.347961  0.652039  1
  Pd  Pd18  1  0.000000  0.652039  0.347961  1
  Pd  Pd19  1  0.001788  0.346568  0.001788  1
  Pd  Pd20  1  0.652039  0.000000  0.347961  1
  Pd  Pd21  1  0.998212  0.653432  0.998212  1
  Pd  Pd22  1  0.347961  0.000000  0.652039  1
  Pd  Pd23  1  0.001788  0.001788  0.346568  1
  Pd  Pd24  1  0.998212  0.998212  0.653432  1
  Pd  Pd25  1  0.652039  0.347961  0.000000  1
  Pd  Pd26  1  0.347961  0.652039  0.000000  1
  Rh  Rh27  1  0.388491  0.388491  0.388491  1
  Rh  Rh28  1  0.611509  0.611509  0.611509  1
