# generated using pymatgen
data_Pu2Al3Si
_symmetry_space_group_name_H-M   'P 1'
_cell_length_a   5.50703935
_cell_length_b   5.50703979
_cell_length_c   5.50703878
_cell_angle_alpha   59.11125352
_cell_angle_beta   59.11125025
_cell_angle_gamma   59.11123724
_symmetry_Int_Tables_number   1
_chemical_formula_structural   Pu2Al3Si
_chemical_formula_sum   'Pu2 Al3 Si1'
_cell_volume   115.70457298
_cell_formula_units_Z   1
loop_
 _symmetry_equiv_pos_site_id
 _symmetry_equiv_pos_as_xyz
  1  'x, y, z'
loop_
 _atom_site_type_symbol
 _atom_site_label
 _atom_site_symmetry_multiplicity
 _atom_site_fract_x
 _atom_site_fract_y
 _atom_site_fract_z
 _atom_site_occupancy
  Pu  Pu0  1  0.125614  0.125614  0.125614  1
  Pu  Pu1  1  0.874386  0.874386  0.874386  1
  Al  Al2  1  0.500000  0.000000  0.500000  1
  Al  Al3  1  0.000000  0.500000  0.500000  1
  Al  Al4  1  0.500000  0.500000  0.000000  1
  Si  Si5  1  0.500000  0.500000  0.500000  1
