# generated using pymatgen
data_Tb15HoInAg3Rh4
_symmetry_space_group_name_H-M   'P 1'
_cell_length_a   9.58497053
_cell_length_b   9.62661920
_cell_length_c   9.60829300
_cell_angle_alpha   60.06295738
_cell_angle_beta   59.91948004
_cell_angle_gamma   59.97328788
_symmetry_Int_Tables_number   1
_chemical_formula_structural   Tb15HoInAg3Rh4
_chemical_formula_sum   'Tb15 Ho1 In1 Ag3 Rh4'
_cell_volume   626.68466633
_cell_formula_units_Z   1
loop_
 _symmetry_equiv_pos_site_id
 _symmetry_equiv_pos_as_xyz
  1  'x, y, z'
loop_
 _atom_site_type_symbol
 _atom_site_label
 _atom_site_symmetry_multiplicity
 _atom_site_fract_x
 _atom_site_fract_y
 _atom_site_fract_z
 _atom_site_occupancy
  Tb  Tb0  1  0.811157  0.189955  0.809011  1
  Tb  Tb1  1  0.188264  0.189767  0.810984  1
  Tb  Tb2  1  0.650329  0.052071  0.648799  1
  Tb  Tb3  1  0.067702  0.062202  0.435048  1
  Tb  Tb4  1  0.438682  0.435324  0.062997  1
  Tb  Tb5  1  0.649037  0.649101  0.648992  1
  Tb  Tb6  1  0.811157  0.189955  0.189877  1
  Tb  Tb7  1  0.187843  0.812744  0.811459  1
  Tb  Tb8  1  0.054845  0.648292  0.648432  1
  Tb  Tb9  1  0.438506  0.062165  0.063458  1
  Tb  Tb10  1  0.438506  0.062165  0.435871  1
  Tb  Tb11  1  0.067825  0.435958  0.061526  1
  Tb  Tb12  1  0.649037  0.649101  0.052868  1
  Tb  Tb13  1  0.187843  0.812744  0.187954  1
  Tb  Tb14  1  0.067825  0.435958  0.434691  1
  Ho  Ho15  1  0.812153  0.808193  0.189827  1
  In  In16  1  0.736642  0.420689  0.421334  1
  Ag  Ag17  1  0.415499  0.417544  0.418556  1
  Ag  Ag18  1  0.415499  0.417544  0.748401  1
  Ag  Ag19  1  0.415483  0.749176  0.417670  1
  Rh  Rh20  1  0.855052  0.427933  0.858508  1
  Rh  Rh21  1  0.856709  0.856733  0.859986  1
  Rh  Rh22  1  0.856709  0.856733  0.426572  1
  Rh  Rh23  1  0.427696  0.857952  0.857176  1
