# generated using pymatgen
data_YHo2Fe8Os
_symmetry_space_group_name_H-M   'P 1'
_cell_length_a   8.75173396
_cell_length_b   8.75173433
_cell_length_c   8.75173486
_cell_angle_alpha   33.90342635
_cell_angle_beta   33.90342438
_cell_angle_gamma   33.90342709
_symmetry_Int_Tables_number   1
_chemical_formula_structural   YHo2Fe8Os
_chemical_formula_sum   'Y1 Ho2 Fe8 Os1'
_cell_volume   185.87564931
_cell_formula_units_Z   1
loop_
 _symmetry_equiv_pos_site_id
 _symmetry_equiv_pos_as_xyz
  1  'x, y, z'
loop_
 _atom_site_type_symbol
 _atom_site_label
 _atom_site_symmetry_multiplicity
 _atom_site_fract_x
 _atom_site_fract_y
 _atom_site_fract_z
 _atom_site_occupancy
  Y  Y0  1  0.000000  0.000000  0.000000  1
  Ho  Ho1  1  0.141913  0.141913  0.141913  1
  Ho  Ho2  1  0.858087  0.858087  0.858087  1
  Fe  Fe3  1  0.332743  0.332743  0.332743  1
  Fe  Fe4  1  0.667257  0.667257  0.667257  1
  Fe  Fe5  1  0.078076  0.581525  0.581525  1
  Fe  Fe6  1  0.581525  0.581525  0.078076  1
  Fe  Fe7  1  0.581525  0.078076  0.581525  1
  Fe  Fe8  1  0.418475  0.921924  0.418475  1
  Fe  Fe9  1  0.921924  0.418475  0.418475  1
  Fe  Fe10  1  0.418475  0.418475  0.921924  1
  Os  Os11  1  0.500000  0.500000  0.500000  1
