# generated using pymatgen
data_TbEr3Cd2(CuNi)2
_symmetry_space_group_name_H-M   'P 1'
_cell_length_a   7.42996550
_cell_length_b   7.42996528
_cell_length_c   3.67929500
_cell_angle_alpha   90.00000000
_cell_angle_beta   90.00000000
_cell_angle_gamma   89.29124218
_symmetry_Int_Tables_number   1
_chemical_formula_structural   TbEr3Cd2(CuNi)2
_chemical_formula_sum   'Tb1 Er3 Cd2 Cu2 Ni2'
_cell_volume   203.09767998
_cell_formula_units_Z   1
loop_
 _symmetry_equiv_pos_site_id
 _symmetry_equiv_pos_as_xyz
  1  'x, y, z'
loop_
 _atom_site_type_symbol
 _atom_site_label
 _atom_site_symmetry_multiplicity
 _atom_site_fract_x
 _atom_site_fract_y
 _atom_site_fract_z
 _atom_site_occupancy
  Tb  Tb0  1  0.816988  0.683012  0.500000  1
  Er  Er1  1  0.664954  0.167273  0.500000  1
  Er  Er2  1  0.332727  0.835046  0.500000  1
  Er  Er3  1  0.183721  0.316279  0.500000  1
  Cd  Cd4  1  0.999848  0.001040  0.000000  1
  Cd  Cd5  1  0.498960  0.500152  0.000000  1
  Cu  Cu6  1  0.122452  0.618307  0.000000  1
  Cu  Cu7  1  0.881693  0.377548  0.000000  1
  Ni  Ni8  1  0.618790  0.881210  0.000000  1
  Ni  Ni9  1  0.379867  0.120133  0.000000  1
