# generated using pymatgen
data_KRb3(NpSe3)2
_symmetry_space_group_name_H-M   'P 1'
_cell_length_a   7.51698653
_cell_length_b   7.51698506
_cell_length_c   8.17809100
_cell_angle_alpha   98.95040089
_cell_angle_beta   98.95040685
_cell_angle_gamma   119.78317264
_symmetry_Int_Tables_number   1
_chemical_formula_structural   KRb3(NpSe3)2
_chemical_formula_sum   'K1 Rb3 Np2 Se6'
_cell_volume   381.28846312
_cell_formula_units_Z   1
loop_
 _symmetry_equiv_pos_site_id
 _symmetry_equiv_pos_as_xyz
  1  'x, y, z'
loop_
 _atom_site_type_symbol
 _atom_site_label
 _atom_site_symmetry_multiplicity
 _atom_site_fract_x
 _atom_site_fract_y
 _atom_site_fract_z
 _atom_site_occupancy
  K  K0  1  0.000000  0.000000  0.000000  1
  Rb  Rb1  1  0.845367  0.154633  0.500000  1
  Rb  Rb2  1  0.500000  0.500000  0.500000  1
  Rb  Rb3  1  0.154633  0.845367  0.500000  1
  Np  Np4  1  0.667534  0.332466  0.000000  1
  Np  Np5  1  0.332466  0.667534  0.000000  1
  Se  Se6  1  0.695797  0.695797  0.198641  1
  Se  Se7  1  0.441722  0.068995  0.202964  1
  Se  Se8  1  0.068995  0.441722  0.202964  1
  Se  Se9  1  0.931006  0.558279  0.797037  1
  Se  Se10  1  0.558279  0.931006  0.797037  1
  Se  Se11  1  0.304204  0.304204  0.801359  1
