# generated using pymatgen
data_Y4Mg4AgIr3
_symmetry_space_group_name_H-M   'P 1'
_cell_length_a   4.13840500
_cell_length_b   7.17855546
_cell_length_c   8.71132668
_cell_angle_alpha   88.72394398
_cell_angle_beta   90.00000000
_cell_angle_gamma   90.00000000
_symmetry_Int_Tables_number   1
_chemical_formula_structural   Y4Mg4AgIr3
_chemical_formula_sum   'Y4 Mg4 Ag1 Ir3'
_cell_volume   258.72990750
_cell_formula_units_Z   1
loop_
 _symmetry_equiv_pos_site_id
 _symmetry_equiv_pos_as_xyz
  1  'x, y, z'
loop_
 _atom_site_type_symbol
 _atom_site_label
 _atom_site_symmetry_multiplicity
 _atom_site_fract_x
 _atom_site_fract_y
 _atom_site_fract_z
 _atom_site_occupancy
  Y  Y0  1  0.250000  0.539624  0.177078  1
  Y  Y1  1  0.750000  0.475406  0.840787  1
  Y  Y2  1  0.750000  0.936595  0.677589  1
  Y  Y3  1  0.250000  0.028587  0.311891  1
  Mg  Mg4  1  0.250000  0.641562  0.557843  1
  Mg  Mg5  1  0.750000  0.366422  0.431149  1
  Mg  Mg6  1  0.750000  0.865040  0.059568  1
  Mg  Mg7  1  0.250000  0.135612  0.944674  1
  Ag  Ag8  1  0.250000  0.254781  0.628318  1
  Ir  Ir9  1  0.250000  0.755427  0.869103  1
  Ir  Ir10  1  0.750000  0.251020  0.128609  1
  Ir  Ir11  1  0.750000  0.749923  0.373391  1
