# generated using pymatgen
data_TbDy7(PI6)2
_symmetry_space_group_name_H-M   'P 1'
_cell_length_a   4.19633200
_cell_length_b   13.83030311
_cell_length_c   14.62516311
_cell_angle_alpha   90.01421096
_cell_angle_beta   90.00000000
_cell_angle_gamma   90.00000000
_symmetry_Int_Tables_number   1
_chemical_formula_structural   TbDy7(PI6)2
_chemical_formula_sum   'Tb1 Dy7 P2 I12'
_cell_volume   848.79388899
_cell_formula_units_Z   1
loop_
 _symmetry_equiv_pos_site_id
 _symmetry_equiv_pos_as_xyz
  1  'x, y, z'
loop_
 _atom_site_type_symbol
 _atom_site_label
 _atom_site_symmetry_multiplicity
 _atom_site_fract_x
 _atom_site_fract_y
 _atom_site_fract_z
 _atom_site_occupancy
  Tb  Tb0  1  0.000000  0.393218  0.071543  1
  Dy  Dy1  1  0.500000  0.112940  0.350505  1
  Dy  Dy2  1  0.500000  0.887069  0.649463  1
  Dy  Dy3  1  0.500000  0.612945  0.149476  1
  Dy  Dy4  1  0.500000  0.387042  0.850536  1
  Dy  Dy5  1  0.000000  0.106543  0.571354  1
  Dy  Dy6  1  0.000000  0.893447  0.428648  1
  Dy  Dy7  1  0.000000  0.606773  0.928502  1
  P  P8  1  0.500000  0.000006  0.499989  1
  P  P9  1  0.500000  0.500678  0.999547  1
  I  I10  1  0.500000  0.246457  0.161654  1
  I  I11  1  0.500000  0.752774  0.838802  1
  I  I12  1  0.500000  0.747393  0.338951  1
  I  I13  1  0.500000  0.252629  0.661034  1
  I  I14  1  0.000000  0.259283  0.415410  1
  I  I15  1  0.000000  0.740702  0.584604  1
  I  I16  1  0.000000  0.759330  0.084642  1
  I  I17  1  0.000000  0.240349  0.914850  1
  I  I18  1  0.000000  0.999596  0.240629  1
  I  I19  1  0.000000  0.000347  0.759380  1
  I  I20  1  0.000000  0.500158  0.259910  1
  I  I21  1  0.000000  0.500319  0.740571  1
