# generated using pymatgen
data_Yb2CeHfSb5
_symmetry_space_group_name_H-M   'P 1'
_cell_length_a   9.36576707
_cell_length_b   9.36576752
_cell_length_c   6.33095100
_cell_angle_alpha   90.00000000
_cell_angle_beta   90.00000000
_cell_angle_gamma   119.59647544
_symmetry_Int_Tables_number   1
_chemical_formula_structural   Yb2CeHfSb5
_chemical_formula_sum   'Yb4 Ce2 Hf2 Sb10'
_cell_volume   482.87854239
_cell_formula_units_Z   2
loop_
 _symmetry_equiv_pos_site_id
 _symmetry_equiv_pos_as_xyz
  1  'x, y, z'
loop_
 _atom_site_type_symbol
 _atom_site_label
 _atom_site_symmetry_multiplicity
 _atom_site_fract_x
 _atom_site_fract_y
 _atom_site_fract_z
 _atom_site_occupancy
  Yb  Yb0  1  0.615478  0.005260  0.250000  1
  Yb  Yb1  1  0.384522  0.994740  0.750000  1
  Yb  Yb2  1  0.005260  0.615478  0.250000  1
  Yb  Yb3  1  0.994740  0.384522  0.750000  1
  Ce  Ce4  1  0.378408  0.378408  0.250000  1
  Ce  Ce5  1  0.621592  0.621592  0.750000  1
  Hf  Hf6  1  0.000000  0.000000  0.000000  1
  Hf  Hf7  1  0.000000  0.000000  0.500000  1
  Sb  Sb8  1  0.260678  0.998522  0.250000  1
  Sb  Sb9  1  0.739322  0.001478  0.750000  1
  Sb  Sb10  1  0.998522  0.260678  0.250000  1
  Sb  Sb11  1  0.001478  0.739322  0.750000  1
  Sb  Sb12  1  0.733353  0.733353  0.250000  1
  Sb  Sb13  1  0.266647  0.266647  0.750000  1
  Sb  Sb14  1  0.338382  0.661618  0.000000  1
  Sb  Sb15  1  0.661618  0.338382  0.000000  1
  Sb  Sb16  1  0.661618  0.338382  0.500000  1
  Sb  Sb17  1  0.338382  0.661618  0.500000  1
