# generated using pymatgen
data_TbY2ThPd4
_symmetry_space_group_name_H-M   'P 1'
_cell_length_a   4.67764700
_cell_length_b   5.63429670
_cell_length_c   7.03218434
_cell_angle_alpha   90.54839685
_cell_angle_beta   90.00000000
_cell_angle_gamma   90.00000000
_symmetry_Int_Tables_number   1
_chemical_formula_structural   TbY2ThPd4
_chemical_formula_sum   'Tb1 Y2 Th1 Pd4'
_cell_volume   185.32649444
_cell_formula_units_Z   1
loop_
 _symmetry_equiv_pos_site_id
 _symmetry_equiv_pos_as_xyz
  1  'x, y, z'
loop_
 _atom_site_type_symbol
 _atom_site_label
 _atom_site_symmetry_multiplicity
 _atom_site_fract_x
 _atom_site_fract_y
 _atom_site_fract_z
 _atom_site_occupancy
  Tb  Tb0  1  0.000000  0.894941  0.184140  1
  Y  Y1  1  0.500000  0.394934  0.314197  1
  Y  Y2  1  0.500000  0.605788  0.818365  1
  Th  Th3  1  0.000000  0.107069  0.683668  1
  Pd  Pd4  1  0.000000  0.593700  0.542288  1
  Pd  Pd5  1  0.000000  0.403749  0.040462  1
  Pd  Pd6  1  0.500000  0.902902  0.458163  1
  Pd  Pd7  1  0.500000  0.096915  0.958718  1
