# generated using pymatgen
data_Y2AlSi4Rh3
_symmetry_space_group_name_H-M   'P 1'
_cell_length_a   8.19827664
_cell_length_b   8.19827645
_cell_length_c   5.69739130
_cell_angle_alpha   71.24161136
_cell_angle_beta   71.24160448
_cell_angle_gamma   93.51423707
_symmetry_Int_Tables_number   1
_chemical_formula_structural   Y2AlSi4Rh3
_chemical_formula_sum   'Y4 Al2 Si8 Rh6'
_cell_volume   337.48853511
_cell_formula_units_Z   2
loop_
 _symmetry_equiv_pos_site_id
 _symmetry_equiv_pos_as_xyz
  1  'x, y, z'
loop_
 _atom_site_type_symbol
 _atom_site_label
 _atom_site_symmetry_multiplicity
 _atom_site_fract_x
 _atom_site_fract_y
 _atom_site_fract_z
 _atom_site_occupancy
  Y  Y0  1  0.867056  0.601215  0.756999  1
  Y  Y1  1  0.132944  0.398785  0.243001  1
  Y  Y2  1  0.398785  0.132944  0.743001  1
  Y  Y3  1  0.601215  0.867056  0.256999  1
  Al  Al4  1  0.773871  0.226129  0.750000  1
  Al  Al5  1  0.226129  0.773871  0.250000  1
  Si  Si6  1  0.516530  0.483470  0.750000  1
  Si  Si7  1  0.483470  0.516530  0.250000  1
  Si  Si8  1  0.212503  0.787497  0.750000  1
  Si  Si9  1  0.787497  0.212503  0.250000  1
  Si  Si10  1  0.265842  0.059712  0.338228  1
  Si  Si11  1  0.734158  0.940288  0.661772  1
  Si  Si12  1  0.940288  0.734158  0.161772  1
  Si  Si13  1  0.059712  0.265842  0.838228  1
  Rh  Rh14  1  0.534489  0.263108  0.138437  1
  Rh  Rh15  1  0.736892  0.465511  0.361563  1
  Rh  Rh16  1  0.465511  0.736892  0.861563  1
  Rh  Rh17  1  0.263108  0.534489  0.638437  1
  Rh  Rh18  1  0.994492  0.005508  0.250000  1
  Rh  Rh19  1  0.005508  0.994492  0.750000  1
