# generated using pymatgen
data_Er2ThZn3PdPt2
_symmetry_space_group_name_H-M   'P 1'
_cell_length_a   7.36460200
_cell_length_b   7.38107140
_cell_length_c   3.84123200
_cell_angle_alpha   90.00000000
_cell_angle_beta   90.00000000
_cell_angle_gamma   119.92622550
_symmetry_Int_Tables_number   1
_chemical_formula_structural   Er2ThZn3PdPt2
_chemical_formula_sum   'Er2 Th1 Zn3 Pd1 Pt2'
_cell_volume   180.96401896
_cell_formula_units_Z   1
loop_
 _symmetry_equiv_pos_site_id
 _symmetry_equiv_pos_as_xyz
  1  'x, y, z'
loop_
 _atom_site_type_symbol
 _atom_site_label
 _atom_site_symmetry_multiplicity
 _atom_site_fract_x
 _atom_site_fract_y
 _atom_site_fract_z
 _atom_site_occupancy
  Er  Er0  1  0.003754  0.598204  0.000000  1
  Er  Er1  1  0.405550  0.401796  0.000000  1
  Th  Th2  1  0.587182  0.000000  0.000000  1
  Zn  Zn3  1  0.239687  0.000000  0.500000  1
  Zn  Zn4  1  0.011167  0.262584  0.500000  1
  Zn  Zn5  1  0.748583  0.737416  0.500000  1
  Pd  Pd6  1  0.996060  0.000000  0.000000  1
  Pt  Pt7  1  0.338263  0.668510  0.500000  1
  Pt  Pt8  1  0.669754  0.331490  0.500000  1
