# generated using pymatgen
data_Lu10IrPtPb6
_symmetry_space_group_name_H-M   'P 1'
_cell_length_a   9.04851400
_cell_length_b   9.04851487
_cell_length_c   6.71466000
_cell_angle_alpha   90.00000000
_cell_angle_beta   90.00000000
_cell_angle_gamma   119.99999680
_symmetry_Int_Tables_number   1
_chemical_formula_structural   Lu10IrPtPb6
_chemical_formula_sum   'Lu10 Ir1 Pt1 Pb6'
_cell_volume   476.11212302
_cell_formula_units_Z   1
loop_
 _symmetry_equiv_pos_site_id
 _symmetry_equiv_pos_as_xyz
  1  'x, y, z'
loop_
 _atom_site_type_symbol
 _atom_site_label
 _atom_site_symmetry_multiplicity
 _atom_site_fract_x
 _atom_site_fract_y
 _atom_site_fract_z
 _atom_site_occupancy
  Lu  Lu0  1  0.239824  0.000000  0.256882  1
  Lu  Lu1  1  0.760176  0.000000  0.743118  1
  Lu  Lu2  1  0.000000  0.239824  0.256882  1
  Lu  Lu3  1  0.333333  0.666667  0.500000  1
  Lu  Lu4  1  0.666667  0.333333  0.500000  1
  Lu  Lu5  1  0.666667  0.333333  0.000000  1
  Lu  Lu6  1  0.000000  0.760176  0.743118  1
  Lu  Lu7  1  0.239824  0.239824  0.743118  1
  Lu  Lu8  1  0.333333  0.666667  0.000000  1
  Lu  Lu9  1  0.760176  0.760176  0.256882  1
  Ir  Ir10  1  0.000000  0.000000  0.500000  1
  Pt  Pt11  1  0.000000  0.000000  0.000000  1
  Pb  Pb12  1  0.402592  0.000000  0.751437  1
  Pb  Pb13  1  0.000000  0.402592  0.751437  1
  Pb  Pb14  1  0.402592  0.402592  0.248563  1
  Pb  Pb15  1  0.597408  0.000000  0.248563  1
  Pb  Pb16  1  0.000000  0.597408  0.248563  1
  Pb  Pb17  1  0.597408  0.597408  0.751437  1
