# generated using pymatgen
data_Li8Dy8Sn7Sb
_symmetry_space_group_name_H-M   'P 1'
_cell_length_a   9.37702800
_cell_length_b   9.37648893
_cell_length_c   7.28658881
_cell_angle_alpha   90.06964196
_cell_angle_beta   90.00000000
_cell_angle_gamma   120.00190184
_symmetry_Int_Tables_number   1
_chemical_formula_structural   Li8Dy8Sn7Sb
_chemical_formula_sum   'Li8 Dy8 Sn7 Sb1'
_cell_volume   554.81935217
_cell_formula_units_Z   1
loop_
 _symmetry_equiv_pos_site_id
 _symmetry_equiv_pos_as_xyz
  1  'x, y, z'
loop_
 _atom_site_type_symbol
 _atom_site_label
 _atom_site_symmetry_multiplicity
 _atom_site_fract_x
 _atom_site_fract_y
 _atom_site_fract_z
 _atom_site_occupancy
  Li  Li0  1  0.166688  0.333376  0.288739  1
  Li  Li1  1  0.166681  0.833226  0.289209  1
  Li  Li2  1  0.666545  0.833226  0.289209  1
  Li  Li3  1  0.833374  0.666748  0.788885  1
  Li  Li4  1  0.832612  0.166301  0.789629  1
  Li  Li5  1  0.333688  0.166301  0.789629  1
  Li  Li6  1  0.333685  0.667371  0.667337  1
  Li  Li7  1  0.666716  0.333431  0.168161  1
  Dy  Dy8  1  0.512691  0.025381  0.494007  1
  Dy  Dy9  1  0.515334  0.489259  0.491912  1
  Dy  Dy10  1  0.973926  0.489259  0.491912  1
  Dy  Dy11  1  0.487433  0.974868  0.994475  1
  Dy  Dy12  1  0.489467  0.513073  0.995279  1
  Dy  Dy13  1  0.023605  0.513073  0.995279  1
  Dy  Dy14  1  0.998883  0.997765  0.498879  1
  Dy  Dy15  1  0.999012  0.998023  0.001946  1
  Sn  Sn16  1  0.166608  0.832633  0.729856  1
  Sn  Sn17  1  0.666025  0.832633  0.729856  1
  Sn  Sn18  1  0.833121  0.666243  0.230638  1
  Sn  Sn19  1  0.833678  0.167317  0.230154  1
  Sn  Sn20  1  0.333638  0.167317  0.230154  1
  Sn  Sn21  1  0.332916  0.665834  0.262189  1
  Sn  Sn22  1  0.666875  0.333750  0.762546  1
  Sb  Sb23  1  0.166797  0.333594  0.732116  1
