# generated using pymatgen
data_Ta5BeGa3
_symmetry_space_group_name_H-M   'P 1'
_cell_length_a   7.82935700
_cell_length_b   7.82935670
_cell_length_c   5.38973800
_cell_angle_alpha   90.00000000
_cell_angle_beta   90.00000000
_cell_angle_gamma   119.99999704
_symmetry_Int_Tables_number   1
_chemical_formula_structural   Ta5BeGa3
_chemical_formula_sum   'Ta10 Be2 Ga6'
_cell_volume   286.12148796
_cell_formula_units_Z   2
loop_
 _symmetry_equiv_pos_site_id
 _symmetry_equiv_pos_as_xyz
  1  'x, y, z'
loop_
 _atom_site_type_symbol
 _atom_site_label
 _atom_site_symmetry_multiplicity
 _atom_site_fract_x
 _atom_site_fract_y
 _atom_site_fract_z
 _atom_site_occupancy
  Ta  Ta0  1  0.666667  0.333333  0.000000  1
  Ta  Ta1  1  0.333333  0.666667  0.000000  1
  Ta  Ta2  1  0.333333  0.666667  0.500000  1
  Ta  Ta3  1  0.666667  0.333333  0.500000  1
  Ta  Ta4  1  0.740758  0.740758  0.750000  1
  Ta  Ta5  1  0.259242  0.000000  0.750000  1
  Ta  Ta6  1  0.000000  0.259242  0.750000  1
  Ta  Ta7  1  0.259242  0.259242  0.250000  1
  Ta  Ta8  1  0.740758  0.000000  0.250000  1
  Ta  Ta9  1  0.000000  0.740758  0.250000  1
  Be  Be10  1  0.000000  0.000000  0.000000  1
  Be  Be11  1  0.000000  0.000000  0.500000  1
  Ga  Ga12  1  0.390669  0.390669  0.750000  1
  Ga  Ga13  1  0.609331  0.000000  0.750000  1
  Ga  Ga14  1  0.000000  0.609331  0.750000  1
  Ga  Ga15  1  0.609331  0.609331  0.250000  1
  Ga  Ga16  1  0.390669  0.000000  0.250000  1
  Ga  Ga17  1  0.000000  0.390669  0.250000  1
