# generated using pymatgen
data_TbDyCr(Fe3P2)3
_symmetry_space_group_name_H-M   'P 1'
_cell_length_a   3.66539400
_cell_length_b   10.32709400
_cell_length_c   11.87222200
_cell_angle_alpha   90.00000000
_cell_angle_beta   90.00000000
_cell_angle_gamma   90.00000000
_symmetry_Int_Tables_number   1
_chemical_formula_structural   TbDyCr(Fe3P2)3
_chemical_formula_sum   'Tb2 Dy2 Cr2 Fe18 P12'
_cell_volume   449.39765680
_cell_formula_units_Z   2
loop_
 _symmetry_equiv_pos_site_id
 _symmetry_equiv_pos_as_xyz
  1  'x, y, z'
loop_
 _atom_site_type_symbol
 _atom_site_label
 _atom_site_symmetry_multiplicity
 _atom_site_fract_x
 _atom_site_fract_y
 _atom_site_fract_z
 _atom_site_occupancy
  Tb  Tb0  1  0.250000  0.581144  0.704469  1
  Tb  Tb1  1  0.250000  0.918856  0.204469  1
  Dy  Dy2  1  0.750000  0.418948  0.295445  1
  Dy  Dy3  1  0.750000  0.081052  0.795445  1
  Cr  Cr4  1  0.250000  0.703156  0.989419  1
  Cr  Cr5  1  0.250000  0.796844  0.489419  1
  Fe  Fe6  1  0.750000  0.293110  0.012040  1
  Fe  Fe7  1  0.750000  0.206890  0.512040  1
  Fe  Fe8  1  0.250000  0.404043  0.490201  1
  Fe  Fe9  1  0.250000  0.095957  0.990201  1
  Fe  Fe10  1  0.750000  0.594526  0.509113  1
  Fe  Fe11  1  0.750000  0.905474  0.009113  1
  Fe  Fe12  1  0.250000  0.219528  0.176247  1
  Fe  Fe13  1  0.250000  0.280472  0.676247  1
  Fe  Fe14  1  0.750000  0.782186  0.824125  1
  Fe  Fe15  1  0.750000  0.717814  0.324125  1
  Fe  Fe16  1  0.250000  0.875781  0.701211  1
  Fe  Fe17  1  0.250000  0.624219  0.201211  1
  Fe  Fe18  1  0.750000  0.124440  0.299806  1
  Fe  Fe19  1  0.750000  0.375560  0.799806  1
  Fe  Fe20  1  0.250000  0.462128  0.932833  1
  Fe  Fe21  1  0.250000  0.037872  0.432833  1
  Fe  Fe22  1  0.750000  0.534238  0.066273  1
  Fe  Fe23  1  0.750000  0.965762  0.566273  1
  P  P24  1  0.250000  0.422645  0.113091  1
  P  P25  1  0.250000  0.077355  0.613091  1
  P  P26  1  0.750000  0.578059  0.886971  1
  P  P27  1  0.750000  0.921941  0.386971  1
  P  P28  1  0.250000  0.265622  0.871004  1
  P  P29  1  0.250000  0.234378  0.371004  1
  P  P30  1  0.750000  0.732470  0.130214  1
  P  P31  1  0.750000  0.767530  0.630214  1
  P  P32  1  0.250000  0.597420  0.393734  1
  P  P33  1  0.250000  0.902580  0.893734  1
  P  P34  1  0.750000  0.397993  0.603801  1
  P  P35  1  0.750000  0.102007  0.103801  1
