# generated using pymatgen
data_Er3Lu5In3Tc
_symmetry_space_group_name_H-M   'P 1'
_cell_length_a   10.28004900
_cell_length_b   10.28004824
_cell_length_c   6.93672700
_cell_angle_alpha   90.00000000
_cell_angle_beta   90.00000000
_cell_angle_gamma   119.99999922
_symmetry_Int_Tables_number   1
_chemical_formula_structural   Er3Lu5In3Tc
_chemical_formula_sum   'Er6 Lu10 In6 Tc2'
_cell_volume   634.85650722
_cell_formula_units_Z   2
loop_
 _symmetry_equiv_pos_site_id
 _symmetry_equiv_pos_as_xyz
  1  'x, y, z'
loop_
 _atom_site_type_symbol
 _atom_site_label
 _atom_site_symmetry_multiplicity
 _atom_site_fract_x
 _atom_site_fract_y
 _atom_site_fract_z
 _atom_site_occupancy
  Er  Er0  1  0.531323  0.062641  0.525510  1
  Er  Er1  1  0.937351  0.468672  0.525506  1
  Er  Er2  1  0.531321  0.468681  0.525510  1
  Er  Er3  1  0.468677  0.937359  0.025510  1
  Er  Er4  1  0.062649  0.531328  0.025506  1
  Er  Er5  1  0.468679  0.531319  0.025510  1
  Lu  Lu6  1  0.176951  0.353897  0.728596  1
  Lu  Lu7  1  0.646100  0.823040  0.728593  1
  Lu  Lu8  1  0.176947  0.823054  0.728594  1
  Lu  Lu9  1  0.823049  0.646103  0.228596  1
  Lu  Lu10  1  0.353900  0.176960  0.228593  1
  Lu  Lu11  1  0.823053  0.176946  0.228594  1
  Lu  Lu12  1  0.666675  0.333328  0.902730  1
  Lu  Lu13  1  0.333325  0.666672  0.402730  1
  Lu  Lu14  1  0.000000  0.000003  0.506014  1
  Lu  Lu15  1  0.000000  0.999997  0.006014  1
  In  In16  1  0.836935  0.673872  0.769863  1
  In  In17  1  0.326114  0.163065  0.769845  1
  In  In18  1  0.836953  0.163012  0.769871  1
  In  In19  1  0.163065  0.326128  0.269863  1
  In  In20  1  0.673886  0.836935  0.269845  1
  In  In21  1  0.163047  0.836988  0.269871  1
  Tc  Tc22  1  0.666671  0.333334  0.297210  1
  Tc  Tc23  1  0.333329  0.666666  0.797210  1
