# generated using pymatgen
data_PuMg3As(PN2)6
_symmetry_space_group_name_H-M   'P 1'
_cell_length_a   7.37789376
_cell_length_b   7.37789209
_cell_length_c   7.37789402
_cell_angle_alpha   109.52673133
_cell_angle_beta   109.52673241
_cell_angle_gamma   109.52671372
_symmetry_Int_Tables_number   1
_chemical_formula_structural   PuMg3As(PN2)6
_chemical_formula_sum   'Pu1 Mg3 As1 P6 N12'
_cell_volume   308.51729243
_cell_formula_units_Z   1
loop_
 _symmetry_equiv_pos_site_id
 _symmetry_equiv_pos_as_xyz
  1  'x, y, z'
loop_
 _atom_site_type_symbol
 _atom_site_label
 _atom_site_symmetry_multiplicity
 _atom_site_fract_x
 _atom_site_fract_y
 _atom_site_fract_z
 _atom_site_occupancy
  Pu  Pu0  1  0.335762  0.335762  0.335762  1
  Mg  Mg1  1  0.004921  0.645377  0.004921  1
  Mg  Mg2  1  0.645377  0.004921  0.004921  1
  Mg  Mg3  1  0.004921  0.004921  0.645377  1
  As  As4  1  0.955688  0.955688  0.955688  1
  P  P5  1  0.506325  0.251466  0.757600  1
  P  P6  1  0.506325  0.757600  0.251466  1
  P  P7  1  0.757600  0.251466  0.506325  1
  P  P8  1  0.251466  0.506325  0.757600  1
  P  P9  1  0.757600  0.506325  0.251466  1
  P  P10  1  0.251466  0.757600  0.506325  1
  N  N11  1  0.003190  0.727235  0.427119  1
  N  N12  1  0.287297  0.702821  0.287297  1
  N  N13  1  0.276938  0.576556  0.576556  1
  N  N14  1  0.576556  0.576556  0.276938  1
  N  N15  1  0.576556  0.276938  0.576556  1
  N  N16  1  0.727235  0.003190  0.427119  1
  N  N17  1  0.427119  0.003190  0.727235  1
  N  N18  1  0.727235  0.427119  0.003190  1
  N  N19  1  0.287297  0.287297  0.702821  1
  N  N20  1  0.702821  0.287297  0.287297  1
  N  N21  1  0.003190  0.427119  0.727235  1
  N  N22  1  0.427119  0.727235  0.003190  1
