# generated using pymatgen
data_Er2Lu2TcB12Os
_symmetry_space_group_name_H-M   'P 1'
_cell_length_a   3.62276900
_cell_length_b   9.07289814
_cell_length_c   11.45316900
_cell_angle_alpha   89.92748810
_cell_angle_beta   90.00000000
_cell_angle_gamma   90.00000000
_symmetry_Int_Tables_number   1
_chemical_formula_structural   Er2Lu2TcB12Os
_chemical_formula_sum   'Er4 Lu4 Tc2 B24 Os2'
_cell_volume   376.45407207
_cell_formula_units_Z   2
loop_
 _symmetry_equiv_pos_site_id
 _symmetry_equiv_pos_as_xyz
  1  'x, y, z'
loop_
 _atom_site_type_symbol
 _atom_site_label
 _atom_site_symmetry_multiplicity
 _atom_site_fract_x
 _atom_site_fract_y
 _atom_site_fract_z
 _atom_site_occupancy
  Er  Er0  1  0.000000  0.324056  0.415212  1
  Er  Er1  1  0.000000  0.675944  0.584788  1
  Er  Er2  1  0.000000  0.820257  0.087507  1
  Er  Er3  1  0.000000  0.179743  0.912493  1
  Lu  Lu4  1  0.000000  0.941937  0.371395  1
  Lu  Lu5  1  0.000000  0.058063  0.628605  1
  Lu  Lu6  1  0.000000  0.443981  0.129594  1
  Lu  Lu7  1  0.000000  0.556019  0.870406  1
  Tc  Tc8  1  0.000000  0.638971  0.319660  1
  Tc  Tc9  1  0.000000  0.361029  0.680340  1
  B  B10  1  0.500000  0.553202  0.433109  1
  B  B11  1  0.500000  0.446798  0.566891  1
  B  B12  1  0.500000  0.053790  0.066754  1
  B  B13  1  0.500000  0.946210  0.933246  1
  B  B14  1  0.500000  0.749814  0.419208  1
  B  B15  1  0.500000  0.250186  0.580792  1
  B  B16  1  0.500000  0.250183  0.081007  1
  B  B17  1  0.500000  0.749817  0.918993  1
  B  B18  1  0.500000  0.792521  0.265131  1
  B  B19  1  0.500000  0.207479  0.734868  1
  B  B20  1  0.500000  0.291812  0.234559  1
  B  B21  1  0.500000  0.708188  0.765442  1
  B  B22  1  0.500000  0.630578  0.184381  1
  B  B23  1  0.500000  0.369422  0.815619  1
  B  B24  1  0.500000  0.130099  0.314957  1
  B  B25  1  0.500000  0.869901  0.685043  1
  B  B26  1  0.500000  0.981892  0.212465  1
  B  B27  1  0.500000  0.018108  0.787535  1
  B  B28  1  0.500000  0.481639  0.287103  1
  B  B29  1  0.500000  0.518361  0.712897  1
  B  B30  1  0.500000  0.601385  0.027753  1
  B  B31  1  0.500000  0.398615  0.972247  1
  B  B32  1  0.500000  0.101352  0.471663  1
  B  B33  1  0.500000  0.898648  0.528337  1
  Os  Os34  1  0.000000  0.138092  0.178991  1
  Os  Os35  1  0.000000  0.861908  0.821009  1
