# generated using pymatgen
data_Tb4Co3B16Ru13
_symmetry_space_group_name_H-M   'P 1'
_cell_length_a   9.16546104
_cell_length_b   7.41513507
_cell_length_c   7.41759570
_cell_angle_alpha   90.12527001
_cell_angle_beta   114.07378244
_cell_angle_gamma   114.46175361
_symmetry_Int_Tables_number   1
_chemical_formula_structural   Tb4Co3B16Ru13
_chemical_formula_sum   'Tb4 Co3 B16 Ru13'
_cell_volume   409.98465095
_cell_formula_units_Z   1
loop_
 _symmetry_equiv_pos_site_id
 _symmetry_equiv_pos_as_xyz
  1  'x, y, z'
loop_
 _atom_site_type_symbol
 _atom_site_label
 _atom_site_symmetry_multiplicity
 _atom_site_fract_x
 _atom_site_fract_y
 _atom_site_fract_z
 _atom_site_occupancy
  Tb  Tb0  1  0.751134  0.875093  0.123189  1
  Tb  Tb1  1  0.247136  0.625096  0.371570  1
  Tb  Tb2  1  0.752635  0.375751  0.632781  1
  Tb  Tb3  1  0.248150  0.118076  0.880392  1
  Co  Co4  1  0.880527  0.557200  0.045318  1
  Co  Co5  1  0.376304  0.836043  0.048204  1
  Co  Co6  1  0.116704  0.943505  0.164112  1
  B  B7  1  0.915508  0.295117  0.066856  1
  B  B8  1  0.418355  0.574968  0.127934  1
  B  B9  1  0.085323  0.208255  0.151227  1
  B  B10  1  0.578737  0.146293  0.202297  1
  B  B11  1  0.399964  0.048419  0.276025  1
  B  B12  1  0.915320  0.625177  0.348737  1
  B  B13  1  0.587217  0.645944  0.376220  1
  B  B14  1  0.084376  0.874304  0.431846  1
  B  B15  1  0.911219  0.124182  0.560856  1
  B  B16  1  0.414823  0.345795  0.623493  1
  B  B17  1  0.087427  0.376932  0.654332  1
  B  B18  1  0.584900  0.933454  0.707982  1
  B  B19  1  0.415391  0.851146  0.792881  1
  B  B20  1  0.915801  0.790082  0.859213  1
  B  B21  1  0.592715  0.441751  0.877542  1
  B  B22  1  0.092071  0.717039  0.949471  1
  Ru  Ru23  1  0.629635  0.462047  0.176324  1
  Ru  Ru24  1  0.369489  0.324912  0.314446  1
  Ru  Ru25  1  0.871625  0.321956  0.332804  1
  Ru  Ru26  1  0.619699  0.954898  0.437978  1
  Ru  Ru27  1  0.126807  0.177502  0.459527  1
  Ru  Ru28  1  0.874234  0.821583  0.540357  1
  Ru  Ru29  1  0.368817  0.034724  0.544460  1
  Ru  Ru30  1  0.130911  0.683594  0.673890  1
  Ru  Ru31  1  0.626260  0.664885  0.677716  1
  Ru  Ru32  1  0.375407  0.541613  0.825071  1
  Ru  Ru33  1  0.873901  0.054836  0.833476  1
  Ru  Ru34  1  0.629736  0.172665  0.945046  1
  Ru  Ru35  1  0.131735  0.455165  0.966420  1
