# generated using pymatgen
data_Y20In5AgRu2
_symmetry_space_group_name_H-M   'P 1'
_cell_length_a   9.78018100
_cell_length_b   9.87908431
_cell_length_c   9.69561300
_cell_angle_alpha   90.00000000
_cell_angle_beta   90.00000000
_cell_angle_gamma   120.33810180
_symmetry_Int_Tables_number   1
_chemical_formula_structural   Y20In5AgRu2
_chemical_formula_sum   'Y20 In5 Ag1 Ru2'
_cell_volume   808.49952428
_cell_formula_units_Z   1
loop_
 _symmetry_equiv_pos_site_id
 _symmetry_equiv_pos_as_xyz
  1  'x, y, z'
loop_
 _atom_site_type_symbol
 _atom_site_label
 _atom_site_symmetry_multiplicity
 _atom_site_fract_x
 _atom_site_fract_y
 _atom_site_fract_z
 _atom_site_occupancy
  Y  Y0  1  0.987411  0.993710  0.510467  1
  Y  Y1  1  0.987411  0.993710  0.989533  1
  Y  Y2  1  0.210261  0.792009  0.440246  1
  Y  Y3  1  0.210251  0.418221  0.440243  1
  Y  Y4  1  0.580756  0.790372  0.436450  1
  Y  Y5  1  0.790740  0.210791  0.561312  1
  Y  Y6  1  0.790743  0.579959  0.561311  1
  Y  Y7  1  0.417975  0.208981  0.563706  1
  Y  Y8  1  0.790740  0.210791  0.938688  1
  Y  Y9  1  0.790743  0.579959  0.938689  1
  Y  Y10  1  0.417975  0.208981  0.936294  1
  Y  Y11  1  0.210261  0.792009  0.059754  1
  Y  Y12  1  0.210251  0.418221  0.059757  1
  Y  Y13  1  0.580756  0.790372  0.063550  1
  Y  Y14  1  0.539784  0.458719  0.250000  1
  Y  Y15  1  0.539808  0.081060  0.250000  1
  Y  Y16  1  0.925712  0.462849  0.250000  1
  Y  Y17  1  0.468914  0.549624  0.750000  1
  Y  Y18  1  0.468914  0.919300  0.750000  1
  Y  Y19  1  0.083860  0.541928  0.750000  1
  In  In20  1  0.887335  0.118856  0.250000  1
  In  In21  1  0.887373  0.768477  0.250000  1
  In  In22  1  0.227737  0.113871  0.250000  1
  In  In23  1  0.118648  0.880780  0.750000  1
  In  In24  1  0.118713  0.237973  0.750000  1
  Ag  Ag25  1  0.759263  0.879639  0.750000  1
  Ru  Ru26  1  0.328528  0.664226  0.250000  1
  Ru  Ru27  1  0.669136  0.334608  0.750000  1
