# generated using pymatgen
data_Hf5ZrCoCl15
_symmetry_space_group_name_H-M   'P 1'
_cell_length_a   8.91349924
_cell_length_b   8.91349942
_cell_length_c   8.91349870
_cell_angle_alpha   109.52342746
_cell_angle_beta   109.36685966
_cell_angle_gamma   109.52342538
_symmetry_Int_Tables_number   1
_chemical_formula_structural   Hf5ZrCoCl15
_chemical_formula_sum   'Hf5 Zr1 Co1 Cl15'
_cell_volume   545.15714123
_cell_formula_units_Z   1
loop_
 _symmetry_equiv_pos_site_id
 _symmetry_equiv_pos_as_xyz
  1  'x, y, z'
loop_
 _atom_site_type_symbol
 _atom_site_label
 _atom_site_symmetry_multiplicity
 _atom_site_fract_x
 _atom_site_fract_y
 _atom_site_fract_z
 _atom_site_occupancy
  Hf  Hf0  1  0.236703  0.236772  0.999931  1
  Hf  Hf1  1  0.763160  0.763228  0.999931  1
  Hf  Hf2  1  0.764342  0.000000  0.764342  1
  Hf  Hf3  1  0.999931  0.763228  0.763160  1
  Hf  Hf4  1  0.999931  0.236772  0.236703  1
  Zr  Zr5  1  0.237227  0.000000  0.237227  1
  Co  Co6  1  0.002059  0.000000  0.002059  1
  Cl  Cl7  1  0.753644  0.508643  0.753644  1
  Cl  Cl8  1  0.499183  0.500000  0.999183  1
  Cl  Cl9  1  0.999183  0.500000  0.499183  1
  Cl  Cl10  1  0.507633  0.000000  0.507633  1
  Cl  Cl11  1  0.245001  0.000000  0.753644  1
  Cl  Cl12  1  0.999941  0.245517  0.754424  1
  Cl  Cl13  1  0.753644  0.000000  0.245001  1
  Cl  Cl14  1  0.508908  0.754483  0.754424  1
  Cl  Cl15  1  0.994362  0.750447  0.243915  1
  Cl  Cl16  1  0.243915  0.249553  0.493467  1
  Cl  Cl17  1  0.754424  0.245517  0.999941  1
  Cl  Cl18  1  0.493467  0.249553  0.243915  1
  Cl  Cl19  1  0.245001  0.491357  0.245001  1
  Cl  Cl20  1  0.754424  0.754483  0.508908  1
  Cl  Cl21  1  0.243915  0.750447  0.994362  1
