# generated using pymatgen
data_Y3Sc(PPt)4
_symmetry_space_group_name_H-M   'P 1'
_cell_length_a   4.09133100
_cell_length_b   4.09133248
_cell_length_c   15.52186900
_cell_angle_alpha   90.00000000
_cell_angle_beta   90.00000000
_cell_angle_gamma   119.99999613
_symmetry_Int_Tables_number   1
_chemical_formula_structural   Y3Sc(PPt)4
_chemical_formula_sum   'Y3 Sc1 P4 Pt4'
_cell_volume   225.01115684
_cell_formula_units_Z   1
loop_
 _symmetry_equiv_pos_site_id
 _symmetry_equiv_pos_as_xyz
  1  'x, y, z'
loop_
 _atom_site_type_symbol
 _atom_site_label
 _atom_site_symmetry_multiplicity
 _atom_site_fract_x
 _atom_site_fract_y
 _atom_site_fract_z
 _atom_site_occupancy
  Y  Y0  1  0.000000  0.000000  0.510616  1
  Y  Y1  1  0.000000  0.000000  0.989384  1
  Y  Y2  1  0.000000  0.000000  0.250000  1
  Sc  Sc3  1  0.000000  0.000000  0.750000  1
  P  P4  1  0.333333  0.666667  0.876614  1
  P  P5  1  0.666667  0.333333  0.118530  1
  P  P6  1  0.666667  0.333333  0.381470  1
  P  P7  1  0.333333  0.666667  0.623386  1
  Pt  Pt8  1  0.333333  0.666667  0.376857  1
  Pt  Pt9  1  0.666667  0.333333  0.647748  1
  Pt  Pt10  1  0.666667  0.333333  0.852252  1
  Pt  Pt11  1  0.333333  0.666667  0.123143  1
