# generated using pymatgen
data_TbY3VRe3B16
_symmetry_space_group_name_H-M   'P 1'
_cell_length_a   3.58953300
_cell_length_b   5.98554610
_cell_length_c   11.58093904
_cell_angle_alpha   89.85802654
_cell_angle_beta   90.00000000
_cell_angle_gamma   90.00000000
_symmetry_Int_Tables_number   1
_chemical_formula_structural   TbY3VRe3B16
_chemical_formula_sum   'Tb1 Y3 V1 Re3 B16'
_cell_volume   248.81936232
_cell_formula_units_Z   1
loop_
 _symmetry_equiv_pos_site_id
 _symmetry_equiv_pos_as_xyz
  1  'x, y, z'
loop_
 _atom_site_type_symbol
 _atom_site_label
 _atom_site_symmetry_multiplicity
 _atom_site_fract_x
 _atom_site_fract_y
 _atom_site_fract_z
 _atom_site_occupancy
  Tb  Tb0  1  0.000000  0.625447  0.350999  1
  Y  Y1  1  0.000000  0.375335  0.649291  1
  Y  Y2  1  0.000000  0.127484  0.150552  1
  Y  Y3  1  0.000000  0.872155  0.847751  1
  V  V4  1  0.000000  0.872253  0.582716  1
  Re  Re5  1  0.000000  0.633862  0.087864  1
  Re  Re6  1  0.000000  0.366185  0.913283  1
  Re  Re7  1  0.000000  0.126535  0.416367  1
  B  B8  1  0.500000  0.785172  0.185601  1
  B  B9  1  0.500000  0.214797  0.814551  1
  B  B10  1  0.500000  0.285702  0.315757  1
  B  B11  1  0.500000  0.714364  0.684532  1
  B  B12  1  0.500000  0.863712  0.031023  1
  B  B13  1  0.500000  0.136486  0.968781  1
  B  B14  1  0.500000  0.364207  0.467912  1
  B  B15  1  0.500000  0.635560  0.532656  1
  B  B16  1  0.500000  0.886192  0.453379  1
  B  B17  1  0.500000  0.113925  0.547297  1
  B  B18  1  0.500000  0.386802  0.047163  1
  B  B19  1  0.500000  0.613989  0.952566  1
  B  B20  1  0.500000  0.976405  0.308110  1
  B  B21  1  0.500000  0.023235  0.692139  1
  B  B22  1  0.500000  0.475408  0.192162  1
  B  B23  1  0.500000  0.524787  0.807550  1
