# generated using pymatgen
data_Dy4Cd2InCo2
_symmetry_space_group_name_H-M   'P 1'
_cell_length_a   3.66554600
_cell_length_b   7.39831619
_cell_length_c   8.06349922
_cell_angle_alpha   71.17452147
_cell_angle_beta   90.00000000
_cell_angle_gamma   90.00000000
_symmetry_Int_Tables_number   1
_chemical_formula_structural   Dy4Cd2InCo2
_chemical_formula_sum   'Dy4 Cd2 In1 Co2'
_cell_volume   206.97525069
_cell_formula_units_Z   1
loop_
 _symmetry_equiv_pos_site_id
 _symmetry_equiv_pos_as_xyz
  1  'x, y, z'
loop_
 _atom_site_type_symbol
 _atom_site_label
 _atom_site_symmetry_multiplicity
 _atom_site_fract_x
 _atom_site_fract_y
 _atom_site_fract_z
 _atom_site_occupancy
  Dy  Dy0  1  0.500000  0.907293  0.226726  1
  Dy  Dy1  1  0.500000  0.095244  0.774993  1
  Dy  Dy2  1  0.500000  0.395114  0.313768  1
  Dy  Dy3  1  0.500000  0.601947  0.686716  1
  Cd  Cd4  1  0.000000  0.294079  0.997207  1
  Cd  Cd5  1  0.000000  0.999527  0.501297  1
  In  In6  1  0.000000  0.707386  0.003748  1
  Co  Co7  1  0.000000  0.646266  0.392683  1
  Co  Co8  1  0.000000  0.353144  0.602863  1
