# generated using pymatgen
data_Tb9DyRu4
_symmetry_space_group_name_H-M   'P 1'
_cell_length_a   8.55020703
_cell_length_b   8.55020762
_cell_length_c   7.27904851
_cell_angle_alpha   83.44850924
_cell_angle_beta   83.44850624
_cell_angle_gamma   43.88013494
_symmetry_Int_Tables_number   1
_chemical_formula_structural   Tb9DyRu4
_chemical_formula_sum   'Tb9 Dy1 Ru4'
_cell_volume   366.05452762
_cell_formula_units_Z   1
loop_
 _symmetry_equiv_pos_site_id
 _symmetry_equiv_pos_as_xyz
  1  'x, y, z'
loop_
 _atom_site_type_symbol
 _atom_site_label
 _atom_site_symmetry_multiplicity
 _atom_site_fract_x
 _atom_site_fract_y
 _atom_site_fract_z
 _atom_site_occupancy
  Tb  Tb0  1  0.206910  0.979188  0.584758  1
  Tb  Tb1  1  0.020812  0.793090  0.915242  1
  Tb  Tb2  1  0.206324  0.359832  0.314280  1
  Tb  Tb3  1  0.640168  0.793676  0.185720  1
  Tb  Tb4  1  0.793712  0.640316  0.685604  1
  Tb  Tb5  1  0.359684  0.206288  0.814396  1
  Tb  Tb6  1  0.979276  0.206771  0.085129  1
  Tb  Tb7  1  0.793229  0.020724  0.414871  1
  Tb  Tb8  1  0.577716  0.422284  0.750000  1
  Dy  Dy9  1  0.422585  0.577415  0.250000  1
  Ru  Ru10  1  0.175323  0.603583  0.574885  1
  Ru  Ru11  1  0.396417  0.824677  0.925115  1
  Ru  Ru12  1  0.824519  0.396675  0.424523  1
  Ru  Ru13  1  0.603325  0.175481  0.075477  1
