# generated using pymatgen
data_LiNdDyAgSn2
_symmetry_space_group_name_H-M   'P 1'
_cell_length_a   4.76192400
_cell_length_b   4.76192300
_cell_length_c   7.52166200
_cell_angle_alpha   90.00000000
_cell_angle_beta   90.00000000
_cell_angle_gamma   120.00000695
_symmetry_Int_Tables_number   1
_chemical_formula_structural   LiNdDyAgSn2
_chemical_formula_sum   'Li1 Nd1 Dy1 Ag1 Sn2'
_cell_volume   147.70977731
_cell_formula_units_Z   1
loop_
 _symmetry_equiv_pos_site_id
 _symmetry_equiv_pos_as_xyz
  1  'x, y, z'
loop_
 _atom_site_type_symbol
 _atom_site_label
 _atom_site_symmetry_multiplicity
 _atom_site_fract_x
 _atom_site_fract_y
 _atom_site_fract_z
 _atom_site_occupancy
  Li  Li0  1  0.666667  0.333333  0.502131  1
  Nd  Nd1  1  0.000000  0.000000  0.729635  1
  Dy  Dy2  1  0.000000  0.000000  0.228530  1
  Ag  Ag3  1  0.333333  0.666667  0.046996  1
  Sn  Sn4  1  0.333333  0.666667  0.455747  1
  Sn  Sn5  1  0.666667  0.333333  0.952962  1
