# generated using pymatgen
data_Sr3Bi(BrO)3
_symmetry_space_group_name_H-M   'P 1'
_cell_length_a   6.76159200
_cell_length_b   11.57979700
_cell_length_c   11.94086100
_cell_angle_alpha   90.00000000
_cell_angle_beta   90.00049148
_cell_angle_gamma   90.00000000
_symmetry_Int_Tables_number   1
_chemical_formula_structural   Sr3Bi(BrO)3
_chemical_formula_sum   'Sr12 Bi4 Br12 O12'
_cell_volume   934.94389578
_cell_formula_units_Z   4
loop_
 _symmetry_equiv_pos_site_id
 _symmetry_equiv_pos_as_xyz
  1  'x, y, z'
loop_
 _atom_site_type_symbol
 _atom_site_label
 _atom_site_symmetry_multiplicity
 _atom_site_fract_x
 _atom_site_fract_y
 _atom_site_fract_z
 _atom_site_occupancy
  Sr  Sr0  1  0.341286  0.428162  0.104991  1
  Sr  Sr1  1  0.856962  0.250000  0.017064  1
  Sr  Sr2  1  0.841285  0.428160  0.395012  1
  Sr  Sr3  1  0.658705  0.571835  0.895004  1
  Sr  Sr4  1  0.841285  0.071840  0.395012  1
  Sr  Sr5  1  0.158704  0.928163  0.604993  1
  Sr  Sr6  1  0.643030  0.750000  0.517061  1
  Sr  Sr7  1  0.658705  0.928165  0.895004  1
  Sr  Sr8  1  0.341286  0.071838  0.104991  1
  Sr  Sr9  1  0.158704  0.571837  0.604993  1
  Sr  Sr10  1  0.356966  0.250000  0.482940  1
  Sr  Sr11  1  0.143037  0.750000  0.982938  1
  Bi  Bi12  1  0.591928  0.750000  0.129586  1
  Bi  Bi13  1  0.908077  0.250000  0.629592  1
  Bi  Bi14  1  0.408065  0.250000  0.870413  1
  Bi  Bi15  1  0.091913  0.750000  0.370411  1
  Br  Br16  1  0.089896  0.023004  0.851886  1
  Br  Br17  1  0.604924  0.250000  0.228552  1
  Br  Br18  1  0.089896  0.476996  0.851886  1
  Br  Br19  1  0.104923  0.250000  0.271450  1
  Br  Br20  1  0.910098  0.977019  0.148141  1
  Br  Br21  1  0.589895  0.023003  0.648114  1
  Br  Br22  1  0.910098  0.522981  0.148141  1
  Br  Br23  1  0.410097  0.977020  0.351858  1
  Br  Br24  1  0.589895  0.476997  0.648114  1
  Br  Br25  1  0.395076  0.750000  0.771442  1
  Br  Br26  1  0.410097  0.522980  0.351858  1
  Br  Br27  1  0.895076  0.750000  0.728553  1
  O  O28  1  0.585207  0.123055  0.951298  1
  O  O29  1  0.414794  0.623055  0.048694  1
  O  O30  1  0.914783  0.876945  0.451304  1
  O  O31  1  0.215940  0.250000  0.009266  1
  O  O32  1  0.784060  0.750000  0.990732  1
  O  O33  1  0.085212  0.376945  0.548706  1
  O  O34  1  0.715944  0.250000  0.490740  1
  O  O35  1  0.284055  0.750000  0.509261  1
  O  O36  1  0.914783  0.623055  0.451304  1
  O  O37  1  0.085212  0.123055  0.548706  1
  O  O38  1  0.585207  0.376945  0.951298  1
  O  O39  1  0.414794  0.876945  0.048694  1
