# generated using pymatgen
data_Zr12Zn11GaO2
_symmetry_space_group_name_H-M   'P 1'
_cell_length_a   8.56690047
_cell_length_b   8.56154140
_cell_length_c   8.56690000
_cell_angle_alpha   59.97928576
_cell_angle_beta   59.99999410
_cell_angle_gamma   59.97928772
_symmetry_Int_Tables_number   1
_chemical_formula_structural   Zr12Zn11GaO2
_chemical_formula_sum   'Zr12 Zn11 Ga1 O2'
_cell_volume   444.16907971
_cell_formula_units_Z   1
loop_
 _symmetry_equiv_pos_site_id
 _symmetry_equiv_pos_as_xyz
  1  'x, y, z'
loop_
 _atom_site_type_symbol
 _atom_site_label
 _atom_site_symmetry_multiplicity
 _atom_site_fract_x
 _atom_site_fract_y
 _atom_site_fract_z
 _atom_site_occupancy
  Zr  Zr0  1  0.193365  0.806659  0.193365  1
  Zr  Zr1  1  0.443314  0.055396  0.443314  1
  Zr  Zr2  1  0.443314  0.055396  0.057976  1
  Zr  Zr3  1  0.442787  0.443706  0.056753  1
  Zr  Zr4  1  0.193365  0.806659  0.806612  1
  Zr  Zr5  1  0.056753  0.443706  0.056753  1
  Zr  Zr6  1  0.806612  0.806659  0.193365  1
  Zr  Zr7  1  0.056753  0.443706  0.442787  1
  Zr  Zr8  1  0.193067  0.193983  0.806475  1
  Zr  Zr9  1  0.806475  0.193983  0.193067  1
  Zr  Zr10  1  0.806475  0.193983  0.806475  1
  Zr  Zr11  1  0.057976  0.055396  0.443314  1
  Zn  Zn12  1  0.418271  0.418016  0.745441  1
  Zn  Zn13  1  0.745441  0.418016  0.418271  1
  Zn  Zn14  1  0.418271  0.418016  0.418271  1
  Zn  Zn15  1  0.831724  0.832768  0.503785  1
  Zn  Zn16  1  0.418160  0.745520  0.418160  1
  Zn  Zn17  1  0.831724  0.832768  0.831724  1
  Zn  Zn18  1  0.503785  0.832768  0.831724  1
  Zn  Zn19  1  0.624862  0.125413  0.624862  1
  Zn  Zn20  1  0.624086  0.626035  0.125792  1
  Zn  Zn21  1  0.125792  0.626035  0.624086  1
  Zn  Zn22  1  0.624086  0.626035  0.624086  1
  Ga  Ga23  1  0.833494  0.499520  0.833494  1
  O  O24  1  0.000223  0.999332  0.000223  1
  O  O25  1  0.249824  0.250527  0.249824  1
