# generated using pymatgen
data_SmYTa2(SnPt)4
_symmetry_space_group_name_H-M   'P 1'
_cell_length_a   6.48510976
_cell_length_b   4.55460200
_cell_length_c   9.15972107
_cell_angle_alpha   90.00000000
_cell_angle_beta   90.05529773
_cell_angle_gamma   90.00000000
_symmetry_Int_Tables_number   1
_chemical_formula_structural   SmYTa2(SnPt)4
_chemical_formula_sum   'Sm1 Y1 Ta2 Sn4 Pt4'
_cell_volume   270.55141487
_cell_formula_units_Z   1
loop_
 _symmetry_equiv_pos_site_id
 _symmetry_equiv_pos_as_xyz
  1  'x, y, z'
loop_
 _atom_site_type_symbol
 _atom_site_label
 _atom_site_symmetry_multiplicity
 _atom_site_fract_x
 _atom_site_fract_y
 _atom_site_fract_z
 _atom_site_occupancy
  Sm  Sm0  1  0.003730  0.000000  0.376464  1
  Y  Y1  1  0.504333  0.500000  0.623403  1
  Ta  Ta2  1  0.497331  0.500000  0.121813  1
  Ta  Ta3  1  0.996855  0.000000  0.878206  1
  Sn  Sn4  1  0.983781  0.500000  0.123526  1
  Sn  Sn5  1  0.511419  0.000000  0.371357  1
  Sn  Sn6  1  0.011080  0.500000  0.630505  1
  Sn  Sn7  1  0.482864  0.000000  0.874562  1
  Pt  Pt8  1  0.733040  0.000000  0.108088  1
  Pt  Pt9  1  0.272913  0.500000  0.352990  1
  Pt  Pt10  1  0.768327  0.000000  0.648311  1
  Pt  Pt11  1  0.234326  0.500000  0.890768  1
