# generated using pymatgen
data_Dy4TmLu5Sn8
_symmetry_space_group_name_H-M   'P 1'
_cell_length_a   7.94762000
_cell_length_b   8.07925404
_cell_length_c   15.26632308
_cell_angle_alpha   89.98821444
_cell_angle_beta   90.00000000
_cell_angle_gamma   90.00000000
_symmetry_Int_Tables_number   1
_chemical_formula_structural   Dy4TmLu5Sn8
_chemical_formula_sum   'Dy8 Tm2 Lu10 Sn16'
_cell_volume   980.26342348
_cell_formula_units_Z   2
loop_
 _symmetry_equiv_pos_site_id
 _symmetry_equiv_pos_as_xyz
  1  'x, y, z'
loop_
 _atom_site_type_symbol
 _atom_site_label
 _atom_site_symmetry_multiplicity
 _atom_site_fract_x
 _atom_site_fract_y
 _atom_site_fract_z
 _atom_site_occupancy
  Dy  Dy0  1  0.521866  0.320415  0.902898  1
  Dy  Dy1  1  0.021866  0.179585  0.597102  1
  Dy  Dy2  1  0.478141  0.679561  0.402882  1
  Dy  Dy3  1  0.978141  0.820439  0.097118  1
  Dy  Dy4  1  0.478153  0.679582  0.097220  1
  Dy  Dy5  1  0.978153  0.820418  0.402780  1
  Dy  Dy6  1  0.521823  0.320352  0.597075  1
  Dy  Dy7  1  0.021823  0.179648  0.902925  1
  Tm  Tm8  1  0.367547  0.836199  0.877438  1
  Tm  Tm9  1  0.867547  0.663801  0.622562  1
  Lu  Lu10  1  0.632519  0.163793  0.377298  1
  Lu  Lu11  1  0.132519  0.336207  0.122702  1
  Lu  Lu12  1  0.632524  0.163745  0.122626  1
  Lu  Lu13  1  0.132524  0.336255  0.377374  1
  Lu  Lu14  1  0.367419  0.836234  0.622588  1
  Lu  Lu15  1  0.867419  0.663766  0.877412  1
  Lu  Lu16  1  0.197634  0.504385  0.749976  1
  Lu  Lu17  1  0.697634  0.995615  0.750024  1
  Lu  Lu18  1  0.802392  0.495393  0.249991  1
  Lu  Lu19  1  0.302392  0.004607  0.250009  1
  Sn  Sn20  1  0.294182  0.037194  0.041879  1
  Sn  Sn21  1  0.794182  0.462806  0.458121  1
  Sn  Sn22  1  0.705499  0.963382  0.541592  1
  Sn  Sn23  1  0.205499  0.536618  0.958408  1
  Sn  Sn24  1  0.706088  0.963110  0.958384  1
  Sn  Sn25  1  0.206088  0.536890  0.541616  1
  Sn  Sn26  1  0.294267  0.036989  0.458327  1
  Sn  Sn27  1  0.794267  0.463011  0.041673  1
  Sn  Sn28  1  0.564012  0.621104  0.749999  1
  Sn  Sn29  1  0.064012  0.878896  0.750001  1
  Sn  Sn30  1  0.436023  0.378676  0.249998  1
  Sn  Sn31  1  0.936023  0.121324  0.250002  1
  Sn  Sn32  1  0.330562  0.147594  0.749928  1
  Sn  Sn33  1  0.830562  0.352406  0.750072  1
  Sn  Sn34  1  0.669349  0.852499  0.250003  1
  Sn  Sn35  1  0.169349  0.647501  0.249997  1
