# generated using pymatgen
data_Y2Lu8Cd3Ir
_symmetry_space_group_name_H-M   'P 1'
_cell_length_a   9.52525494
_cell_length_b   9.53258904
_cell_length_c   9.58011200
_cell_angle_alpha   90.00000000
_cell_angle_beta   90.00000000
_cell_angle_gamma   120.02547745
_symmetry_Int_Tables_number   1
_chemical_formula_structural   Y2Lu8Cd3Ir
_chemical_formula_sum   'Y4 Lu16 Cd6 Ir2'
_cell_volume   753.14248057
_cell_formula_units_Z   2
loop_
 _symmetry_equiv_pos_site_id
 _symmetry_equiv_pos_as_xyz
  1  'x, y, z'
loop_
 _atom_site_type_symbol
 _atom_site_label
 _atom_site_symmetry_multiplicity
 _atom_site_fract_x
 _atom_site_fract_y
 _atom_site_fract_z
 _atom_site_occupancy
  Y  Y0  1  0.914300  0.457151  0.250000  1
  Y  Y1  1  0.460004  0.540342  0.750000  1
  Y  Y2  1  0.460004  0.919661  0.750000  1
  Y  Y3  1  0.080305  0.540152  0.750000  1
  Lu  Lu4  1  0.000738  0.000369  0.498958  1
  Lu  Lu5  1  0.000738  0.000369  0.001042  1
  Lu  Lu6  1  0.210834  0.791606  0.439172  1
  Lu  Lu7  1  0.210834  0.419228  0.439172  1
  Lu  Lu8  1  0.582009  0.791004  0.439615  1
  Lu  Lu9  1  0.789021  0.208780  0.558528  1
  Lu  Lu10  1  0.789021  0.580241  0.558528  1
  Lu  Lu11  1  0.420373  0.210187  0.557430  1
  Lu  Lu12  1  0.789021  0.208780  0.941472  1
  Lu  Lu13  1  0.789021  0.580241  0.941472  1
  Lu  Lu14  1  0.420373  0.210187  0.942570  1
  Lu  Lu15  1  0.210834  0.791606  0.060828  1
  Lu  Lu16  1  0.210834  0.419228  0.060828  1
  Lu  Lu17  1  0.582009  0.791004  0.060385  1
  Lu  Lu18  1  0.538918  0.458737  0.250000  1
  Lu  Lu19  1  0.538918  0.080182  0.250000  1
  Cd  Cd20  1  0.883888  0.111249  0.250000  1
  Cd  Cd21  1  0.883888  0.772638  0.250000  1
  Cd  Cd22  1  0.230156  0.115078  0.250000  1
  Cd  Cd23  1  0.112706  0.888073  0.750000  1
  Cd  Cd24  1  0.112706  0.224633  0.750000  1
  Cd  Cd25  1  0.775592  0.887796  0.750000  1
  Ir  Ir26  1  0.335478  0.667739  0.250000  1
  Ir  Ir27  1  0.667476  0.333737  0.750000  1
