# generated using pymatgen
data_Ti3SiTc3BAs
_symmetry_space_group_name_H-M   'P 1'
_cell_length_a   6.68249900
_cell_length_b   6.68249848
_cell_length_c   3.18827600
_cell_angle_alpha   90.00000000
_cell_angle_beta   90.00000000
_cell_angle_gamma   120.00000755
_symmetry_Int_Tables_number   1
_chemical_formula_structural   Ti3SiTc3BAs
_chemical_formula_sum   'Ti3 Si1 Tc3 B1 As1'
_cell_volume   123.30034149
_cell_formula_units_Z   1
loop_
 _symmetry_equiv_pos_site_id
 _symmetry_equiv_pos_as_xyz
  1  'x, y, z'
loop_
 _atom_site_type_symbol
 _atom_site_label
 _atom_site_symmetry_multiplicity
 _atom_site_fract_x
 _atom_site_fract_y
 _atom_site_fract_z
 _atom_site_occupancy
  Ti  Ti0  1  0.616296  0.004802  0.000000  1
  Ti  Ti1  1  0.388505  0.383704  0.000000  1
  Ti  Ti2  1  0.995198  0.611495  0.000000  1
  Si  Si3  1  0.666667  0.333333  0.500000  1
  Tc  Tc4  1  0.245033  0.003104  0.500000  1
  Tc  Tc5  1  0.758072  0.754967  0.500000  1
  Tc  Tc6  1  0.996896  0.241928  0.500000  1
  B  B7  1  0.000000  0.000000  0.000000  1
  As  As8  1  0.333333  0.666667  0.500000  1
