# generated using pymatgen
data_Tm9LuOs3Rh
_symmetry_space_group_name_H-M   'P 1'
_cell_length_a   8.28232489
_cell_length_b   8.26615184
_cell_length_c   7.29740000
_cell_angle_alpha   83.23788980
_cell_angle_beta   83.35608886
_cell_angle_gamma   44.63568219
_symmetry_Int_Tables_number   1
_chemical_formula_structural   Tm9LuOs3Rh
_chemical_formula_sum   'Tm9 Lu1 Os3 Rh1'
_cell_volume   348.21163819
_cell_formula_units_Z   1
loop_
 _symmetry_equiv_pos_site_id
 _symmetry_equiv_pos_as_xyz
  1  'x, y, z'
loop_
 _atom_site_type_symbol
 _atom_site_label
 _atom_site_symmetry_multiplicity
 _atom_site_fract_x
 _atom_site_fract_y
 _atom_site_fract_z
 _atom_site_occupancy
  Tm  Tm0  1  0.419044  0.581214  0.750632  1
  Tm  Tm1  1  0.350905  0.208782  0.317555  1
  Tm  Tm2  1  0.211143  0.969584  0.082703  1
  Tm  Tm3  1  0.791774  0.029803  0.918576  1
  Tm  Tm4  1  0.974616  0.211440  0.581737  1
  Tm  Tm5  1  0.648356  0.788181  0.680969  1
  Tm  Tm6  1  0.205590  0.353494  0.822985  1
  Tm  Tm7  1  0.789614  0.649173  0.179730  1
  Tm  Tm8  1  0.031050  0.790784  0.415647  1
  Lu  Lu9  1  0.579940  0.421439  0.248098  1
  Os  Os10  1  0.395665  0.821983  0.423823  1
  Os  Os11  1  0.177677  0.605126  0.078919  1
  Os  Os12  1  0.823129  0.392873  0.921785  1
  Rh  Rh13  1  0.601495  0.176126  0.576841  1
