# generated using pymatgen
data_DyHfMn3Ni9P7
_symmetry_space_group_name_H-M   'P 1'
_cell_length_a   9.05905400
_cell_length_b   9.05905372
_cell_length_c   3.61823800
_cell_angle_alpha   90.00000000
_cell_angle_beta   90.00000000
_cell_angle_gamma   120.00000832
_symmetry_Int_Tables_number   1
_chemical_formula_structural   DyHfMn3Ni9P7
_chemical_formula_sum   'Dy1 Hf1 Mn3 Ni9 P7'
_cell_volume   257.15407412
_cell_formula_units_Z   1
loop_
 _symmetry_equiv_pos_site_id
 _symmetry_equiv_pos_as_xyz
  1  'x, y, z'
loop_
 _atom_site_type_symbol
 _atom_site_label
 _atom_site_symmetry_multiplicity
 _atom_site_fract_x
 _atom_site_fract_y
 _atom_site_fract_z
 _atom_site_occupancy
  Dy  Dy0  1  0.333333  0.666667  0.500000  1
  Hf  Hf1  1  0.666667  0.333333  0.000000  1
  Mn  Mn2  1  0.124997  0.902517  0.500000  1
  Mn  Mn3  1  0.097483  0.222480  0.500000  1
  Mn  Mn4  1  0.777520  0.875003  0.500000  1
  Ni  Ni5  1  0.377577  0.942050  0.000000  1
  Ni  Ni6  1  0.057950  0.435527  0.000000  1
  Ni  Ni7  1  0.564473  0.622423  0.000000  1
  Ni  Ni8  1  0.874998  0.719669  0.000000  1
  Ni  Ni9  1  0.280331  0.155329  0.000000  1
  Ni  Ni10  1  0.844671  0.125002  0.000000  1
  Ni  Ni11  1  0.941545  0.560213  0.500000  1
  Ni  Ni12  1  0.439787  0.381333  0.500000  1
  Ni  Ni13  1  0.618667  0.058455  0.500000  1
  P  P14  1  0.115568  0.709558  0.000000  1
  P  P15  1  0.290442  0.406010  0.000000  1
  P  P16  1  0.593990  0.884432  0.000000  1
  P  P17  1  0.706898  0.588035  0.500000  1
  P  P18  1  0.411965  0.118864  0.500000  1
  P  P19  1  0.881136  0.293102  0.500000  1
  P  P20  1  0.000000  0.000000  0.000000  1
