# generated using pymatgen
data_Sc2InSnPt2
_symmetry_space_group_name_H-M   'P 1'
_cell_length_a   7.65192039
_cell_length_b   7.62671930
_cell_length_c   7.01118103
_cell_angle_alpha   89.98830321
_cell_angle_beta   90.00608048
_cell_angle_gamma   120.01908036
_symmetry_Int_Tables_number   1
_chemical_formula_structural   Sc2InSnPt2
_chemical_formula_sum   'Sc6 In3 Sn3 Pt6'
_cell_volume   354.27987018
_cell_formula_units_Z   3
loop_
 _symmetry_equiv_pos_site_id
 _symmetry_equiv_pos_as_xyz
  1  'x, y, z'
loop_
 _atom_site_type_symbol
 _atom_site_label
 _atom_site_symmetry_multiplicity
 _atom_site_fract_x
 _atom_site_fract_y
 _atom_site_fract_z
 _atom_site_occupancy
  Sc  Sc0  1  0.391214  0.000450  0.248417  1
  Sc  Sc1  1  0.609787  0.599002  0.247500  1
  Sc  Sc2  1  0.999441  0.398178  0.247888  1
  Sc  Sc3  1  0.387763  0.992370  0.751840  1
  Sc  Sc4  1  0.607320  0.604253  0.752518  1
  Sc  Sc5  1  0.007454  0.402900  0.751809  1
  In  In6  1  0.275948  0.274335  0.999609  1
  In  In7  1  0.002407  0.728922  0.000824  1
  In  In8  1  0.998682  0.720964  0.499361  1
  Sn  Sn9  1  0.718581  0.997710  0.499757  1
  Sn  Sn10  1  0.278012  0.276461  0.500590  1
  Sn  Sn11  1  0.727955  0.000987  0.000187  1
  Pt  Pt12  1  0.995629  0.002640  0.743582  1
  Pt  Pt13  1  0.996446  0.003800  0.256430  1
  Pt  Pt14  1  0.668387  0.332530  0.993881  1
  Pt  Pt15  1  0.333453  0.665331  0.493164  1
  Pt  Pt16  1  0.337319  0.669593  0.005934  1
  Pt  Pt17  1  0.664203  0.329575  0.506710  1
