# generated using pymatgen
data_Nd(PaN2)2
_symmetry_space_group_name_H-M   'P 1'
_cell_length_a   9.24273578
_cell_length_b   9.24273634
_cell_length_c   9.24273661
_cell_angle_alpha   23.08693604
_cell_angle_beta   23.08692946
_cell_angle_gamma   23.08693387
_symmetry_Int_Tables_number   1
_chemical_formula_structural   Nd(PaN2)2
_chemical_formula_sum   'Nd1 Pa2 N4'
_cell_volume   106.56641957
_cell_formula_units_Z   1
loop_
 _symmetry_equiv_pos_site_id
 _symmetry_equiv_pos_as_xyz
  1  'x, y, z'
loop_
 _atom_site_type_symbol
 _atom_site_label
 _atom_site_symmetry_multiplicity
 _atom_site_fract_x
 _atom_site_fract_y
 _atom_site_fract_z
 _atom_site_occupancy
  Nd  Nd0  1  0.000000  0.000000  0.000000  1
  Pa  Pa1  1  0.224264  0.224264  0.224264  1
  Pa  Pa2  1  0.775735  0.775735  0.775735  1
  N  N3  1  0.135724  0.135724  0.135724  1
  N  N4  1  0.392280  0.392280  0.392280  1
  N  N5  1  0.607723  0.607723  0.607723  1
  N  N6  1  0.864274  0.864274  0.864274  1
