# generated using pymatgen
data_Pr17Er3(Ga5Pb)2
_symmetry_space_group_name_H-M   'P 1'
_cell_length_a   7.97992200
_cell_length_b   7.97992200
_cell_length_c   14.67129600
_cell_angle_alpha   90.00000000
_cell_angle_beta   90.00000000
_cell_angle_gamma   90.00000000
_symmetry_Int_Tables_number   1
_chemical_formula_structural   Pr17Er3(Ga5Pb)2
_chemical_formula_sum   'Pr17 Er3 Ga10 Pb2'
_cell_volume   934.25573388
_cell_formula_units_Z   1
loop_
 _symmetry_equiv_pos_site_id
 _symmetry_equiv_pos_as_xyz
  1  'x, y, z'
loop_
 _atom_site_type_symbol
 _atom_site_label
 _atom_site_symmetry_multiplicity
 _atom_site_fract_x
 _atom_site_fract_y
 _atom_site_fract_z
 _atom_site_occupancy
  Pr  Pr0  1  0.819326  0.839370  0.610948  1
  Pr  Pr1  1  0.177186  0.836519  0.100596  1
  Pr  Pr2  1  0.161938  0.823517  0.387946  1
  Pr  Pr3  1  0.838062  0.176483  0.387946  1
  Pr  Pr4  1  0.676483  0.661938  0.387946  1
  Pr  Pr5  1  0.660630  0.319326  0.610948  1
  Pr  Pr6  1  0.339370  0.680674  0.610948  1
  Pr  Pr7  1  0.663481  0.677186  0.100596  1
  Pr  Pr8  1  0.683527  0.341785  0.899524  1
  Pr  Pr9  1  0.841785  0.816473  0.899524  1
  Pr  Pr10  1  0.323517  0.338062  0.387946  1
  Pr  Pr11  1  0.180674  0.160630  0.610948  1
  Pr  Pr12  1  0.822814  0.163481  0.100596  1
  Pr  Pr13  1  0.316473  0.658215  0.899524  1
  Pr  Pr14  1  0.336519  0.322814  0.100596  1
  Pr  Pr15  1  0.158215  0.183527  0.899524  1
  Pr  Pr16  1  0.500000  0.000000  0.795644  1
  Er  Er17  1  0.000000  0.500000  0.741186  1
  Er  Er18  1  0.000000  0.500000  0.219300  1
  Er  Er19  1  0.500000  0.000000  0.248734  1
  Ga  Ga20  1  0.623791  0.374389  0.245947  1
  Ga  Ga21  1  0.119050  0.873138  0.752069  1
  Ga  Ga22  1  0.373138  0.380950  0.752069  1
  Ga  Ga23  1  0.376209  0.625611  0.245947  1
  Ga  Ga24  1  0.874389  0.876209  0.245947  1
  Ga  Ga25  1  0.626862  0.619050  0.752069  1
  Ga  Ga26  1  0.880950  0.126862  0.752069  1
  Ga  Ga27  1  0.500000  0.000000  0.006495  1
  Ga  Ga28  1  0.125611  0.123791  0.245947  1
  Ga  Ga29  1  0.000000  0.500000  0.007144  1
  Pb  Pb30  1  0.000000  0.500000  0.510038  1
  Pb  Pb31  1  0.500000  0.000000  0.483335  1
