# generated using pymatgen
data_Ba2(B2Rh3)3
_symmetry_space_group_name_H-M   'P 1'
_cell_length_a   5.80507101
_cell_length_b   5.80611401
_cell_length_c   8.49560900
_cell_angle_alpha   89.99955014
_cell_angle_beta   90.00089989
_cell_angle_gamma   119.99406344
_symmetry_Int_Tables_number   1
_chemical_formula_structural   Ba2(B2Rh3)3
_chemical_formula_sum   'Ba2 B6 Rh9'
_cell_volume   247.99574014
_cell_formula_units_Z   1
loop_
 _symmetry_equiv_pos_site_id
 _symmetry_equiv_pos_as_xyz
  1  'x, y, z'
loop_
 _atom_site_type_symbol
 _atom_site_label
 _atom_site_symmetry_multiplicity
 _atom_site_fract_x
 _atom_site_fract_y
 _atom_site_fract_z
 _atom_site_occupancy
  Ba  Ba0  1  0.999988  0.000000  0.288264  1
  Ba  Ba1  1  0.000003  0.000000  0.711839  1
  B  B2  1  0.333346  0.666710  0.999989  1
  B  B3  1  0.666636  0.333290  0.999989  1
  B  B4  1  0.333346  0.666704  0.332588  1
  B  B5  1  0.666643  0.333296  0.332588  1
  B  B6  1  0.666643  0.333297  0.667393  1
  B  B7  1  0.333346  0.666703  0.667393  1
  Rh  Rh8  1  0.499986  0.000000  0.163213  1
  Rh  Rh9  1  0.499979  0.499989  0.163206  1
  Rh  Rh10  1  0.999990  0.500011  0.163206  1
  Rh  Rh11  1  0.499990  0.000000  0.836789  1
  Rh  Rh12  1  0.499997  0.500013  0.836775  1
  Rh  Rh13  1  0.999984  0.499987  0.836775  1
  Rh  Rh14  1  0.500001  0.000000  0.499992  1
  Rh  Rh15  1  0.500014  0.500008  0.499999  1
  Rh  Rh16  1  0.000006  0.499992  0.499999  1
