# generated using pymatgen
data_YbDy7(ErIr3)2
_symmetry_space_group_name_H-M   'P 1'
_cell_length_a   10.85684859
_cell_length_b   10.88644300
_cell_length_c   6.36353177
_cell_angle_alpha   90.00000000
_cell_angle_beta   90.23862988
_cell_angle_gamma   90.00000000
_symmetry_Int_Tables_number   1
_chemical_formula_structural   YbDy7(ErIr3)2
_chemical_formula_sum   'Yb2 Dy14 Er4 Ir12'
_cell_volume   752.11497207
_cell_formula_units_Z   2
loop_
 _symmetry_equiv_pos_site_id
 _symmetry_equiv_pos_as_xyz
  1  'x, y, z'
loop_
 _atom_site_type_symbol
 _atom_site_label
 _atom_site_symmetry_multiplicity
 _atom_site_fract_x
 _atom_site_fract_y
 _atom_site_fract_z
 _atom_site_occupancy
  Yb  Yb0  1  0.289563  0.087363  0.375758  1
  Yb  Yb1  1  0.289563  0.912637  0.875758  1
  Dy  Dy2  1  0.708806  0.086400  0.879076  1
  Dy  Dy3  1  0.708806  0.913600  0.379076  1
  Dy  Dy4  1  0.586306  0.792195  0.877887  1
  Dy  Dy5  1  0.586306  0.207805  0.377887  1
  Dy  Dy6  1  0.411736  0.792841  0.378796  1
  Dy  Dy7  1  0.411736  0.207159  0.878796  1
  Dy  Dy8  1  0.209664  0.412996  0.622442  1
  Dy  Dy9  1  0.209664  0.587004  0.122442  1
  Dy  Dy10  1  0.790975  0.412363  0.120667  1
  Dy  Dy11  1  0.790975  0.587637  0.620667  1
  Dy  Dy12  1  0.912543  0.709901  0.122920  1
  Dy  Dy13  1  0.912543  0.290099  0.622920  1
  Dy  Dy14  1  0.088064  0.709625  0.621001  1
  Dy  Dy15  1  0.088064  0.290375  0.121001  1
  Er  Er16  1  0.001069  0.999859  0.498983  1
  Er  Er17  1  0.001069  0.000141  0.998983  1
  Er  Er18  1  0.499940  0.499692  0.999099  1
  Er  Er19  1  0.499940  0.500308  0.499099  1
  Ir  Ir20  1  0.849406  0.152463  0.250087  1
  Ir  Ir21  1  0.849406  0.847537  0.750087  1
  Ir  Ir22  1  0.147919  0.157396  0.753426  1
  Ir  Ir23  1  0.147919  0.842604  0.253426  1
  Ir  Ir24  1  0.651197  0.347236  0.750155  1
  Ir  Ir25  1  0.651197  0.652764  0.250155  1
  Ir  Ir26  1  0.348556  0.351452  0.247424  1
  Ir  Ir27  1  0.348556  0.648548  0.747424  1
  Ir  Ir28  1  0.503920  0.000484  0.122358  1
  Ir  Ir29  1  0.503920  0.999516  0.622358  1
  Ir  Ir30  1  0.000336  0.500278  0.879921  1
  Ir  Ir31  1  0.000336  0.499722  0.379921  1
