# generated using pymatgen
data_LaDy2TlF10
_symmetry_space_group_name_H-M   'P 1'
_cell_length_a   8.50299633
_cell_length_b   8.50299247
_cell_length_c   8.31235000
_cell_angle_alpha   60.74039007
_cell_angle_beta   60.74041235
_cell_angle_gamma   58.52222794
_symmetry_Int_Tables_number   1
_chemical_formula_structural   LaDy2TlF10
_chemical_formula_sum   'La2 Dy4 Tl2 F20'
_cell_volume   424.55575826
_cell_formula_units_Z   2
loop_
 _symmetry_equiv_pos_site_id
 _symmetry_equiv_pos_as_xyz
  1  'x, y, z'
loop_
 _atom_site_type_symbol
 _atom_site_label
 _atom_site_symmetry_multiplicity
 _atom_site_fract_x
 _atom_site_fract_y
 _atom_site_fract_z
 _atom_site_occupancy
  La  La0  1  0.243121  0.243121  0.756873  1
  La  La1  1  0.756879  0.756879  0.243127  1
  Dy  Dy2  1  0.760758  0.239245  0.239243  1
  Dy  Dy3  1  0.239242  0.760755  0.760757  1
  Dy  Dy4  1  0.239245  0.760758  0.239243  1
  Dy  Dy5  1  0.760755  0.239242  0.760757  1
  Tl  Tl6  1  0.250000  0.249998  0.250001  1
  Tl  Tl7  1  0.750000  0.750002  0.749999  1
  F  F8  1  0.833787  0.487835  0.512166  1
  F  F9  1  0.166213  0.512165  0.487834  1
  F  F10  1  0.487843  0.833787  0.166215  1
  F  F11  1  0.512157  0.166213  0.833785  1
  F  F12  1  0.487835  0.833787  0.512166  1
  F  F13  1  0.166213  0.512157  0.833785  1
  F  F14  1  0.512165  0.166213  0.487834  1
  F  F15  1  0.833787  0.487843  0.166215  1
  F  F16  1  0.499998  0.499998  0.820546  1
  F  F17  1  0.500002  0.500002  0.179454  1
  F  F18  1  0.179453  0.820547  0.500000  1
  F  F19  1  0.820547  0.179453  0.500000  1
  F  F20  1  0.105017  0.105017  0.121537  1
  F  F21  1  0.894983  0.894983  0.878463  1
  F  F22  1  0.105007  0.105008  0.668442  1
  F  F23  1  0.121543  0.668433  0.105010  1
  F  F24  1  0.894993  0.894992  0.331558  1
  F  F25  1  0.878457  0.331567  0.894990  1
  F  F26  1  0.668434  0.121543  0.105010  1
  F  F27  1  0.331566  0.878457  0.894990  1
