# generated using pymatgen
data_Tb3WO7
_symmetry_space_group_name_H-M   'P 1'
_cell_length_a   6.52152697
_cell_length_b   6.52152717
_cell_length_c   7.50355400
_cell_angle_alpha   90.00000000
_cell_angle_beta   90.00000000
_cell_angle_gamma   108.88533264
_symmetry_Int_Tables_number   1
_chemical_formula_structural   Tb3WO7
_chemical_formula_sum   'Tb6 W2 O14'
_cell_volume   301.94927037
_cell_formula_units_Z   2
loop_
 _symmetry_equiv_pos_site_id
 _symmetry_equiv_pos_as_xyz
  1  'x, y, z'
loop_
 _atom_site_type_symbol
 _atom_site_label
 _atom_site_symmetry_multiplicity
 _atom_site_fract_x
 _atom_site_fract_y
 _atom_site_fract_z
 _atom_site_occupancy
  Tb  Tb0  1  0.472968  0.472968  0.000000  1
  Tb  Tb1  1  0.466199  0.998960  0.255613  1
  Tb  Tb2  1  0.533801  0.001040  0.755613  1
  Tb  Tb3  1  0.001040  0.533801  0.244387  1
  Tb  Tb4  1  0.527032  0.527032  0.500000  1
  Tb  Tb5  1  0.998960  0.466199  0.744387  1
  W  W6  1  0.000344  0.000344  0.000000  1
  W  W7  1  0.999656  0.999656  0.500000  1
  O  O8  1  0.060144  0.312713  0.463970  1
  O  O9  1  0.074896  0.925104  0.250000  1
  O  O10  1  0.630941  0.369059  0.250000  1
  O  O11  1  0.312713  0.060144  0.536030  1
  O  O12  1  0.916537  0.674092  0.525624  1
  O  O13  1  0.925104  0.074896  0.750000  1
  O  O14  1  0.674092  0.916537  0.474376  1
  O  O15  1  0.362905  0.637095  0.250000  1
  O  O16  1  0.687287  0.939856  0.036030  1
  O  O17  1  0.637095  0.362905  0.750000  1
  O  O18  1  0.083463  0.325908  0.025624  1
  O  O19  1  0.939856  0.687287  0.963970  1
  O  O20  1  0.369059  0.630941  0.750000  1
  O  O21  1  0.325908  0.083463  0.974376  1
