# generated using pymatgen
data_TbSmMoRuC3
_symmetry_space_group_name_H-M   'P 1'
_cell_length_a   6.12386836
_cell_length_b   6.12386696
_cell_length_c   5.77854860
_cell_angle_alpha   66.48231006
_cell_angle_beta   66.48231483
_cell_angle_gamma   32.25047823
_symmetry_Int_Tables_number   1
_chemical_formula_structural   TbSmMoRuC3
_chemical_formula_sum   'Tb1 Sm1 Mo1 Ru1 C3'
_cell_volume   105.19094496
_cell_formula_units_Z   1
loop_
 _symmetry_equiv_pos_site_id
 _symmetry_equiv_pos_as_xyz
  1  'x, y, z'
loop_
 _atom_site_type_symbol
 _atom_site_label
 _atom_site_symmetry_multiplicity
 _atom_site_fract_x
 _atom_site_fract_y
 _atom_site_fract_z
 _atom_site_occupancy
  Tb  Tb0  1  0.391436  0.391436  0.829561  1
  Sm  Sm1  1  0.606347  0.606347  0.186143  1
  Mo  Mo2  1  0.160223  0.160223  0.676934  1
  Ru  Ru3  1  0.840107  0.840107  0.317198  1
  C  C4  1  0.754134  0.754134  0.725700  1
  C  C5  1  0.249795  0.249795  0.272452  1
  C  C6  1  0.997958  0.997958  0.992013  1
