# generated using pymatgen
data_NaTbNd5IrBr12
_symmetry_space_group_name_H-M   'P 1'
_cell_length_a   9.49976392
_cell_length_b   9.58952136
_cell_length_c   9.48448462
_cell_angle_alpha   107.31450102
_cell_angle_beta   107.04034763
_cell_angle_gamma   106.62536416
_symmetry_Int_Tables_number   1
_chemical_formula_structural   NaTbNd5IrBr12
_chemical_formula_sum   'Na1 Tb1 Nd5 Ir1 Br12'
_cell_volume   719.67262102
_cell_formula_units_Z   1
loop_
 _symmetry_equiv_pos_site_id
 _symmetry_equiv_pos_as_xyz
  1  'x, y, z'
loop_
 _atom_site_type_symbol
 _atom_site_label
 _atom_site_symmetry_multiplicity
 _atom_site_fract_x
 _atom_site_fract_y
 _atom_site_fract_z
 _atom_site_occupancy
  Na  Na0  1  0.500049  0.499659  0.500313  1
  Tb  Tb1  1  0.887473  0.678732  0.969892  1
  Nd  Nd2  1  0.114578  0.328433  0.030069  1
  Nd  Nd3  1  0.315662  0.028003  0.109969  1
  Nd  Nd4  1  0.029116  0.108422  0.317172  1
  Nd  Nd5  1  0.969648  0.887764  0.681225  1
  Nd  Nd6  1  0.684145  0.972670  0.889897  1
  Ir  Ir7  1  0.999373  0.999335  0.998894  1
  Br  Br8  1  0.209971  0.683077  0.071456  1
  Br  Br9  1  0.452830  0.368712  0.152846  1
  Br  Br10  1  0.683329  0.074002  0.219808  1
  Br  Br11  1  0.924562  0.776503  0.309042  1
  Br  Br12  1  0.152476  0.451210  0.371304  1
  Br  Br13  1  0.371475  0.153290  0.454673  1
  Br  Br14  1  0.628208  0.845822  0.544941  1
  Br  Br15  1  0.847998  0.548072  0.637705  1
  Br  Br16  1  0.072864  0.216845  0.681872  1
  Br  Br17  1  0.316508  0.925189  0.779772  1
  Br  Br18  1  0.556369  0.630821  0.851794  1
  Br  Br19  1  0.783368  0.323441  0.927359  1
