# generated using pymatgen
data_HoTh2(InRu)3
_symmetry_space_group_name_H-M   'P 1'
_cell_length_a   7.34687000
_cell_length_b   7.67587755
_cell_length_c   4.03426700
_cell_angle_alpha   90.00000000
_cell_angle_beta   90.00000000
_cell_angle_gamma   118.59196543
_symmetry_Int_Tables_number   1
_chemical_formula_structural   HoTh2(InRu)3
_chemical_formula_sum   'Ho1 Th2 In3 Ru3'
_cell_volume   199.76266556
_cell_formula_units_Z   1
loop_
 _symmetry_equiv_pos_site_id
 _symmetry_equiv_pos_as_xyz
  1  'x, y, z'
loop_
 _atom_site_type_symbol
 _atom_site_label
 _atom_site_symmetry_multiplicity
 _atom_site_fract_x
 _atom_site_fract_y
 _atom_site_fract_z
 _atom_site_occupancy
  Ho  Ho0  1  0.592663  0.000000  0.000000  1
  Th  Th1  1  0.002343  0.586063  0.000000  1
  Th  Th2  1  0.416280  0.413937  0.000000  1
  In  In3  1  0.748401  0.764754  0.500000  1
  In  In4  1  0.983647  0.235246  0.500000  1
  In  In5  1  0.269246  0.000000  0.500000  1
  Ru  Ru6  1  0.306920  0.637039  0.500000  1
  Ru  Ru7  1  0.010616  0.000000  0.000000  1
  Ru  Ru8  1  0.669882  0.362961  0.500000  1
