# generated using pymatgen
data_ScTa(PRh)2
_symmetry_space_group_name_H-M   'P 1'
_cell_length_a   3.77224100
_cell_length_b   6.37444400
_cell_length_c   7.35126400
_cell_angle_alpha   90.00000000
_cell_angle_beta   90.00000000
_cell_angle_gamma   90.00000000
_symmetry_Int_Tables_number   1
_chemical_formula_structural   ScTa(PRh)2
_chemical_formula_sum   'Sc2 Ta2 P4 Rh4'
_cell_volume   176.76804578
_cell_formula_units_Z   2
loop_
 _symmetry_equiv_pos_site_id
 _symmetry_equiv_pos_as_xyz
  1  'x, y, z'
loop_
 _atom_site_type_symbol
 _atom_site_label
 _atom_site_symmetry_multiplicity
 _atom_site_fract_x
 _atom_site_fract_y
 _atom_site_fract_z
 _atom_site_occupancy
  Sc  Sc0  1  0.250000  0.029175  0.822957  1
  Sc  Sc1  1  0.250000  0.529175  0.677043  1
  Ta  Ta2  1  0.750000  0.970516  0.179028  1
  Ta  Ta3  1  0.750000  0.470516  0.320972  1
  P  P4  1  0.250000  0.759420  0.371724  1
  P  P5  1  0.250000  0.259420  0.128276  1
  P  P6  1  0.750000  0.244354  0.618198  1
  P  P7  1  0.750000  0.744354  0.881802  1
  Rh  Rh8  1  0.250000  0.144318  0.435902  1
  Rh  Rh9  1  0.250000  0.644318  0.064098  1
  Rh  Rh10  1  0.750000  0.852217  0.561444  1
  Rh  Rh11  1  0.750000  0.352217  0.938556  1
