# generated using pymatgen
data_KBa(BiAu)4
_symmetry_space_group_name_H-M   'P 1'
_cell_length_a   5.16148671
_cell_length_b   4.93201600
_cell_length_c   11.68265236
_cell_angle_alpha   90.00000000
_cell_angle_beta   92.49413072
_cell_angle_gamma   90.00000000
_symmetry_Int_Tables_number   1
_chemical_formula_structural   KBa(BiAu)4
_chemical_formula_sum   'K1 Ba1 Bi4 Au4'
_cell_volume   297.11811764
_cell_formula_units_Z   1
loop_
 _symmetry_equiv_pos_site_id
 _symmetry_equiv_pos_as_xyz
  1  'x, y, z'
loop_
 _atom_site_type_symbol
 _atom_site_label
 _atom_site_symmetry_multiplicity
 _atom_site_fract_x
 _atom_site_fract_y
 _atom_site_fract_z
 _atom_site_occupancy
  K  K0  1  0.277697  0.249999  0.256077  1
  Ba  Ba1  1  0.723102  0.749999  0.743579  1
  Bi  Bi2  1  0.244240  0.749999  0.003337  1
  Bi  Bi3  1  0.820585  0.749999  0.380923  1
  Bi  Bi4  1  0.178316  0.249999  0.618023  1
  Bi  Bi5  1  0.755393  0.249999  0.999121  1
  Au  Au6  1  0.751713  0.749999  0.137612  1
  Au  Au7  1  0.670650  0.249999  0.500526  1
  Au  Au8  1  0.329858  0.749999  0.499121  1
  Au  Au9  1  0.248446  0.249999  0.861682  1
