# generated using pymatgen
data_Y7Ho2Er(In2Pd)4
_symmetry_space_group_name_H-M   'P 1'
_cell_length_a   3.63705800
_cell_length_b   8.15801201
_cell_length_c   18.24701405
_cell_angle_alpha   89.99773345
_cell_angle_beta   90.00000000
_cell_angle_gamma   90.00000000
_symmetry_Int_Tables_number   1
_chemical_formula_structural   Y7Ho2Er(In2Pd)4
_chemical_formula_sum   'Y7 Ho2 Er1 In8 Pd4'
_cell_volume   541.41012460
_cell_formula_units_Z   1
loop_
 _symmetry_equiv_pos_site_id
 _symmetry_equiv_pos_as_xyz
  1  'x, y, z'
loop_
 _atom_site_type_symbol
 _atom_site_label
 _atom_site_symmetry_multiplicity
 _atom_site_fract_x
 _atom_site_fract_y
 _atom_site_fract_z
 _atom_site_occupancy
  Y  Y0  1  0.000000  0.499854  0.500128  1
  Y  Y1  1  0.000000  0.000767  0.999666  1
  Y  Y2  1  0.000000  0.738510  0.282073  1
  Y  Y3  1  0.000000  0.261267  0.717968  1
  Y  Y4  1  0.000000  0.761154  0.781485  1
  Y  Y5  1  0.000000  0.239087  0.218785  1
  Y  Y6  1  0.000000  0.618575  0.083042  1
  Ho  Ho7  1  0.000000  0.882260  0.583800  1
  Ho  Ho8  1  0.000000  0.117556  0.416411  1
  Er  Er9  1  0.000000  0.382131  0.915429  1
  In  In10  1  0.500000  0.706155  0.932656  1
  In  In11  1  0.500000  0.293148  0.066960  1
  In  In12  1  0.500000  0.793546  0.433589  1
  In  In13  1  0.500000  0.206127  0.566514  1
  In  In14  1  0.500000  0.581086  0.650455  1
  In  In15  1  0.500000  0.418690  0.349707  1
  In  In16  1  0.500000  0.919873  0.151037  1
  In  In17  1  0.500000  0.081020  0.849030  1
  Pd  Pd18  1  0.500000  0.523132  0.196224  1
  Pd  Pd19  1  0.500000  0.476014  0.804888  1
  Pd  Pd20  1  0.500000  0.976339  0.694664  1
  Pd  Pd21  1  0.500000  0.023714  0.305490  1
