# generated using pymatgen
data_TbHo3Ga18(NiIr2)2
_symmetry_space_group_name_H-M   'P 1'
_cell_length_a   7.54667594
_cell_length_b   7.54672407
_cell_length_c   9.43645000
_cell_angle_alpha   90.00000000
_cell_angle_beta   90.00000000
_cell_angle_gamma   119.98918259
_symmetry_Int_Tables_number   1
_chemical_formula_structural   TbHo3Ga18(NiIr2)2
_chemical_formula_sum   'Tb1 Ho3 Ga18 Ni2 Ir4'
_cell_volume   465.47973328
_cell_formula_units_Z   1
loop_
 _symmetry_equiv_pos_site_id
 _symmetry_equiv_pos_as_xyz
  1  'x, y, z'
loop_
 _atom_site_type_symbol
 _atom_site_label
 _atom_site_symmetry_multiplicity
 _atom_site_fract_x
 _atom_site_fract_y
 _atom_site_fract_z
 _atom_site_occupancy
  Tb  Tb0  1  0.337320  0.003753  0.750000  1
  Ho  Ho1  1  0.996371  0.662589  0.250000  1
  Ho  Ho2  1  0.003719  0.337374  0.750000  1
  Ho  Ho3  1  0.662627  0.996373  0.250000  1
  Ga  Ga4  1  0.113067  0.113084  0.250000  1
  Ga  Ga5  1  0.886613  0.886799  0.750000  1
  Ga  Ga6  1  0.999289  0.328071  0.078239  1
  Ga  Ga7  1  0.000463  0.671612  0.921744  1
  Ga  Ga8  1  0.000463  0.671612  0.578256  1
  Ga  Ga9  1  0.328067  0.999303  0.421578  1
  Ga  Ga10  1  0.999289  0.328071  0.421761  1
  Ga  Ga11  1  0.672152  0.000742  0.578254  1
  Ga  Ga12  1  0.672152  0.000742  0.921746  1
  Ga  Ga13  1  0.328067  0.999303  0.078422  1
  Ga  Ga14  1  0.327126  0.327370  0.564812  1
  Ga  Ga15  1  0.672891  0.672887  0.435168  1
  Ga  Ga16  1  0.672891  0.672887  0.064832  1
  Ga  Ga17  1  0.327126  0.327370  0.935188  1
  Ga  Ga18  1  0.337489  0.541512  0.250000  1
  Ga  Ga19  1  0.662618  0.458692  0.750000  1
  Ga  Ga20  1  0.541517  0.337484  0.250000  1
  Ga  Ga21  1  0.458492  0.662296  0.750000  1
  Ni  Ni22  1  0.999948  0.999980  0.000139  1
  Ni  Ni23  1  0.999948  0.999980  0.499861  1
  Ir  Ir24  1  0.671813  0.328447  0.000208  1
  Ir  Ir25  1  0.328334  0.671609  0.000199  1
  Ir  Ir26  1  0.328334  0.671609  0.499801  1
  Ir  Ir27  1  0.671813  0.328447  0.499792  1
