# generated using pymatgen
data_Yb4Fe9O17
_symmetry_space_group_name_H-M   'P 1'
_cell_length_a   6.06107251
_cell_length_b   6.06107275
_cell_length_c   11.43959526
_cell_angle_alpha   82.45220385
_cell_angle_beta   82.45220277
_cell_angle_gamma   59.96091556
_symmetry_Int_Tables_number   1
_chemical_formula_structural   Yb4Fe9O17
_chemical_formula_sum   'Yb4 Fe9 O17'
_cell_volume   359.59802395
_cell_formula_units_Z   1
loop_
 _symmetry_equiv_pos_site_id
 _symmetry_equiv_pos_as_xyz
  1  'x, y, z'
loop_
 _atom_site_type_symbol
 _atom_site_label
 _atom_site_symmetry_multiplicity
 _atom_site_fract_x
 _atom_site_fract_y
 _atom_site_fract_z
 _atom_site_occupancy
  Yb  Yb0  1  0.539369  0.541615  0.750011  1
  Yb  Yb1  1  0.458385  0.460630  0.249989  1
  Yb  Yb2  1  0.793916  0.793603  0.240033  1
  Yb  Yb3  1  0.206397  0.206084  0.759967  1
  Fe  Fe4  1  0.504399  0.168293  0.000320  1
  Fe  Fe5  1  0.831707  0.495601  0.999680  1
  Fe  Fe6  1  0.158587  0.841413  0.000000  1
  Fe  Fe7  1  0.869482  0.870339  0.776208  1
  Fe  Fe8  1  0.129661  0.130518  0.223792  1
  Fe  Fe9  1  0.254862  0.248583  0.492688  1
  Fe  Fe10  1  0.751417  0.745138  0.507312  1
  Fe  Fe11  1  0.747887  0.252113  0.500000  1
  Fe  Fe12  1  0.252170  0.747830  0.500000  1
  O  O13  1  0.175451  0.164301  0.977879  1
  O  O14  1  0.835699  0.824549  0.022121  1
  O  O15  1  0.163552  0.856572  0.821396  1
  O  O16  1  0.143428  0.836448  0.178604  1
  O  O17  1  0.854002  0.568100  0.820522  1
  O  O18  1  0.431900  0.145998  0.179478  1
  O  O19  1  0.568334  0.166014  0.820990  1
  O  O20  1  0.833986  0.431666  0.179010  1
  O  O21  1  0.488885  0.511115  0.000000  1
  O  O22  1  0.404292  0.901897  0.597093  1
  O  O23  1  0.098103  0.595708  0.402907  1
  O  O24  1  0.903324  0.391112  0.596736  1
  O  O25  1  0.608888  0.096676  0.403264  1
  O  O26  1  0.100163  0.096693  0.401489  1
  O  O27  1  0.903307  0.899837  0.598511  1
  O  O28  1  0.595470  0.604020  0.404228  1
  O  O29  1  0.395980  0.404530  0.595772  1
