# generated using pymatgen
data_Nd7Er13Si15Hg
_symmetry_space_group_name_H-M   'P 1'
_cell_length_a   7.72879391
_cell_length_b   7.74713905
_cell_length_c   14.33067954
_cell_angle_alpha   89.85958080
_cell_angle_beta   89.70603929
_cell_angle_gamma   90.16757326
_symmetry_Int_Tables_number   1
_chemical_formula_structural   Nd7Er13Si15Hg
_chemical_formula_sum   'Nd7 Er13 Si15 Hg1'
_cell_volume   858.04678473
_cell_formula_units_Z   1
loop_
 _symmetry_equiv_pos_site_id
 _symmetry_equiv_pos_as_xyz
  1  'x, y, z'
loop_
 _atom_site_type_symbol
 _atom_site_label
 _atom_site_symmetry_multiplicity
 _atom_site_fract_x
 _atom_site_fract_y
 _atom_site_fract_z
 _atom_site_occupancy
  Nd  Nd0  1  0.359691  0.007385  0.959546  1
  Nd  Nd1  1  0.985302  0.636807  0.539985  1
  Nd  Nd2  1  0.491936  0.857195  0.209120  1
  Nd  Nd3  1  0.515548  0.149356  0.712372  1
  Nd  Nd4  1  0.859742  0.492953  0.794251  1
  Nd  Nd5  1  0.140198  0.504881  0.290525  1
  Nd  Nd6  1  0.007127  0.357157  0.042275  1
  Er  Er7  1  0.490600  0.358785  0.124461  1
  Er  Er8  1  0.982120  0.145837  0.629042  1
  Er  Er9  1  0.860769  0.007764  0.875501  1
  Er  Er10  1  0.136315  0.990067  0.371478  1
  Er  Er11  1  0.513967  0.635078  0.623503  1
  Er  Er12  1  0.362431  0.491267  0.877384  1
  Er  Er13  1  0.643269  0.505811  0.373808  1
  Er  Er14  1  0.006353  0.861380  0.125840  1
  Er  Er15  1  0.643947  0.998011  0.453864  1
  Er  Er16  1  0.315096  0.323556  0.498724  1
  Er  Er17  1  0.185957  0.819977  0.752824  1
  Er  Er18  1  0.816553  0.181921  0.250239  1
  Er  Er19  1  0.681920  0.682736  0.000651  1
  Si  Si20  1  0.709265  0.061815  0.062103  1
  Si  Si21  1  0.936918  0.287677  0.437102  1
  Si  Si22  1  0.438865  0.209027  0.312168  1
  Si  Si23  1  0.564032  0.788505  0.811391  1
  Si  Si24  1  0.210342  0.438356  0.689636  1
  Si  Si25  1  0.788482  0.563582  0.187428  1
  Si  Si26  1  0.064365  0.709960  0.939652  1
  Si  Si27  1  0.798774  0.845198  0.692167  1
  Si  Si28  1  0.202698  0.150605  0.187703  1
  Si  Si29  1  0.843810  0.799569  0.311375  1
  Si  Si30  1  0.354429  0.701255  0.431666  1
  Si  Si31  1  0.652184  0.296213  0.940228  1
  Si  Si32  1  0.697660  0.341848  0.556475  1
  Si  Si33  1  0.296391  0.651927  0.061010  1
  Si  Si34  1  0.153037  0.205554  0.811193  1
  Hg  Hg35  1  0.289908  0.940988  0.563307  1
