# generated using pymatgen
data_Ho3(In2Pt)2
_symmetry_space_group_name_H-M   'P 1'
_cell_length_a   7.78709500
_cell_length_b   7.78709517
_cell_length_c   3.93589600
_cell_angle_alpha   90.00000000
_cell_angle_beta   90.00000000
_cell_angle_gamma   120.00000352
_symmetry_Int_Tables_number   1
_chemical_formula_structural   Ho3(In2Pt)2
_chemical_formula_sum   'Ho3 In4 Pt2'
_cell_volume   206.69272269
_cell_formula_units_Z   1
loop_
 _symmetry_equiv_pos_site_id
 _symmetry_equiv_pos_as_xyz
  1  'x, y, z'
loop_
 _atom_site_type_symbol
 _atom_site_label
 _atom_site_symmetry_multiplicity
 _atom_site_fract_x
 _atom_site_fract_y
 _atom_site_fract_z
 _atom_site_occupancy
  Ho  Ho0  1  0.614118  0.026542  0.500000  1
  Ho  Ho1  1  0.412423  0.385882  0.500000  1
  Ho  Ho2  1  0.973458  0.587577  0.500000  1
  In  In3  1  0.746523  0.743479  0.000000  1
  In  In4  1  0.996956  0.253477  0.000000  1
  In  In5  1  0.256521  0.003044  0.000000  1
  In  In6  1  0.333333  0.666667  0.000000  1
  Pt  Pt7  1  0.666667  0.333333  0.000000  1
  Pt  Pt8  1  0.000000  0.000000  0.500000  1
