# generated using pymatgen
data_Tm4HfCu2Pd13
_symmetry_space_group_name_H-M   'P 1'
_cell_length_a   4.10594400
_cell_length_b   4.05182300
_cell_length_c   20.12709600
_cell_angle_alpha   90.00000000
_cell_angle_beta   90.00000000
_cell_angle_gamma   90.00000000
_symmetry_Int_Tables_number   1
_chemical_formula_structural   Tm4HfCu2Pd13
_chemical_formula_sum   'Tm4 Hf1 Cu2 Pd13'
_cell_volume   334.84560674
_cell_formula_units_Z   1
loop_
 _symmetry_equiv_pos_site_id
 _symmetry_equiv_pos_as_xyz
  1  'x, y, z'
loop_
 _atom_site_type_symbol
 _atom_site_label
 _atom_site_symmetry_multiplicity
 _atom_site_fract_x
 _atom_site_fract_y
 _atom_site_fract_z
 _atom_site_occupancy
  Tm  Tm0  1  0.000000  0.000000  0.199188  1
  Tm  Tm1  1  0.000000  0.000000  0.397543  1
  Tm  Tm2  1  0.000000  0.000000  0.602457  1
  Tm  Tm3  1  0.000000  0.000000  0.800812  1
  Hf  Hf4  1  0.000000  0.000000  0.000000  1
  Cu  Cu5  1  0.500000  0.500000  0.000000  1
  Cu  Cu6  1  0.500000  0.000000  0.500000  1
  Pd  Pd7  1  0.500000  0.500000  0.193873  1
  Pd  Pd8  1  0.500000  0.500000  0.401715  1
  Pd  Pd9  1  0.500000  0.500000  0.598285  1
  Pd  Pd10  1  0.500000  0.500000  0.806127  1
  Pd  Pd11  1  0.500000  0.000000  0.090690  1
  Pd  Pd12  1  0.500000  0.000000  0.297907  1
  Pd  Pd13  1  0.500000  0.000000  0.702093  1
  Pd  Pd14  1  0.500000  0.000000  0.909310  1
  Pd  Pd15  1  0.000000  0.500000  0.090911  1
  Pd  Pd16  1  0.000000  0.500000  0.297838  1
  Pd  Pd17  1  0.000000  0.500000  0.500000  1
  Pd  Pd18  1  0.000000  0.500000  0.702162  1
  Pd  Pd19  1  0.000000  0.500000  0.909089  1
