# generated using pymatgen
data_Y12Ho8Si15Ag
_symmetry_space_group_name_H-M   'P 1'
_cell_length_a   7.46232417
_cell_length_b   7.68378367
_cell_length_c   14.63122114
_cell_angle_alpha   90.21372929
_cell_angle_beta   90.63418578
_cell_angle_gamma   90.13529462
_symmetry_Int_Tables_number   1
_chemical_formula_structural   Y12Ho8Si15Ag
_chemical_formula_sum   'Y12 Ho8 Si15 Ag1'
_cell_volume   838.87825189
_cell_formula_units_Z   1
loop_
 _symmetry_equiv_pos_site_id
 _symmetry_equiv_pos_as_xyz
  1  'x, y, z'
loop_
 _atom_site_type_symbol
 _atom_site_label
 _atom_site_symmetry_multiplicity
 _atom_site_fract_x
 _atom_site_fract_y
 _atom_site_fract_z
 _atom_site_occupancy
  Y  Y0  1  0.524216  0.675582  0.602030  1
  Y  Y1  1  0.029013  0.816558  0.901119  1
  Y  Y2  1  0.469679  0.318728  0.098386  1
  Y  Y3  1  0.979726  0.184587  0.398647  1
  Y  Y4  1  0.471259  0.325509  0.399905  1
  Y  Y5  1  0.970044  0.183138  0.098204  1
  Y  Y6  1  0.530907  0.682413  0.899691  1
  Y  Y7  1  0.025564  0.817339  0.601136  1
  Y  Y8  1  0.851738  0.506866  0.750050  1
  Y  Y9  1  0.350041  0.990267  0.748379  1
  Y  Y10  1  0.150479  0.490036  0.249580  1
  Y  Y11  1  0.651005  0.010107  0.249267  1
  Ho  Ho12  1  0.679242  0.175419  0.624634  1
  Ho  Ho13  1  0.182693  0.321973  0.877469  1
  Ho  Ho14  1  0.317757  0.820038  0.121284  1
  Ho  Ho15  1  0.825909  0.675334  0.376164  1
  Ho  Ho16  1  0.317991  0.824833  0.377771  1
  Ho  Ho17  1  0.817187  0.678823  0.121785  1
  Ho  Ho18  1  0.681098  0.179203  0.877523  1
  Ho  Ho19  1  0.176533  0.320946  0.623463  1
  Si  Si20  1  0.144518  0.528491  0.040480  1
  Si  Si21  1  0.354047  0.029646  0.959731  1
  Si  Si22  1  0.848302  0.470179  0.541226  1
  Si  Si23  1  0.342282  0.028948  0.542593  1
  Si  Si24  1  0.855159  0.471039  0.958825  1
  Si  Si25  1  0.643842  0.970445  0.039186  1
  Si  Si26  1  0.149547  0.531342  0.461184  1
  Si  Si27  1  0.477254  0.393085  0.750918  1
  Si  Si28  1  0.976439  0.105379  0.752520  1
  Si  Si29  1  0.523786  0.610175  0.248660  1
  Si  Si30  1  0.024514  0.894209  0.247679  1
  Si  Si31  1  0.733850  0.871618  0.751889  1
  Si  Si32  1  0.232985  0.625902  0.751397  1
  Si  Si33  1  0.268915  0.125914  0.247221  1
  Si  Si34  1  0.765876  0.375826  0.248636  1
  Ag  Ag35  1  0.656602  0.970106  0.461369  1
