# generated using pymatgen
data_Ti5Mn(SnRu2)6
_symmetry_space_group_name_H-M   'P 1'
_cell_length_a   4.45705500
_cell_length_b   6.29660000
_cell_length_c   13.35283100
_cell_angle_alpha   90.00001339
_cell_angle_beta   89.99888941
_cell_angle_gamma   90.00000910
_symmetry_Int_Tables_number   1
_chemical_formula_structural   Ti5Mn(SnRu2)6
_chemical_formula_sum   'Ti5 Mn1 Sn6 Ru12'
_cell_volume   374.73775503
_cell_formula_units_Z   1
loop_
 _symmetry_equiv_pos_site_id
 _symmetry_equiv_pos_as_xyz
  1  'x, y, z'
loop_
 _atom_site_type_symbol
 _atom_site_label
 _atom_site_symmetry_multiplicity
 _atom_site_fract_x
 _atom_site_fract_y
 _atom_site_fract_z
 _atom_site_occupancy
  Ti  Ti0  1  0.000003  0.999999  0.998725  1
  Ti  Ti1  1  0.500151  0.500001  0.166006  1
  Ti  Ti2  1  0.000145  0.000000  0.333339  1
  Ti  Ti3  1  0.500002  0.500000  0.500671  1
  Ti  Ti4  1  0.999854  0.000002  0.667951  1
  Mn  Mn5  1  0.499788  0.499995  0.833342  1
  Sn  Sn6  1  0.000008  0.500001  0.998975  1
  Sn  Sn7  1  0.500083  0.000000  0.165994  1
  Sn  Sn8  1  0.000055  0.500000  0.333355  1
  Sn  Sn9  1  0.500001  0.000000  0.500661  1
  Sn  Sn10  1  0.999956  0.500000  0.667646  1
  Sn  Sn11  1  0.499925  0.000000  0.833360  1
  Ru  Ru12  1  0.500005  0.251324  0.000342  1
  Ru  Ru13  1  0.500005  0.748677  0.000343  1
  Ru  Ru14  1  0.000068  0.250277  0.166814  1
  Ru  Ru15  1  0.000068  0.749723  0.166814  1
  Ru  Ru16  1  0.500045  0.249768  0.333312  1
  Ru  Ru17  1  0.500045  0.750233  0.333312  1
  Ru  Ru18  1  0.000003  0.250286  0.499864  1
  Ru  Ru19  1  0.000003  0.749716  0.499864  1
  Ru  Ru20  1  0.499966  0.251340  0.666339  1
  Ru  Ru21  1  0.499965  0.748662  0.666340  1
  Ru  Ru22  1  0.999928  0.250693  0.833315  1
  Ru  Ru23  1  0.999927  0.749303  0.833315  1
