# generated using pymatgen
data_Hf8Ta6Nb6Si15Ge
_symmetry_space_group_name_H-M   'P 1'
_cell_length_a   6.66798302
_cell_length_b   6.85950812
_cell_length_c   13.07794520
_cell_angle_alpha   89.98039752
_cell_angle_beta   90.00469033
_cell_angle_gamma   89.99888502
_symmetry_Int_Tables_number   1
_chemical_formula_structural   Hf8Ta6Nb6Si15Ge
_chemical_formula_sum   'Hf8 Ta6 Nb6 Si15 Ge1'
_cell_volume   598.17319311
_cell_formula_units_Z   1
loop_
 _symmetry_equiv_pos_site_id
 _symmetry_equiv_pos_as_xyz
  1  'x, y, z'
loop_
 _atom_site_type_symbol
 _atom_site_label
 _atom_site_symmetry_multiplicity
 _atom_site_fract_x
 _atom_site_fract_y
 _atom_site_fract_z
 _atom_site_occupancy
  Hf  Hf0  1  0.496379  0.673583  0.594326  1
  Hf  Hf1  1  0.996249  0.826149  0.906276  1
  Hf  Hf2  1  0.501582  0.326490  0.092766  1
  Hf  Hf3  1  0.006506  0.170821  0.408765  1
  Hf  Hf4  1  0.501595  0.326559  0.407453  1
  Hf  Hf5  1  0.006577  0.170688  0.091026  1
  Hf  Hf6  1  0.496146  0.673323  0.905706  1
  Hf  Hf7  1  0.995949  0.826459  0.593657  1
  Ta  Ta8  1  0.662268  0.170814  0.623848  1
  Ta  Ta9  1  0.162289  0.329394  0.876167  1
  Ta  Ta10  1  0.837033  0.498331  0.750001  1
  Ta  Ta11  1  0.337176  0.002542  0.750002  1
  Ta  Ta12  1  0.165908  0.502935  0.250049  1
  Ta  Ta13  1  0.660875  0.994410  0.249944  1
  Nb  Nb14  1  0.336668  0.830418  0.123336  1
  Nb  Nb15  1  0.838054  0.672903  0.377065  1
  Nb  Nb16  1  0.336824  0.830385  0.376731  1
  Nb  Nb17  1  0.838170  0.672910  0.122884  1
  Nb  Nb18  1  0.662463  0.170704  0.876379  1
  Nb  Nb19  1  0.162530  0.329495  0.623630  1
  Si  Si20  1  0.671992  0.963602  0.461647  1
  Si  Si21  1  0.172163  0.537047  0.038640  1
  Si  Si22  1  0.327406  0.036620  0.960681  1
  Si  Si23  1  0.826960  0.463284  0.538752  1
  Si  Si24  1  0.327816  0.036662  0.539412  1
  Si  Si25  1  0.827321  0.463341  0.961157  1
  Si  Si26  1  0.671775  0.963814  0.038473  1
  Si  Si27  1  0.171964  0.536893  0.461229  1
  Si  Si28  1  0.461490  0.387839  0.750061  1
  Si  Si29  1  0.961144  0.113147  0.749921  1
  Si  Si30  1  0.537712  0.614644  0.250020  1
  Si  Si31  1  0.038415  0.887693  0.250001  1
  Si  Si32  1  0.703139  0.860801  0.749957  1
  Si  Si33  1  0.202565  0.639634  0.750043  1
  Si  Si34  1  0.297031  0.140304  0.249987  1
  Ge  Ge35  1  0.799863  0.355358  0.250008  1
