# generated using pymatgen
data_Tb11Dy8Er(CoSb2)4
_symmetry_space_group_name_H-M   'P 1'
_cell_length_a   7.92250463
_cell_length_b   8.77293929
_cell_length_c   12.24854840
_cell_angle_alpha   89.98003285
_cell_angle_beta   90.01428861
_cell_angle_gamma   89.97813302
_symmetry_Int_Tables_number   1
_chemical_formula_structural   Tb11Dy8Er(CoSb2)4
_chemical_formula_sum   'Tb11 Dy8 Er1 Co4 Sb8'
_cell_volume   851.31870821
_cell_formula_units_Z   1
loop_
 _symmetry_equiv_pos_site_id
 _symmetry_equiv_pos_as_xyz
  1  'x, y, z'
loop_
 _atom_site_type_symbol
 _atom_site_label
 _atom_site_symmetry_multiplicity
 _atom_site_fract_x
 _atom_site_fract_y
 _atom_site_fract_z
 _atom_site_occupancy
  Tb  Tb0  1  0.653941  0.250198  0.296621  1
  Tb  Tb1  1  0.846200  0.250030  0.796973  1
  Tb  Tb2  1  0.346079  0.749906  0.703077  1
  Tb  Tb3  1  0.453860  0.749997  0.997926  1
  Tb  Tb4  1  0.954781  0.250175  0.501740  1
  Tb  Tb5  1  0.545581  0.250028  0.002492  1
  Tb  Tb6  1  0.046479  0.749752  0.497676  1
  Tb  Tb7  1  0.622074  0.749808  0.306935  1
  Tb  Tb8  1  0.122711  0.249974  0.193271  1
  Tb  Tb9  1  0.377083  0.250308  0.693075  1
  Tb  Tb10  1  0.877170  0.749985  0.806693  1
  Dy  Dy11  1  0.153933  0.749941  0.202959  1
  Dy  Dy12  1  0.821335  0.964337  0.065522  1
  Dy  Dy13  1  0.321577  0.035329  0.434677  1
  Dy  Dy14  1  0.178598  0.464918  0.934900  1
  Dy  Dy15  1  0.678161  0.534899  0.565061  1
  Dy  Dy16  1  0.178570  0.035100  0.934931  1
  Dy  Dy17  1  0.678644  0.965076  0.565190  1
  Dy  Dy18  1  0.821351  0.535687  0.065530  1
  Er  Er19  1  0.322820  0.464644  0.434586  1
  Co  Co20  1  0.435444  0.749607  0.491118  1
  Co  Co21  1  0.935365  0.250001  0.009178  1
  Co  Co22  1  0.563894  0.250489  0.508610  1
  Co  Co23  1  0.064535  0.749998  0.991084  1
  Sb  Sb24  1  0.929017  0.991873  0.326561  1
  Sb  Sb25  1  0.427914  0.007547  0.173301  1
  Sb  Sb26  1  0.071259  0.492199  0.673017  1
  Sb  Sb27  1  0.571416  0.507706  0.827034  1
  Sb  Sb28  1  0.071419  0.007797  0.673023  1
  Sb  Sb29  1  0.571392  0.992278  0.826979  1
  Sb  Sb30  1  0.929651  0.508000  0.326716  1
  Sb  Sb31  1  0.427746  0.492414  0.173544  1
