# generated using pymatgen
data_Hf3Zr6Ta(ReO)3
_symmetry_space_group_name_H-M   'P 1'
_cell_length_a   8.63770100
_cell_length_b   8.63770169
_cell_length_c   8.51974200
_cell_angle_alpha   90.00000000
_cell_angle_beta   90.00000000
_cell_angle_gamma   120.00000120
_symmetry_Int_Tables_number   1
_chemical_formula_structural   Hf3Zr6Ta(ReO)3
_chemical_formula_sum   'Hf6 Zr12 Ta2 Re6 O6'
_cell_volume   550.49507444
_cell_formula_units_Z   2
loop_
 _symmetry_equiv_pos_site_id
 _symmetry_equiv_pos_as_xyz
  1  'x, y, z'
loop_
 _atom_site_type_symbol
 _atom_site_label
 _atom_site_symmetry_multiplicity
 _atom_site_fract_x
 _atom_site_fract_y
 _atom_site_fract_z
 _atom_site_occupancy
  Hf  Hf0  1  0.453380  0.906760  0.250000  1
  Hf  Hf1  1  0.546620  0.093240  0.750000  1
  Hf  Hf2  1  0.093240  0.546620  0.250000  1
  Hf  Hf3  1  0.906760  0.453380  0.750000  1
  Hf  Hf4  1  0.453380  0.546620  0.250000  1
  Hf  Hf5  1  0.546620  0.453380  0.750000  1
  Zr  Zr6  1  0.203741  0.407484  0.563608  1
  Zr  Zr7  1  0.796259  0.592516  0.436392  1
  Zr  Zr8  1  0.592516  0.796259  0.563608  1
  Zr  Zr9  1  0.796259  0.592516  0.063608  1
  Zr  Zr10  1  0.407484  0.203741  0.436392  1
  Zr  Zr11  1  0.203741  0.407484  0.936392  1
  Zr  Zr12  1  0.203741  0.796259  0.563608  1
  Zr  Zr13  1  0.407484  0.203741  0.063608  1
  Zr  Zr14  1  0.796259  0.203741  0.436392  1
  Zr  Zr15  1  0.592516  0.796259  0.936392  1
  Zr  Zr16  1  0.796259  0.203741  0.063608  1
  Zr  Zr17  1  0.203741  0.796259  0.936392  1
  Ta  Ta18  1  0.000000  0.000000  0.000000  1
  Ta  Ta19  1  0.000000  0.000000  0.500000  1
  Re  Re20  1  0.111813  0.223625  0.250000  1
  Re  Re21  1  0.888187  0.776375  0.750000  1
  Re  Re22  1  0.776375  0.888187  0.250000  1
  Re  Re23  1  0.223625  0.111813  0.750000  1
  Re  Re24  1  0.111813  0.888187  0.250000  1
  Re  Re25  1  0.888187  0.111813  0.750000  1
  O  O26  1  0.500000  0.000000  0.000000  1
  O  O27  1  0.000000  0.500000  0.000000  1
  O  O28  1  0.500000  0.000000  0.500000  1
  O  O29  1  0.500000  0.500000  0.000000  1
  O  O30  1  0.000000  0.500000  0.500000  1
  O  O31  1  0.500000  0.500000  0.500000  1
