# generated using pymatgen
data_CdHgBi3Sb3O14
_symmetry_space_group_name_H-M   'P 1'
_cell_length_a   7.46648243
_cell_length_b   7.46648424
_cell_length_c   7.46648172
_cell_angle_alpha   62.04935912
_cell_angle_beta   62.04942888
_cell_angle_gamma   62.04939676
_symmetry_Int_Tables_number   1
_chemical_formula_structural   CdHgBi3Sb3O14
_chemical_formula_sum   'Cd1 Hg1 Bi3 Sb3 O14'
_cell_volume   307.81630493
_cell_formula_units_Z   1
loop_
 _symmetry_equiv_pos_site_id
 _symmetry_equiv_pos_as_xyz
  1  'x, y, z'
loop_
 _atom_site_type_symbol
 _atom_site_label
 _atom_site_symmetry_multiplicity
 _atom_site_fract_x
 _atom_site_fract_y
 _atom_site_fract_z
 _atom_site_occupancy
  Cd  Cd0  1  0.999999  0.500001  0.999996  1
  Hg  Hg1  1  0.500000  0.999992  0.500012  1
  Bi  Bi2  1  0.000004  0.000009  0.499987  1
  Bi  Bi3  1  0.500026  0.000029  0.000000  1
  Bi  Bi4  1  0.499989  0.500003  0.499977  1
  Sb  Sb5  1  0.499997  0.500003  0.999999  1
  Sb  Sb6  1  0.999997  0.499999  0.500004  1
  Sb  Sb7  1  0.000004  0.999995  0.000001  1
  O  O8  1  0.617845  0.117844  0.617839  1
  O  O9  1  0.382162  0.882162  0.382157  1
  O  O10  1  0.077008  0.189025  0.689029  1
  O  O11  1  0.689017  0.189017  0.077004  1
  O  O12  1  0.689030  0.577012  0.689033  1
  O  O13  1  0.922991  0.810971  0.310974  1
  O  O14  1  0.310965  0.810965  0.922985  1
  O  O15  1  0.310976  0.422992  0.310980  1
  O  O16  1  0.630905  0.599589  0.099606  1
  O  O17  1  0.099603  0.599597  0.630905  1
  O  O18  1  0.099591  0.130906  0.099603  1
  O  O19  1  0.369094  0.400393  0.900408  1
  O  O20  1  0.900405  0.400399  0.369094  1
  O  O21  1  0.900394  0.869095  0.900406  1
