# generated using pymatgen
data_La5Pr11MgHg3Rh4
_symmetry_space_group_name_H-M   'P 1'
_cell_length_a   9.98542991
_cell_length_b   10.07052846
_cell_length_c   10.07197186
_cell_angle_alpha   59.89363739
_cell_angle_beta   60.06010802
_cell_angle_gamma   60.05693153
_symmetry_Int_Tables_number   1
_chemical_formula_structural   La5Pr11MgHg3Rh4
_chemical_formula_sum   'La5 Pr11 Mg1 Hg3 Rh4'
_cell_volume   716.22781163
_cell_formula_units_Z   1
loop_
 _symmetry_equiv_pos_site_id
 _symmetry_equiv_pos_as_xyz
  1  'x, y, z'
loop_
 _atom_site_type_symbol
 _atom_site_label
 _atom_site_symmetry_multiplicity
 _atom_site_fract_x
 _atom_site_fract_y
 _atom_site_fract_z
 _atom_site_occupancy
  La  La0  1  0.347008  0.347615  0.347565  1
  La  La1  1  0.349085  0.348090  0.955615  1
  La  La2  1  0.349126  0.955557  0.348159  1
  La  La3  1  0.946108  0.352109  0.352088  1
  La  La4  1  0.809666  0.190440  0.190382  1
  Pr  Pr5  1  0.186066  0.811292  0.811302  1
  Pr  Pr6  1  0.189061  0.810180  0.189003  1
  Pr  Pr7  1  0.806615  0.191712  0.806460  1
  Pr  Pr8  1  0.189046  0.188935  0.810193  1
  Pr  Pr9  1  0.806583  0.806490  0.191720  1
  Pr  Pr10  1  0.937607  0.563626  0.563607  1
  Pr  Pr11  1  0.561096  0.937580  0.937635  1
  Pr  Pr12  1  0.561072  0.937356  0.563759  1
  Pr  Pr13  1  0.938537  0.562767  0.935595  1
  Pr  Pr14  1  0.561086  0.563695  0.937344  1
  Pr  Pr15  1  0.938516  0.935688  0.562736  1
  Mg  Mg16  1  0.287435  0.570402  0.570302  1
  Hg  Hg17  1  0.580178  0.586882  0.586919  1
  Hg  Hg18  1  0.580077  0.588447  0.245633  1
  Hg  Hg19  1  0.580073  0.245649  0.588444  1
  Rh  Rh20  1  0.136059  0.144840  0.144880  1
  Rh  Rh21  1  0.143275  0.144279  0.571299  1
  Rh  Rh22  1  0.143270  0.571304  0.144286  1
  Rh  Rh23  1  0.573355  0.145065  0.145071  1
