# generated using pymatgen
data_HoEr2Si6(Pd7Pt3)2
_symmetry_space_group_name_H-M   'P 1'
_cell_length_a   8.71087762
_cell_length_b   8.73236829
_cell_length_c   8.73247400
_cell_angle_alpha   60.00023870
_cell_angle_beta   59.91908351
_cell_angle_gamma   59.91945770
_symmetry_Int_Tables_number   1
_chemical_formula_structural   HoEr2Si6(Pd7Pt3)2
_chemical_formula_sum   'Ho1 Er2 Si6 Pd14 Pt6'
_cell_volume   469.12224335
_cell_formula_units_Z   1
loop_
 _symmetry_equiv_pos_site_id
 _symmetry_equiv_pos_as_xyz
  1  'x, y, z'
loop_
 _atom_site_type_symbol
 _atom_site_label
 _atom_site_symmetry_multiplicity
 _atom_site_fract_x
 _atom_site_fract_y
 _atom_site_fract_z
 _atom_site_occupancy
  Ho  Ho0  1  0.748946  0.750363  0.750349  1
  Er  Er1  1  0.251122  0.249613  0.249630  1
  Er  Er2  1  0.999998  0.000004  0.999997  1
  Si  Si3  1  0.730208  0.268721  0.268725  1
  Si  Si4  1  0.269794  0.731275  0.731271  1
  Si  Si5  1  0.269796  0.731275  0.267660  1
  Si  Si6  1  0.730206  0.268722  0.732345  1
  Si  Si7  1  0.269798  0.267658  0.731273  1
  Si  Si8  1  0.730206  0.732348  0.268723  1
  Pd  Pd9  1  0.853744  0.382081  0.382085  1
  Pd  Pd10  1  0.146623  0.617793  0.617793  1
  Pd  Pd11  1  0.343897  0.000210  0.000209  1
  Pd  Pd12  1  0.656049  0.999845  0.999846  1
  Pd  Pd13  1  0.000030  0.344383  0.655553  1
  Pd  Pd14  1  0.000033  0.655548  0.344380  1
  Pd  Pd15  1  0.000029  0.344386  0.000036  1
  Pd  Pd16  1  0.656050  0.999847  0.344259  1
  Pd  Pd17  1  0.000032  0.655548  0.000040  1
  Pd  Pd18  1  0.343898  0.000209  0.655685  1
  Pd  Pd19  1  0.000030  0.000038  0.344384  1
  Pd  Pd20  1  0.000029  0.000035  0.655550  1
  Pd  Pd21  1  0.656050  0.344261  0.999843  1
  Pd  Pd22  1  0.343895  0.655685  0.000210  1
  Pt  Pt23  1  0.381037  0.384208  0.384209  1
  Pt  Pt24  1  0.618808  0.615636  0.615635  1
  Pt  Pt25  1  0.381038  0.384209  0.850544  1
  Pt  Pt26  1  0.381038  0.850541  0.384211  1
  Pt  Pt27  1  0.618809  0.615636  0.149920  1
  Pt  Pt28  1  0.618807  0.149923  0.615635  1
