# generated using pymatgen
data_ZrScMnCo3
_symmetry_space_group_name_H-M   'P 1'
_cell_length_a   4.83817625
_cell_length_b   4.83817543
_cell_length_c   4.83817682
_cell_angle_alpha   62.01343488
_cell_angle_beta   62.01343663
_cell_angle_gamma   62.01343678
_symmetry_Int_Tables_number   1
_chemical_formula_structural   ZrScMnCo3
_chemical_formula_sum   'Zr1 Sc1 Mn1 Co3'
_cell_volume   83.68725543
_cell_formula_units_Z   1
loop_
 _symmetry_equiv_pos_site_id
 _symmetry_equiv_pos_as_xyz
  1  'x, y, z'
loop_
 _atom_site_type_symbol
 _atom_site_label
 _atom_site_symmetry_multiplicity
 _atom_site_fract_x
 _atom_site_fract_y
 _atom_site_fract_z
 _atom_site_occupancy
  Zr  Zr0  1  0.998939  0.998939  0.998939  1
  Sc  Sc1  1  0.251154  0.251154  0.251154  1
  Mn  Mn2  1  0.625046  0.625046  0.625046  1
  Co  Co3  1  0.624420  0.126022  0.624420  1
  Co  Co4  1  0.126022  0.624420  0.624420  1
  Co  Co5  1  0.624420  0.624420  0.126022  1
