# generated using pymatgen
data_TbHfU7S17
_symmetry_space_group_name_H-M   'P 1'
_cell_length_a   7.87540444
_cell_length_b   7.87538406
_cell_length_c   10.49512738
_cell_angle_alpha   80.80158839
_cell_angle_beta   80.48634937
_cell_angle_gamma   65.25080237
_symmetry_Int_Tables_number   1
_chemical_formula_structural   TbHfU7S17
_chemical_formula_sum   'Tb1 Hf1 U7 S17'
_cell_volume   580.01409756
_cell_formula_units_Z   1
loop_
 _symmetry_equiv_pos_site_id
 _symmetry_equiv_pos_as_xyz
  1  'x, y, z'
loop_
 _atom_site_type_symbol
 _atom_site_label
 _atom_site_symmetry_multiplicity
 _atom_site_fract_x
 _atom_site_fract_y
 _atom_site_fract_z
 _atom_site_occupancy
  Tb  Tb0  1  0.810196  0.308363  0.299557  1
  Hf  Hf1  1  0.000472  0.000098  0.000861  1
  U  U2  1  0.301173  0.817544  0.301036  1
  U  U3  1  0.183975  0.697807  0.697648  1
  U  U4  1  0.698502  0.183034  0.699814  1
  U  U5  1  0.205201  0.204575  0.538245  1
  U  U6  1  0.795425  0.791707  0.461077  1
  U  U7  1  0.679290  0.680819  0.982537  1
  U  U8  1  0.318875  0.320287  0.017119  1
  S  S9  1  0.825067  0.429409  0.537335  1
  S  S10  1  0.431649  0.822246  0.534211  1
  S  S11  1  0.178626  0.567469  0.464909  1
  S  S12  1  0.571352  0.172382  0.470126  1
  S  S13  1  0.941748  0.330044  0.029803  1
  S  S14  1  0.328324  0.943324  0.032079  1
  S  S15  1  0.057779  0.671625  0.965708  1
  S  S16  1  0.671295  0.060705  0.967143  1
  S  S17  1  0.215161  0.206627  0.278049  1
  S  S18  1  0.788823  0.789327  0.722972  1
  S  S19  1  0.063872  0.061350  0.765429  1
  S  S20  1  0.940123  0.936214  0.235712  1
  S  S21  1  0.304195  0.303377  0.752786  1
  S  S22  1  0.692043  0.702588  0.245977  1
  S  S23  1  0.519995  0.521362  0.829686  1
  S  S24  1  0.473471  0.485286  0.165047  1
  S  S25  1  0.003368  0.992435  0.505137  1
