# generated using pymatgen
data_BaSr3(OsO5)4
_symmetry_space_group_name_H-M   'P 1'
_cell_length_a   5.20471264
_cell_length_b   5.66592886
_cell_length_c   13.92751634
_cell_angle_alpha   90.07886089
_cell_angle_beta   89.90231170
_cell_angle_gamma   89.64113419
_symmetry_Int_Tables_number   1
_chemical_formula_structural   BaSr3(OsO5)4
_chemical_formula_sum   'Ba1 Sr3 Os4 O20'
_cell_volume   410.70688462
_cell_formula_units_Z   1
loop_
 _symmetry_equiv_pos_site_id
 _symmetry_equiv_pos_as_xyz
  1  'x, y, z'
loop_
 _atom_site_type_symbol
 _atom_site_label
 _atom_site_symmetry_multiplicity
 _atom_site_fract_x
 _atom_site_fract_y
 _atom_site_fract_z
 _atom_site_occupancy
  Ba  Ba0  1  0.777582  0.370695  0.144544  1
  Sr  Sr1  1  0.723304  0.628730  0.642578  1
  Sr  Sr2  1  0.225545  0.882675  0.362206  1
  Sr  Sr3  1  0.281970  0.106805  0.858209  1
  Os  Os4  1  0.267880  0.129468  0.601678  1
  Os  Os5  1  0.772363  0.376640  0.405460  1
  Os  Os6  1  0.736291  0.628085  0.895050  1
  Os  Os7  1  0.226390  0.864727  0.097787  1
  O  O8  1  0.932937  0.618690  0.467511  1
  O  O9  1  0.431742  0.889738  0.537796  1
  O  O10  1  0.079126  0.106116  0.030624  1
  O  O11  1  0.569618  0.386927  0.954326  1
  O  O12  1  0.559509  0.542134  0.332094  1
  O  O13  1  0.053692  0.968041  0.674775  1
  O  O14  1  0.429851  0.015723  0.178566  1
  O  O15  1  0.944843  0.467319  0.818555  1
  O  O16  1  0.173694  0.428356  0.630629  1
  O  O17  1  0.675764  0.080684  0.371531  1
  O  O18  1  0.824470  0.929411  0.865790  1
  O  O19  1  0.298663  0.560834  0.128163  1
  O  O20  1  0.528499  0.144603  0.688747  1
  O  O21  1  0.039730  0.355949  0.320334  1
  O  O22  1  0.467423  0.662313  0.810829  1
  O  O23  1  0.952159  0.861462  0.180200  1
  O  O24  1  0.571144  0.349075  0.515321  1
  O  O25  1  0.065644  0.154389  0.491141  1
  O  O26  1  0.447959  0.839793  0.992923  1
  O  O27  1  0.942207  0.650619  0.002632  1
