# generated using pymatgen
data_Dy6HoTm9Cd2(HgIr2)2
_symmetry_space_group_name_H-M   'P 1'
_cell_length_a   9.54591653
_cell_length_b   9.54591717
_cell_length_c   9.54320667
_cell_angle_alpha   59.91689707
_cell_angle_beta   59.91689386
_cell_angle_gamma   59.94695424
_symmetry_Int_Tables_number   1
_chemical_formula_structural   Dy6HoTm9Cd2(HgIr2)2
_chemical_formula_sum   'Dy6 Ho1 Tm9 Cd2 Hg2 Ir4'
_cell_volume   613.89484181
_cell_formula_units_Z   1
loop_
 _symmetry_equiv_pos_site_id
 _symmetry_equiv_pos_as_xyz
  1  'x, y, z'
loop_
 _atom_site_type_symbol
 _atom_site_label
 _atom_site_symmetry_multiplicity
 _atom_site_fract_x
 _atom_site_fract_y
 _atom_site_fract_z
 _atom_site_occupancy
  Dy  Dy0  1  0.189272  0.810501  0.811309  1
  Dy  Dy1  1  0.809287  0.188793  0.190707  1
  Dy  Dy2  1  0.810501  0.189272  0.811309  1
  Dy  Dy3  1  0.188793  0.809287  0.190707  1
  Dy  Dy4  1  0.810722  0.810722  0.190378  1
  Dy  Dy5  1  0.189671  0.189671  0.809741  1
  Ho  Ho6  1  0.598949  0.598949  0.598701  1
  Tm  Tm7  1  0.600386  0.600386  0.202688  1
  Tm  Tm8  1  0.601277  0.200306  0.600863  1
  Tm  Tm9  1  0.200306  0.601277  0.600863  1
  Tm  Tm10  1  0.060542  0.438398  0.438994  1
  Tm  Tm11  1  0.436010  0.060597  0.060734  1
  Tm  Tm12  1  0.438398  0.060542  0.438994  1
  Tm  Tm13  1  0.060597  0.436010  0.060734  1
  Tm  Tm14  1  0.438105  0.438105  0.061143  1
  Tm  Tm15  1  0.059830  0.059830  0.437321  1
  Cd  Cd16  1  0.830427  0.508185  0.830669  1
  Cd  Cd17  1  0.508185  0.830427  0.830669  1
  Hg  Hg18  1  0.833024  0.833024  0.834863  1
  Hg  Hg19  1  0.834522  0.834522  0.495378  1
  Ir  Ir20  1  0.391957  0.391957  0.392874  1
  Ir  Ir21  1  0.391868  0.391868  0.825622  1
  Ir  Ir22  1  0.391410  0.825962  0.392371  1
  Ir  Ir23  1  0.825962  0.391410  0.392371  1
