# generated using pymatgen
data_DyY19(IrRh3)3
_symmetry_space_group_name_H-M   'P 1'
_cell_length_a   10.94854206
_cell_length_b   10.94856715
_cell_length_c   6.39287200
_cell_angle_alpha   90.00095559
_cell_angle_beta   89.99775028
_cell_angle_gamma   89.96795724
_symmetry_Int_Tables_number   1
_chemical_formula_structural   DyY19(IrRh3)3
_chemical_formula_sum   'Dy1 Y19 Ir3 Rh9'
_cell_volume   766.31886689
_cell_formula_units_Z   1
loop_
 _symmetry_equiv_pos_site_id
 _symmetry_equiv_pos_as_xyz
  1  'x, y, z'
loop_
 _atom_site_type_symbol
 _atom_site_label
 _atom_site_symmetry_multiplicity
 _atom_site_fract_x
 _atom_site_fract_y
 _atom_site_fract_z
 _atom_site_occupancy
  Dy  Dy0  1  0.499868  0.500282  0.499971  1
  Y  Y1  1  0.291113  0.089957  0.378403  1
  Y  Y2  1  0.291159  0.909882  0.878321  1
  Y  Y3  1  0.709043  0.088814  0.878496  1
  Y  Y4  1  0.708778  0.910021  0.378274  1
  Y  Y5  1  0.588041  0.789918  0.879427  1
  Y  Y6  1  0.587666  0.209369  0.378422  1
  Y  Y7  1  0.412010  0.789973  0.379038  1
  Y  Y8  1  0.410770  0.209456  0.879632  1
  Y  Y9  1  0.210110  0.412015  0.620568  1
  Y  Y10  1  0.210003  0.588040  0.120961  1
  Y  Y11  1  0.790661  0.412286  0.121590  1
  Y  Y12  1  0.790516  0.589182  0.620372  1
  Y  Y13  1  0.910001  0.708894  0.121611  1
  Y  Y14  1  0.911227  0.290961  0.621494  1
  Y  Y15  1  0.090073  0.708836  0.621666  1
  Y  Y16  1  0.090024  0.291216  0.121738  1
  Y  Y17  1  0.999907  0.999971  0.499996  1
  Y  Y18  1  0.000031  0.000092  0.000000  1
  Y  Y19  1  0.499738  0.500112  0.999994  1
  Ir  Ir20  1  0.654488  0.653989  0.250362  1
  Ir  Ir21  1  0.346021  0.345495  0.250224  1
  Ir  Ir22  1  0.345491  0.654495  0.749695  1
  Rh  Rh23  1  0.846172  0.153830  0.250018  1
  Rh  Rh24  1  0.846553  0.846767  0.750089  1
  Rh  Rh25  1  0.153234  0.153455  0.749867  1
  Rh  Rh26  1  0.153290  0.846710  0.250021  1
  Rh  Rh27  1  0.654506  0.345491  0.749732  1
  Rh  Rh28  1  0.500213  0.000402  0.124131  1
  Rh  Rh29  1  0.500272  0.000577  0.624570  1
  Rh  Rh30  1  0.999422  0.499727  0.875447  1
  Rh  Rh31  1  0.999600  0.499787  0.375870  1
