# generated using pymatgen
data_YTa9S16
_symmetry_space_group_name_H-M   'P 1'
_cell_length_a   6.66620700
_cell_length_b   6.66620672
_cell_length_c   13.24806700
_cell_angle_alpha   90.00000000
_cell_angle_beta   90.00000000
_cell_angle_gamma   120.00000634
_symmetry_Int_Tables_number   1
_chemical_formula_structural   YTa9S16
_chemical_formula_sum   'Y1 Ta9 S16'
_cell_volume   509.84796749
_cell_formula_units_Z   1
loop_
 _symmetry_equiv_pos_site_id
 _symmetry_equiv_pos_as_xyz
  1  'x, y, z'
loop_
 _atom_site_type_symbol
 _atom_site_label
 _atom_site_symmetry_multiplicity
 _atom_site_fract_x
 _atom_site_fract_y
 _atom_site_fract_z
 _atom_site_occupancy
  Y  Y0  1  0.000000  0.000000  0.500000  1
  Ta  Ta1  1  0.504799  0.495201  0.762211  1
  Ta  Ta2  1  0.009596  0.504799  0.237789  1
  Ta  Ta3  1  0.495201  0.990404  0.237789  1
  Ta  Ta4  1  0.504799  0.009596  0.762211  1
  Ta  Ta5  1  0.990404  0.495201  0.762211  1
  Ta  Ta6  1  0.495201  0.504799  0.237789  1
  Ta  Ta7  1  0.000000  0.000000  0.760493  1
  Ta  Ta8  1  0.000000  0.000000  0.239507  1
  Ta  Ta9  1  0.000000  0.000000  0.000000  1
  S  S10  1  0.830559  0.169441  0.357151  1
  S  S11  1  0.830559  0.661117  0.357151  1
  S  S12  1  0.338883  0.169441  0.357151  1
  S  S13  1  0.667385  0.833693  0.881593  1
  S  S14  1  0.169441  0.338883  0.642849  1
  S  S15  1  0.166307  0.833693  0.881593  1
  S  S16  1  0.166307  0.332615  0.881593  1
  S  S17  1  0.833693  0.166307  0.118407  1
  S  S18  1  0.332615  0.166307  0.118407  1
  S  S19  1  0.661117  0.830559  0.642849  1
  S  S20  1  0.333333  0.666667  0.117592  1
  S  S21  1  0.666667  0.333333  0.640282  1
  S  S22  1  0.666667  0.333333  0.882408  1
  S  S23  1  0.333333  0.666667  0.359718  1
  S  S24  1  0.833693  0.667385  0.118407  1
  S  S25  1  0.169441  0.830559  0.642849  1
