# generated using pymatgen
data_Nb16FeSi2NiTe16
_symmetry_space_group_name_H-M   'P 1'
_cell_length_a   4.87761800
_cell_length_b   10.92722436
_cell_length_c   19.11921403
_cell_angle_alpha   90.01802589
_cell_angle_beta   90.00000000
_cell_angle_gamma   90.00000000
_symmetry_Int_Tables_number   1
_chemical_formula_structural   Nb16FeSi2NiTe16
_chemical_formula_sum   'Nb16 Fe1 Si2 Ni1 Te16'
_cell_volume   1019.03161594
_cell_formula_units_Z   1
loop_
 _symmetry_equiv_pos_site_id
 _symmetry_equiv_pos_as_xyz
  1  'x, y, z'
loop_
 _atom_site_type_symbol
 _atom_site_label
 _atom_site_symmetry_multiplicity
 _atom_site_fract_x
 _atom_site_fract_y
 _atom_site_fract_z
 _atom_site_occupancy
  Nb  Nb0  1  0.500650  0.564628  0.383021  1
  Nb  Nb1  1  0.500650  0.435372  0.616979  1
  Nb  Nb2  1  0.499690  0.064545  0.116198  1
  Nb  Nb3  1  0.499690  0.935455  0.883802  1
  Nb  Nb4  1  0.501318  0.705652  0.536848  1
  Nb  Nb5  1  0.501318  0.294348  0.463152  1
  Nb  Nb6  1  0.499979  0.204063  0.963327  1
  Nb  Nb7  1  0.499979  0.795937  0.036673  1
  Nb  Nb8  1  0.999168  0.691052  0.443109  1
  Nb  Nb9  1  0.999168  0.308948  0.556891  1
  Nb  Nb10  1  0.998529  0.190307  0.056678  1
  Nb  Nb11  1  0.998529  0.809693  0.943322  1
  Nb  Nb12  1  0.998758  0.400670  0.391203  1
  Nb  Nb13  1  0.998758  0.599330  0.608797  1
  Nb  Nb14  1  0.998837  0.901194  0.108353  1
  Nb  Nb15  1  0.998837  0.098806  0.891647  1
  Fe  Fe16  1  0.257125  0.000000  0.000000  1
  Si  Si17  1  0.753701  0.000000  0.000000  1
  Si  Si18  1  0.749961  0.500000  0.500000  1
  Ni  Ni19  1  0.249811  0.500000  0.500000  1
  Te  Te20  1  0.007429  0.847447  0.562504  1
  Te  Te21  1  0.007429  0.152553  0.437496  1
  Te  Te22  1  0.006100  0.347209  0.937287  1
  Te  Te23  1  0.006100  0.652791  0.062713  1
  Te  Te24  1  0.492387  0.332160  0.315934  1
  Te  Te25  1  0.492387  0.667840  0.684066  1
  Te  Te26  1  0.493212  0.832538  0.184184  1
  Te  Te27  1  0.493212  0.167462  0.815816  1
  Te  Te28  1  0.492670  0.823244  0.403837  1
  Te  Te29  1  0.492670  0.176756  0.596163  1
  Te  Te30  1  0.492792  0.323654  0.096170  1
  Te  Te31  1  0.492792  0.676346  0.903830  1
  Te  Te32  1  0.007367  0.608972  0.301830  1
  Te  Te33  1  0.007367  0.391028  0.698170  1
  Te  Te34  1  0.005816  0.109077  0.198133  1
  Te  Te35  1  0.005816  0.890923  0.801867  1
