# generated using pymatgen
data_Eu10Cd3Rh
_symmetry_space_group_name_H-M   'P 1'
_cell_length_a   10.23863700
_cell_length_b   10.23863697
_cell_length_c   10.47566500
_cell_angle_alpha   90.00000000
_cell_angle_beta   90.00000000
_cell_angle_gamma   119.99999686
_symmetry_Int_Tables_number   1
_chemical_formula_structural   Eu10Cd3Rh
_chemical_formula_sum   'Eu20 Cd6 Rh2'
_cell_volume   951.03508224
_cell_formula_units_Z   2
loop_
 _symmetry_equiv_pos_site_id
 _symmetry_equiv_pos_as_xyz
  1  'x, y, z'
loop_
 _atom_site_type_symbol
 _atom_site_label
 _atom_site_symmetry_multiplicity
 _atom_site_fract_x
 _atom_site_fract_y
 _atom_site_fract_z
 _atom_site_occupancy
  Eu  Eu0  1  0.000000  0.000000  0.500000  1
  Eu  Eu1  1  0.000000  0.000000  0.000000  1
  Eu  Eu2  1  0.208299  0.791701  0.436810  1
  Eu  Eu3  1  0.208299  0.416598  0.436810  1
  Eu  Eu4  1  0.583402  0.791701  0.436810  1
  Eu  Eu5  1  0.791701  0.208299  0.563190  1
  Eu  Eu6  1  0.791701  0.583402  0.563190  1
  Eu  Eu7  1  0.416598  0.208299  0.563190  1
  Eu  Eu8  1  0.791701  0.208299  0.936810  1
  Eu  Eu9  1  0.791701  0.583402  0.936810  1
  Eu  Eu10  1  0.416598  0.208299  0.936810  1
  Eu  Eu11  1  0.208299  0.791701  0.063190  1
  Eu  Eu12  1  0.208299  0.416598  0.063190  1
  Eu  Eu13  1  0.583402  0.791701  0.063190  1
  Eu  Eu14  1  0.540904  0.459096  0.250000  1
  Eu  Eu15  1  0.540904  0.081808  0.250000  1
  Eu  Eu16  1  0.918192  0.459096  0.250000  1
  Eu  Eu17  1  0.459096  0.540904  0.750000  1
  Eu  Eu18  1  0.459096  0.918192  0.750000  1
  Eu  Eu19  1  0.081808  0.540904  0.750000  1
  Cd  Cd20  1  0.884747  0.115253  0.250000  1
  Cd  Cd21  1  0.884747  0.769494  0.250000  1
  Cd  Cd22  1  0.230506  0.115253  0.250000  1
  Cd  Cd23  1  0.115253  0.884747  0.750000  1
  Cd  Cd24  1  0.115253  0.230506  0.750000  1
  Cd  Cd25  1  0.769494  0.884747  0.750000  1
  Rh  Rh26  1  0.333333  0.666667  0.250000  1
  Rh  Rh27  1  0.666667  0.333333  0.750000  1
