# generated using pymatgen
data_Ti4NbCuSn2Sb
_symmetry_space_group_name_H-M   'P 1'
_cell_length_a   8.25794003
_cell_length_b   8.22441574
_cell_length_c   5.53503902
_cell_angle_alpha   89.99520788
_cell_angle_beta   90.00954533
_cell_angle_gamma   120.13493116
_symmetry_Int_Tables_number   1
_chemical_formula_structural   Ti4NbCuSn2Sb
_chemical_formula_sum   'Ti8 Nb2 Cu2 Sn4 Sb2'
_cell_volume   325.11424181
_cell_formula_units_Z   2
loop_
 _symmetry_equiv_pos_site_id
 _symmetry_equiv_pos_as_xyz
  1  'x, y, z'
loop_
 _atom_site_type_symbol
 _atom_site_label
 _atom_site_symmetry_multiplicity
 _atom_site_fract_x
 _atom_site_fract_y
 _atom_site_fract_z
 _atom_site_occupancy
  Ti  Ti0  1  0.272912  0.000000  0.742840  1
  Ti  Ti1  1  0.727088  0.000000  0.257160  1
  Ti  Ti2  1  0.000557  0.270177  0.740883  1
  Ti  Ti3  1  0.999443  0.729823  0.259117  1
  Ti  Ti4  1  0.730381  0.729823  0.740883  1
  Ti  Ti5  1  0.269619  0.270177  0.259117  1
  Ti  Ti6  1  0.664926  0.329851  0.000000  1
  Ti  Ti7  1  0.335074  0.670149  0.000000  1
  Nb  Nb8  1  0.334923  0.669847  0.500000  1
  Nb  Nb9  1  0.665077  0.330153  0.500000  1
  Cu  Cu10  1  0.000000  0.000000  0.500000  1
  Cu  Cu11  1  0.000000  0.000000  0.000000  1
  Sn  Sn12  1  0.998766  0.617434  0.756498  1
  Sn  Sn13  1  0.001234  0.382566  0.243502  1
  Sn  Sn14  1  0.381332  0.382566  0.756498  1
  Sn  Sn15  1  0.618668  0.617434  0.243502  1
  Sb  Sb16  1  0.621537  0.000000  0.756588  1
  Sb  Sb17  1  0.378463  0.000000  0.243412  1
