# generated using pymatgen
data_Hf6InNiTe
_symmetry_space_group_name_H-M   'P 1'
_cell_length_a   3.51247100
_cell_length_b   7.85200046
_cell_length_c   7.85200000
_cell_angle_alpha   119.99999807
_cell_angle_beta   90.00000000
_cell_angle_gamma   90.00000000
_symmetry_Int_Tables_number   1
_chemical_formula_structural   Hf6InNiTe
_chemical_formula_sum   'Hf6 In1 Ni1 Te1'
_cell_volume   187.54435414
_cell_formula_units_Z   1
loop_
 _symmetry_equiv_pos_site_id
 _symmetry_equiv_pos_as_xyz
  1  'x, y, z'
loop_
 _atom_site_type_symbol
 _atom_site_label
 _atom_site_symmetry_multiplicity
 _atom_site_fract_x
 _atom_site_fract_y
 _atom_site_fract_z
 _atom_site_occupancy
  Hf  Hf0  1  0.500000  0.755800  0.760083  1
  Hf  Hf1  1  0.500000  0.004283  0.244200  1
  Hf  Hf2  1  0.500000  0.239917  0.995717  1
  Hf  Hf3  1  0.000000  0.398082  0.391752  1
  Hf  Hf4  1  0.000000  0.993670  0.601918  1
  Hf  Hf5  1  0.000000  0.608248  0.006330  1
  In  In6  1  0.500000  0.333333  0.666667  1
  Ni  Ni7  1  0.000000  0.000000  0.000000  1
  Te  Te8  1  0.500000  0.666667  0.333333  1
