# generated using pymatgen
data_Zr5Fe16Si7W
_symmetry_space_group_name_H-M   'P 1'
_cell_length_a   8.06535727
_cell_length_b   8.06535709
_cell_length_c   8.03403700
_cell_angle_alpha   60.12837923
_cell_angle_beta   60.12837996
_cell_angle_gamma   59.74324203
_symmetry_Int_Tables_number   1
_chemical_formula_structural   Zr5Fe16Si7W
_chemical_formula_sum   'Zr5 Fe16 Si7 W1'
_cell_volume   369.53280189
_cell_formula_units_Z   1
loop_
 _symmetry_equiv_pos_site_id
 _symmetry_equiv_pos_as_xyz
  1  'x, y, z'
loop_
 _atom_site_type_symbol
 _atom_site_label
 _atom_site_symmetry_multiplicity
 _atom_site_fract_x
 _atom_site_fract_y
 _atom_site_fract_z
 _atom_site_occupancy
  Zr  Zr0  1  0.296128  0.706401  0.293599  1
  Zr  Zr1  1  0.706401  0.296128  0.293599  1
  Zr  Zr2  1  0.288461  0.288461  0.711539  1
  Zr  Zr3  1  0.706401  0.296128  0.703872  1
  Zr  Zr4  1  0.296128  0.706401  0.703872  1
  Fe  Fe5  1  0.875029  0.875029  0.359724  1
  Fe  Fe6  1  0.875467  0.367138  0.878698  1
  Fe  Fe7  1  0.367138  0.875467  0.878698  1
  Fe  Fe8  1  0.875029  0.875029  0.890219  1
  Fe  Fe9  1  0.121302  0.121302  0.632862  1
  Fe  Fe10  1  0.109781  0.640276  0.124971  1
  Fe  Fe11  1  0.640276  0.109781  0.124971  1
  Fe  Fe12  1  0.121302  0.121302  0.124533  1
  Fe  Fe13  1  0.676517  0.676517  0.975453  1
  Fe  Fe14  1  0.677415  0.972071  0.675257  1
  Fe  Fe15  1  0.972071  0.677415  0.675257  1
  Fe  Fe16  1  0.676517  0.676517  0.671513  1
  Fe  Fe17  1  0.324743  0.324743  0.027929  1
  Fe  Fe18  1  0.328487  0.024547  0.323483  1
  Fe  Fe19  1  0.024547  0.328487  0.323483  1
  Fe  Fe20  1  0.324743  0.324743  0.322585  1
  Si  Si21  1  0.005832  0.005832  0.994168  1
  Si  Si22  1  0.000441  0.000441  0.499559  1
  Si  Si23  1  0.500823  0.999974  0.499177  1
  Si  Si24  1  0.999974  0.500823  0.499177  1
  Si  Si25  1  0.500441  0.500441  0.999559  1
  Si  Si26  1  0.999974  0.500823  0.000026  1
  Si  Si27  1  0.500823  0.999974  0.000026  1
  W  W28  1  0.707808  0.707808  0.292192  1
