# generated using pymatgen
data_YErB6MoW
_symmetry_space_group_name_H-M   'P 1'
_cell_length_a   3.16675500
_cell_length_b   5.44225904
_cell_length_c   6.83265941
_cell_angle_alpha   78.06905531
_cell_angle_beta   90.00000000
_cell_angle_gamma   90.00000000
_symmetry_Int_Tables_number   1
_chemical_formula_structural   YErB6MoW
_chemical_formula_sum   'Y1 Er1 B6 Mo1 W1'
_cell_volume   115.21227971
_cell_formula_units_Z   1
loop_
 _symmetry_equiv_pos_site_id
 _symmetry_equiv_pos_as_xyz
  1  'x, y, z'
loop_
 _atom_site_type_symbol
 _atom_site_label
 _atom_site_symmetry_multiplicity
 _atom_site_fract_x
 _atom_site_fract_y
 _atom_site_fract_z
 _atom_site_occupancy
  Y  Y0  1  0.750000  0.825708  0.706770  1
  Er  Er1  1  0.250000  0.177216  0.289397  1
  B  B2  1  0.250000  0.579257  0.474405  1
  B  B3  1  0.750000  0.415506  0.523263  1
  B  B4  1  0.250000  0.587490  0.996603  1
  B  B5  1  0.750000  0.412877  0.006054  1
  B  B6  1  0.250000  0.917196  0.994284  1
  B  B7  1  0.750000  0.083901  0.008358  1
  Mo  Mo8  1  0.250000  0.312087  0.780320  1
  W  W9  1  0.750000  0.688763  0.220547  1
