# generated using pymatgen
data_Nd4CoOs7
_symmetry_space_group_name_H-M   'P 1'
_cell_length_a   5.25337700
_cell_length_b   5.39218460
_cell_length_c   9.04877000
_cell_angle_alpha   90.00000000
_cell_angle_beta   90.00000000
_cell_angle_gamma   119.15204712
_symmetry_Int_Tables_number   1
_chemical_formula_structural   Nd4CoOs7
_chemical_formula_sum   'Nd4 Co1 Os7'
_cell_volume   223.85731357
_cell_formula_units_Z   1
loop_
 _symmetry_equiv_pos_site_id
 _symmetry_equiv_pos_as_xyz
  1  'x, y, z'
loop_
 _atom_site_type_symbol
 _atom_site_label
 _atom_site_symmetry_multiplicity
 _atom_site_fract_x
 _atom_site_fract_y
 _atom_site_fract_z
 _atom_site_occupancy
  Nd  Nd0  1  0.330408  0.660816  0.439483  1
  Nd  Nd1  1  0.666512  0.333022  0.566698  1
  Nd  Nd2  1  0.666512  0.333022  0.933302  1
  Nd  Nd3  1  0.330408  0.660816  0.060517  1
  Co  Co4  1  0.170428  0.340856  0.750000  1
  Os  Os5  1  0.174328  0.842291  0.750000  1
  Os  Os6  1  0.341414  0.169168  0.250000  1
  Os  Os7  1  0.834509  0.669020  0.250000  1
  Os  Os8  1  0.667964  0.842291  0.750000  1
  Os  Os9  1  0.994882  0.989764  0.997340  1
  Os  Os10  1  0.827754  0.169168  0.250000  1
  Os  Os11  1  0.994882  0.989764  0.502660  1
