# generated using pymatgen
data_CsKTcH9
_symmetry_space_group_name_H-M   'P 1'
_cell_length_a   9.96438000
_cell_length_b   9.96437932
_cell_length_c   5.90284300
_cell_angle_alpha   90.00000000
_cell_angle_beta   90.00000000
_cell_angle_gamma   119.99999563
_symmetry_Int_Tables_number   1
_chemical_formula_structural   CsKTcH9
_chemical_formula_sum   'Cs3 K3 Tc3 H27'
_cell_volume   507.56587543
_cell_formula_units_Z   3
loop_
 _symmetry_equiv_pos_site_id
 _symmetry_equiv_pos_as_xyz
  1  'x, y, z'
loop_
 _atom_site_type_symbol
 _atom_site_label
 _atom_site_symmetry_multiplicity
 _atom_site_fract_x
 _atom_site_fract_y
 _atom_site_fract_z
 _atom_site_occupancy
  Cs  Cs0  1  0.589370  0.000000  0.000000  1
  Cs  Cs1  1  0.000000  0.589370  0.000000  1
  Cs  Cs2  1  0.410630  0.410630  0.000000  1
  K  K3  1  0.262698  0.000000  0.500000  1
  K  K4  1  0.000000  0.262698  0.500000  1
  K  K5  1  0.737302  0.737302  0.500000  1
  Tc  Tc6  1  0.000000  0.000000  0.000000  1
  Tc  Tc7  1  0.333333  0.666667  0.500000  1
  Tc  Tc8  1  0.666667  0.333333  0.500000  1
  H  H9  1  0.880520  0.000000  0.204179  1
  H  H10  1  0.000000  0.880520  0.204179  1
  H  H11  1  0.880520  0.000000  0.795821  1
  H  H12  1  0.000000  0.880520  0.795821  1
  H  H13  1  0.119480  0.119480  0.204179  1
  H  H14  1  0.119480  0.119480  0.795821  1
  H  H15  1  0.167592  0.000000  0.000000  1
  H  H16  1  0.000000  0.167592  0.000000  1
  H  H17  1  0.832408  0.832408  0.000000  1
  H  H18  1  0.229291  0.537350  0.294530  1
  H  H19  1  0.462650  0.691941  0.294530  1
  H  H20  1  0.229291  0.537350  0.705470  1
  H  H21  1  0.537350  0.229291  0.705470  1
  H  H22  1  0.308059  0.770709  0.294530  1
  H  H23  1  0.462650  0.691941  0.705470  1
  H  H24  1  0.691941  0.462650  0.705470  1
  H  H25  1  0.537350  0.229291  0.294530  1
  H  H26  1  0.308059  0.770709  0.705470  1
  H  H27  1  0.691941  0.462650  0.294530  1
  H  H28  1  0.770709  0.308059  0.705470  1
  H  H29  1  0.770709  0.308059  0.294530  1
  H  H30  1  0.367268  0.519180  0.500000  1
  H  H31  1  0.480820  0.848089  0.500000  1
  H  H32  1  0.519180  0.367268  0.500000  1
  H  H33  1  0.151911  0.632732  0.500000  1
  H  H34  1  0.848089  0.480820  0.500000  1
  H  H35  1  0.632732  0.151911  0.500000  1
