# generated using pymatgen
data_HoLu7In3Ru
_symmetry_space_group_name_H-M   'P 1'
_cell_length_a   10.20215809
_cell_length_b   10.20215873
_cell_length_c   6.94366238
_cell_angle_alpha   89.94629918
_cell_angle_beta   90.05369732
_cell_angle_gamma   120.02163111
_symmetry_Int_Tables_number   1
_chemical_formula_structural   HoLu7In3Ru
_chemical_formula_sum   'Ho2 Lu14 In6 Ru2'
_cell_volume   625.76085850
_cell_formula_units_Z   2
loop_
 _symmetry_equiv_pos_site_id
 _symmetry_equiv_pos_as_xyz
  1  'x, y, z'
loop_
 _atom_site_type_symbol
 _atom_site_label
 _atom_site_symmetry_multiplicity
 _atom_site_fract_x
 _atom_site_fract_y
 _atom_site_fract_z
 _atom_site_occupancy
  Ho  Ho0  1  0.531699  0.063651  0.523729  1
  Ho  Ho1  1  0.936349  0.468301  0.523729  1
  Lu  Lu2  1  0.532407  0.467593  0.524554  1
  Lu  Lu3  1  0.466814  0.933636  0.024460  1
  Lu  Lu4  1  0.066364  0.533186  0.024460  1
  Lu  Lu5  1  0.467157  0.532843  0.025096  1
  Lu  Lu6  1  0.178472  0.355664  0.728184  1
  Lu  Lu7  1  0.644336  0.821528  0.728184  1
  Lu  Lu8  1  0.177383  0.822617  0.728767  1
  Lu  Lu9  1  0.821967  0.644875  0.226400  1
  Lu  Lu10  1  0.355125  0.178033  0.226400  1
  Lu  Lu11  1  0.822555  0.177445  0.225370  1
  Lu  Lu12  1  0.666286  0.333714  0.904617  1
  Lu  Lu13  1  0.333840  0.666160  0.403986  1
  Lu  Lu14  1  0.999948  0.000052  0.507354  1
  Lu  Lu15  1  0.000127  0.999873  0.007807  1
  In  In16  1  0.836657  0.674386  0.770748  1
  In  In17  1  0.325614  0.163343  0.770748  1
  In  In18  1  0.837665  0.162335  0.770920  1
  In  In19  1  0.162977  0.325986  0.270336  1
  In  In20  1  0.674014  0.837023  0.270336  1
  In  In21  1  0.163041  0.836959  0.271059  1
  Ru  Ru22  1  0.666007  0.333993  0.298331  1
  Ru  Ru23  1  0.333197  0.666803  0.800103  1
