# generated using pymatgen
data_Be8Fe3Os
_symmetry_space_group_name_H-M   'P 1'
_cell_length_a   4.22446800
_cell_length_b   4.22446154
_cell_length_c   6.88950100
_cell_angle_alpha   89.99995490
_cell_angle_beta   89.99981051
_cell_angle_gamma   119.99989168
_symmetry_Int_Tables_number   1
_chemical_formula_structural   Be8Fe3Os
_chemical_formula_sum   'Be8 Fe3 Os1'
_cell_volume   106.47858190
_cell_formula_units_Z   1
loop_
 _symmetry_equiv_pos_site_id
 _symmetry_equiv_pos_as_xyz
  1  'x, y, z'
loop_
 _atom_site_type_symbol
 _atom_site_label
 _atom_site_symmetry_multiplicity
 _atom_site_fract_x
 _atom_site_fract_y
 _atom_site_fract_z
 _atom_site_occupancy
  Be  Be0  1  0.999994  0.000003  0.500812  1
  Be  Be1  1  0.999977  0.999993  0.997102  1
  Be  Be2  1  0.659142  0.829574  0.751173  1
  Be  Be3  1  0.170419  0.829576  0.751174  1
  Be  Be4  1  0.830315  0.169683  0.249040  1
  Be  Be5  1  0.339352  0.169682  0.249040  1
  Be  Be6  1  0.170418  0.340848  0.751173  1
  Be  Be7  1  0.830314  0.660645  0.249039  1
  Fe  Fe8  1  0.666663  0.333329  0.938611  1
  Fe  Fe9  1  0.666661  0.333331  0.567043  1
  Fe  Fe10  1  0.333323  0.666673  0.057645  1
  Os  Os11  1  0.333325  0.666669  0.438150  1
