# generated using pymatgen
data_CeSm(Be12Ni)2
_symmetry_space_group_name_H-M   'P 1'
_cell_length_a   7.29615412
_cell_length_b   7.32274390
_cell_length_c   7.29367577
_cell_angle_alpha   60.55491507
_cell_angle_beta   60.25254520
_cell_angle_gamma   59.85694383
_symmetry_Int_Tables_number   1
_chemical_formula_structural   CeSm(Be12Ni)2
_chemical_formula_sum   'Ce1 Sm1 Be24 Ni2'
_cell_volume   276.91043104
_cell_formula_units_Z   1
loop_
 _symmetry_equiv_pos_site_id
 _symmetry_equiv_pos_as_xyz
  1  'x, y, z'
loop_
 _atom_site_type_symbol
 _atom_site_label
 _atom_site_symmetry_multiplicity
 _atom_site_fract_x
 _atom_site_fract_y
 _atom_site_fract_z
 _atom_site_occupancy
  Ce  Ce0  1  0.251791  0.248209  0.248209  1
  Sm  Sm1  1  0.750086  0.749914  0.749914  1
  Be  Be2  1  0.999959  0.000041  0.000041  1
  Be  Be3  1  0.500406  0.499594  0.499594  1
  Be  Be4  1  0.067494  0.288304  0.710505  1
  Be  Be5  1  0.933698  0.710505  0.288304  1
  Be  Be6  1  0.937876  0.291566  0.063606  1
  Be  Be7  1  0.212277  0.437472  0.788082  1
  Be  Be8  1  0.063059  0.707339  0.937002  1
  Be  Be9  1  0.788765  0.562997  0.212662  1
  Be  Be10  1  0.706952  0.063606  0.291566  1
  Be  Be11  1  0.435575  0.212662  0.562997  1
  Be  Be12  1  0.292600  0.937002  0.707339  1
  Be  Be13  1  0.562170  0.788082  0.437472  1
  Be  Be14  1  0.060628  0.936582  0.295912  1
  Be  Be15  1  0.565722  0.215254  0.785020  1
  Be  Be16  1  0.938970  0.063827  0.704654  1
  Be  Be17  1  0.434005  0.785020  0.215254  1
  Be  Be18  1  0.706877  0.295912  0.936582  1
  Be  Be19  1  0.209174  0.563971  0.434654  1
  Be  Be20  1  0.292550  0.704654  0.063827  1
  Be  Be21  1  0.792201  0.434654  0.563971  1
  Be  Be22  1  0.788417  0.216311  0.432080  1
  Be  Be23  1  0.212795  0.784986  0.566700  1
  Be  Be24  1  0.563192  0.432080  0.216311  1
  Be  Be25  1  0.435519  0.566700  0.784986  1
  Ni  Ni26  1  0.296525  0.060366  0.942391  1
  Ni  Ni27  1  0.700718  0.942391  0.060366  1
