# generated using pymatgen
data_Lu2AlB2Rh5
_symmetry_space_group_name_H-M   'P 1'
_cell_length_a   9.43441300
_cell_length_b   9.43441300
_cell_length_c   3.14964600
_cell_angle_alpha   90.00000000
_cell_angle_beta   90.00000000
_cell_angle_gamma   90.00000000
_symmetry_Int_Tables_number   1
_chemical_formula_structural   Lu2AlB2Rh5
_chemical_formula_sum   'Lu4 Al2 B4 Rh10'
_cell_volume   280.34415938
_cell_formula_units_Z   2
loop_
 _symmetry_equiv_pos_site_id
 _symmetry_equiv_pos_as_xyz
  1  'x, y, z'
loop_
 _atom_site_type_symbol
 _atom_site_label
 _atom_site_symmetry_multiplicity
 _atom_site_fract_x
 _atom_site_fract_y
 _atom_site_fract_z
 _atom_site_occupancy
  Lu  Lu0  1  0.825497  0.325497  0.000000  1
  Lu  Lu1  1  0.325497  0.174503  0.000000  1
  Lu  Lu2  1  0.674503  0.825497  0.000000  1
  Lu  Lu3  1  0.174503  0.674503  0.000000  1
  Al  Al4  1  0.000000  0.000000  0.000000  1
  Al  Al5  1  0.500000  0.500000  0.000000  1
  B  B6  1  0.623253  0.123253  0.000000  1
  B  B7  1  0.123253  0.376747  0.000000  1
  B  B8  1  0.876747  0.623253  0.000000  1
  B  B9  1  0.376747  0.876747  0.000000  1
  Rh  Rh10  1  0.070460  0.217571  0.500000  1
  Rh  Rh11  1  0.217571  0.929540  0.500000  1
  Rh  Rh12  1  0.782429  0.070460  0.500000  1
  Rh  Rh13  1  0.929540  0.782429  0.500000  1
  Rh  Rh14  1  0.429540  0.717571  0.500000  1
  Rh  Rh15  1  0.570460  0.282429  0.500000  1
  Rh  Rh16  1  0.717571  0.570460  0.500000  1
  Rh  Rh17  1  0.282429  0.429540  0.500000  1
  Rh  Rh18  1  0.500000  0.000000  0.500000  1
  Rh  Rh19  1  0.000000  0.500000  0.500000  1
