# generated using pymatgen
data_Sc10TcAs4Ru
_symmetry_space_group_name_H-M   'P 1'
_cell_length_a   5.86433300
_cell_length_b   7.80863216
_cell_length_c   7.97447603
_cell_angle_alpha   119.31439836
_cell_angle_beta   90.00000000
_cell_angle_gamma   90.00000000
_symmetry_Int_Tables_number   1
_chemical_formula_structural   Sc10TcAs4Ru
_chemical_formula_sum   'Sc10 Tc1 As4 Ru1'
_cell_volume   318.40909622
_cell_formula_units_Z   1
loop_
 _symmetry_equiv_pos_site_id
 _symmetry_equiv_pos_as_xyz
  1  'x, y, z'
loop_
 _atom_site_type_symbol
 _atom_site_label
 _atom_site_symmetry_multiplicity
 _atom_site_fract_x
 _atom_site_fract_y
 _atom_site_fract_z
 _atom_site_occupancy
  Sc  Sc0  1  0.999433  0.662019  0.324494  1
  Sc  Sc1  1  0.999433  0.337522  0.675506  1
  Sc  Sc2  1  0.500567  0.337522  0.675506  1
  Sc  Sc3  1  0.500567  0.662019  0.324494  1
  Sc  Sc4  1  0.750000  0.742999  0.766904  1
  Sc  Sc5  1  0.250000  0.257128  0.233646  1
  Sc  Sc6  1  0.750000  0.976097  0.233096  1
  Sc  Sc7  1  0.250000  0.023481  0.766354  1
  Sc  Sc8  1  0.750000  0.250252  0.000000  1
  Sc  Sc9  1  0.250000  0.749551  0.000000  1
  Tc  Tc10  1  0.750000  0.591590  0.000000  1
  As  As11  1  0.750000  0.378834  0.387978  1
  As  As12  1  0.250000  0.621384  0.611687  1
  As  As13  1  0.750000  0.990856  0.612022  1
  As  As14  1  0.250000  0.009696  0.388313  1
  Ru  Ru15  1  0.250000  0.409050  0.000000  1
