# generated using pymatgen
data_La4In2AgRh3
_symmetry_space_group_name_H-M   'P 1'
_cell_length_a   7.90337300
_cell_length_b   7.90337333
_cell_length_c   3.97603600
_cell_angle_alpha   90.00000000
_cell_angle_beta   90.00000000
_cell_angle_gamma   89.16796340
_symmetry_Int_Tables_number   1
_chemical_formula_structural   La4In2AgRh3
_chemical_formula_sum   'La4 In2 Ag1 Rh3'
_cell_volume   248.33017220
_cell_formula_units_Z   1
loop_
 _symmetry_equiv_pos_site_id
 _symmetry_equiv_pos_as_xyz
  1  'x, y, z'
loop_
 _atom_site_type_symbol
 _atom_site_label
 _atom_site_symmetry_multiplicity
 _atom_site_fract_x
 _atom_site_fract_y
 _atom_site_fract_z
 _atom_site_occupancy
  La  La0  1  0.834893  0.691357  0.500000  1
  La  La1  1  0.322996  0.822996  0.500000  1
  La  La2  1  0.646699  0.146699  0.500000  1
  La  La3  1  0.191357  0.334893  0.500000  1
  In  In4  1  0.002761  0.003728  0.000000  1
  In  In5  1  0.503728  0.502761  0.000000  1
  Ag  Ag6  1  0.868535  0.368535  0.000000  1
  Rh  Rh7  1  0.360634  0.135629  0.000000  1
  Rh  Rh8  1  0.635629  0.860634  0.000000  1
  Rh  Rh9  1  0.132769  0.632769  0.000000  1
