# generated using pymatgen
data_La10CoBi4Rh
_symmetry_space_group_name_H-M   'P 1'
_cell_length_a   8.51016155
_cell_length_b   9.32518100
_cell_length_c   13.05286245
_cell_angle_alpha   90.00000000
_cell_angle_beta   89.54751434
_cell_angle_gamma   90.00000000
_symmetry_Int_Tables_number   1
_chemical_formula_structural   La10CoBi4Rh
_chemical_formula_sum   'La20 Co2 Bi8 Rh2'
_cell_volume   1035.82715627
_cell_formula_units_Z   2
loop_
 _symmetry_equiv_pos_site_id
 _symmetry_equiv_pos_as_xyz
  1  'x, y, z'
loop_
 _atom_site_type_symbol
 _atom_site_label
 _atom_site_symmetry_multiplicity
 _atom_site_fract_x
 _atom_site_fract_y
 _atom_site_fract_z
 _atom_site_occupancy
  La  La0  1  0.355852  0.750000  0.695843  1
  La  La1  1  0.644148  0.250000  0.304157  1
  La  La2  1  0.854869  0.250000  0.797647  1
  La  La3  1  0.145131  0.750000  0.202353  1
  La  La4  1  0.877292  0.750000  0.805067  1
  La  La5  1  0.122708  0.250000  0.194933  1
  La  La6  1  0.383329  0.250000  0.689193  1
  La  La7  1  0.616671  0.750000  0.310807  1
  La  La8  1  0.682362  0.537130  0.560832  1
  La  La9  1  0.317638  0.462870  0.439168  1
  La  La10  1  0.185572  0.459701  0.934220  1
  La  La11  1  0.317638  0.037130  0.439168  1
  La  La12  1  0.814428  0.540299  0.065780  1
  La  La13  1  0.682362  0.962870  0.560832  1
  La  La14  1  0.814428  0.959701  0.065780  1
  La  La15  1  0.185572  0.040299  0.934220  1
  La  La16  1  0.055288  0.750000  0.495376  1
  La  La17  1  0.944712  0.250000  0.504624  1
  La  La18  1  0.550594  0.250000  0.004430  1
  La  La19  1  0.449406  0.750000  0.995570  1
  Co  Co20  1  0.572802  0.250000  0.507714  1
  Co  Co21  1  0.427198  0.750000  0.492286  1
  Bi  Bi22  1  0.575897  0.505097  0.825586  1
  Bi  Bi23  1  0.424103  0.494903  0.174414  1
  Bi  Bi24  1  0.076675  0.494407  0.672506  1
  Bi  Bi25  1  0.424103  0.005097  0.174414  1
  Bi  Bi26  1  0.923325  0.505593  0.327494  1
  Bi  Bi27  1  0.575897  0.994903  0.825586  1
  Bi  Bi28  1  0.923325  0.994407  0.327494  1
  Bi  Bi29  1  0.076675  0.005593  0.672506  1
  Rh  Rh30  1  0.072711  0.750000  0.990599  1
  Rh  Rh31  1  0.927289  0.250000  0.009401  1
