# generated using pymatgen
data_SmCoSnH
_symmetry_space_group_name_H-M   'P 1'
_cell_length_a   4.32212000
_cell_length_b   7.21087800
_cell_length_c   8.31878600
_cell_angle_alpha   90.00000000
_cell_angle_beta   90.00000000
_cell_angle_gamma   90.00000000
_symmetry_Int_Tables_number   1
_chemical_formula_structural   SmCoSnH
_chemical_formula_sum   'Sm4 Co4 Sn4 H4'
_cell_volume   259.26561391
_cell_formula_units_Z   4
loop_
 _symmetry_equiv_pos_site_id
 _symmetry_equiv_pos_as_xyz
  1  'x, y, z'
loop_
 _atom_site_type_symbol
 _atom_site_label
 _atom_site_symmetry_multiplicity
 _atom_site_fract_x
 _atom_site_fract_y
 _atom_site_fract_z
 _atom_site_occupancy
  Sm  Sm0  1  0.750000  0.012158  0.688264  1
  Sm  Sm1  1  0.250000  0.987842  0.311736  1
  Sm  Sm2  1  0.250000  0.487842  0.188264  1
  Sm  Sm3  1  0.750000  0.512158  0.811736  1
  Co  Co4  1  0.750000  0.779303  0.101008  1
  Co  Co5  1  0.250000  0.220697  0.898992  1
  Co  Co6  1  0.250000  0.720697  0.601008  1
  Co  Co7  1  0.750000  0.279303  0.398992  1
  Sn  Sn8  1  0.750000  0.656915  0.428072  1
  Sn  Sn9  1  0.250000  0.343085  0.571928  1
  Sn  Sn10  1  0.250000  0.843085  0.928072  1
  Sn  Sn11  1  0.750000  0.156915  0.071928  1
  H  H12  1  0.250000  0.439329  0.919195  1
  H  H13  1  0.750000  0.560671  0.080805  1
  H  H14  1  0.750000  0.060671  0.419195  1
  H  H15  1  0.250000  0.939329  0.580805  1
