# generated using pymatgen
data_LaPrSc3Si4
_symmetry_space_group_name_H-M   'P 1'
_cell_length_a   7.28880242
_cell_length_b   7.56993116
_cell_length_c   14.29475953
_cell_angle_alpha   90.00181490
_cell_angle_beta   89.96884759
_cell_angle_gamma   89.97643307
_symmetry_Int_Tables_number   1
_chemical_formula_structural   LaPrSc3Si4
_chemical_formula_sum   'La4 Pr4 Sc12 Si16'
_cell_volume   788.72364560
_cell_formula_units_Z   4
loop_
 _symmetry_equiv_pos_site_id
 _symmetry_equiv_pos_as_xyz
  1  'x, y, z'
loop_
 _atom_site_type_symbol
 _atom_site_label
 _atom_site_symmetry_multiplicity
 _atom_site_fract_x
 _atom_site_fract_y
 _atom_site_fract_z
 _atom_site_occupancy
  La  La0  1  0.011991  0.170927  0.402650  1
  La  La1  1  0.512839  0.330122  0.401962  1
  La  La2  1  0.487364  0.670350  0.902881  1
  La  La3  1  0.488107  0.670623  0.597912  1
  Pr  Pr4  1  0.988233  0.827999  0.598861  1
  Pr  Pr5  1  0.987490  0.827824  0.902170  1
  Pr  Pr6  1  0.512330  0.328081  0.098505  1
  Pr  Pr7  1  0.011896  0.172440  0.097927  1
  Sc  Sc8  1  0.330019  0.174885  0.625398  1
  Sc  Sc9  1  0.670291  0.824894  0.373948  1
  Sc  Sc10  1  0.658220  0.002637  0.750475  1
  Sc  Sc11  1  0.169307  0.676086  0.373901  1
  Sc  Sc12  1  0.830441  0.323418  0.874816  1
  Sc  Sc13  1  0.831192  0.324564  0.625979  1
  Sc  Sc14  1  0.841069  0.503080  0.248869  1
  Sc  Sc15  1  0.341040  0.997424  0.249227  1
  Sc  Sc16  1  0.329750  0.175384  0.875010  1
  Sc  Sc17  1  0.169031  0.676245  0.124547  1
  Sc  Sc18  1  0.669918  0.824229  0.124538  1
  Sc  Sc19  1  0.159854  0.496646  0.750505  1
  Si  Si20  1  0.287393  0.885148  0.750280  1
  Si  Si21  1  0.465376  0.627666  0.249184  1
  Si  Si22  1  0.034266  0.125675  0.750329  1
  Si  Si23  1  0.534670  0.371616  0.750251  1
  Si  Si24  1  0.149995  0.463923  0.540272  1
  Si  Si25  1  0.965712  0.873406  0.249143  1
  Si  Si26  1  0.711183  0.115006  0.248949  1
  Si  Si27  1  0.848981  0.536402  0.040191  1
  Si  Si28  1  0.348290  0.964470  0.040169  1
  Si  Si29  1  0.150000  0.462426  0.960434  1
  Si  Si30  1  0.651255  0.036771  0.540303  1
  Si  Si31  1  0.349665  0.962646  0.460253  1
  Si  Si32  1  0.850533  0.538912  0.460363  1
  Si  Si33  1  0.789890  0.614771  0.750294  1
  Si  Si34  1  0.211264  0.385465  0.249023  1
  Si  Si35  1  0.651141  0.037838  0.960478  1
