# generated using pymatgen
data_BaCaPt10
_symmetry_space_group_name_H-M   'P 1'
_cell_length_a   4.38573200
_cell_length_b   5.53729600
_cell_length_c   9.54394400
_cell_angle_alpha   89.99998965
_cell_angle_beta   90.00000000
_cell_angle_gamma   90.00000000
_symmetry_Int_Tables_number   1
_chemical_formula_structural   BaCaPt10
_chemical_formula_sum   'Ba1 Ca1 Pt10'
_cell_volume   231.77559875
_cell_formula_units_Z   1
loop_
 _symmetry_equiv_pos_site_id
 _symmetry_equiv_pos_as_xyz
  1  'x, y, z'
loop_
 _atom_site_type_symbol
 _atom_site_label
 _atom_site_symmetry_multiplicity
 _atom_site_fract_x
 _atom_site_fract_y
 _atom_site_fract_z
 _atom_site_occupancy
  Ba  Ba0  1  0.000000  0.999981  0.000000  1
  Ca  Ca1  1  0.000000  0.499976  0.500000  1
  Pt  Pt2  1  0.000000  0.999980  0.339872  1
  Pt  Pt3  1  0.000000  0.499985  0.824907  1
  Pt  Pt4  1  0.000000  0.499985  0.175093  1
  Pt  Pt5  1  0.000000  0.999980  0.660128  1
  Pt  Pt6  1  0.500000  0.999986  0.500000  1
  Pt  Pt7  1  0.500000  0.499986  0.000000  1
  Pt  Pt8  1  0.500000  0.252482  0.255717  1
  Pt  Pt9  1  0.500000  0.747488  0.744283  1
  Pt  Pt10  1  0.500000  0.747488  0.255717  1
  Pt  Pt11  1  0.500000  0.252482  0.744283  1
