# generated using pymatgen
data_Nd8Zn5Ga(HgRh4)2
_symmetry_space_group_name_H-M   'P 1'
_cell_length_a   4.01880400
_cell_length_b   7.44753644
_cell_length_c   16.83321363
_cell_angle_alpha   89.12062222
_cell_angle_beta   90.00000000
_cell_angle_gamma   90.00000000
_symmetry_Int_Tables_number   1
_chemical_formula_structural   Nd8Zn5Ga(HgRh4)2
_chemical_formula_sum   'Nd8 Zn5 Ga1 Hg2 Rh8'
_cell_volume   503.76192972
_cell_formula_units_Z   1
loop_
 _symmetry_equiv_pos_site_id
 _symmetry_equiv_pos_as_xyz
  1  'x, y, z'
loop_
 _atom_site_type_symbol
 _atom_site_label
 _atom_site_symmetry_multiplicity
 _atom_site_fract_x
 _atom_site_fract_y
 _atom_site_fract_z
 _atom_site_occupancy
  Nd  Nd0  1  0.250000  0.169830  0.941400  1
  Nd  Nd1  1  0.250000  0.673695  0.561723  1
  Nd  Nd2  1  0.750000  0.324158  0.437473  1
  Nd  Nd3  1  0.750000  0.948122  0.281695  1
  Nd  Nd4  1  0.750000  0.830566  0.059034  1
  Nd  Nd5  1  0.750000  0.445929  0.210949  1
  Nd  Nd6  1  0.250000  0.051810  0.718739  1
  Nd  Nd7  1  0.250000  0.554879  0.789517  1
  Zn  Zn8  1  0.250000  0.498671  0.058343  1
  Zn  Zn9  1  0.750000  0.500961  0.942233  1
  Zn  Zn10  1  0.250000  0.997843  0.435234  1
  Zn  Zn11  1  0.250000  0.120130  0.149723  1
  Zn  Zn12  1  0.750000  0.880185  0.850381  1
  Ga  Ga13  1  0.750000  0.000681  0.562423  1
  Hg  Hg14  1  0.250000  0.616255  0.346849  1
  Hg  Hg15  1  0.750000  0.386826  0.654297  1
  Rh  Rh16  1  0.750000  0.770524  0.442742  1
  Rh  Rh17  1  0.250000  0.230805  0.309832  1
  Rh  Rh18  1  0.750000  0.255389  0.820492  1
  Rh  Rh19  1  0.750000  0.774611  0.687622  1
  Rh  Rh20  1  0.250000  0.222310  0.559274  1
  Rh  Rh21  1  0.250000  0.745831  0.179751  1
  Rh  Rh22  1  0.750000  0.254348  0.065261  1
  Rh  Rh23  1  0.250000  0.745638  0.935013  1
