# generated using pymatgen
data_Hf6Al6Ru11Au
_symmetry_space_group_name_H-M   'P 1'
_cell_length_a   4.45018600
_cell_length_b   6.31776500
_cell_length_c   13.29749500
_cell_angle_alpha   90.00049477
_cell_angle_beta   89.99976774
_cell_angle_gamma   89.99964218
_symmetry_Int_Tables_number   1
_chemical_formula_structural   Hf6Al6Ru11Au
_chemical_formula_sum   'Hf6 Al6 Ru11 Au1'
_cell_volume   373.86212175
_cell_formula_units_Z   1
loop_
 _symmetry_equiv_pos_site_id
 _symmetry_equiv_pos_as_xyz
  1  'x, y, z'
loop_
 _atom_site_type_symbol
 _atom_site_label
 _atom_site_symmetry_multiplicity
 _atom_site_fract_x
 _atom_site_fract_y
 _atom_site_fract_z
 _atom_site_occupancy
  Hf  Hf0  1  0.000008  0.984614  0.999998  1
  Hf  Hf1  1  0.499913  0.506593  0.172684  1
  Hf  Hf2  1  0.999920  0.001154  0.334496  1
  Hf  Hf3  1  0.499992  0.498490  0.500005  1
  Hf  Hf4  1  0.000082  0.001155  0.665506  1
  Hf  Hf5  1  0.500089  0.506592  0.827311  1
  Al  Al6  1  0.000003  0.511984  0.000004  1
  Al  Al7  1  0.499910  0.993109  0.172091  1
  Al  Al8  1  0.999906  0.500520  0.333924  1
  Al  Al9  1  0.499999  0.999978  0.499999  1
  Al  Al10  1  0.000087  0.500517  0.666074  1
  Al  Al11  1  0.500093  0.993104  0.827911  1
  Ru  Ru12  1  0.500008  0.749382  0.999999  1
  Ru  Ru13  1  0.999917  0.250885  0.164231  1
  Ru  Ru14  1  0.999927  0.749121  0.165982  1
  Ru  Ru15  1  0.499913  0.249747  0.332523  1
  Ru  Ru16  1  0.499916  0.751065  0.334294  1
  Ru  Ru17  1  0.999995  0.251000  0.500002  1
  Ru  Ru18  1  0.999990  0.749838  0.500004  1
  Ru  Ru19  1  0.500081  0.249740  0.667477  1
  Ru  Ru20  1  0.500088  0.751068  0.665707  1
  Ru  Ru21  1  0.000090  0.250887  0.835763  1
  Ru  Ru22  1  0.000074  0.749113  0.834016  1
  Au  Au23  1  0.499998  0.250350  0.999998  1
