# generated using pymatgen
data_Tb3YScIr3
_symmetry_space_group_name_H-M   'P 1'
_cell_length_a   10.82989400
_cell_length_b   10.83220100
_cell_length_c   6.28813200
_cell_angle_alpha   90.00000000
_cell_angle_beta   90.00000000
_cell_angle_gamma   90.00000000
_symmetry_Int_Tables_number   1
_chemical_formula_structural   Tb3YScIr3
_chemical_formula_sum   'Tb12 Y4 Sc4 Ir12'
_cell_volume   737.67075435
_cell_formula_units_Z   4
loop_
 _symmetry_equiv_pos_site_id
 _symmetry_equiv_pos_as_xyz
  1  'x, y, z'
loop_
 _atom_site_type_symbol
 _atom_site_label
 _atom_site_symmetry_multiplicity
 _atom_site_fract_x
 _atom_site_fract_y
 _atom_site_fract_z
 _atom_site_occupancy
  Tb  Tb0  1  0.586387  0.787543  0.878399  1
  Tb  Tb1  1  0.586387  0.212457  0.378399  1
  Tb  Tb2  1  0.413613  0.787543  0.378399  1
  Tb  Tb3  1  0.413613  0.212457  0.878399  1
  Tb  Tb4  1  0.212533  0.413576  0.621537  1
  Tb  Tb5  1  0.212533  0.586424  0.121537  1
  Tb  Tb6  1  0.787467  0.413576  0.121537  1
  Tb  Tb7  1  0.787467  0.586424  0.621537  1
  Tb  Tb8  1  0.913583  0.712554  0.121621  1
  Tb  Tb9  1  0.913583  0.287446  0.621621  1
  Tb  Tb10  1  0.086417  0.712554  0.621621  1
  Tb  Tb11  1  0.086417  0.287446  0.121621  1
  Y  Y12  1  0.287430  0.086350  0.378392  1
  Y  Y13  1  0.287430  0.913650  0.878392  1
  Y  Y14  1  0.712570  0.086350  0.878392  1
  Y  Y15  1  0.712570  0.913650  0.378392  1
  Sc  Sc16  1  0.000000  0.000000  0.499961  1
  Sc  Sc17  1  0.000000  0.000000  0.999961  1
  Sc  Sc18  1  0.500000  0.500000  0.999900  1
  Sc  Sc19  1  0.500000  0.500000  0.499900  1
  Ir  Ir20  1  0.853405  0.146717  0.250141  1
  Ir  Ir21  1  0.853405  0.853283  0.750141  1
  Ir  Ir22  1  0.146595  0.146717  0.750141  1
  Ir  Ir23  1  0.146595  0.853283  0.250141  1
  Ir  Ir24  1  0.646701  0.353374  0.749981  1
  Ir  Ir25  1  0.646701  0.646626  0.249981  1
  Ir  Ir26  1  0.353299  0.353374  0.249981  1
  Ir  Ir27  1  0.353299  0.646626  0.749981  1
  Ir  Ir28  1  0.500000  0.000000  0.122289  1
  Ir  Ir29  1  0.500000  0.000000  0.622289  1
  Ir  Ir30  1  0.000000  0.500000  0.877712  1
  Ir  Ir31  1  0.000000  0.500000  0.377712  1
