# generated using pymatgen
data_YHo7(B6Ir)4
_symmetry_space_group_name_H-M   'P 1'
_cell_length_a   3.63716800
_cell_length_b   9.18170800
_cell_length_c   11.51682900
_cell_angle_alpha   90.00179906
_cell_angle_beta   90.00000000
_cell_angle_gamma   90.00000000
_symmetry_Int_Tables_number   1
_chemical_formula_structural   YHo7(B6Ir)4
_chemical_formula_sum   'Y1 Ho7 B24 Ir4'
_cell_volume   384.60927835
_cell_formula_units_Z   1
loop_
 _symmetry_equiv_pos_site_id
 _symmetry_equiv_pos_as_xyz
  1  'x, y, z'
loop_
 _atom_site_type_symbol
 _atom_site_label
 _atom_site_symmetry_multiplicity
 _atom_site_fract_x
 _atom_site_fract_y
 _atom_site_fract_z
 _atom_site_occupancy
  Y  Y0  1  0.000000  0.322136  0.412888  1
  Ho  Ho1  1  0.000000  0.677863  0.587053  1
  Ho  Ho2  1  0.000000  0.822176  0.087057  1
  Ho  Ho3  1  0.000000  0.177842  0.912979  1
  Ho  Ho4  1  0.000000  0.944217  0.374543  1
  Ho  Ho5  1  0.000000  0.055588  0.625527  1
  Ho  Ho6  1  0.000000  0.444370  0.125373  1
  Ho  Ho7  1  0.000000  0.555688  0.874566  1
  B  B8  1  0.500000  0.553364  0.433748  1
  B  B9  1  0.500000  0.447156  0.566529  1
  B  B10  1  0.500000  0.053004  0.066237  1
  B  B11  1  0.500000  0.946972  0.933722  1
  B  B12  1  0.500000  0.749260  0.420847  1
  B  B13  1  0.500000  0.250633  0.579538  1
  B  B14  1  0.500000  0.249226  0.079133  1
  B  B15  1  0.500000  0.750789  0.920814  1
  B  B16  1  0.500000  0.793288  0.265591  1
  B  B17  1  0.500000  0.206710  0.734442  1
  B  B18  1  0.500000  0.293158  0.234079  1
  B  B19  1  0.500000  0.706760  0.765626  1
  B  B20  1  0.500000  0.632499  0.184413  1
  B  B21  1  0.500000  0.367541  0.815569  1
  B  B22  1  0.500000  0.132169  0.315335  1
  B  B23  1  0.500000  0.867514  0.684485  1
  B  B24  1  0.500000  0.981959  0.212910  1
  B  B25  1  0.500000  0.017966  0.787074  1
  B  B26  1  0.500000  0.482342  0.286819  1
  B  B27  1  0.500000  0.518043  0.712969  1
  B  B28  1  0.500000  0.611801  0.030624  1
  B  B29  1  0.500000  0.388231  0.969347  1
  B  B30  1  0.500000  0.111294  0.469515  1
  B  B31  1  0.500000  0.888278  0.530623  1
  Ir  Ir32  1  0.000000  0.638733  0.321414  1
  Ir  Ir33  1  0.000000  0.361629  0.678787  1
  Ir  Ir34  1  0.000000  0.138169  0.178246  1
  Ir  Ir35  1  0.000000  0.861631  0.821578  1
