# generated using pymatgen
data_ScPa2(Al3Fe)4
_symmetry_space_group_name_H-M   'P 1'
_cell_length_a   8.66089165
_cell_length_b   8.66089151
_cell_length_c   9.18311700
_cell_angle_alpha   90.00000000
_cell_angle_beta   90.00000000
_cell_angle_gamma   119.92931566
_symmetry_Int_Tables_number   1
_chemical_formula_structural   ScPa2(Al3Fe)4
_chemical_formula_sum   'Sc2 Pa4 Al24 Fe8'
_cell_volume   596.97321314
_cell_formula_units_Z   2
loop_
 _symmetry_equiv_pos_site_id
 _symmetry_equiv_pos_as_xyz
  1  'x, y, z'
loop_
 _atom_site_type_symbol
 _atom_site_label
 _atom_site_symmetry_multiplicity
 _atom_site_fract_x
 _atom_site_fract_y
 _atom_site_fract_z
 _atom_site_occupancy
  Sc  Sc0  1  0.798134  0.201866  0.750000  1
  Sc  Sc1  1  0.201866  0.798134  0.250000  1
  Pa  Pa2  1  0.393570  0.199245  0.750000  1
  Pa  Pa3  1  0.606430  0.800755  0.250000  1
  Pa  Pa4  1  0.800755  0.606430  0.750000  1
  Pa  Pa5  1  0.199245  0.393570  0.250000  1
  Al  Al6  1  0.669523  0.330477  0.986728  1
  Al  Al7  1  0.330477  0.669523  0.013272  1
  Al  Al8  1  0.330477  0.669523  0.486728  1
  Al  Al9  1  0.669523  0.330477  0.513272  1
  Al  Al10  1  0.839025  0.160975  0.424258  1
  Al  Al11  1  0.160975  0.839025  0.575742  1
  Al  Al12  1  0.320523  0.156865  0.421828  1
  Al  Al13  1  0.160975  0.839025  0.924258  1
  Al  Al14  1  0.679477  0.843135  0.578172  1
  Al  Al15  1  0.839025  0.160975  0.075742  1
  Al  Al16  1  0.843135  0.679477  0.421828  1
  Al  Al17  1  0.679477  0.843135  0.921828  1
  Al  Al18  1  0.156865  0.320523  0.578172  1
  Al  Al19  1  0.320523  0.156865  0.078172  1
  Al  Al20  1  0.156865  0.320523  0.921828  1
  Al  Al21  1  0.843135  0.679477  0.078172  1
  Al  Al22  1  0.436678  0.563322  0.750000  1
  Al  Al23  1  0.563322  0.436678  0.250000  1
  Al  Al24  1  0.115533  0.556034  0.750000  1
  Al  Al25  1  0.884467  0.443966  0.250000  1
  Al  Al26  1  0.443966  0.884467  0.750000  1
  Al  Al27  1  0.556034  0.115533  0.250000  1
  Al  Al28  1  0.996608  0.003392  0.750000  1
  Al  Al29  1  0.003392  0.996608  0.250000  1
  Fe  Fe30  1  0.500000  0.500000  0.000000  1
  Fe  Fe31  1  0.000000  0.500000  0.000000  1
  Fe  Fe32  1  0.500000  0.500000  0.500000  1
  Fe  Fe33  1  0.500000  0.000000  0.000000  1
  Fe  Fe34  1  0.000000  0.500000  0.500000  1
  Fe  Fe35  1  0.500000  0.000000  0.500000  1
  Fe  Fe36  1  0.000000  0.000000  0.000000  1
  Fe  Fe37  1  0.000000  0.000000  0.500000  1
