# generated using pymatgen
data_TaMn4Si6Tc5
_symmetry_space_group_name_H-M   'P 1'
_cell_length_a   7.03712137
_cell_length_b   6.97988722
_cell_length_c   4.84338900
_cell_angle_alpha   90.00000000
_cell_angle_beta   90.00000000
_cell_angle_gamma   119.73131755
_symmetry_Int_Tables_number   1
_chemical_formula_structural   TaMn4Si6Tc5
_chemical_formula_sum   'Ta1 Mn4 Si6 Tc5'
_cell_volume   206.58219752
_cell_formula_units_Z   1
loop_
 _symmetry_equiv_pos_site_id
 _symmetry_equiv_pos_as_xyz
  1  'x, y, z'
loop_
 _atom_site_type_symbol
 _atom_site_label
 _atom_site_symmetry_multiplicity
 _atom_site_fract_x
 _atom_site_fract_y
 _atom_site_fract_z
 _atom_site_occupancy
  Ta  Ta0  1  0.000000  0.771296  0.750000  1
  Mn  Mn1  1  0.327276  0.668268  0.500317  1
  Mn  Mn2  1  0.672724  0.340992  0.999683  1
  Mn  Mn3  1  0.672724  0.340992  0.500317  1
  Mn  Mn4  1  0.327276  0.668268  0.999683  1
  Si  Si5  1  0.417534  0.009993  0.750000  1
  Si  Si6  1  0.399201  0.399125  0.250000  1
  Si  Si7  1  0.000000  0.593484  0.250000  1
  Si  Si8  1  0.000000  0.393990  0.750000  1
  Si  Si9  1  0.582466  0.592459  0.750000  1
  Si  Si10  1  0.600799  0.999924  0.250000  1
  Tc  Tc11  1  0.000000  0.235294  0.250000  1
  Tc  Tc12  1  0.752899  0.750939  0.250000  1
  Tc  Tc13  1  0.754769  0.995853  0.750000  1
  Tc  Tc14  1  0.245231  0.241084  0.750000  1
  Tc  Tc15  1  0.247101  0.998040  0.250000  1
