# generated using pymatgen
data_Dy3Mg2PaRh3
_symmetry_space_group_name_H-M   'P 1'
_cell_length_a   7.64856165
_cell_length_b   7.58978273
_cell_length_c   3.93781900
_cell_angle_alpha   90.00000000
_cell_angle_beta   90.00000000
_cell_angle_gamma   119.74609208
_symmetry_Int_Tables_number   1
_chemical_formula_structural   Dy3Mg2PaRh3
_chemical_formula_sum   'Dy3 Mg2 Pa1 Rh3'
_cell_volume   198.47279349
_cell_formula_units_Z   1
loop_
 _symmetry_equiv_pos_site_id
 _symmetry_equiv_pos_as_xyz
  1  'x, y, z'
loop_
 _atom_site_type_symbol
 _atom_site_label
 _atom_site_symmetry_multiplicity
 _atom_site_fract_x
 _atom_site_fract_y
 _atom_site_fract_z
 _atom_site_occupancy
  Dy  Dy0  1  0.000000  0.624485  0.500000  1
  Dy  Dy1  1  0.556836  0.965403  0.500000  1
  Dy  Dy2  1  0.443164  0.408567  0.500000  1
  Mg  Mg3  1  0.251979  0.005955  0.000000  1
  Mg  Mg4  1  0.748021  0.753977  0.000000  1
  Pa  Pa5  1  0.000000  0.266598  0.000000  1
  Rh  Rh6  1  0.000000  0.022603  0.500000  1
  Rh  Rh7  1  0.691133  0.321772  0.000000  1
  Rh  Rh8  1  0.308867  0.630640  0.000000  1
