# generated using pymatgen
data_Ho2Er2Co4HgI
_symmetry_space_group_name_H-M   'P 1'
_cell_length_a   3.90644800
_cell_length_b   3.90644955
_cell_length_c   16.59440000
_cell_angle_alpha   90.00000000
_cell_angle_beta   90.00000000
_cell_angle_gamma   119.99998685
_symmetry_Int_Tables_number   1
_chemical_formula_structural   Ho2Er2Co4HgI
_chemical_formula_sum   'Ho2 Er2 Co4 Hg1 I1'
_cell_volume   219.30902876
_cell_formula_units_Z   1
loop_
 _symmetry_equiv_pos_site_id
 _symmetry_equiv_pos_as_xyz
  1  'x, y, z'
loop_
 _atom_site_type_symbol
 _atom_site_label
 _atom_site_symmetry_multiplicity
 _atom_site_fract_x
 _atom_site_fract_y
 _atom_site_fract_z
 _atom_site_occupancy
  Ho  Ho0  1  0.000000  0.000000  0.600830  1
  Ho  Ho1  1  0.000000  0.000000  0.385094  1
  Er  Er2  1  0.000000  0.000000  0.114085  1
  Er  Er3  1  0.000000  0.000000  0.900259  1
  Co  Co4  1  0.333333  0.666667  0.496966  1
  Co  Co5  1  0.666667  0.333333  0.495816  1
  Co  Co6  1  0.666667  0.333333  0.004357  1
  Co  Co7  1  0.333333  0.666667  0.003249  1
  Hg  Hg8  1  0.333333  0.666667  0.248791  1
  I  I9  1  0.666667  0.333333  0.750552  1
