# generated using pymatgen
data_Yb3Ag(Ru2O7)2
_symmetry_space_group_name_H-M   'P 1'
_cell_length_a   7.28150672
_cell_length_b   7.14819077
_cell_length_c   7.28150700
_cell_angle_alpha   59.38111434
_cell_angle_beta   60.00000325
_cell_angle_gamma   59.38111323
_symmetry_Int_Tables_number   1
_chemical_formula_structural   Yb3Ag(Ru2O7)2
_chemical_formula_sum   'Yb3 Ag1 Ru4 O14'
_cell_volume   265.45878375
_cell_formula_units_Z   1
loop_
 _symmetry_equiv_pos_site_id
 _symmetry_equiv_pos_as_xyz
  1  'x, y, z'
loop_
 _atom_site_type_symbol
 _atom_site_label
 _atom_site_symmetry_multiplicity
 _atom_site_fract_x
 _atom_site_fract_y
 _atom_site_fract_z
 _atom_site_occupancy
  Yb  Yb0  1  0.125000  0.125000  0.125000  1
  Yb  Yb1  1  0.625000  0.125000  0.125000  1
  Yb  Yb2  1  0.125000  0.125000  0.625000  1
  Ag  Ag3  1  0.125000  0.625000  0.125000  1
  Ru  Ru4  1  0.625000  0.625000  0.625000  1
  Ru  Ru5  1  0.125000  0.625000  0.625000  1
  Ru  Ru6  1  0.625000  0.625000  0.125000  1
  Ru  Ru7  1  0.625000  0.125000  0.625000  1
  O  O8  1  0.006012  0.981963  0.006012  1
  O  O9  1  0.243988  0.268037  0.243988  1
  O  O10  1  0.302396  0.299876  0.698864  1
  O  O11  1  0.560275  0.552661  0.943532  1
  O  O12  1  0.698864  0.299876  0.698864  1
  O  O13  1  0.698864  0.299876  0.302396  1
  O  O14  1  0.306468  0.697339  0.689725  1
  O  O15  1  0.306468  0.697339  0.306468  1
  O  O16  1  0.689725  0.697339  0.306468  1
  O  O17  1  0.943532  0.552661  0.560275  1
  O  O18  1  0.551136  0.950124  0.947604  1
  O  O19  1  0.947604  0.950124  0.551136  1
  O  O20  1  0.943532  0.552661  0.943532  1
  O  O21  1  0.551136  0.950124  0.551136  1
