# generated using pymatgen
data_La2Zn9Au8
_symmetry_space_group_name_H-M   'P 1'
_cell_length_a   7.15068780
_cell_length_b   7.15068854
_cell_length_c   6.99249060
_cell_angle_alpha   83.70811229
_cell_angle_beta   83.70811704
_cell_angle_gamma   82.09365562
_symmetry_Int_Tables_number   1
_chemical_formula_structural   La2Zn9Au8
_chemical_formula_sum   'La2 Zn9 Au8'
_cell_volume   350.38456359
_cell_formula_units_Z   1
loop_
 _symmetry_equiv_pos_site_id
 _symmetry_equiv_pos_as_xyz
  1  'x, y, z'
loop_
 _atom_site_type_symbol
 _atom_site_label
 _atom_site_symmetry_multiplicity
 _atom_site_fract_x
 _atom_site_fract_y
 _atom_site_fract_z
 _atom_site_occupancy
  La  La0  1  0.338902  0.338902  0.349028  1
  La  La1  1  0.661098  0.661098  0.650972  1
  Zn  Zn2  1  0.000000  0.000000  0.500000  1
  Zn  Zn3  1  0.000000  0.500000  0.000000  1
  Zn  Zn4  1  0.500000  0.000000  0.000000  1
  Zn  Zn5  1  0.712433  0.287567  0.000000  1
  Zn  Zn6  1  0.287567  0.712433  0.000000  1
  Zn  Zn7  1  0.152585  0.659552  0.656052  1
  Zn  Zn8  1  0.659552  0.152585  0.656052  1
  Zn  Zn9  1  0.340448  0.847415  0.343948  1
  Zn  Zn10  1  0.847415  0.340448  0.343948  1
  Au  Au11  1  0.312429  0.987184  0.693726  1
  Au  Au12  1  0.012816  0.687571  0.306274  1
  Au  Au13  1  0.687571  0.012816  0.306274  1
  Au  Au14  1  0.987184  0.312429  0.693726  1
  Au  Au15  1  0.628911  0.628911  0.168393  1
  Au  Au16  1  0.371089  0.371089  0.831607  1
  Au  Au17  1  0.112544  0.112544  0.109340  1
  Au  Au18  1  0.887456  0.887456  0.890660  1
