# generated using pymatgen
data_Er11Tm3Lu6(CoBi2)4
_symmetry_space_group_name_H-M   'P 1'
_cell_length_a   7.85378336
_cell_length_b   8.84907147
_cell_length_c   12.32808155
_cell_angle_alpha   89.97689017
_cell_angle_beta   90.03551568
_cell_angle_gamma   90.02948473
_symmetry_Int_Tables_number   1
_chemical_formula_structural   Er11Tm3Lu6(CoBi2)4
_chemical_formula_sum   'Er11 Tm3 Lu6 Co4 Bi8'
_cell_volume   856.78517411
_cell_formula_units_Z   1
loop_
 _symmetry_equiv_pos_site_id
 _symmetry_equiv_pos_as_xyz
  1  'x, y, z'
loop_
 _atom_site_type_symbol
 _atom_site_label
 _atom_site_symmetry_multiplicity
 _atom_site_fract_x
 _atom_site_fract_y
 _atom_site_fract_z
 _atom_site_occupancy
  Er  Er0  1  0.346919  0.250091  0.300704  1
  Er  Er1  1  0.153173  0.250141  0.800462  1
  Er  Er2  1  0.846958  0.749898  0.199581  1
  Er  Er3  1  0.118759  0.750072  0.814276  1
  Er  Er4  1  0.881140  0.249922  0.185570  1
  Er  Er5  1  0.618879  0.250249  0.685827  1
  Er  Er6  1  0.380841  0.749732  0.313994  1
  Er  Er7  1  0.555052  0.749977  0.997081  1
  Er  Er8  1  0.445250  0.250058  0.002625  1
  Er  Er9  1  0.054953  0.250144  0.502895  1
  Er  Er10  1  0.944825  0.749816  0.497341  1
  Tm  Tm11  1  0.653068  0.749901  0.699112  1
  Tm  Tm12  1  0.673064  0.036808  0.436312  1
  Tm  Tm13  1  0.327037  0.962852  0.564002  1
  Lu  Lu14  1  0.828234  0.463148  0.936441  1
  Lu  Lu15  1  0.171784  0.536689  0.063495  1
  Lu  Lu16  1  0.328270  0.537231  0.563737  1
  Lu  Lu17  1  0.171756  0.963320  0.063491  1
  Lu  Lu18  1  0.671775  0.463101  0.436544  1
  Lu  Lu19  1  0.828189  0.036836  0.936451  1
  Co  Co20  1  0.936691  0.750001  0.993246  1
  Co  Co21  1  0.063497  0.250006  0.006770  1
  Co  Co22  1  0.436282  0.250566  0.507025  1
  Co  Co23  1  0.563727  0.749459  0.493149  1
  Bi  Bi24  1  0.932090  0.007623  0.673352  1
  Bi  Bi25  1  0.067574  0.992162  0.326798  1
  Bi  Bi26  1  0.433184  0.991869  0.826748  1
  Bi  Bi27  1  0.067218  0.507818  0.326884  1
  Bi  Bi28  1  0.567086  0.007839  0.173021  1
  Bi  Bi29  1  0.932464  0.492411  0.673285  1
  Bi  Bi30  1  0.567127  0.492148  0.173093  1
  Bi  Bi31  1  0.433131  0.508113  0.826687  1
