# generated using pymatgen
data_Pr4Ga7(SiPt2)3
_symmetry_space_group_name_H-M   'P 1'
_cell_length_a   8.50673981
_cell_length_b   8.54773611
_cell_length_c   8.54773587
_cell_angle_alpha   137.92326449
_cell_angle_beta   105.75886773
_cell_angle_gamma   89.27833221
_symmetry_Int_Tables_number   1
_chemical_formula_structural   Pr4Ga7(SiPt2)3
_chemical_formula_sum   'Pr4 Ga7 Si3 Pt6'
_cell_volume   383.25385653
_cell_formula_units_Z   1
loop_
 _symmetry_equiv_pos_site_id
 _symmetry_equiv_pos_as_xyz
  1  'x, y, z'
loop_
 _atom_site_type_symbol
 _atom_site_label
 _atom_site_symmetry_multiplicity
 _atom_site_fract_x
 _atom_site_fract_y
 _atom_site_fract_z
 _atom_site_occupancy
  Pr  Pr0  1  0.868292  0.629599  0.238694  1
  Pr  Pr1  1  0.135794  0.369942  0.765851  1
  Pr  Pr2  1  0.394016  0.130275  0.263741  1
  Pr  Pr3  1  0.607467  0.869901  0.737566  1
  Ga  Ga4  1  0.501242  0.750828  0.249293  1
  Ga  Ga5  1  0.501242  0.251949  0.750413  1
  Ga  Ga6  1  0.232648  0.982141  0.752768  1
  Ga  Ga7  1  0.765270  0.510673  0.741643  1
  Ga  Ga8  1  0.765270  0.023628  0.254597  1
  Ga  Ga9  1  0.232648  0.479880  0.250507  1
  Ga  Ga10  1  0.037451  0.891658  0.145793  1
  Si  Si11  1  0.961448  0.106696  0.854752  1
  Si  Si12  1  0.743003  0.390859  0.352144  1
  Si  Si13  1  0.252507  0.606406  0.646101  1
  Pt  Pt14  1  0.996252  0.746288  0.736696  1
  Pt  Pt15  1  0.996252  0.259556  0.249964  1
  Pt  Pt16  1  0.247403  0.863522  0.383882  1
  Pt  Pt17  1  0.761412  0.134276  0.627135  1
  Pt  Pt18  1  0.490302  0.366081  0.124221  1
  Pt  Pt19  1  0.510082  0.635842  0.874240  1
