# generated using pymatgen
data_Tb6Pr4Co2Br15
_symmetry_space_group_name_H-M   'P 1'
_cell_length_a   9.51731384
_cell_length_b   10.28763577
_cell_length_c   11.05113927
_cell_angle_alpha   92.38168682
_cell_angle_beta   113.79446075
_cell_angle_gamma   110.79492427
_symmetry_Int_Tables_number   1
_chemical_formula_structural   Tb6Pr4Co2Br15
_chemical_formula_sum   'Tb6 Pr4 Co2 Br15'
_cell_volume   903.70002413
_cell_formula_units_Z   1
loop_
 _symmetry_equiv_pos_site_id
 _symmetry_equiv_pos_as_xyz
  1  'x, y, z'
loop_
 _atom_site_type_symbol
 _atom_site_label
 _atom_site_symmetry_multiplicity
 _atom_site_fract_x
 _atom_site_fract_y
 _atom_site_fract_z
 _atom_site_occupancy
  Tb  Tb0  1  0.527304  0.708848  0.099580  1
  Tb  Tb1  1  0.472696  0.291152  0.900420  1
  Tb  Tb2  1  0.590931  0.044814  0.332616  1
  Tb  Tb3  1  0.409069  0.955186  0.667384  1
  Tb  Tb4  1  0.724609  0.076766  0.047215  1
  Tb  Tb5  1  0.275391  0.923234  0.952785  1
  Pr  Pr6  1  0.803077  0.405023  0.272734  1
  Pr  Pr7  1  0.196923  0.594977  0.727266  1
  Pr  Pr8  1  0.669610  0.750795  0.818979  1
  Pr  Pr9  1  0.330390  0.249205  0.181021  1
  Co  Co10  1  0.466883  0.829928  0.882922  1
  Co  Co11  1  0.533117  0.170072  0.117078  1
  Br  Br12  1  0.000000  0.000000  0.000000  1
  Br  Br13  1  0.631620  0.892595  0.580846  1
  Br  Br14  1  0.368380  0.107405  0.419154  1
  Br  Br15  1  0.879637  0.293720  0.526484  1
  Br  Br16  1  0.120363  0.706280  0.473516  1
  Br  Br17  1  0.305895  0.767813  0.187241  1
  Br  Br18  1  0.694105  0.232187  0.812759  1
  Br  Br19  1  0.053579  0.333324  0.217890  1
  Br  Br20  1  0.176094  0.058961  0.702534  1
  Br  Br21  1  0.823906  0.941039  0.297466  1
  Br  Br22  1  0.254641  0.416826  0.950669  1
  Br  Br23  1  0.745359  0.583174  0.049331  1
  Br  Br24  1  0.405948  0.457888  0.669600  1
  Br  Br25  1  0.594052  0.542112  0.330400  1
  Br  Br26  1  0.946421  0.666676  0.782110  1
