# generated using pymatgen
data_Tb20Sn15Te
_symmetry_space_group_name_H-M   'P 1'
_cell_length_a   8.13614048
_cell_length_b   8.24413717
_cell_length_c   15.49079539
_cell_angle_alpha   90.31296890
_cell_angle_beta   90.92764777
_cell_angle_gamma   89.88655579
_symmetry_Int_Tables_number   1
_chemical_formula_structural   Tb20Sn15Te
_chemical_formula_sum   'Tb20 Sn15 Te1'
_cell_volume   1038.89865756
_cell_formula_units_Z   1
loop_
 _symmetry_equiv_pos_site_id
 _symmetry_equiv_pos_as_xyz
  1  'x, y, z'
loop_
 _atom_site_type_symbol
 _atom_site_label
 _atom_site_symmetry_multiplicity
 _atom_site_fract_x
 _atom_site_fract_y
 _atom_site_fract_z
 _atom_site_occupancy
  Tb  Tb0  1  0.375128  0.838960  0.880038  1
  Tb  Tb1  1  0.868248  0.663842  0.622634  1
  Tb  Tb2  1  0.633220  0.161994  0.376538  1
  Tb  Tb3  1  0.124877  0.341877  0.121689  1
  Tb  Tb4  1  0.626997  0.161917  0.119119  1
  Tb  Tb5  1  0.133538  0.337474  0.376543  1
  Tb  Tb6  1  0.367096  0.838471  0.622914  1
  Tb  Tb7  1  0.873732  0.662913  0.878397  1
  Tb  Tb8  1  0.536806  0.336143  0.894800  1
  Tb  Tb9  1  0.021346  0.177387  0.598098  1
  Tb  Tb10  1  0.480230  0.677780  0.401845  1
  Tb  Tb11  1  0.963600  0.818211  0.103036  1
  Tb  Tb12  1  0.474985  0.666839  0.100892  1
  Tb  Tb13  1  0.979582  0.821750  0.401703  1
  Tb  Tb14  1  0.519991  0.320431  0.598219  1
  Tb  Tb15  1  0.021846  0.182458  0.898311  1
  Tb  Tb16  1  0.200343  0.502145  0.749312  1
  Tb  Tb17  1  0.699727  0.998856  0.750178  1
  Tb  Tb18  1  0.800238  0.497624  0.250850  1
  Tb  Tb19  1  0.300385  0.000306  0.255237  1
  Sn  Sn20  1  0.793819  0.461416  0.458428  1
  Sn  Sn21  1  0.706810  0.962334  0.541348  1
  Sn  Sn22  1  0.216684  0.532944  0.957901  1
  Sn  Sn23  1  0.716727  0.967808  0.957101  1
  Sn  Sn24  1  0.207041  0.537922  0.541342  1
  Sn  Sn25  1  0.294232  0.038224  0.458842  1
  Sn  Sn26  1  0.789008  0.464765  0.041959  1
  Sn  Sn27  1  0.566704  0.622151  0.749907  1
  Sn  Sn28  1  0.067661  0.881103  0.752520  1
  Sn  Sn29  1  0.434271  0.378202  0.247565  1
  Sn  Sn30  1  0.933676  0.119547  0.247031  1
  Sn  Sn31  1  0.331831  0.147653  0.750816  1
  Sn  Sn32  1  0.832806  0.354032  0.747873  1
  Sn  Sn33  1  0.665517  0.852338  0.249553  1
  Sn  Sn34  1  0.168123  0.647123  0.250286  1
  Te  Te35  1  0.273177  0.025059  0.047174  1
