# generated using pymatgen
data_Tb2HoTa3(B2Ru5)2
_symmetry_space_group_name_H-M   'P 1'
_cell_length_a   9.62224470
_cell_length_b   9.62224524
_cell_length_c   3.12218100
_cell_angle_alpha   90.00000000
_cell_angle_beta   90.00000000
_cell_angle_gamma   90.59493887
_symmetry_Int_Tables_number   1
_chemical_formula_structural   Tb2HoTa3(B2Ru5)2
_chemical_formula_sum   'Tb2 Ho1 Ta3 B4 Ru10'
_cell_volume   289.05965625
_cell_formula_units_Z   1
loop_
 _symmetry_equiv_pos_site_id
 _symmetry_equiv_pos_as_xyz
  1  'x, y, z'
loop_
 _atom_site_type_symbol
 _atom_site_label
 _atom_site_symmetry_multiplicity
 _atom_site_fract_x
 _atom_site_fract_y
 _atom_site_fract_z
 _atom_site_occupancy
  Tb  Tb0  1  0.824048  0.674987  0.000000  1
  Tb  Tb1  1  0.174987  0.324048  0.000000  1
  Ho  Ho2  1  0.325751  0.825751  0.000000  1
  Ta  Ta3  1  0.675929  0.175929  0.000000  1
  Ta  Ta4  1  0.497858  0.502708  0.000000  1
  Ta  Ta5  1  0.002708  0.997858  0.000000  1
  B  B6  1  0.622870  0.881673  0.000000  1
  B  B7  1  0.381673  0.122870  0.000000  1
  B  B8  1  0.119512  0.619512  0.000000  1
  B  B9  1  0.875749  0.375749  0.000000  1
  Ru  Ru10  1  0.570441  0.722351  0.500000  1
  Ru  Ru11  1  0.441355  0.280098  0.500000  1
  Ru  Ru12  1  0.070197  0.780804  0.500000  1
  Ru  Ru13  1  0.915049  0.212972  0.500000  1
  Ru  Ru14  1  0.280804  0.570197  0.500000  1
  Ru  Ru15  1  0.712972  0.415049  0.500000  1
  Ru  Ru16  1  0.222351  0.070441  0.500000  1
  Ru  Ru17  1  0.780098  0.941355  0.500000  1
  Ru  Ru18  1  0.509774  0.009774  0.500000  1
  Ru  Ru19  1  0.995875  0.495875  0.500000  1
