# generated using pymatgen
data_MnNb4Fe2Os5
_symmetry_space_group_name_H-M   'P 1'
_cell_length_a   5.06834285
_cell_length_b   5.00496837
_cell_length_c   8.28129600
_cell_angle_alpha   90.00000000
_cell_angle_beta   90.00000000
_cell_angle_gamma   120.35323632
_symmetry_Int_Tables_number   1
_chemical_formula_structural   MnNb4Fe2Os5
_chemical_formula_sum   'Mn1 Nb4 Fe2 Os5'
_cell_volume   181.27561391
_cell_formula_units_Z   1
loop_
 _symmetry_equiv_pos_site_id
 _symmetry_equiv_pos_as_xyz
  1  'x, y, z'
loop_
 _atom_site_type_symbol
 _atom_site_label
 _atom_site_symmetry_multiplicity
 _atom_site_fract_x
 _atom_site_fract_y
 _atom_site_fract_z
 _atom_site_occupancy
  Mn  Mn0  1  0.179590  0.833024  0.750000  1
  Nb  Nb1  1  0.336102  0.669206  0.435293  1
  Nb  Nb2  1  0.673283  0.342349  0.931837  1
  Nb  Nb3  1  0.673283  0.342349  0.568163  1
  Nb  Nb4  1  0.336102  0.669206  0.064707  1
  Fe  Fe5  1  0.649808  0.833493  0.750000  1
  Fe  Fe6  1  0.824477  0.654159  0.250000  1
  Os  Os7  1  0.174521  0.350602  0.750000  1
  Os  Os8  1  0.828599  0.172390  0.250000  1
  Os  Os9  1  0.341180  0.171777  0.250000  1
  Os  Os10  1  0.991528  0.980722  0.995113  1
  Os  Os11  1  0.991528  0.980722  0.504887  1
