# generated using pymatgen
data_Th2UMn3
_symmetry_space_group_name_H-M   'P 1'
_cell_length_a   5.66506731
_cell_length_b   5.19071571
_cell_length_c   5.66506600
_cell_angle_alpha   56.92800898
_cell_angle_beta   59.99999594
_cell_angle_gamma   56.92801051
_symmetry_Int_Tables_number   1
_chemical_formula_structural   Th2UMn3
_chemical_formula_sum   'Th2 U1 Mn3'
_cell_volume   112.02426067
_cell_formula_units_Z   1
loop_
 _symmetry_equiv_pos_site_id
 _symmetry_equiv_pos_as_xyz
  1  'x, y, z'
loop_
 _atom_site_type_symbol
 _atom_site_label
 _atom_site_symmetry_multiplicity
 _atom_site_fract_x
 _atom_site_fract_y
 _atom_site_fract_z
 _atom_site_occupancy
  Th  Th0  1  0.750194  0.749419  0.750194  1
  Th  Th1  1  0.499806  0.500581  0.499806  1
  U  U2  1  0.125000  0.625000  0.125000  1
  Mn  Mn3  1  0.125000  0.125000  0.125000  1
  Mn  Mn4  1  0.625000  0.125000  0.125000  1
  Mn  Mn5  1  0.125000  0.125000  0.625000  1
