# generated using pymatgen
data_Nd6ErFeBr12
_symmetry_space_group_name_H-M   'P 1'
_cell_length_a   9.52087284
_cell_length_b   9.52087223
_cell_length_c   9.52087197
_cell_angle_alpha   107.17604766
_cell_angle_beta   107.17604981
_cell_angle_gamma   107.17604583
_symmetry_Int_Tables_number   1
_chemical_formula_structural   Nd6ErFeBr12
_chemical_formula_sum   'Nd6 Er1 Fe1 Br12'
_cell_volume   715.26704848
_cell_formula_units_Z   1
loop_
 _symmetry_equiv_pos_site_id
 _symmetry_equiv_pos_as_xyz
  1  'x, y, z'
loop_
 _atom_site_type_symbol
 _atom_site_label
 _atom_site_symmetry_multiplicity
 _atom_site_fract_x
 _atom_site_fract_y
 _atom_site_fract_z
 _atom_site_occupancy
  Nd  Nd0  1  0.098960  0.022523  0.306607  1
  Nd  Nd1  1  0.306607  0.098960  0.022523  1
  Nd  Nd2  1  0.022523  0.306607  0.098960  1
  Nd  Nd3  1  0.901040  0.977477  0.693393  1
  Nd  Nd4  1  0.693393  0.901040  0.977477  1
  Nd  Nd5  1  0.977477  0.693393  0.901040  1
  Er  Er6  1  0.500000  0.500000  0.500000  1
  Fe  Fe7  1  0.000000  0.000000  0.000000  1
  Br  Br8  1  0.069477  0.683254  0.223690  1
  Br  Br9  1  0.223690  0.069477  0.683254  1
  Br  Br10  1  0.683254  0.223690  0.069477  1
  Br  Br11  1  0.930523  0.316746  0.776310  1
  Br  Br12  1  0.776310  0.930523  0.316746  1
  Br  Br13  1  0.316746  0.776310  0.930523  1
  Br  Br14  1  0.464593  0.179551  0.389627  1
  Br  Br15  1  0.389627  0.464593  0.179551  1
  Br  Br16  1  0.179551  0.389627  0.464593  1
  Br  Br17  1  0.535407  0.820449  0.610373  1
  Br  Br18  1  0.610373  0.535407  0.820449  1
  Br  Br19  1  0.820449  0.610373  0.535407  1
