# generated using pymatgen
data_TmZrRh5Pb
_symmetry_space_group_name_H-M   'P 1'
_cell_length_a   5.74126794
_cell_length_b   5.74126822
_cell_length_c   8.36739800
_cell_angle_alpha   90.00000000
_cell_angle_beta   90.00000000
_cell_angle_gamma   96.30245595
_symmetry_Int_Tables_number   1
_chemical_formula_structural   TmZrRh5Pb
_chemical_formula_sum   'Tm2 Zr2 Rh10 Pb2'
_cell_volume   274.14059309
_cell_formula_units_Z   2
loop_
 _symmetry_equiv_pos_site_id
 _symmetry_equiv_pos_as_xyz
  1  'x, y, z'
loop_
 _atom_site_type_symbol
 _atom_site_label
 _atom_site_symmetry_multiplicity
 _atom_site_fract_x
 _atom_site_fract_y
 _atom_site_fract_z
 _atom_site_occupancy
  Tm  Tm0  1  0.778614  0.221386  0.500000  1
  Tm  Tm1  1  0.221386  0.778614  0.000000  1
  Zr  Zr2  1  0.216830  0.783170  0.500000  1
  Zr  Zr3  1  0.783170  0.216830  0.000000  1
  Rh  Rh4  1  0.736599  0.739298  0.000866  1
  Rh  Rh5  1  0.739298  0.736599  0.499134  1
  Rh  Rh6  1  0.260702  0.263401  0.999134  1
  Rh  Rh7  1  0.263401  0.260702  0.500866  1
  Rh  Rh8  1  0.499873  0.000793  0.750073  1
  Rh  Rh9  1  0.500127  0.999207  0.250073  1
  Rh  Rh10  1  0.000451  0.000451  0.250000  1
  Rh  Rh11  1  0.999549  0.999549  0.750000  1
  Rh  Rh12  1  0.000793  0.499873  0.749927  1
  Rh  Rh13  1  0.999207  0.500127  0.249927  1
  Pb  Pb14  1  0.501772  0.501772  0.750000  1
  Pb  Pb15  1  0.498228  0.498228  0.250000  1
