# generated using pymatgen
data_Mg4Zr(SbPt)5
_symmetry_space_group_name_H-M   'P 1'
_cell_length_a   18.74287497
_cell_length_b   18.74287506
_cell_length_c   18.74287397
_cell_angle_alpha   13.75136085
_cell_angle_beta   13.75135997
_cell_angle_gamma   13.75135957
_symmetry_Int_Tables_number   1
_chemical_formula_structural   Mg4Zr(SbPt)5
_chemical_formula_sum   'Mg4 Zr1 Sb5 Pt5'
_cell_volume   323.75010480
_cell_formula_units_Z   1
loop_
 _symmetry_equiv_pos_site_id
 _symmetry_equiv_pos_as_xyz
  1  'x, y, z'
loop_
 _atom_site_type_symbol
 _atom_site_label
 _atom_site_symmetry_multiplicity
 _atom_site_fract_x
 _atom_site_fract_y
 _atom_site_fract_z
 _atom_site_occupancy
  Mg  Mg0  1  0.701050  0.701050  0.701050  1
  Mg  Mg1  1  0.100015  0.100015  0.100015  1
  Mg  Mg2  1  0.499514  0.499514  0.499514  1
  Mg  Mg3  1  0.898364  0.898364  0.898364  1
  Zr  Zr4  1  0.299442  0.299442  0.299442  1
  Sb  Sb5  1  0.598764  0.598764  0.598764  1
  Sb  Sb6  1  0.800973  0.800973  0.800973  1
  Sb  Sb7  1  0.200559  0.200559  0.200559  1
  Sb  Sb8  1  0.001164  0.001164  0.001164  1
  Sb  Sb9  1  0.401308  0.401308  0.401308  1
  Pt  Pt10  1  0.050601  0.050601  0.050601  1
  Pt  Pt11  1  0.449731  0.449731  0.449731  1
  Pt  Pt12  1  0.849220  0.849220  0.849220  1
  Pt  Pt13  1  0.250174  0.250174  0.250174  1
  Pt  Pt14  1  0.649122  0.649122  0.649122  1
