# generated using pymatgen
data_LiMgNi12P7
_symmetry_space_group_name_H-M   'P 1'
_cell_length_a   9.00062000
_cell_length_b   9.00062087
_cell_length_c   3.56966400
_cell_angle_alpha   90.00000000
_cell_angle_beta   90.00000000
_cell_angle_gamma   120.00000414
_symmetry_Int_Tables_number   1
_chemical_formula_structural   LiMgNi12P7
_chemical_formula_sum   'Li1 Mg1 Ni12 P7'
_cell_volume   250.43951152
_cell_formula_units_Z   1
loop_
 _symmetry_equiv_pos_site_id
 _symmetry_equiv_pos_as_xyz
  1  'x, y, z'
loop_
 _atom_site_type_symbol
 _atom_site_label
 _atom_site_symmetry_multiplicity
 _atom_site_fract_x
 _atom_site_fract_y
 _atom_site_fract_z
 _atom_site_occupancy
  Li  Li0  1  0.000000  0.000000  0.000000  1
  Mg  Mg1  1  0.333333  0.666667  0.500000  1
  Ni  Ni2  1  0.293373  0.396977  0.000000  1
  Ni  Ni3  1  0.881158  0.457625  0.500000  1
  Ni  Ni4  1  0.103603  0.706627  0.000000  1
  Ni  Ni5  1  0.542375  0.423533  0.500000  1
  Ni  Ni6  1  0.388013  0.175623  0.000000  1
  Ni  Ni7  1  0.787611  0.611987  0.000000  1
  Ni  Ni8  1  0.824377  0.212389  0.000000  1
  Ni  Ni9  1  0.232651  0.950300  0.500000  1
  Ni  Ni10  1  0.049700  0.282351  0.500000  1
  Ni  Ni11  1  0.717649  0.767349  0.500000  1
  Ni  Ni12  1  0.576467  0.118842  0.500000  1
  Ni  Ni13  1  0.603023  0.896397  0.000000  1
  P  P14  1  0.666667  0.333333  0.000000  1
  P  P15  1  0.079741  0.453215  0.000000  1
  P  P16  1  0.253207  0.213726  0.500000  1
  P  P17  1  0.786274  0.039481  0.500000  1
  P  P18  1  0.960519  0.746793  0.500000  1
  P  P19  1  0.546785  0.626526  0.000000  1
  P  P20  1  0.373474  0.920259  0.000000  1
