# generated using pymatgen
data_NaLa(PrB12)2
_symmetry_space_group_name_H-M   'P 1'
_cell_length_a   7.18266399
_cell_length_b   7.18266427
_cell_length_c   5.88120900
_cell_angle_alpha   90.00000000
_cell_angle_beta   90.00000000
_cell_angle_gamma   109.38665125
_symmetry_Int_Tables_number   1
_chemical_formula_structural   NaLa(PrB12)2
_chemical_formula_sum   'Na1 La1 Pr2 B24'
_cell_volume   286.21182595
_cell_formula_units_Z   1
loop_
 _symmetry_equiv_pos_site_id
 _symmetry_equiv_pos_as_xyz
  1  'x, y, z'
loop_
 _atom_site_type_symbol
 _atom_site_label
 _atom_site_symmetry_multiplicity
 _atom_site_fract_x
 _atom_site_fract_y
 _atom_site_fract_z
 _atom_site_occupancy
  Na  Na0  1  0.748438  0.251562  0.500000  1
  La  La1  1  0.998704  0.001296  0.000000  1
  Pr  Pr2  1  0.500596  0.499404  0.000000  1
  Pr  Pr3  1  0.251471  0.748529  0.500000  1
  B  B4  1  0.175069  0.325256  0.648990  1
  B  B5  1  0.924907  0.574260  0.149979  1
  B  B6  1  0.674744  0.824931  0.648990  1
  B  B7  1  0.425740  0.075093  0.149979  1
  B  B8  1  0.175069  0.325256  0.351010  1
  B  B9  1  0.924907  0.574260  0.850021  1
  B  B10  1  0.674744  0.824931  0.351010  1
  B  B11  1  0.425740  0.075093  0.850021  1
  B  B12  1  0.401038  0.398805  0.500000  1
  B  B13  1  0.149501  0.650027  0.000000  1
  B  B14  1  0.898551  0.900313  0.500000  1
  B  B15  1  0.649724  0.149349  0.000000  1
  B  B16  1  0.325823  0.175504  0.649044  1
  B  B17  1  0.074814  0.425359  0.149980  1
  B  B18  1  0.824496  0.674177  0.649044  1
  B  B19  1  0.574641  0.925186  0.149980  1
  B  B20  1  0.099687  0.101449  0.500000  1
  B  B21  1  0.850651  0.350276  0.000000  1
  B  B22  1  0.601195  0.598962  0.500000  1
  B  B23  1  0.349973  0.850499  0.000000  1
  B  B24  1  0.325823  0.175504  0.350956  1
  B  B25  1  0.074814  0.425359  0.850020  1
  B  B26  1  0.824496  0.674177  0.350956  1
  B  B27  1  0.574641  0.925186  0.850020  1
