# generated using pymatgen
data_Zr4Mn3Si4Rh
_symmetry_space_group_name_H-M   'P 1'
_cell_length_a   3.82335400
_cell_length_b   6.59383620
_cell_length_c   7.61357322
_cell_angle_alpha   89.62654681
_cell_angle_beta   90.00000000
_cell_angle_gamma   90.00000000
_symmetry_Int_Tables_number   1
_chemical_formula_structural   Zr4Mn3Si4Rh
_chemical_formula_sum   'Zr4 Mn3 Si4 Rh1'
_cell_volume   191.93844347
_cell_formula_units_Z   1
loop_
 _symmetry_equiv_pos_site_id
 _symmetry_equiv_pos_as_xyz
  1  'x, y, z'
loop_
 _atom_site_type_symbol
 _atom_site_label
 _atom_site_symmetry_multiplicity
 _atom_site_fract_x
 _atom_site_fract_y
 _atom_site_fract_z
 _atom_site_occupancy
  Zr  Zr0  1  0.250000  0.525737  0.678438  1
  Zr  Zr1  1  0.250000  0.023565  0.817847  1
  Zr  Zr2  1  0.750000  0.968829  0.182127  1
  Zr  Zr3  1  0.750000  0.476113  0.319806  1
  Mn  Mn4  1  0.250000  0.142097  0.438666  1
  Mn  Mn5  1  0.750000  0.858746  0.563065  1
  Mn  Mn6  1  0.250000  0.651295  0.063073  1
  Si  Si7  1  0.250000  0.275111  0.124084  1
  Si  Si8  1  0.250000  0.772074  0.377413  1
  Si  Si9  1  0.750000  0.724085  0.874871  1
  Si  Si10  1  0.750000  0.229034  0.621249  1
  Rh  Rh11  1  0.750000  0.353314  0.939360  1
