# generated using pymatgen
data_Hf(NbS2)4
_symmetry_space_group_name_H-M   'P 1'
_cell_length_a   6.71518900
_cell_length_b   6.71518852
_cell_length_c   12.85747500
_cell_angle_alpha   90.00000000
_cell_angle_beta   90.00000000
_cell_angle_gamma   119.99999744
_symmetry_Int_Tables_number   1
_chemical_formula_structural   Hf(NbS2)4
_chemical_formula_sum   'Hf2 Nb8 S16'
_cell_volume   502.11452117
_cell_formula_units_Z   2
loop_
 _symmetry_equiv_pos_site_id
 _symmetry_equiv_pos_as_xyz
  1  'x, y, z'
loop_
 _atom_site_type_symbol
 _atom_site_label
 _atom_site_symmetry_multiplicity
 _atom_site_fract_x
 _atom_site_fract_y
 _atom_site_fract_z
 _atom_site_occupancy
  Hf  Hf0  1  0.000000  0.000000  0.000000  1
  Hf  Hf1  1  0.000000  0.000000  0.500000  1
  Nb  Nb2  1  0.988951  0.494475  0.250000  1
  Nb  Nb3  1  0.011049  0.505525  0.750000  1
  Nb  Nb4  1  0.494475  0.505525  0.750000  1
  Nb  Nb5  1  0.505525  0.011049  0.250000  1
  Nb  Nb6  1  0.000000  0.000000  0.750000  1
  Nb  Nb7  1  0.000000  0.000000  0.250000  1
  Nb  Nb8  1  0.505525  0.494475  0.250000  1
  Nb  Nb9  1  0.494475  0.988951  0.750000  1
  S  S10  1  0.333333  0.666667  0.625062  1
  S  S11  1  0.666667  0.333333  0.125062  1
  S  S12  1  0.666667  0.333333  0.374938  1
  S  S13  1  0.333333  0.666667  0.874938  1
  S  S14  1  0.168058  0.336116  0.373702  1
  S  S15  1  0.831942  0.168058  0.873702  1
  S  S16  1  0.336116  0.168058  0.873702  1
  S  S17  1  0.663884  0.831942  0.373702  1
  S  S18  1  0.168058  0.831942  0.373702  1
  S  S19  1  0.831942  0.663884  0.873702  1
  S  S20  1  0.168058  0.336116  0.126298  1
  S  S21  1  0.831942  0.168058  0.626298  1
  S  S22  1  0.336116  0.168058  0.626298  1
  S  S23  1  0.663884  0.831942  0.126298  1
  S  S24  1  0.168058  0.831942  0.126298  1
  S  S25  1  0.831942  0.663884  0.626298  1
