# generated using pymatgen
data_Dy3Y9InCo4Os
_symmetry_space_group_name_H-M   'P 1'
_cell_length_a   8.33548730
_cell_length_b   8.33711493
_cell_length_c   8.33548804
_cell_angle_alpha   111.44325144
_cell_angle_beta   110.40396329
_cell_angle_gamma   106.59809564
_symmetry_Int_Tables_number   1
_chemical_formula_structural   Dy3Y9InCo4Os
_chemical_formula_sum   'Dy3 Y9 In1 Co4 Os1'
_cell_volume   445.08866309
_cell_formula_units_Z   1
loop_
 _symmetry_equiv_pos_site_id
 _symmetry_equiv_pos_as_xyz
  1  'x, y, z'
loop_
 _atom_site_type_symbol
 _atom_site_label
 _atom_site_symmetry_multiplicity
 _atom_site_fract_x
 _atom_site_fract_y
 _atom_site_fract_z
 _atom_site_occupancy
  Dy  Dy0  1  0.684777  0.377568  0.692791  1
  Dy  Dy1  1  0.315152  0.007663  0.692511  1
  Dy  Dy2  1  0.684887  0.992204  0.307316  1
  Y  Y3  1  0.413299  0.219848  0.192771  1
  Y  Y4  1  0.586950  0.779968  0.807215  1
  Y  Y5  1  0.027078  0.219848  0.806547  1
  Y  Y6  1  0.972751  0.779968  0.193018  1
  Y  Y7  1  0.181821  0.280979  0.462954  1
  Y  Y8  1  0.818319  0.718974  0.537214  1
  Y  Y9  1  0.181761  0.718974  0.900655  1
  Y  Y10  1  0.818024  0.280979  0.099158  1
  Y  Y11  1  0.314974  0.620846  0.305873  1
  In  In12  1  0.500008  0.500079  0.000070  1
  Co  Co13  1  0.378846  0.001027  0.378930  1
  Co  Co14  1  0.622096  0.001027  0.622180  1
  Co  Co15  1  0.110315  0.611016  0.500700  1
  Co  Co16  1  0.888859  0.388731  0.499872  1
  Os  Os17  1  0.000080  0.000303  0.000223  1
