# generated using pymatgen
data_LiNd8ScPd23
_symmetry_space_group_name_H-M   'P 1'
_cell_length_a   8.43864900
_cell_length_b   8.51101000
_cell_length_c   8.53953300
_cell_angle_alpha   90.00000000
_cell_angle_beta   90.00000000
_cell_angle_gamma   90.00000000
_symmetry_Int_Tables_number   1
_chemical_formula_structural   LiNd8ScPd23
_chemical_formula_sum   'Li1 Nd8 Sc1 Pd23'
_cell_volume   613.32143765
_cell_formula_units_Z   1
loop_
 _symmetry_equiv_pos_site_id
 _symmetry_equiv_pos_as_xyz
  1  'x, y, z'
loop_
 _atom_site_type_symbol
 _atom_site_label
 _atom_site_symmetry_multiplicity
 _atom_site_fract_x
 _atom_site_fract_y
 _atom_site_fract_z
 _atom_site_occupancy
  Li  Li0  1  0.277694  0.500000  0.000000  1
  Nd  Nd1  1  0.251395  0.247899  0.258137  1
  Nd  Nd2  1  0.747620  0.746927  0.749816  1
  Nd  Nd3  1  0.747620  0.746927  0.250184  1
  Nd  Nd4  1  0.747620  0.253073  0.749816  1
  Nd  Nd5  1  0.251395  0.247899  0.741863  1
  Nd  Nd6  1  0.251395  0.752101  0.258137  1
  Nd  Nd7  1  0.251395  0.752101  0.741863  1
  Nd  Nd8  1  0.747620  0.253073  0.250184  1
  Sc  Sc9  1  0.998258  0.000000  0.000000  1
  Pd  Pd10  1  0.736581  0.500000  0.000000  1
  Pd  Pd11  1  0.997108  0.264379  0.500000  1
  Pd  Pd12  1  0.492997  0.269947  0.000000  1
  Pd  Pd13  1  0.997108  0.735621  0.500000  1
  Pd  Pd14  1  0.492997  0.730053  0.000000  1
  Pd  Pd15  1  0.500256  0.000000  0.265127  1
  Pd  Pd16  1  0.264095  0.000000  0.500000  1
  Pd  Pd17  1  0.500256  0.000000  0.734873  1
  Pd  Pd18  1  0.734594  0.000000  0.500000  1
  Pd  Pd19  1  0.002012  0.500000  0.266370  1
  Pd  Pd20  1  0.002012  0.500000  0.733630  1
  Pd  Pd21  1  0.254650  0.500000  0.500000  1
  Pd  Pd22  1  0.744788  0.500000  0.500000  1
  Pd  Pd23  1  0.501572  0.255309  0.500000  1
  Pd  Pd24  1  0.501572  0.744691  0.500000  1
  Pd  Pd25  1  0.496405  0.500000  0.253800  1
  Pd  Pd26  1  0.496405  0.500000  0.746200  1
  Pd  Pd27  1  0.305891  0.000000  0.000000  1
  Pd  Pd28  1  0.688331  0.000000  0.000000  1
  Pd  Pd29  1  0.011223  0.312681  0.000000  1
  Pd  Pd30  1  0.011223  0.687319  0.000000  1
  Pd  Pd31  1  0.997958  0.000000  0.305789  1
  Pd  Pd32  1  0.997958  0.000000  0.694211  1
