# generated using pymatgen
data_Hf4AlAsH2
_symmetry_space_group_name_H-M   'P 1'
_cell_length_a   5.44046874
_cell_length_b   5.44046695
_cell_length_c   5.44046758
_cell_angle_alpha   104.93800434
_cell_angle_beta   104.93801260
_cell_angle_gamma   118.97661279
_symmetry_Int_Tables_number   1
_chemical_formula_structural   Hf4AlAsH2
_chemical_formula_sum   'Hf4 Al1 As1 H2'
_cell_volume   121.36523734
_cell_formula_units_Z   1
loop_
 _symmetry_equiv_pos_site_id
 _symmetry_equiv_pos_as_xyz
  1  'x, y, z'
loop_
 _atom_site_type_symbol
 _atom_site_label
 _atom_site_symmetry_multiplicity
 _atom_site_fract_x
 _atom_site_fract_y
 _atom_site_fract_z
 _atom_site_occupancy
  Hf  Hf0  1  0.160745  0.660745  0.821493  1
  Hf  Hf1  1  0.839255  0.339255  0.178507  1
  Hf  Hf2  1  0.339255  0.160745  0.500000  1
  Hf  Hf3  1  0.660745  0.839255  0.500000  1
  Al  Al4  1  0.250000  0.250000  0.000000  1
  As  As5  1  0.750000  0.750000  0.000000  1
  H  H6  1  0.750000  0.250000  0.500000  1
  H  H7  1  0.250000  0.750000  0.500000  1
