# generated using pymatgen
data_K3Bi(AsS2)6
_symmetry_space_group_name_H-M   'P 1'
_cell_length_a   9.48387500
_cell_length_b   9.48387553
_cell_length_c   7.96456400
_cell_angle_alpha   90.00000000
_cell_angle_beta   90.00000000
_cell_angle_gamma   120.00000164
_symmetry_Int_Tables_number   1
_chemical_formula_structural   K3Bi(AsS2)6
_chemical_formula_sum   'K3 Bi1 As6 S12'
_cell_volume   620.38929838
_cell_formula_units_Z   1
loop_
 _symmetry_equiv_pos_site_id
 _symmetry_equiv_pos_as_xyz
  1  'x, y, z'
loop_
 _atom_site_type_symbol
 _atom_site_label
 _atom_site_symmetry_multiplicity
 _atom_site_fract_x
 _atom_site_fract_y
 _atom_site_fract_z
 _atom_site_occupancy
  K  K0  1  0.000000  0.000000  0.000000  1
  K  K1  1  0.333333  0.666667  0.844231  1
  K  K2  1  0.666667  0.333333  0.155769  1
  Bi  Bi3  1  0.000000  0.000000  0.500000  1
  As  As4  1  0.295614  0.841222  0.365781  1
  As  As5  1  0.158778  0.454391  0.365781  1
  As  As6  1  0.545609  0.704386  0.365781  1
  As  As7  1  0.704386  0.158778  0.634219  1
  As  As8  1  0.841222  0.545609  0.634219  1
  As  As9  1  0.454391  0.295614  0.634219  1
  S  S10  1  0.266569  0.050227  0.286743  1
  S  S11  1  0.949773  0.216342  0.286743  1
  S  S12  1  0.783658  0.733431  0.286743  1
  S  S13  1  0.733431  0.949773  0.713257  1
  S  S14  1  0.050227  0.783658  0.713257  1
  S  S15  1  0.216342  0.266569  0.713257  1
  S  S16  1  0.525993  0.901416  0.207533  1
  S  S17  1  0.098584  0.624576  0.207533  1
  S  S18  1  0.375424  0.474007  0.207533  1
  S  S19  1  0.474007  0.098584  0.792467  1
  S  S20  1  0.901416  0.375424  0.792467  1
  S  S21  1  0.624576  0.525993  0.792467  1
