# generated using pymatgen
data_HoEr7Mg2(SiB4)4
_symmetry_space_group_name_H-M   'P 1'
_cell_length_a   7.13697700
_cell_length_b   7.13697700
_cell_length_c   7.75962900
_cell_angle_alpha   89.99955370
_cell_angle_beta   90.00044630
_cell_angle_gamma   89.99807328
_symmetry_Int_Tables_number   1
_chemical_formula_structural   HoEr7Mg2(SiB4)4
_chemical_formula_sum   'Ho1 Er7 Mg2 Si4 B16'
_cell_volume   395.24788228
_cell_formula_units_Z   1
loop_
 _symmetry_equiv_pos_site_id
 _symmetry_equiv_pos_as_xyz
  1  'x, y, z'
loop_
 _atom_site_type_symbol
 _atom_site_label
 _atom_site_symmetry_multiplicity
 _atom_site_fract_x
 _atom_site_fract_y
 _atom_site_fract_z
 _atom_site_occupancy
  Ho  Ho0  1  0.182373  0.317627  0.233065  1
  Er  Er1  1  0.682336  0.182332  0.232278  1
  Er  Er2  1  0.317668  0.817659  0.767759  1
  Er  Er3  1  0.317668  0.817664  0.232278  1
  Er  Er4  1  0.817628  0.682372  0.232269  1
  Er  Er5  1  0.817636  0.682364  0.767705  1
  Er  Er6  1  0.682341  0.182332  0.767759  1
  Er  Er7  1  0.182339  0.317661  0.767630  1
  Mg  Mg8  1  0.999943  0.999831  0.500112  1
  Mg  Mg9  1  0.500169  0.500057  0.500112  1
  Si  Si10  1  0.115396  0.615705  0.500183  1
  Si  Si11  1  0.884295  0.384604  0.500183  1
  Si  Si12  1  0.384694  0.115306  0.500244  1
  Si  Si13  1  0.615552  0.884448  0.500027  1
  B  B14  1  0.173900  0.039461  0.999894  1
  B  B15  1  0.826001  0.960378  0.999933  1
  B  B16  1  0.960290  0.173872  0.999852  1
  B  B17  1  0.326128  0.539710  0.999852  1
  B  B18  1  0.039542  0.826030  0.999926  1
  B  B19  1  0.673970  0.460458  0.999926  1
  B  B20  1  0.539622  0.673999  0.999933  1
  B  B21  1  0.460539  0.326100  0.999894  1
  B  B22  1  0.088753  0.588874  0.999829  1
  B  B23  1  0.911126  0.411247  0.999829  1
  B  B24  1  0.411240  0.088760  0.999948  1
  B  B25  1  0.588789  0.911211  0.999953  1
  B  B26  1  0.999893  0.999802  0.164801  1
  B  B27  1  0.999965  0.999992  0.835013  1
  B  B28  1  0.500008  0.500035  0.835013  1
  B  B29  1  0.500198  0.500107  0.164801  1
