# generated using pymatgen
data_K2Pb(SeO4)2
_symmetry_space_group_name_H-M   'P 1'
_cell_length_a   7.94331202
_cell_length_b   7.94331271
_cell_length_c   7.94331234
_cell_angle_alpha   43.12461672
_cell_angle_beta   43.12461134
_cell_angle_gamma   43.12461957
_symmetry_Int_Tables_number   1
_chemical_formula_structural   K2Pb(SeO4)2
_chemical_formula_sum   'K2 Pb1 Se2 O8'
_cell_volume   212.33631021
_cell_formula_units_Z   1
loop_
 _symmetry_equiv_pos_site_id
 _symmetry_equiv_pos_as_xyz
  1  'x, y, z'
loop_
 _atom_site_type_symbol
 _atom_site_label
 _atom_site_symmetry_multiplicity
 _atom_site_fract_x
 _atom_site_fract_y
 _atom_site_fract_z
 _atom_site_occupancy
  K  K0  1  0.200455  0.200455  0.200455  1
  K  K1  1  0.799545  0.799545  0.799545  1
  Pb  Pb2  1  0.000000  0.000000  0.000000  1
  Se  Se3  1  0.399715  0.399715  0.399715  1
  Se  Se4  1  0.600285  0.600285  0.600285  1
  O  O5  1  0.268728  0.740107  0.268729  1
  O  O6  1  0.740107  0.268728  0.268729  1
  O  O7  1  0.731272  0.731272  0.259893  1
  O  O8  1  0.322746  0.322746  0.322746  1
  O  O9  1  0.677254  0.677254  0.677254  1
  O  O10  1  0.268729  0.268729  0.740107  1
  O  O11  1  0.731272  0.259893  0.731272  1
  O  O12  1  0.259893  0.731272  0.731272  1
