# generated using pymatgen
data_RbGaSn3O8
_symmetry_space_group_name_H-M   'P 1'
_cell_length_a   7.60248273
_cell_length_b   7.60248229
_cell_length_c   10.58366697
_cell_angle_alpha   46.66239417
_cell_angle_beta   46.66239600
_cell_angle_gamma   24.36697882
_symmetry_Int_Tables_number   1
_chemical_formula_structural   RbGaSn3O8
_chemical_formula_sum   'Rb1 Ga1 Sn3 O8'
_cell_volume   179.71182749
_cell_formula_units_Z   1
loop_
 _symmetry_equiv_pos_site_id
 _symmetry_equiv_pos_as_xyz
  1  'x, y, z'
loop_
 _atom_site_type_symbol
 _atom_site_label
 _atom_site_symmetry_multiplicity
 _atom_site_fract_x
 _atom_site_fract_y
 _atom_site_fract_z
 _atom_site_occupancy
  Rb  Rb0  1  0.495352  0.495352  0.002071  1
  Ga  Ga1  1  0.164858  0.164858  0.185115  1
  Sn  Sn2  1  0.827076  0.827076  0.831559  1
  Sn  Sn3  1  0.651903  0.651903  0.505812  1
  Sn  Sn4  1  0.358363  0.358363  0.478120  1
  O  O5  1  0.164561  0.164561  0.371393  1
  O  O6  1  0.832577  0.832577  0.628209  1
  O  O7  1  0.457179  0.457179  0.708931  1
  O  O8  1  0.548568  0.548568  0.288121  1
  O  O9  1  0.198240  0.198240  0.957647  1
  O  O10  1  0.793098  0.793098  0.057005  1
  O  O11  1  0.849839  0.849839  0.351733  1
  O  O12  1  0.158386  0.158386  0.634286  1
