# generated using pymatgen
data_HoErTmGa5
_symmetry_space_group_name_H-M   'P 1'
_cell_length_a   6.05923600
_cell_length_b   9.57748400
_cell_length_c   11.44731300
_cell_angle_alpha   90.00000000
_cell_angle_beta   90.00000000
_cell_angle_gamma   90.00000000
_symmetry_Int_Tables_number   1
_chemical_formula_structural   HoErTmGa5
_chemical_formula_sum   'Ho4 Er4 Tm4 Ga20'
_cell_volume   664.31316778
_cell_formula_units_Z   4
loop_
 _symmetry_equiv_pos_site_id
 _symmetry_equiv_pos_as_xyz
  1  'x, y, z'
loop_
 _atom_site_type_symbol
 _atom_site_label
 _atom_site_symmetry_multiplicity
 _atom_site_fract_x
 _atom_site_fract_y
 _atom_site_fract_z
 _atom_site_occupancy
  Ho  Ho0  1  0.890601  0.509909  0.351950  1
  Ho  Ho1  1  0.609399  0.990091  0.851950  1
  Ho  Ho2  1  0.109399  0.009909  0.648050  1
  Ho  Ho3  1  0.390601  0.490091  0.148050  1
  Er  Er4  1  0.109331  0.490190  0.648269  1
  Er  Er5  1  0.390669  0.009810  0.148269  1
  Er  Er6  1  0.890669  0.990190  0.351731  1
  Er  Er7  1  0.609331  0.509810  0.851731  1
  Tm  Tm8  1  0.848570  0.749975  0.073823  1
  Tm  Tm9  1  0.651430  0.750025  0.573823  1
  Tm  Tm10  1  0.151430  0.249975  0.926177  1
  Tm  Tm11  1  0.348570  0.250025  0.426177  1
  Ga  Ga12  1  0.874962  0.052292  0.090594  1
  Ga  Ga13  1  0.625038  0.447708  0.590594  1
  Ga  Ga14  1  0.125038  0.552292  0.909406  1
  Ga  Ga15  1  0.374962  0.947708  0.409406  1
  Ga  Ga16  1  0.124906  0.947608  0.909694  1
  Ga  Ga17  1  0.375094  0.552392  0.409694  1
  Ga  Ga18  1  0.875094  0.447608  0.090306  1
  Ga  Ga19  1  0.624906  0.052392  0.590306  1
  Ga  Ga20  1  0.172263  0.750260  0.251242  1
  Ga  Ga21  1  0.327737  0.749740  0.751242  1
  Ga  Ga22  1  0.827737  0.250260  0.748758  1
  Ga  Ga23  1  0.672263  0.249740  0.248758  1
  Ga  Ga24  1  0.373524  0.750107  0.005510  1
  Ga  Ga25  1  0.126476  0.749893  0.505510  1
  Ga  Ga26  1  0.626476  0.250107  0.994490  1
  Ga  Ga27  1  0.873524  0.249893  0.494490  1
  Ga  Ga28  1  0.604466  0.750245  0.298908  1
  Ga  Ga29  1  0.895534  0.749755  0.798908  1
  Ga  Ga30  1  0.395534  0.250245  0.701092  1
  Ga  Ga31  1  0.104466  0.249755  0.201092  1
