# generated using pymatgen
data_TaTi5Si2(BMo)4
_symmetry_space_group_name_H-M   'P 1'
_cell_length_a   7.15676423
_cell_length_b   7.12075812
_cell_length_c   7.13878752
_cell_angle_alpha   129.62171050
_cell_angle_beta   129.78682676
_cell_angle_gamma   73.70940177
_symmetry_Int_Tables_number   1
_chemical_formula_structural   TaTi5Si2(BMo)4
_chemical_formula_sum   'Ta1 Ti5 Si2 B4 Mo4'
_cell_volume   210.27357608
_cell_formula_units_Z   1
loop_
 _symmetry_equiv_pos_site_id
 _symmetry_equiv_pos_as_xyz
  1  'x, y, z'
loop_
 _atom_site_type_symbol
 _atom_site_label
 _atom_site_symmetry_multiplicity
 _atom_site_fract_x
 _atom_site_fract_y
 _atom_site_fract_z
 _atom_site_occupancy
  Ta  Ta0  1  0.807000  0.966778  0.499686  1
  Ti  Ti1  1  0.306944  0.806605  0.842903  1
  Ti  Ti2  1  0.193595  0.036872  0.501158  1
  Ti  Ti3  1  0.535357  0.691927  0.500671  1
  Ti  Ti4  1  0.035081  0.532959  0.841708  1
  Ti  Ti5  1  0.695338  0.193022  0.158637  1
  Si  Si6  1  0.749891  0.746892  0.995055  1
  Si  Si7  1  0.253465  0.253029  0.004896  1
  B  B8  1  0.386259  0.888188  0.276094  1
  B  B9  1  0.888528  0.611045  0.499104  1
  B  B10  1  0.611559  0.113106  0.726164  1
  B  B11  1  0.111634  0.388578  0.499281  1
  Mo  Mo12  1  0.002284  0.000546  0.001689  1
  Mo  Mo13  1  0.961323  0.462282  0.154193  1
  Mo  Mo14  1  0.500023  0.500438  0.999386  1
  Mo  Mo15  1  0.461720  0.307733  0.499374  1
