# generated using pymatgen
data_Dy5Y3Sc11Si16W
_symmetry_space_group_name_H-M   'P 1'
_cell_length_a   7.03728509
_cell_length_b   7.39661555
_cell_length_c   14.02220300
_cell_angle_alpha   89.99835006
_cell_angle_beta   89.99071027
_cell_angle_gamma   89.91814544
_symmetry_Int_Tables_number   1
_chemical_formula_structural   Dy5Y3Sc11Si16W
_chemical_formula_sum   'Dy5 Y3 Sc11 Si16 W1'
_cell_volume   729.88425082
_cell_formula_units_Z   1
loop_
 _symmetry_equiv_pos_site_id
 _symmetry_equiv_pos_as_xyz
  1  'x, y, z'
loop_
 _atom_site_type_symbol
 _atom_site_label
 _atom_site_symmetry_multiplicity
 _atom_site_fract_x
 _atom_site_fract_y
 _atom_site_fract_z
 _atom_site_occupancy
  Dy  Dy0  1  0.991871  0.818007  0.599683  1
  Dy  Dy1  1  0.511057  0.323384  0.096121  1
  Dy  Dy2  1  0.012137  0.176886  0.405549  1
  Dy  Dy3  1  0.511036  0.323509  0.404182  1
  Dy  Dy4  1  0.486290  0.673188  0.599232  1
  Y  Y5  1  0.011608  0.176651  0.094385  1
  Y  Y6  1  0.991798  0.818276  0.900313  1
  Y  Y7  1  0.486554  0.672950  0.900938  1
  Sc  Sc8  1  0.841180  0.496998  0.250146  1
  Sc  Sc9  1  0.341271  0.003748  0.250161  1
  Sc  Sc10  1  0.657890  0.996518  0.749750  1
  Sc  Sc11  1  0.327156  0.178927  0.627688  1
  Sc  Sc12  1  0.671168  0.823896  0.374880  1
  Sc  Sc13  1  0.171757  0.675501  0.376231  1
  Sc  Sc14  1  0.671249  0.823908  0.125338  1
  Sc  Sc15  1  0.829946  0.329823  0.628033  1
  Sc  Sc16  1  0.327148  0.179010  0.872168  1
  Sc  Sc17  1  0.830119  0.329869  0.871603  1
  Sc  Sc18  1  0.171735  0.675501  0.123965  1
  Si  Si19  1  0.030797  0.123521  0.749777  1
  Si  Si20  1  0.970886  0.884983  0.250130  1
  Si  Si21  1  0.468790  0.617490  0.250044  1
  Si  Si22  1  0.521692  0.392622  0.749845  1
  Si  Si23  1  0.283381  0.861626  0.749822  1
  Si  Si24  1  0.715991  0.128342  0.250132  1
  Si  Si25  1  0.214331  0.372625  0.250211  1
  Si  Si26  1  0.794670  0.626409  0.749687  1
  Si  Si27  1  0.155956  0.466303  0.547320  1
  Si  Si28  1  0.843462  0.535004  0.462544  1
  Si  Si29  1  0.345693  0.964782  0.463086  1
  Si  Si30  1  0.843299  0.535060  0.037496  1
  Si  Si31  1  0.657368  0.034627  0.539696  1
  Si  Si32  1  0.155594  0.466026  0.952668  1
  Si  Si33  1  0.657159  0.035189  0.960312  1
  Si  Si34  1  0.346125  0.964876  0.037113  1
  W  W35  1  0.151830  0.493962  0.749757  1
