# generated using pymatgen
data_Sm2FeCo2B8Os5
_symmetry_space_group_name_H-M   'P 1'
_cell_length_a   7.40056008
_cell_length_b   7.32039198
_cell_length_c   3.96489001
_cell_angle_alpha   90.02420241
_cell_angle_beta   90.23469973
_cell_angle_gamma   91.17142655
_symmetry_Int_Tables_number   1
_chemical_formula_structural   Sm2FeCo2B8Os5
_chemical_formula_sum   'Sm2 Fe1 Co2 B8 Os5'
_cell_volume   214.75119734
_cell_formula_units_Z   1
loop_
 _symmetry_equiv_pos_site_id
 _symmetry_equiv_pos_as_xyz
  1  'x, y, z'
loop_
 _atom_site_type_symbol
 _atom_site_label
 _atom_site_symmetry_multiplicity
 _atom_site_fract_x
 _atom_site_fract_y
 _atom_site_fract_z
 _atom_site_occupancy
  Sm  Sm0  1  0.998399  0.999443  0.928004  1
  Sm  Sm1  1  0.506700  0.500553  0.400713  1
  Fe  Fe2  1  0.879705  0.625013  0.623419  1
  Co  Co3  1  0.114883  0.622715  0.121228  1
  Co  Co4  1  0.870265  0.389224  0.123459  1
  B  B5  1  0.814073  0.663413  0.121299  1
  B  B6  1  0.198404  0.334802  0.120649  1
  B  B7  1  0.837549  0.317164  0.620751  1
  B  B8  1  0.153384  0.687257  0.620433  1
  B  B9  1  0.730255  0.825990  0.403429  1
  B  B10  1  0.276305  0.166584  0.399093  1
  B  B11  1  0.674074  0.228692  0.901933  1
  B  B12  1  0.323419  0.772089  0.901324  1
  Os  Os13  1  0.396734  0.151694  0.897911  1
  Os  Os14  1  0.607173  0.841529  0.897765  1
  Os  Os15  1  0.344182  0.886605  0.398118  1
  Os  Os16  1  0.657711  0.106873  0.398064  1
  Os  Os17  1  0.116789  0.380359  0.622406  1
