# generated using pymatgen
data_Tb6Sn6IrRh5
_symmetry_space_group_name_H-M   'P 1'
_cell_length_a   7.50297000
_cell_length_b   7.50297033
_cell_length_c   7.93392000
_cell_angle_alpha   90.00000000
_cell_angle_beta   90.00000000
_cell_angle_gamma   119.99999856
_symmetry_Int_Tables_number   1
_chemical_formula_structural   Tb6Sn6IrRh5
_chemical_formula_sum   'Tb6 Sn6 Ir1 Rh5'
_cell_volume   386.79860027
_cell_formula_units_Z   1
loop_
 _symmetry_equiv_pos_site_id
 _symmetry_equiv_pos_as_xyz
  1  'x, y, z'
loop_
 _atom_site_type_symbol
 _atom_site_label
 _atom_site_symmetry_multiplicity
 _atom_site_fract_x
 _atom_site_fract_y
 _atom_site_fract_z
 _atom_site_occupancy
  Tb  Tb0  1  0.591800  0.000175  0.750998  1
  Tb  Tb1  1  0.408376  0.408200  0.750998  1
  Tb  Tb2  1  0.999825  0.591624  0.750998  1
  Tb  Tb3  1  0.593795  0.003136  0.249079  1
  Tb  Tb4  1  0.409339  0.406205  0.249079  1
  Tb  Tb5  1  0.996864  0.590661  0.249079  1
  Sn  Sn6  1  0.256575  0.998437  0.999990  1
  Sn  Sn7  1  0.741738  0.742376  0.499834  1
  Sn  Sn8  1  0.000638  0.258262  0.499834  1
  Sn  Sn9  1  0.001563  0.258139  0.999990  1
  Sn  Sn10  1  0.741861  0.743425  0.999990  1
  Sn  Sn11  1  0.257624  0.999362  0.499834  1
  Ir  Ir12  1  0.666667  0.333333  0.997990  1
  Rh  Rh13  1  0.666667  0.333333  0.502523  1
  Rh  Rh14  1  0.333333  0.666667  0.004848  1
  Rh  Rh15  1  0.333333  0.666667  0.495043  1
  Rh  Rh16  1  0.000000  0.000000  0.749812  1
  Rh  Rh17  1  0.000000  0.000000  0.250083  1
