# generated using pymatgen
data_Dy9Ho2ErPb10
_symmetry_space_group_name_H-M   'P 1'
_cell_length_a   11.74851070
_cell_length_b   11.74726285
_cell_length_c   11.75824600
_cell_angle_alpha   147.48206710
_cell_angle_beta   132.64236608
_cell_angle_gamma   58.53307204
_symmetry_Int_Tables_number   1
_chemical_formula_structural   Dy9Ho2ErPb10
_chemical_formula_sum   'Dy9 Ho2 Er1 Pb10'
_cell_volume   636.71072680
_cell_formula_units_Z   1
loop_
 _symmetry_equiv_pos_site_id
 _symmetry_equiv_pos_as_xyz
  1  'x, y, z'
loop_
 _atom_site_type_symbol
 _atom_site_label
 _atom_site_symmetry_multiplicity
 _atom_site_fract_x
 _atom_site_fract_y
 _atom_site_fract_z
 _atom_site_occupancy
  Dy  Dy0  1  0.696368  0.946484  0.250009  1
  Dy  Dy1  1  0.251453  0.639559  0.611082  1
  Dy  Dy2  1  0.675056  0.940969  0.733610  1
  Dy  Dy3  1  0.028343  0.140339  0.888766  1
  Dy  Dy4  1  0.971563  0.859343  0.111726  1
  Dy  Dy5  1  0.792583  0.559963  0.234356  1
  Dy  Dy6  1  0.207703  0.441504  0.766760  1
  Dy  Dy7  1  0.303307  0.053304  0.750011  1
  Dy  Dy8  1  0.325404  0.058170  0.265451  1
  Ho  Ho9  1  0.303954  0.553926  0.249945  1
  Ho  Ho10  1  0.747532  0.359873  0.388365  1
  Er  Er11  1  0.695901  0.445927  0.749959  1
  Pb  Pb12  1  0.477821  0.571591  0.897555  1
  Pb  Pb13  1  0.598023  0.789506  0.799386  1
  Pb  Pb14  1  0.673948  0.080271  0.602387  1
  Pb  Pb15  1  0.000114  0.749758  0.749711  1
  Pb  Pb16  1  0.989849  0.298666  0.700163  1
  Pb  Pb17  1  0.523375  0.424250  0.098680  1
  Pb  Pb18  1  0.007893  0.703106  0.299378  1
  Pb  Pb19  1  0.403704  0.208530  0.200602  1
  Pb  Pb20  1  0.326256  0.924732  0.401869  1
  Pb  Pb21  1  0.999852  0.250227  0.250233  1
