# generated using pymatgen
data_PuSc(BO3)2
_symmetry_space_group_name_H-M   'P 1'
_cell_length_a   6.23938727
_cell_length_b   6.23938619
_cell_length_c   6.23938771
_cell_angle_alpha   46.74235356
_cell_angle_beta   46.74234981
_cell_angle_gamma   46.74234483
_symmetry_Int_Tables_number   1
_chemical_formula_structural   PuSc(BO3)2
_chemical_formula_sum   'Pu1 Sc1 B2 O6'
_cell_volume   117.69968808
_cell_formula_units_Z   1
loop_
 _symmetry_equiv_pos_site_id
 _symmetry_equiv_pos_as_xyz
  1  'x, y, z'
loop_
 _atom_site_type_symbol
 _atom_site_label
 _atom_site_symmetry_multiplicity
 _atom_site_fract_x
 _atom_site_fract_y
 _atom_site_fract_z
 _atom_site_occupancy
  Pu  Pu0  1  0.500000  0.500000  0.500000  1
  Sc  Sc1  1  0.000000  0.000000  0.000000  1
  B  B2  1  0.742223  0.742223  0.742223  1
  B  B3  1  0.257777  0.257777  0.257777  1
  O  O4  1  0.009309  0.450551  0.771706  1
  O  O5  1  0.450551  0.771706  0.009309  1
  O  O6  1  0.771706  0.009309  0.450551  1
  O  O7  1  0.549449  0.228294  0.990691  1
  O  O8  1  0.228294  0.990691  0.549449  1
  O  O9  1  0.990691  0.549449  0.228294  1
