# generated using pymatgen
data_K2Cd(BrF)2
_symmetry_space_group_name_H-M   'P 1'
_cell_length_a   7.03033299
_cell_length_b   7.03033339
_cell_length_c   7.73174724
_cell_angle_alpha   120.62297311
_cell_angle_beta   120.62297613
_cell_angle_gamma   34.45986093
_symmetry_Int_Tables_number   1
_chemical_formula_structural   K2Cd(BrF)2
_chemical_formula_sum   'K2 Cd1 Br2 F2'
_cell_volume   182.91128372
_cell_formula_units_Z   1
loop_
 _symmetry_equiv_pos_site_id
 _symmetry_equiv_pos_as_xyz
  1  'x, y, z'
loop_
 _atom_site_type_symbol
 _atom_site_label
 _atom_site_symmetry_multiplicity
 _atom_site_fract_x
 _atom_site_fract_y
 _atom_site_fract_z
 _atom_site_occupancy
  K  K0  1  0.810674  0.810674  0.258519  1
  K  K1  1  0.189326  0.189326  0.741481  1
  Cd  Cd2  1  0.000000  0.000000  0.000000  1
  Br  Br3  1  0.556055  0.556055  0.298499  1
  Br  Br4  1  0.443944  0.443944  0.701501  1
  F  F5  1  0.182131  0.182131  0.077383  1
  F  F6  1  0.817869  0.817869  0.922617  1
