# generated using pymatgen
data_Zr6Al16CuPd5Ru
_symmetry_space_group_name_H-M   'P 1'
_cell_length_a   8.75950915
_cell_length_b   8.78329209
_cell_length_c   8.75950877
_cell_angle_alpha   59.91014475
_cell_angle_beta   59.93740167
_cell_angle_gamma   59.91014205
_symmetry_Int_Tables_number   1
_chemical_formula_structural   Zr6Al16CuPd5Ru
_chemical_formula_sum   'Zr6 Al16 Cu1 Pd5 Ru1'
_cell_volume   475.66953991
_cell_formula_units_Z   1
loop_
 _symmetry_equiv_pos_site_id
 _symmetry_equiv_pos_as_xyz
  1  'x, y, z'
loop_
 _atom_site_type_symbol
 _atom_site_label
 _atom_site_symmetry_multiplicity
 _atom_site_fract_x
 _atom_site_fract_y
 _atom_site_fract_z
 _atom_site_occupancy
  Zr  Zr0  1  0.190845  0.811357  0.809155  1
  Zr  Zr1  1  0.809155  0.188643  0.190845  1
  Zr  Zr2  1  0.810956  0.189044  0.810956  1
  Zr  Zr3  1  0.809155  0.811357  0.190845  1
  Zr  Zr4  1  0.189044  0.810956  0.189044  1
  Zr  Zr5  1  0.190845  0.188643  0.809155  1
  Al  Al6  1  0.834734  0.834129  0.834734  1
  Al  Al7  1  0.830684  0.834896  0.499522  1
  Al  Al8  1  0.499522  0.834896  0.830684  1
  Al  Al9  1  0.834734  0.496400  0.834734  1
  Al  Al10  1  0.165266  0.165871  0.165266  1
  Al  Al11  1  0.169316  0.165104  0.500478  1
  Al  Al12  1  0.165266  0.503600  0.165266  1
  Al  Al13  1  0.500478  0.165104  0.169316  1
  Al  Al14  1  0.618227  0.616923  0.618227  1
  Al  Al15  1  0.618118  0.618524  0.144836  1
  Al  Al16  1  0.144836  0.618524  0.618118  1
  Al  Al17  1  0.618227  0.146625  0.618227  1
  Al  Al18  1  0.381773  0.383077  0.381773  1
  Al  Al19  1  0.381882  0.381476  0.855164  1
  Al  Al20  1  0.381773  0.853375  0.381773  1
  Al  Al21  1  0.855164  0.381476  0.381882  1
  Cu  Cu22  1  0.500000  0.000000  0.500000  1
  Pd  Pd23  1  0.000000  0.500000  0.500000  1
  Pd  Pd24  1  0.500000  0.000000  0.000000  1
  Pd  Pd25  1  0.500000  0.500000  0.000000  1
  Pd  Pd26  1  0.000000  0.500000  0.000000  1
  Pd  Pd27  1  0.000000  0.000000  0.500000  1
  Ru  Ru28  1  0.500000  0.500000  0.500000  1
