# generated using pymatgen
data_Nd17Sm3Si15Os
_symmetry_space_group_name_H-M   'P 1'
_cell_length_a   7.67093057
_cell_length_b   7.99941748
_cell_length_c   15.15610400
_cell_angle_alpha   90.00000000
_cell_angle_beta   90.00000000
_cell_angle_gamma   89.83349897
_symmetry_Int_Tables_number   1
_chemical_formula_structural   Nd17Sm3Si15Os
_chemical_formula_sum   'Nd17 Sm3 Si15 Os1'
_cell_volume   930.01971999
_cell_formula_units_Z   1
loop_
 _symmetry_equiv_pos_site_id
 _symmetry_equiv_pos_as_xyz
  1  'x, y, z'
loop_
 _atom_site_type_symbol
 _atom_site_label
 _atom_site_symmetry_multiplicity
 _atom_site_fract_x
 _atom_site_fract_y
 _atom_site_fract_z
 _atom_site_occupancy
  Nd  Nd0  1  0.811259  0.320767  0.621408  1
  Nd  Nd1  1  0.461826  0.689108  0.900002  1
  Nd  Nd2  1  0.963099  0.812898  0.901529  1
  Nd  Nd3  1  0.198359  0.676656  0.126795  1
  Nd  Nd4  1  0.681681  0.814272  0.123874  1
  Nd  Nd5  1  0.311279  0.181634  0.877340  1
  Nd  Nd6  1  0.198359  0.676656  0.373205  1
  Nd  Nd7  1  0.036033  0.185585  0.098900  1
  Nd  Nd8  1  0.311279  0.181634  0.622660  1
  Nd  Nd9  1  0.530906  0.321889  0.400872  1
  Nd  Nd10  1  0.811259  0.320767  0.878592  1
  Nd  Nd11  1  0.963099  0.812898  0.598471  1
  Nd  Nd12  1  0.461826  0.689108  0.599998  1
  Nd  Nd13  1  0.036033  0.185585  0.401100  1
  Nd  Nd14  1  0.681681  0.814272  0.376126  1
  Nd  Nd15  1  0.638237  0.986834  0.750000  1
  Nd  Nd16  1  0.530906  0.321889  0.099128  1
  Sm  Sm17  1  0.139299  0.517516  0.750000  1
  Sm  Sm18  1  0.844999  0.485844  0.250000  1
  Sm  Sm19  1  0.364454  0.016572  0.250000  1
  Si  Si20  1  0.247479  0.369381  0.250000  1
  Si  Si21  1  0.868501  0.525472  0.458941  1
  Si  Si22  1  0.517315  0.402983  0.750000  1
  Si  Si23  1  0.635968  0.026869  0.959924  1
  Si  Si24  1  0.015941  0.099258  0.750000  1
  Si  Si25  1  0.752894  0.620731  0.750000  1
  Si  Si26  1  0.754373  0.119729  0.250000  1
  Si  Si27  1  0.359900  0.976122  0.459418  1
  Si  Si28  1  0.985359  0.901793  0.250000  1
  Si  Si29  1  0.359900  0.976122  0.040582  1
  Si  Si30  1  0.635968  0.026869  0.540076  1
  Si  Si31  1  0.141224  0.473969  0.960901  1
  Si  Si32  1  0.141224  0.473969  0.539099  1
  Si  Si33  1  0.868501  0.525472  0.041059  1
  Si  Si34  1  0.249378  0.877715  0.750000  1
  Os  Os35  1  0.490199  0.591159  0.250000  1
