# generated using pymatgen
data_Eu(RuC)2
_symmetry_space_group_name_H-M   'P 1'
_cell_length_a   6.74196367
_cell_length_b   5.86196732
_cell_length_c   5.52350928
_cell_angle_alpha   72.55114152
_cell_angle_beta   56.04391562
_cell_angle_gamma   51.40493626
_symmetry_Int_Tables_number   1
_chemical_formula_structural   Eu(RuC)2
_chemical_formula_sum   'Eu2 Ru4 C4'
_cell_volume   141.12074102
_cell_formula_units_Z   2
loop_
 _symmetry_equiv_pos_site_id
 _symmetry_equiv_pos_as_xyz
  1  'x, y, z'
loop_
 _atom_site_type_symbol
 _atom_site_label
 _atom_site_symmetry_multiplicity
 _atom_site_fract_x
 _atom_site_fract_y
 _atom_site_fract_z
 _atom_site_occupancy
  Eu  Eu0  1  0.000000  0.000000  0.000000  1
  Eu  Eu1  1  0.250000  0.249999  0.249999  1
  Ru  Ru2  1  0.634925  0.634927  0.365074  1
  Ru  Ru3  1  0.884926  0.884925  0.615074  1
  Ru  Ru4  1  0.365073  0.365074  0.634926  1
  Ru  Ru5  1  0.615075  0.615074  0.884926  1
  C  C6  1  0.319909  0.680092  0.319909  1
  C  C7  1  0.569909  0.930091  0.569908  1
  C  C8  1  0.680092  0.319909  0.680091  1
  C  C9  1  0.930092  0.569908  0.930091  1
