# generated using pymatgen
data_Ho(VCo)6
_symmetry_space_group_name_H-M   'P 1'
_cell_length_a   6.37057253
_cell_length_b   6.37057261
_cell_length_c   6.37057216
_cell_angle_alpha   135.29882796
_cell_angle_beta   100.62697704
_cell_angle_gamma   96.01568765
_symmetry_Int_Tables_number   1
_chemical_formula_structural   Ho(VCo)6
_chemical_formula_sum   'Ho1 V6 Co6'
_cell_volume   168.01784614
_cell_formula_units_Z   1
loop_
 _symmetry_equiv_pos_site_id
 _symmetry_equiv_pos_as_xyz
  1  'x, y, z'
loop_
 _atom_site_type_symbol
 _atom_site_label
 _atom_site_symmetry_multiplicity
 _atom_site_fract_x
 _atom_site_fract_y
 _atom_site_fract_z
 _atom_site_occupancy
  Ho  Ho0  1  0.000000  0.000000  0.000000  1
  V  V1  1  0.358580  0.358580  0.000000  1
  V  V2  1  0.641420  0.641420  0.000000  1
  V  V3  1  0.641212  0.000000  0.641212  1
  V  V4  1  0.358788  0.000000  0.358788  1
  V  V5  1  0.790363  0.290363  0.500000  1
  V  V6  1  0.209637  0.709637  0.500000  1
  Co  Co7  1  0.500000  0.000000  0.000000  1
  Co  Co8  1  0.500000  0.500000  0.500000  1
  Co  Co9  1  0.000000  0.000000  0.500000  1
  Co  Co10  1  0.000000  0.500000  0.000000  1
  Co  Co11  1  0.227372  0.500000  0.727372  1
  Co  Co12  1  0.772628  0.500000  0.272628  1
