# generated using pymatgen
data_TmTh(Tc2Ge)4
_symmetry_space_group_name_H-M   'P 1'
_cell_length_a   7.30409480
_cell_length_b   7.73384119
_cell_length_c   4.19021400
_cell_angle_alpha   90.00000000
_cell_angle_beta   90.00000000
_cell_angle_gamma   89.18734918
_symmetry_Int_Tables_number   1
_chemical_formula_structural   TmTh(Tc2Ge)4
_chemical_formula_sum   'Tm1 Th1 Tc8 Ge4'
_cell_volume   236.67597218
_cell_formula_units_Z   1
loop_
 _symmetry_equiv_pos_site_id
 _symmetry_equiv_pos_as_xyz
  1  'x, y, z'
loop_
 _atom_site_type_symbol
 _atom_site_label
 _atom_site_symmetry_multiplicity
 _atom_site_fract_x
 _atom_site_fract_y
 _atom_site_fract_z
 _atom_site_occupancy
  Tm  Tm0  1  0.000000  0.000000  0.500000  1
  Th  Th1  1  0.500000  0.500000  0.000000  1
  Tc  Tc2  1  0.851412  0.394236  0.500000  1
  Tc  Tc3  1  0.148588  0.605764  0.500000  1
  Tc  Tc4  1  0.646988  0.898731  0.000000  1
  Tc  Tc5  1  0.353012  0.101269  0.000000  1
  Tc  Tc6  1  0.583993  0.153316  0.500000  1
  Tc  Tc7  1  0.416007  0.846684  0.500000  1
  Tc  Tc8  1  0.922072  0.652922  0.000000  1
  Tc  Tc9  1  0.077928  0.347078  0.000000  1
  Ge  Ge10  1  0.271871  0.295127  0.500000  1
  Ge  Ge11  1  0.728129  0.704873  0.500000  1
  Ge  Ge12  1  0.212540  0.811132  0.000000  1
  Ge  Ge13  1  0.787460  0.188868  0.000000  1
