# generated using pymatgen
data_HfZr15(CoIr)4
_symmetry_space_group_name_H-M   'P 1'
_cell_length_a   8.67304003
_cell_length_b   8.66712941
_cell_length_c   8.66712900
_cell_angle_alpha   59.61712183
_cell_angle_beta   59.97744103
_cell_angle_gamma   59.97744154
_symmetry_Int_Tables_number   1
_chemical_formula_structural   HfZr15(CoIr)4
_chemical_formula_sum   'Hf1 Zr15 Co4 Ir4'
_cell_volume   459.18440207
_cell_formula_units_Z   1
loop_
 _symmetry_equiv_pos_site_id
 _symmetry_equiv_pos_as_xyz
  1  'x, y, z'
loop_
 _atom_site_type_symbol
 _atom_site_label
 _atom_site_symmetry_multiplicity
 _atom_site_fract_x
 _atom_site_fract_y
 _atom_site_fract_z
 _atom_site_occupancy
  Hf  Hf0  1  0.437094  0.062906  0.062906  1
  Zr  Zr1  1  0.064146  0.645375  0.645375  1
  Zr  Zr2  1  0.645798  0.062593  0.645811  1
  Zr  Zr3  1  0.645798  0.645811  0.062593  1
  Zr  Zr4  1  0.645104  0.645375  0.645375  1
  Zr  Zr5  1  0.803297  0.805214  0.195394  1
  Zr  Zr6  1  0.196095  0.195394  0.805214  1
  Zr  Zr7  1  0.803297  0.195394  0.805214  1
  Zr  Zr8  1  0.196095  0.805214  0.195394  1
  Zr  Zr9  1  0.194873  0.805127  0.805127  1
  Zr  Zr10  1  0.803292  0.196708  0.196708  1
  Zr  Zr11  1  0.435678  0.435629  0.064173  1
  Zr  Zr12  1  0.064519  0.064173  0.435629  1
  Zr  Zr13  1  0.435678  0.064173  0.435629  1
  Zr  Zr14  1  0.064519  0.435629  0.064173  1
  Zr  Zr15  1  0.062613  0.437387  0.437387  1
  Co  Co16  1  0.426929  0.857203  0.857203  1
  Co  Co17  1  0.857839  0.426675  0.857648  1
  Co  Co18  1  0.857839  0.857648  0.426675  1
  Co  Co19  1  0.858665  0.857203  0.857203  1
  Ir  Ir20  1  0.749751  0.417081  0.417081  1
  Ir  Ir21  1  0.417496  0.751548  0.413458  1
  Ir  Ir22  1  0.417496  0.413458  0.751548  1
  Ir  Ir23  1  0.416086  0.417081  0.417081  1
