# generated using pymatgen
data_SmDy9(In2Pt)4
_symmetry_space_group_name_H-M   'P 1'
_cell_length_a   3.64397500
_cell_length_b   8.17088604
_cell_length_c   18.36684582
_cell_angle_alpha   89.89924542
_cell_angle_beta   90.00000000
_cell_angle_gamma   90.00000000
_symmetry_Int_Tables_number   1
_chemical_formula_structural   SmDy9(In2Pt)4
_chemical_formula_sum   'Sm1 Dy9 In8 Pt4'
_cell_volume   546.86288753
_cell_formula_units_Z   1
loop_
 _symmetry_equiv_pos_site_id
 _symmetry_equiv_pos_as_xyz
  1  'x, y, z'
loop_
 _atom_site_type_symbol
 _atom_site_label
 _atom_site_symmetry_multiplicity
 _atom_site_fract_x
 _atom_site_fract_y
 _atom_site_fract_z
 _atom_site_occupancy
  Sm  Sm0  1  0.000000  0.000000  0.000000  1
  Dy  Dy1  1  0.000000  0.116302  0.414403  1
  Dy  Dy2  1  0.000000  0.883698  0.585597  1
  Dy  Dy3  1  0.000000  0.383090  0.913900  1
  Dy  Dy4  1  0.000000  0.616910  0.086100  1
  Dy  Dy5  1  0.000000  0.243542  0.220940  1
  Dy  Dy6  1  0.000000  0.756458  0.779060  1
  Dy  Dy7  1  0.000000  0.256074  0.720484  1
  Dy  Dy8  1  0.000000  0.743926  0.279516  1
  Dy  Dy9  1  0.000000  0.500000  0.500000  1
  In  In10  1  0.500000  0.426635  0.351845  1
  In  In11  1  0.500000  0.573365  0.648155  1
  In  In12  1  0.500000  0.073606  0.850500  1
  In  In13  1  0.500000  0.926394  0.149500  1
  In  In14  1  0.500000  0.294616  0.068654  1
  In  In15  1  0.500000  0.705384  0.931346  1
  In  In16  1  0.500000  0.208162  0.567885  1
  In  In17  1  0.500000  0.791838  0.432115  1
  Pt  Pt18  1  0.500000  0.025156  0.303178  1
  Pt  Pt19  1  0.500000  0.974844  0.696822  1
  Pt  Pt20  1  0.500000  0.475363  0.802584  1
  Pt  Pt21  1  0.500000  0.524637  0.197416  1
