# generated using pymatgen
data_Ho3Lu13MgZn3Ni4
_symmetry_space_group_name_H-M   'P 1'
_cell_length_a   9.27237693
_cell_length_b   9.25902817
_cell_length_c   9.25902700
_cell_angle_alpha   60.00000062
_cell_angle_beta   60.04761166
_cell_angle_gamma   60.04760950
_symmetry_Int_Tables_number   1
_chemical_formula_structural   Ho3Lu13MgZn3Ni4
_chemical_formula_sum   'Ho3 Lu13 Mg1 Zn3 Ni4'
_cell_volume   562.49542756
_cell_formula_units_Z   1
loop_
 _symmetry_equiv_pos_site_id
 _symmetry_equiv_pos_as_xyz
  1  'x, y, z'
loop_
 _atom_site_type_symbol
 _atom_site_label
 _atom_site_symmetry_multiplicity
 _atom_site_fract_x
 _atom_site_fract_y
 _atom_site_fract_z
 _atom_site_occupancy
  Ho  Ho0  1  0.603911  0.599873  0.599873  1
  Ho  Ho1  1  0.603911  0.599873  0.196343  1
  Ho  Ho2  1  0.603911  0.196343  0.599873  1
  Lu  Lu3  1  0.181916  0.606028  0.606028  1
  Lu  Lu4  1  0.058923  0.441086  0.441086  1
  Lu  Lu5  1  0.437168  0.062686  0.062686  1
  Lu  Lu6  1  0.437168  0.062686  0.437459  1
  Lu  Lu7  1  0.058923  0.441086  0.058906  1
  Lu  Lu8  1  0.437168  0.437459  0.062686  1
  Lu  Lu9  1  0.058923  0.058906  0.441086  1
  Lu  Lu10  1  0.181297  0.814601  0.814601  1
  Lu  Lu11  1  0.813650  0.185230  0.185230  1
  Lu  Lu12  1  0.813650  0.185230  0.815890  1
  Lu  Lu13  1  0.181297  0.814601  0.189503  1
  Lu  Lu14  1  0.813650  0.815890  0.185230  1
  Lu  Lu15  1  0.181297  0.189503  0.814601  1
  Mg  Mg16  1  0.534668  0.821777  0.821777  1
  Zn  Zn17  1  0.836780  0.831603  0.831603  1
  Zn  Zn18  1  0.836780  0.831603  0.500013  1
  Zn  Zn19  1  0.836780  0.500013  0.831603  1
  Ni  Ni20  1  0.387708  0.395808  0.395808  1
  Ni  Ni21  1  0.387708  0.395808  0.820676  1
  Ni  Ni22  1  0.387708  0.820676  0.395808  1
  Ni  Ni23  1  0.825107  0.391631  0.391631  1
