# generated using pymatgen
data_Dy4Al18HgIr5
_symmetry_space_group_name_H-M   'P 1'
_cell_length_a   7.61956111
_cell_length_b   7.61956521
_cell_length_c   9.48463739
_cell_angle_alpha   89.93561994
_cell_angle_beta   89.93557427
_cell_angle_gamma   119.48645149
_symmetry_Int_Tables_number   1
_chemical_formula_structural   Dy4Al18HgIr5
_chemical_formula_sum   'Dy4 Al18 Hg1 Ir5'
_cell_volume   479.33005453
_cell_formula_units_Z   1
loop_
 _symmetry_equiv_pos_site_id
 _symmetry_equiv_pos_as_xyz
  1  'x, y, z'
loop_
 _atom_site_type_symbol
 _atom_site_label
 _atom_site_symmetry_multiplicity
 _atom_site_fract_x
 _atom_site_fract_y
 _atom_site_fract_z
 _atom_site_occupancy
  Dy  Dy0  1  0.995712  0.675594  0.751472  1
  Dy  Dy1  1  0.004288  0.324406  0.248528  1
  Dy  Dy2  1  0.675594  0.995713  0.751472  1
  Dy  Dy3  1  0.324406  0.004287  0.248528  1
  Al  Al4  1  0.140338  0.140338  0.761891  1
  Al  Al5  1  0.859662  0.859662  0.238109  1
  Al  Al6  1  0.001861  0.350774  0.581376  1
  Al  Al7  1  0.998139  0.649226  0.418624  1
  Al  Al8  1  0.000994  0.663663  0.071826  1
  Al  Al9  1  0.336337  0.999006  0.928174  1
  Al  Al10  1  0.999006  0.336337  0.928174  1
  Al  Al11  1  0.663663  0.000994  0.071826  1
  Al  Al12  1  0.649226  0.998140  0.418624  1
  Al  Al13  1  0.350774  0.001860  0.581376  1
  Al  Al14  1  0.333157  0.333157  0.051834  1
  Al  Al15  1  0.666843  0.666843  0.948166  1
  Al  Al16  1  0.652156  0.652155  0.563249  1
  Al  Al17  1  0.347844  0.347845  0.436751  1
  Al  Al18  1  0.338370  0.551430  0.752370  1
  Al  Al19  1  0.661630  0.448570  0.247630  1
  Al  Al20  1  0.551430  0.338370  0.752370  1
  Al  Al21  1  0.448570  0.661630  0.247630  1
  Hg  Hg22  1  0.000000  0.000000  0.500000  1
  Ir  Ir23  1  0.671481  0.328519  0.500000  1
  Ir  Ir24  1  0.328519  0.671481  0.500000  1
  Ir  Ir25  1  0.328474  0.671525  0.000000  1
  Ir  Ir26  1  0.671526  0.328475  0.000000  1
  Ir  Ir27  1  0.000000  0.000000  0.000000  1
