# generated using pymatgen
data_Yb6TmPa(Si3Pd)4
_symmetry_space_group_name_H-M   'P 1'
_cell_length_a   8.24345200
_cell_length_b   8.24344940
_cell_length_c   8.07734500
_cell_angle_alpha   90.00000000
_cell_angle_beta   90.00000000
_cell_angle_gamma   119.99999438
_symmetry_Int_Tables_number   1
_chemical_formula_structural   Yb6TmPa(Si3Pd)4
_chemical_formula_sum   'Yb6 Tm1 Pa1 Si12 Pd4'
_cell_volume   475.35424782
_cell_formula_units_Z   1
loop_
 _symmetry_equiv_pos_site_id
 _symmetry_equiv_pos_as_xyz
  1  'x, y, z'
loop_
 _atom_site_type_symbol
 _atom_site_label
 _atom_site_symmetry_multiplicity
 _atom_site_fract_x
 _atom_site_fract_y
 _atom_site_fract_z
 _atom_site_occupancy
  Yb  Yb0  1  0.501482  0.002965  0.250000  1
  Yb  Yb1  1  0.498495  0.996990  0.750000  1
  Yb  Yb2  1  0.997035  0.498518  0.250000  1
  Yb  Yb3  1  0.003010  0.501505  0.750000  1
  Yb  Yb4  1  0.501482  0.498518  0.250000  1
  Yb  Yb5  1  0.498495  0.501505  0.750000  1
  Tm  Tm6  1  0.000000  0.000000  0.250000  1
  Pa  Pa7  1  0.000000  0.000000  0.750000  1
  Si  Si8  1  0.163638  0.327277  0.000622  1
  Si  Si9  1  0.836414  0.672828  0.998114  1
  Si  Si10  1  0.672723  0.836362  0.000622  1
  Si  Si11  1  0.836414  0.672828  0.501886  1
  Si  Si12  1  0.327172  0.163586  0.998114  1
  Si  Si13  1  0.163638  0.327277  0.499378  1
  Si  Si14  1  0.163638  0.836362  0.000622  1
  Si  Si15  1  0.327172  0.163586  0.501886  1
  Si  Si16  1  0.836414  0.163586  0.998114  1
  Si  Si17  1  0.672723  0.836362  0.499378  1
  Si  Si18  1  0.836414  0.163586  0.501886  1
  Si  Si19  1  0.163638  0.836362  0.499378  1
  Pd  Pd20  1  0.333333  0.666667  0.004442  1
  Pd  Pd21  1  0.666667  0.333333  0.997880  1
  Pd  Pd22  1  0.666667  0.333333  0.502120  1
  Pd  Pd23  1  0.333333  0.666667  0.495558  1
