# generated using pymatgen
data_Dy4Si4HgRh2
_symmetry_space_group_name_H-M   'P 1'
_cell_length_a   8.06032368
_cell_length_b   8.06035608
_cell_length_c   6.96146200
_cell_angle_alpha   73.34640096
_cell_angle_beta   106.65348985
_cell_angle_gamma   149.55057395
_symmetry_Int_Tables_number   1
_chemical_formula_structural   Dy4Si4HgRh2
_chemical_formula_sum   'Dy4 Si4 Hg1 Rh2'
_cell_volume   218.86239194
_cell_formula_units_Z   1
loop_
 _symmetry_equiv_pos_site_id
 _symmetry_equiv_pos_as_xyz
  1  'x, y, z'
loop_
 _atom_site_type_symbol
 _atom_site_label
 _atom_site_symmetry_multiplicity
 _atom_site_fract_x
 _atom_site_fract_y
 _atom_site_fract_z
 _atom_site_occupancy
  Dy  Dy0  1  0.416332  0.583663  0.620553  1
  Dy  Dy1  1  0.583649  0.416347  0.379504  1
  Dy  Dy2  1  0.346652  0.653352  0.068007  1
  Dy  Dy3  1  0.653322  0.346666  0.931990  1
  Si  Si4  1  0.064053  0.935943  0.648795  1
  Si  Si5  1  0.935936  0.064061  0.351218  1
  Si  Si6  1  0.205737  0.794271  0.265419  1
  Si  Si7  1  0.794232  0.205725  0.734609  1
  Hg  Hg8  1  0.999990  0.000004  0.999978  1
  Rh  Rh9  1  0.219861  0.780188  0.626898  1
  Rh  Rh10  1  0.780226  0.219767  0.373038  1
