# generated using pymatgen
data_Na12Ga8AgPt3
_symmetry_space_group_name_H-M   'P 1'
_cell_length_a   9.03044371
_cell_length_b   9.16579402
_cell_length_c   9.03044300
_cell_angle_alpha   60.48728619
_cell_angle_beta   59.99999161
_cell_angle_gamma   60.48729101
_symmetry_Int_Tables_number   1
_chemical_formula_structural   Na12Ga8AgPt3
_chemical_formula_sum   'Na12 Ga8 Ag1 Pt3'
_cell_volume   532.39379901
_cell_formula_units_Z   1
loop_
 _symmetry_equiv_pos_site_id
 _symmetry_equiv_pos_as_xyz
  1  'x, y, z'
loop_
 _atom_site_type_symbol
 _atom_site_label
 _atom_site_symmetry_multiplicity
 _atom_site_fract_x
 _atom_site_fract_y
 _atom_site_fract_z
 _atom_site_occupancy
  Na  Na0  1  0.047294  0.452389  0.047294  1
  Na  Na1  1  0.797827  0.204254  0.200092  1
  Na  Na2  1  0.202706  0.797611  0.796977  1
  Na  Na3  1  0.797827  0.204254  0.797827  1
  Na  Na4  1  0.200092  0.204254  0.797827  1
  Na  Na5  1  0.796977  0.797611  0.202706  1
  Na  Na6  1  0.049908  0.045746  0.452173  1
  Na  Na7  1  0.452173  0.045746  0.049908  1
  Na  Na8  1  0.047294  0.452389  0.453023  1
  Na  Na9  1  0.453023  0.452389  0.047294  1
  Na  Na10  1  0.202706  0.797611  0.202706  1
  Na  Na11  1  0.452173  0.045746  0.452173  1
  Ga  Ga12  1  0.831982  0.818475  0.831982  1
  Ga  Ga13  1  0.732441  0.431525  0.418018  1
  Ga  Ga14  1  0.422724  0.731829  0.422724  1
  Ga  Ga15  1  0.418018  0.431525  0.732441  1
  Ga  Ga16  1  0.827276  0.518171  0.827276  1
  Ga  Ga17  1  0.831982  0.818475  0.517559  1
  Ga  Ga18  1  0.517559  0.818475  0.831982  1
  Ga  Ga19  1  0.418018  0.431525  0.418018  1
  Ag  Ag20  1  0.625000  0.125000  0.625000  1
  Pt  Pt21  1  0.625000  0.625000  0.625000  1
  Pt  Pt22  1  0.125000  0.625000  0.625000  1
  Pt  Pt23  1  0.625000  0.625000  0.125000  1
