# generated using pymatgen
data_LaTbDy(ZnPt)4
_symmetry_space_group_name_H-M   'P 1'
_cell_length_a   8.29473825
_cell_length_b   8.29473815
_cell_length_c   8.29473832
_cell_angle_alpha   151.69680141
_cell_angle_beta   125.80450832
_cell_angle_gamma   62.25920080
_symmetry_Int_Tables_number   1
_chemical_formula_structural   LaTbDy(ZnPt)4
_chemical_formula_sum   'La1 Tb1 Dy1 Zn4 Pt4'
_cell_volume   217.61952583
_cell_formula_units_Z   1
loop_
 _symmetry_equiv_pos_site_id
 _symmetry_equiv_pos_as_xyz
  1  'x, y, z'
loop_
 _atom_site_type_symbol
 _atom_site_label
 _atom_site_symmetry_multiplicity
 _atom_site_fract_x
 _atom_site_fract_y
 _atom_site_fract_z
 _atom_site_occupancy
  La  La0  1  0.499970  0.999970  0.500000  1
  Tb  Tb1  1  0.874180  0.874180  0.000000  1
  Dy  Dy2  1  0.126030  0.126030  0.000000  1
  Zn  Zn3  1  0.477498  0.674541  0.802956  1
  Zn  Zn4  1  0.871585  0.674541  0.197044  1
  Zn  Zn5  1  0.128898  0.325394  0.803504  1
  Zn  Zn6  1  0.521889  0.325394  0.196496  1
  Pt  Pt7  1  0.276022  0.776022  0.500000  1
  Pt  Pt8  1  0.723318  0.223318  0.500000  1
  Pt  Pt9  1  0.810045  0.500305  0.309741  1
  Pt  Pt10  1  0.190564  0.500305  0.690259  1
