# generated using pymatgen
data_RbNiPtO4
_symmetry_space_group_name_H-M   'P 1'
_cell_length_a   6.13952501
_cell_length_b   7.86115666
_cell_length_c   6.13952600
_cell_angle_alpha   124.30845660
_cell_angle_beta   120.25138357
_cell_angle_gamma   79.85650228
_symmetry_Int_Tables_number   1
_chemical_formula_structural   RbNiPtO4
_chemical_formula_sum   'Rb2 Ni2 Pt2 O8'
_cell_volume   209.00205630
_cell_formula_units_Z   2
loop_
 _symmetry_equiv_pos_site_id
 _symmetry_equiv_pos_as_xyz
  1  'x, y, z'
loop_
 _atom_site_type_symbol
 _atom_site_label
 _atom_site_symmetry_multiplicity
 _atom_site_fract_x
 _atom_site_fract_y
 _atom_site_fract_z
 _atom_site_occupancy
  Rb  Rb0  1  0.580714  0.961897  0.881184  1
  Rb  Rb1  1  0.925669  0.965623  0.539954  1
  Ni  Ni2  1  0.496717  0.456626  0.459909  1
  Ni  Ni3  1  0.001730  0.471205  0.969476  1
  Pt  Pt4  1  0.000839  0.464621  0.466463  1
  Pt  Pt5  1  0.498158  0.464621  0.963782  1
  O  O6  1  0.807522  0.314633  0.507884  1
  O  O7  1  0.306749  0.314633  0.007110  1
  O  O8  1  0.293799  0.296622  0.502823  1
  O  O9  1  0.204074  0.631414  0.927341  1
  O  O10  1  0.798581  0.300863  0.002281  1
  O  O11  1  0.689321  0.613834  0.919378  1
  O  O12  1  0.701672  0.629574  0.427903  1
  O  O13  1  0.194458  0.613834  0.424513  1
