# generated using pymatgen
data_Li2ErTmSi3
_symmetry_space_group_name_H-M   'P 1'
_cell_length_a   9.18297102
_cell_length_b   9.18297140
_cell_length_c   6.65316100
_cell_angle_alpha   90.00000000
_cell_angle_beta   90.00000000
_cell_angle_gamma   153.49376223
_symmetry_Int_Tables_number   1
_chemical_formula_structural   Li2ErTmSi3
_chemical_formula_sum   'Li4 Er2 Tm2 Si6'
_cell_volume   250.38985856
_cell_formula_units_Z   2
loop_
 _symmetry_equiv_pos_site_id
 _symmetry_equiv_pos_as_xyz
  1  'x, y, z'
loop_
 _atom_site_type_symbol
 _atom_site_label
 _atom_site_symmetry_multiplicity
 _atom_site_fract_x
 _atom_site_fract_y
 _atom_site_fract_z
 _atom_site_occupancy
  Li  Li0  1  0.190695  0.809305  0.059953  1
  Li  Li1  1  0.190695  0.809305  0.440047  1
  Li  Li2  1  0.809305  0.190695  0.940047  1
  Li  Li3  1  0.809305  0.190695  0.559953  1
  Er  Er4  1  0.553074  0.446926  0.250000  1
  Er  Er5  1  0.446926  0.553074  0.750000  1
  Tm  Tm6  1  0.345395  0.654605  0.250000  1
  Tm  Tm7  1  0.654605  0.345395  0.750000  1
  Si  Si8  1  0.721426  0.278574  0.250000  1
  Si  Si9  1  0.278574  0.721426  0.750000  1
  Si  Si10  1  0.059888  0.940112  0.928145  1
  Si  Si11  1  0.940112  0.059888  0.071855  1
  Si  Si12  1  0.940112  0.059888  0.428145  1
  Si  Si13  1  0.059888  0.940112  0.571855  1
