# generated using pymatgen
data_Ta4GaCo4P3
_symmetry_space_group_name_H-M   'P 1'
_cell_length_a   3.61523400
_cell_length_b   6.17537550
_cell_length_c   7.04305131
_cell_angle_alpha   89.84681373
_cell_angle_beta   90.00000000
_cell_angle_gamma   90.00000000
_symmetry_Int_Tables_number   1
_chemical_formula_structural   Ta4GaCo4P3
_chemical_formula_sum   'Ta4 Ga1 Co4 P3'
_cell_volume   157.23856928
_cell_formula_units_Z   1
loop_
 _symmetry_equiv_pos_site_id
 _symmetry_equiv_pos_as_xyz
  1  'x, y, z'
loop_
 _atom_site_type_symbol
 _atom_site_label
 _atom_site_symmetry_multiplicity
 _atom_site_fract_x
 _atom_site_fract_y
 _atom_site_fract_z
 _atom_site_occupancy
  Ta  Ta0  1  0.250000  0.021461  0.822267  1
  Ta  Ta1  1  0.250000  0.525044  0.673566  1
  Ta  Ta2  1  0.750000  0.967225  0.176331  1
  Ta  Ta3  1  0.750000  0.480034  0.331183  1
  Ga  Ga4  1  0.250000  0.273853  0.124171  1
  Co  Co5  1  0.250000  0.136230  0.451362  1
  Co  Co6  1  0.250000  0.654686  0.058914  1
  Co  Co7  1  0.750000  0.855655  0.565544  1
  Co  Co8  1  0.750000  0.361226  0.919513  1
  P  P9  1  0.250000  0.775337  0.378116  1
  P  P10  1  0.750000  0.722621  0.879817  1
  P  P11  1  0.750000  0.226629  0.619218  1
