# generated using pymatgen
data_CaY3(SiPd2)4
_symmetry_space_group_name_H-M   'P 1'
_cell_length_a   5.56521203
_cell_length_b   7.00143600
_cell_length_c   7.35936104
_cell_angle_alpha   90.00000000
_cell_angle_beta   90.01231766
_cell_angle_gamma   90.00000000
_symmetry_Int_Tables_number   1
_chemical_formula_structural   CaY3(SiPd2)4
_chemical_formula_sum   'Ca1 Y3 Si4 Pd8'
_cell_volume   286.75363913
_cell_formula_units_Z   1
loop_
 _symmetry_equiv_pos_site_id
 _symmetry_equiv_pos_as_xyz
  1  'x, y, z'
loop_
 _atom_site_type_symbol
 _atom_site_label
 _atom_site_symmetry_multiplicity
 _atom_site_fract_x
 _atom_site_fract_y
 _atom_site_fract_z
 _atom_site_occupancy
  Ca  Ca0  1  0.137583  0.250000  0.972659  1
  Y  Y1  1  0.359546  0.250000  0.471841  1
  Y  Y2  1  0.639870  0.750000  0.527195  1
  Y  Y3  1  0.861098  0.750000  0.028286  1
  Si  Si4  1  0.361564  0.750000  0.877810  1
  Si  Si5  1  0.638830  0.250000  0.122214  1
  Si  Si6  1  0.858506  0.250000  0.621889  1
  Si  Si7  1  0.139894  0.750000  0.377405  1
  Pd  Pd8  1  0.096035  0.553746  0.674455  1
  Pd  Pd9  1  0.096035  0.946254  0.674455  1
  Pd  Pd10  1  0.407746  0.552859  0.178306  1
  Pd  Pd11  1  0.900786  0.448008  0.323747  1
  Pd  Pd12  1  0.596987  0.448649  0.823842  1
  Pd  Pd13  1  0.900786  0.051992  0.323747  1
  Pd  Pd14  1  0.407746  0.947141  0.178306  1
  Pd  Pd15  1  0.596987  0.051351  0.823842  1
