# generated using pymatgen
data_TbDyTh2(Ga3Ir)6
_symmetry_space_group_name_H-M   'P 1'
_cell_length_a   7.66096000
_cell_length_b   7.66996048
_cell_length_c   9.50335400
_cell_angle_alpha   90.00000000
_cell_angle_beta   90.00000000
_cell_angle_gamma   119.80835374
_symmetry_Int_Tables_number   1
_chemical_formula_structural   TbDyTh2(Ga3Ir)6
_chemical_formula_sum   'Tb1 Dy1 Th2 Ga18 Ir6'
_cell_volume   484.52848581
_cell_formula_units_Z   1
loop_
 _symmetry_equiv_pos_site_id
 _symmetry_equiv_pos_as_xyz
  1  'x, y, z'
loop_
 _atom_site_type_symbol
 _atom_site_label
 _atom_site_symmetry_multiplicity
 _atom_site_fract_x
 _atom_site_fract_y
 _atom_site_fract_z
 _atom_site_occupancy
  Tb  Tb0  1  0.331183  0.003982  0.750000  1
  Dy  Dy1  1  0.668880  0.996051  0.250000  1
  Th  Th2  1  0.996612  0.668828  0.250000  1
  Th  Th3  1  0.003403  0.331192  0.750000  1
  Ga  Ga4  1  0.129873  0.129969  0.250000  1
  Ga  Ga5  1  0.870060  0.870016  0.750000  1
  Ga  Ga6  1  0.998943  0.328971  0.082237  1
  Ga  Ga7  1  0.000813  0.670803  0.917820  1
  Ga  Ga8  1  0.000813  0.670803  0.582180  1
  Ga  Ga9  1  0.340016  0.003217  0.422391  1
  Ga  Ga10  1  0.998943  0.328971  0.417763  1
  Ga  Ga11  1  0.660208  0.996796  0.577429  1
  Ga  Ga12  1  0.660208  0.996796  0.922571  1
  Ga  Ga13  1  0.340016  0.003217  0.077609  1
  Ga  Ga14  1  0.336335  0.331657  0.563652  1
  Ga  Ga15  1  0.663683  0.668528  0.436278  1
  Ga  Ga16  1  0.663683  0.668528  0.063722  1
  Ga  Ga17  1  0.336335  0.331657  0.936348  1
  Ga  Ga18  1  0.342384  0.546569  0.250000  1
  Ga  Ga19  1  0.657649  0.453514  0.750000  1
  Ga  Ga20  1  0.542340  0.335761  0.250000  1
  Ga  Ga21  1  0.457647  0.664204  0.750000  1
  Ir  Ir22  1  0.675301  0.331784  0.000258  1
  Ir  Ir23  1  0.324706  0.668214  0.999843  1
  Ir  Ir24  1  0.324706  0.668214  0.500157  1
  Ir  Ir25  1  0.675301  0.331784  0.499742  1
  Ir  Ir26  1  0.999979  0.999986  0.000059  1
  Ir  Ir27  1  0.999979  0.999986  0.499941  1
