# generated using pymatgen
data_Ca5SmSbWO12
_symmetry_space_group_name_H-M   'P 1'
_cell_length_a   6.64623429
_cell_length_b   6.63310259
_cell_length_c   6.66643795
_cell_angle_alpha   91.71201339
_cell_angle_beta   91.67900263
_cell_angle_gamma   91.74545578
_symmetry_Int_Tables_number   1
_chemical_formula_structural   Ca5SmSbWO12
_chemical_formula_sum   'Ca5 Sm1 Sb1 W1 O12'
_cell_volume   293.48919222
_cell_formula_units_Z   1
loop_
 _symmetry_equiv_pos_site_id
 _symmetry_equiv_pos_as_xyz
  1  'x, y, z'
loop_
 _atom_site_type_symbol
 _atom_site_label
 _atom_site_symmetry_multiplicity
 _atom_site_fract_x
 _atom_site_fract_y
 _atom_site_fract_z
 _atom_site_occupancy
  Ca  Ca0  1  0.749857  0.937380  0.435369  1
  Ca  Ca1  1  0.556991  0.247480  0.065476  1
  Ca  Ca2  1  0.440701  0.750866  0.936263  1
  Ca  Ca3  1  0.253173  0.058896  0.561123  1
  Ca  Ca4  1  0.064590  0.566805  0.251075  1
  Sm  Sm5  1  0.934389  0.435009  0.749270  1
  Sb  Sb6  1  0.000137  0.000164  0.002480  1
  W  W7  1  0.498197  0.500795  0.496835  1
  O  O8  1  0.930419  0.293975  0.066500  1
  O  O9  1  0.932386  0.074997  0.711418  1
  O  O10  1  0.783899  0.577074  0.458182  1
  O  O11  1  0.712221  0.931991  0.066943  1
  O  O12  1  0.581648  0.453724  0.781445  1
  O  O13  1  0.545804  0.219423  0.424310  1
  O  O14  1  0.455137  0.779515  0.577975  1
  O  O15  1  0.423001  0.546229  0.219975  1
  O  O16  1  0.286535  0.066873  0.931519  1
  O  O17  1  0.216041  0.422155  0.547063  1
  O  O18  1  0.068698  0.930750  0.288612  1
  O  O19  1  0.066175  0.705899  0.928169  1
