# generated using pymatgen
data_Ce2Al20Tc3Os
_symmetry_space_group_name_H-M   'P 1'
_cell_length_a   6.90221455
_cell_length_b   6.91311194
_cell_length_c   9.19401989
_cell_angle_alpha   89.94858157
_cell_angle_beta   89.93194085
_cell_angle_gamma   97.13743783
_symmetry_Int_Tables_number   1
_chemical_formula_structural   Ce2Al20Tc3Os
_chemical_formula_sum   'Ce2 Al20 Tc3 Os1'
_cell_volume   435.29979684
_cell_formula_units_Z   1
loop_
 _symmetry_equiv_pos_site_id
 _symmetry_equiv_pos_as_xyz
  1  'x, y, z'
loop_
 _atom_site_type_symbol
 _atom_site_label
 _atom_site_symmetry_multiplicity
 _atom_site_fract_x
 _atom_site_fract_y
 _atom_site_fract_z
 _atom_site_occupancy
  Ce  Ce0  1  0.875140  0.127871  0.750624  1
  Ce  Ce1  1  0.124860  0.872129  0.249376  1
  Al  Al2  1  0.521928  0.784235  0.750412  1
  Al  Al3  1  0.782205  0.521271  0.250498  1
  Al  Al4  1  0.478072  0.215765  0.249588  1
  Al  Al5  1  0.217795  0.478729  0.749502  1
  Al  Al6  1  0.622866  0.376586  0.956140  1
  Al  Al7  1  0.377134  0.623414  0.043860  1
  Al  Al8  1  0.623307  0.377119  0.543401  1
  Al  Al9  1  0.376693  0.622881  0.456599  1
  Al  Al10  1  0.409558  0.140549  0.750234  1
  Al  Al11  1  0.141442  0.410080  0.250136  1
  Al  Al12  1  0.590442  0.859451  0.249766  1
  Al  Al13  1  0.858558  0.589920  0.749864  1
  Al  Al14  1  0.843552  0.156764  0.399807  1
  Al  Al15  1  0.156448  0.843236  0.600193  1
  Al  Al16  1  0.842115  0.157285  0.100647  1
  Al  Al17  1  0.157885  0.842715  0.899353  1
  Al  Al18  1  0.772690  0.772877  0.999519  1
  Al  Al19  1  0.774206  0.773937  0.499610  1
  Al  Al20  1  0.227310  0.227123  0.000481  1
  Al  Al21  1  0.225794  0.226063  0.500390  1
  Tc  Tc22  1  0.500000  0.000000  0.000000  1
  Tc  Tc23  1  0.000000  0.500000  0.000000  1
  Tc  Tc24  1  0.000000  0.500000  0.500000  1
  Os  Os25  1  0.500000  0.000000  0.500000  1
