# generated using pymatgen
data_Tb2Dy3SnPb3
_symmetry_space_group_name_H-M   'P 1'
_cell_length_a   8.16244500
_cell_length_b   8.24693300
_cell_length_c   15.60586500
_cell_angle_alpha   90.00000000
_cell_angle_beta   90.00000000
_cell_angle_gamma   90.00000000
_symmetry_Int_Tables_number   1
_chemical_formula_structural   Tb2Dy3SnPb3
_chemical_formula_sum   'Tb8 Dy12 Sn4 Pb12'
_cell_volume   1050.51094097
_cell_formula_units_Z   4
loop_
 _symmetry_equiv_pos_site_id
 _symmetry_equiv_pos_as_xyz
  1  'x, y, z'
loop_
 _atom_site_type_symbol
 _atom_site_label
 _atom_site_symmetry_multiplicity
 _atom_site_fract_x
 _atom_site_fract_y
 _atom_site_fract_z
 _atom_site_occupancy
  Tb  Tb0  1  0.533680  0.324903  0.899394  1
  Tb  Tb1  1  0.033680  0.175097  0.600606  1
  Tb  Tb2  1  0.466320  0.675097  0.399394  1
  Tb  Tb3  1  0.966320  0.824903  0.100606  1
  Tb  Tb4  1  0.466320  0.675097  0.100606  1
  Tb  Tb5  1  0.966320  0.824903  0.399394  1
  Tb  Tb6  1  0.533680  0.324903  0.600606  1
  Tb  Tb7  1  0.033680  0.175097  0.899394  1
  Dy  Dy8  1  0.376420  0.839012  0.877563  1
  Dy  Dy9  1  0.876420  0.660988  0.622437  1
  Dy  Dy10  1  0.623580  0.160988  0.377563  1
  Dy  Dy11  1  0.123580  0.339012  0.122437  1
  Dy  Dy12  1  0.623580  0.160988  0.122437  1
  Dy  Dy13  1  0.123580  0.339012  0.377563  1
  Dy  Dy14  1  0.376420  0.839012  0.622437  1
  Dy  Dy15  1  0.876420  0.660988  0.877563  1
  Dy  Dy16  1  0.209646  0.507017  0.750000  1
  Dy  Dy17  1  0.709646  0.992983  0.750000  1
  Dy  Dy18  1  0.790354  0.492983  0.250000  1
  Dy  Dy19  1  0.290354  0.007017  0.250000  1
  Sn  Sn20  1  0.572873  0.625137  0.750000  1
  Sn  Sn21  1  0.072873  0.874863  0.750000  1
  Sn  Sn22  1  0.427127  0.374863  0.250000  1
  Sn  Sn23  1  0.927127  0.125137  0.250000  1
  Pb  Pb24  1  0.283631  0.034006  0.042227  1
  Pb  Pb25  1  0.783631  0.465994  0.457773  1
  Pb  Pb26  1  0.716369  0.965994  0.542227  1
  Pb  Pb27  1  0.216369  0.534006  0.957773  1
  Pb  Pb28  1  0.716369  0.965994  0.957773  1
  Pb  Pb29  1  0.216369  0.534006  0.542227  1
  Pb  Pb30  1  0.283631  0.034006  0.457773  1
  Pb  Pb31  1  0.783631  0.465994  0.042227  1
  Pb  Pb32  1  0.343154  0.150985  0.750000  1
  Pb  Pb33  1  0.843154  0.349015  0.750000  1
  Pb  Pb34  1  0.656846  0.849015  0.250000  1
  Pb  Pb35  1  0.156846  0.650985  0.250000  1
