# generated using pymatgen
data_Tm6Nb4Ga12Os7
_symmetry_space_group_name_H-M   'P 1'
_cell_length_a   8.99891029
_cell_length_b   8.99890993
_cell_length_c   8.99891000
_cell_angle_alpha   59.99999973
_cell_angle_beta   60.00000106
_cell_angle_gamma   59.99999725
_symmetry_Int_Tables_number   1
_chemical_formula_structural   Tm6Nb4Ga12Os7
_chemical_formula_sum   'Tm6 Nb4 Ga12 Os7'
_cell_volume   515.29357953
_cell_formula_units_Z   1
loop_
 _symmetry_equiv_pos_site_id
 _symmetry_equiv_pos_as_xyz
  1  'x, y, z'
loop_
 _atom_site_type_symbol
 _atom_site_label
 _atom_site_symmetry_multiplicity
 _atom_site_fract_x
 _atom_site_fract_y
 _atom_site_fract_z
 _atom_site_occupancy
  Tm  Tm0  1  0.709722  0.709722  0.290278  1
  Tm  Tm1  1  0.290278  0.709722  0.290278  1
  Tm  Tm2  1  0.709722  0.290278  0.290278  1
  Tm  Tm3  1  0.290278  0.290278  0.709722  1
  Tm  Tm4  1  0.709722  0.290278  0.709722  1
  Tm  Tm5  1  0.290278  0.709722  0.709722  1
  Nb  Nb6  1  0.878254  0.878254  0.365238  1
  Nb  Nb7  1  0.878254  0.365238  0.878254  1
  Nb  Nb8  1  0.365238  0.878254  0.878254  1
  Nb  Nb9  1  0.878254  0.878254  0.878254  1
  Ga  Ga10  1  0.119708  0.119708  0.640875  1
  Ga  Ga11  1  0.119708  0.640875  0.119708  1
  Ga  Ga12  1  0.640875  0.119708  0.119708  1
  Ga  Ga13  1  0.119708  0.119708  0.119708  1
  Ga  Ga14  1  0.661835  0.661835  0.014493  1
  Ga  Ga15  1  0.661835  0.014493  0.661835  1
  Ga  Ga16  1  0.014493  0.661835  0.661835  1
  Ga  Ga17  1  0.661835  0.661835  0.661835  1
  Ga  Ga18  1  0.336024  0.336024  0.991930  1
  Ga  Ga19  1  0.336024  0.991930  0.336024  1
  Ga  Ga20  1  0.991930  0.336024  0.336024  1
  Ga  Ga21  1  0.336024  0.336024  0.336024  1
  Os  Os22  1  0.000000  0.000000  0.000000  1
  Os  Os23  1  0.996543  0.996543  0.503457  1
  Os  Os24  1  0.503457  0.996543  0.503457  1
  Os  Os25  1  0.996543  0.503457  0.503457  1
  Os  Os26  1  0.503457  0.503457  0.996543  1
  Os  Os27  1  0.996543  0.503457  0.996543  1
  Os  Os28  1  0.503457  0.996543  0.996543  1
