# generated using pymatgen
data_LaSiGePtAu
_symmetry_space_group_name_H-M   'P 1'
_cell_length_a   4.39305100
_cell_length_b   4.39305100
_cell_length_c   10.28517800
_cell_angle_alpha   90.00000000
_cell_angle_beta   90.00000000
_cell_angle_gamma   90.00000000
_symmetry_Int_Tables_number   1
_chemical_formula_structural   LaSiGePtAu
_chemical_formula_sum   'La2 Si2 Ge2 Pt2 Au2'
_cell_volume   198.49259176
_cell_formula_units_Z   2
loop_
 _symmetry_equiv_pos_site_id
 _symmetry_equiv_pos_as_xyz
  1  'x, y, z'
loop_
 _atom_site_type_symbol
 _atom_site_label
 _atom_site_symmetry_multiplicity
 _atom_site_fract_x
 _atom_site_fract_y
 _atom_site_fract_z
 _atom_site_occupancy
  La  La0  1  0.000000  0.500000  0.259254  1
  La  La1  1  0.500000  0.000000  0.740746  1
  Si  Si2  1  0.000000  0.000000  0.500000  1
  Si  Si3  1  0.500000  0.500000  0.500000  1
  Ge  Ge4  1  0.000000  0.500000  0.851510  1
  Ge  Ge5  1  0.500000  0.000000  0.148490  1
  Pt  Pt6  1  0.000000  0.500000  0.607476  1
  Pt  Pt7  1  0.500000  0.000000  0.392524  1
  Au  Au8  1  0.000000  0.000000  0.000000  1
  Au  Au9  1  0.500000  0.500000  0.000000  1
