# generated using pymatgen
data_CaMnCl6
_symmetry_space_group_name_H-M   'P 1'
_cell_length_a   6.64389018
_cell_length_b   6.64367119
_cell_length_c   6.50499674
_cell_angle_alpha   90.01486052
_cell_angle_beta   90.01068808
_cell_angle_gamma   119.98953241
_symmetry_Int_Tables_number   1
_chemical_formula_structural   CaMnCl6
_chemical_formula_sum   'Ca1 Mn1 Cl6'
_cell_volume   248.68755102
_cell_formula_units_Z   1
loop_
 _symmetry_equiv_pos_site_id
 _symmetry_equiv_pos_as_xyz
  1  'x, y, z'
loop_
 _atom_site_type_symbol
 _atom_site_label
 _atom_site_symmetry_multiplicity
 _atom_site_fract_x
 _atom_site_fract_y
 _atom_site_fract_z
 _atom_site_occupancy
  Ca  Ca0  1  0.666601  0.333396  0.000015  1
  Mn  Mn1  1  0.333424  0.666576  0.999968  1
  Cl  Cl2  1  0.610470  0.662393  0.207921  1
  Cl  Cl3  1  0.051819  0.389467  0.207748  1
  Cl  Cl4  1  0.337426  0.947868  0.207680  1
  Cl  Cl5  1  0.610558  0.948202  0.792249  1
  Cl  Cl6  1  0.052116  0.662577  0.792329  1
  Cl  Cl7  1  0.337587  0.389524  0.792087  1
