# generated using pymatgen
data_Dy4Be2Co11NiB6
_symmetry_space_group_name_H-M   'P 1'
_cell_length_a   5.02393005
_cell_length_b   5.02393010
_cell_length_c   12.38412100
_cell_angle_alpha   90.00000000
_cell_angle_beta   90.00000000
_cell_angle_gamma   119.87375034
_symmetry_Int_Tables_number   1
_chemical_formula_structural   Dy4Be2Co11NiB6
_chemical_formula_sum   'Dy4 Be2 Co11 Ni1 B6'
_cell_volume   271.04043454
_cell_formula_units_Z   1
loop_
 _symmetry_equiv_pos_site_id
 _symmetry_equiv_pos_as_xyz
  1  'x, y, z'
loop_
 _atom_site_type_symbol
 _atom_site_label
 _atom_site_symmetry_multiplicity
 _atom_site_fract_x
 _atom_site_fract_y
 _atom_site_fract_z
 _atom_site_occupancy
  Dy  Dy0  1  0.000000  0.000000  0.255579  1
  Dy  Dy1  1  0.000000  0.000000  0.499656  1
  Dy  Dy2  1  0.000000  0.000000  0.001603  1
  Dy  Dy3  1  0.000000  0.000000  0.744479  1
  Be  Be4  1  0.330860  0.669140  0.000616  1
  Be  Be5  1  0.669140  0.330860  0.000616  1
  Co  Co6  1  0.500000  0.000000  0.619786  1
  Co  Co7  1  0.500000  0.000000  0.855264  1
  Co  Co8  1  0.500000  0.500000  0.380227  1
  Co  Co9  1  0.000000  0.500000  0.619786  1
  Co  Co10  1  0.000000  0.500000  0.143710  1
  Co  Co11  1  0.000000  0.500000  0.855264  1
  Co  Co12  1  0.500000  0.500000  0.144263  1
  Co  Co13  1  0.500000  0.000000  0.380511  1
  Co  Co14  1  0.500000  0.000000  0.143710  1
  Co  Co15  1  0.500000  0.500000  0.619360  1
  Co  Co16  1  0.000000  0.500000  0.380511  1
  Ni  Ni17  1  0.500000  0.500000  0.857657  1
  B  B18  1  0.669167  0.330833  0.739841  1
  B  B19  1  0.330833  0.669167  0.739841  1
  B  B20  1  0.332606  0.667394  0.259500  1
  B  B21  1  0.666988  0.333012  0.499360  1
  B  B22  1  0.667394  0.332606  0.259500  1
  B  B23  1  0.333012  0.666988  0.499360  1
