# generated using pymatgen
data_Sc5Co14P12Ru5
_symmetry_space_group_name_H-M   'P 1'
_cell_length_a   11.95674423
_cell_length_b   11.93020955
_cell_length_c   3.66234100
_cell_angle_alpha   90.00000000
_cell_angle_beta   90.00000000
_cell_angle_gamma   120.06490627
_symmetry_Int_Tables_number   1
_chemical_formula_structural   Sc5Co14P12Ru5
_chemical_formula_sum   'Sc5 Co14 P12 Ru5'
_cell_volume   452.13279028
_cell_formula_units_Z   1
loop_
 _symmetry_equiv_pos_site_id
 _symmetry_equiv_pos_as_xyz
  1  'x, y, z'
loop_
 _atom_site_type_symbol
 _atom_site_label
 _atom_site_symmetry_multiplicity
 _atom_site_fract_x
 _atom_site_fract_y
 _atom_site_fract_z
 _atom_site_occupancy
  Sc  Sc0  1  0.661113  0.333710  0.000000  1
  Sc  Sc1  1  0.333356  0.667556  0.000000  1
  Sc  Sc2  1  0.181525  0.180128  0.500000  1
  Sc  Sc3  1  0.821047  0.000071  0.500000  1
  Sc  Sc4  1  0.000448  0.822075  0.500000  1
  Co  Co5  1  0.829097  0.195916  0.000000  1
  Co  Co6  1  0.802959  0.631521  0.000000  1
  Co  Co7  1  0.371314  0.177388  0.000000  1
  Co  Co8  1  0.192796  0.821252  0.000000  1
  Co  Co9  1  0.625848  0.804103  0.000000  1
  Co  Co10  1  0.180806  0.372207  0.000000  1
  Co  Co11  1  0.478785  0.354699  0.500000  1
  Co  Co12  1  0.133469  0.646857  0.500000  1
  Co  Co13  1  0.513881  0.867054  0.500000  1
  Co  Co14  1  0.354126  0.483353  0.500000  1
  Co  Co15  1  0.717025  0.719563  0.500000  1
  Co  Co16  1  0.279714  0.998275  0.500000  1
  Co  Co17  1  0.004205  0.282410  0.500000  1
  Co  Co18  1  0.999882  0.999178  0.000000  1
  P  P19  1  0.357986  0.357636  0.000000  1
  P  P20  1  0.639856  0.995860  0.000000  1
  P  P21  1  0.003430  0.644276  0.000000  1
  P  P22  1  0.839396  0.316154  0.500000  1
  P  P23  1  0.678468  0.518661  0.500000  1
  P  P24  1  0.477025  0.167827  0.500000  1
  P  P25  1  0.314811  0.833546  0.500000  1
  P  P26  1  0.516925  0.683906  0.500000  1
  P  P27  1  0.169308  0.482353  0.500000  1
  P  P28  1  0.823029  0.825423  0.000000  1
  P  P29  1  0.175760  0.999985  0.000000  1
  P  P30  1  0.003278  0.175947  0.000000  1
  Ru  Ru31  1  0.549593  0.551380  0.000000  1
  Ru  Ru32  1  0.441550  0.989896  0.000000  1
  Ru  Ru33  1  0.010085  0.451651  0.000000  1
  Ru  Ru34  1  0.645158  0.127451  0.500000  1
  Ru  Ru35  1  0.872946  0.520731  0.500000  1
