# generated using pymatgen
data_Tm2Fe6P6Ir3Ru
_symmetry_space_group_name_H-M   'P 1'
_cell_length_a   3.78567300
_cell_length_b   10.24597800
_cell_length_c   12.14063700
_cell_angle_alpha   90.00000000
_cell_angle_beta   90.00000000
_cell_angle_gamma   90.00000000
_symmetry_Int_Tables_number   1
_chemical_formula_structural   Tm2Fe6P6Ir3Ru
_chemical_formula_sum   'Tm4 Fe12 P12 Ir6 Ru2'
_cell_volume   470.91008430
_cell_formula_units_Z   2
loop_
 _symmetry_equiv_pos_site_id
 _symmetry_equiv_pos_as_xyz
  1  'x, y, z'
loop_
 _atom_site_type_symbol
 _atom_site_label
 _atom_site_symmetry_multiplicity
 _atom_site_fract_x
 _atom_site_fract_y
 _atom_site_fract_z
 _atom_site_occupancy
  Tm  Tm0  1  0.250000  0.582290  0.713101  1
  Tm  Tm1  1  0.250000  0.917710  0.213101  1
  Tm  Tm2  1  0.750000  0.420082  0.288112  1
  Tm  Tm3  1  0.750000  0.079918  0.788112  1
  Fe  Fe4  1  0.250000  0.223298  0.170526  1
  Fe  Fe5  1  0.250000  0.276702  0.670526  1
  Fe  Fe6  1  0.750000  0.776748  0.827571  1
  Fe  Fe7  1  0.750000  0.723252  0.327571  1
  Fe  Fe8  1  0.250000  0.878117  0.696531  1
  Fe  Fe9  1  0.250000  0.621883  0.196531  1
  Fe  Fe10  1  0.750000  0.120900  0.304069  1
  Fe  Fe11  1  0.750000  0.379100  0.804069  1
  Fe  Fe12  1  0.250000  0.457283  0.937112  1
  Fe  Fe13  1  0.250000  0.042717  0.437112  1
  Fe  Fe14  1  0.750000  0.538014  0.064149  1
  Fe  Fe15  1  0.750000  0.961986  0.564149  1
  P  P16  1  0.250000  0.428844  0.114768  1
  P  P17  1  0.250000  0.071156  0.614768  1
  P  P18  1  0.750000  0.574495  0.887957  1
  P  P19  1  0.750000  0.925505  0.387957  1
  P  P20  1  0.250000  0.272500  0.851318  1
  P  P21  1  0.250000  0.227500  0.351318  1
  P  P22  1  0.750000  0.726476  0.144816  1
  P  P23  1  0.750000  0.773524  0.644816  1
  P  P24  1  0.250000  0.606763  0.377065  1
  P  P25  1  0.250000  0.893237  0.877065  1
  P  P26  1  0.750000  0.397295  0.624471  1
  P  P27  1  0.750000  0.102705  0.124471  1
  Ir  Ir28  1  0.750000  0.290978  0.015737  1
  Ir  Ir29  1  0.750000  0.209022  0.515737  1
  Ir  Ir30  1  0.250000  0.405315  0.475144  1
  Ir  Ir31  1  0.250000  0.094685  0.975144  1
  Ir  Ir32  1  0.750000  0.594493  0.523237  1
  Ir  Ir33  1  0.750000  0.905507  0.023237  1
  Ru  Ru34  1  0.250000  0.706064  0.984315  1
  Ru  Ru35  1  0.250000  0.793936  0.484315  1
