# generated using pymatgen
data_Yb2Mg2As(PN2)6
_symmetry_space_group_name_H-M   'P 1'
_cell_length_a   7.42872345
_cell_length_b   7.42473893
_cell_length_c   7.42872460
_cell_angle_alpha   109.87127678
_cell_angle_beta   108.69608470
_cell_angle_gamma   109.87128917
_symmetry_Int_Tables_number   1
_chemical_formula_structural   Yb2Mg2As(PN2)6
_chemical_formula_sum   'Yb2 Mg2 As1 P6 N12'
_cell_volume   315.28855901
_cell_formula_units_Z   1
loop_
 _symmetry_equiv_pos_site_id
 _symmetry_equiv_pos_as_xyz
  1  'x, y, z'
loop_
 _atom_site_type_symbol
 _atom_site_label
 _atom_site_symmetry_multiplicity
 _atom_site_fract_x
 _atom_site_fract_y
 _atom_site_fract_z
 _atom_site_occupancy
  Yb  Yb0  1  0.012918  0.660386  0.012918  1
  Yb  Yb1  1  0.352533  0.339614  0.352533  1
  Mg  Mg2  1  0.618128  0.000000  0.001188  1
  Mg  Mg3  1  0.001188  0.000000  0.618128  1
  As  As4  1  0.948443  0.000000  0.948443  1
  P  P5  1  0.255168  0.751631  0.508401  1
  P  P6  1  0.756771  0.248369  0.503537  1
  P  P7  1  0.752570  0.500000  0.252570  1
  P  P8  1  0.252570  0.500000  0.752570  1
  P  P9  1  0.508401  0.751631  0.255168  1
  P  P10  1  0.503537  0.248369  0.756771  1
  N  N11  1  0.701844  0.283535  0.287461  1
  N  N12  1  0.301701  0.712232  0.301701  1
  N  N13  1  0.292426  0.580829  0.584335  1
  N  N14  1  0.584335  0.580829  0.292426  1
  N  N15  1  0.418308  0.716465  0.003925  1
  N  N16  1  0.003925  0.716465  0.418308  1
  N  N17  1  0.589468  0.287768  0.589468  1
  N  N18  1  0.725339  0.000000  0.417864  1
  N  N19  1  0.417864  0.000000  0.725339  1
  N  N20  1  0.711596  0.419171  0.003506  1
  N  N21  1  0.287461  0.283535  0.701844  1
  N  N22  1  0.003506  0.419171  0.711596  1
