# generated using pymatgen
data_Yb4Ru
_symmetry_space_group_name_H-M   'P 1'
_cell_length_a   7.47169077
_cell_length_b   7.47169169
_cell_length_c   7.47169062
_cell_angle_alpha   106.93830268
_cell_angle_beta   106.93830619
_cell_angle_gamma   114.66527847
_symmetry_Int_Tables_number   1
_chemical_formula_structural   Yb4Ru
_chemical_formula_sum   'Yb8 Ru2'
_cell_volume   319.09861161
_cell_formula_units_Z   2
loop_
 _symmetry_equiv_pos_site_id
 _symmetry_equiv_pos_as_xyz
  1  'x, y, z'
loop_
 _atom_site_type_symbol
 _atom_site_label
 _atom_site_symmetry_multiplicity
 _atom_site_fract_x
 _atom_site_fract_y
 _atom_site_fract_z
 _atom_site_occupancy
  Yb  Yb0  1  0.817264  0.015405  0.198141  1
  Yb  Yb1  1  0.432736  0.130876  0.698141  1
  Yb  Yb2  1  0.869124  0.567264  0.301859  1
  Yb  Yb3  1  0.817264  0.619124  0.801859  1
  Yb  Yb4  1  0.380876  0.182736  0.198141  1
  Yb  Yb5  1  0.432736  0.734595  0.301859  1
  Yb  Yb6  1  0.265405  0.567264  0.698141  1
  Yb  Yb7  1  0.984595  0.182736  0.801859  1
  Ru  Ru8  1  0.500000  0.500000  0.000000  1
  Ru  Ru9  1  0.750000  0.250000  0.500000  1
