# generated using pymatgen
data_Gd3Sn2SbIr3
_symmetry_space_group_name_H-M   'P 1'
_cell_length_a   7.45166300
_cell_length_b   7.44094130
_cell_length_c   4.03562200
_cell_angle_alpha   90.00000000
_cell_angle_beta   90.00000000
_cell_angle_gamma   120.04766291
_symmetry_Int_Tables_number   1
_chemical_formula_structural   Gd3Sn2SbIr3
_chemical_formula_sum   'Gd3 Sn2 Sb1 Ir3'
_cell_volume   193.69277097
_cell_formula_units_Z   1
loop_
 _symmetry_equiv_pos_site_id
 _symmetry_equiv_pos_as_xyz
  1  'x, y, z'
loop_
 _atom_site_type_symbol
 _atom_site_label
 _atom_site_symmetry_multiplicity
 _atom_site_fract_x
 _atom_site_fract_y
 _atom_site_fract_z
 _atom_site_occupancy
  Gd  Gd0  1  0.594020  0.000000  0.000000  1
  Gd  Gd1  1  0.998468  0.590739  0.000000  1
  Gd  Gd2  1  0.407729  0.409261  0.000000  1
  Sn  Sn3  1  0.999198  0.257074  0.500000  1
  Sn  Sn4  1  0.742125  0.742926  0.500000  1
  Sb  Sb5  1  0.257756  0.000000  0.500000  1
  Ir  Ir6  1  0.332726  0.667345  0.500000  1
  Ir  Ir7  1  0.665382  0.332655  0.500000  1
  Ir  Ir8  1  0.002596  0.000000  0.000000  1
