# generated using pymatgen
data_Ba4SmU3O12
_symmetry_space_group_name_H-M   'P 1'
_cell_length_a   6.27063277
_cell_length_b   6.29606061
_cell_length_c   8.81997469
_cell_angle_alpha   89.95330747
_cell_angle_beta   89.94719554
_cell_angle_gamma   89.97941757
_symmetry_Int_Tables_number   1
_chemical_formula_structural   Ba4SmU3O12
_chemical_formula_sum   'Ba4 Sm1 U3 O12'
_cell_volume   348.21481935
_cell_formula_units_Z   1
loop_
 _symmetry_equiv_pos_site_id
 _symmetry_equiv_pos_as_xyz
  1  'x, y, z'
loop_
 _atom_site_type_symbol
 _atom_site_label
 _atom_site_symmetry_multiplicity
 _atom_site_fract_x
 _atom_site_fract_y
 _atom_site_fract_z
 _atom_site_occupancy
  Ba  Ba0  1  0.015204  0.993179  0.751799  1
  Ba  Ba1  1  0.483984  0.490778  0.248142  1
  Ba  Ba2  1  0.516016  0.509222  0.751858  1
  Ba  Ba3  1  0.984797  0.006821  0.248201  1
  Sm  Sm4  1  0.000000  0.500000  0.000000  1
  U  U5  1  0.000000  0.500000  0.500000  1
  U  U6  1  0.500000  0.000000  0.500000  1
  U  U7  1  0.500000  0.000000  0.000000  1
  O  O8  1  0.240702  0.223303  0.042157  1
  O  O9  1  0.511518  0.924704  0.253040  1
  O  O10  1  0.730390  0.264481  0.458737  1
  O  O11  1  0.723738  0.258010  0.041629  1
  O  O12  1  0.765039  0.768991  0.540845  1
  O  O13  1  0.012114  0.575571  0.261070  1
  O  O14  1  0.234961  0.231009  0.459155  1
  O  O15  1  0.276262  0.741990  0.958371  1
  O  O16  1  0.269610  0.735519  0.541263  1
  O  O17  1  0.488482  0.075296  0.746960  1
  O  O18  1  0.759298  0.776697  0.957843  1
  O  O19  1  0.987886  0.424429  0.738930  1
