# generated using pymatgen
data_CaLuPa2(Al3Rh)6
_symmetry_space_group_name_H-M   'P 1'
_cell_length_a   7.59848918
_cell_length_b   7.59671083
_cell_length_c   9.38698100
_cell_angle_alpha   90.00000000
_cell_angle_beta   90.00000000
_cell_angle_gamma   119.50115829
_symmetry_Int_Tables_number   1
_chemical_formula_structural   CaLuPa2(Al3Rh)6
_chemical_formula_sum   'Ca1 Lu1 Pa2 Al18 Rh6'
_cell_volume   471.59651992
_cell_formula_units_Z   1
loop_
 _symmetry_equiv_pos_site_id
 _symmetry_equiv_pos_as_xyz
  1  'x, y, z'
loop_
 _atom_site_type_symbol
 _atom_site_label
 _atom_site_symmetry_multiplicity
 _atom_site_fract_x
 _atom_site_fract_y
 _atom_site_fract_z
 _atom_site_occupancy
  Ca  Ca0  1  0.670859  0.993691  0.250000  1
  Lu  Lu1  1  0.329839  0.006725  0.750000  1
  Pa  Pa2  1  0.997171  0.671460  0.250000  1
  Pa  Pa3  1  0.002576  0.327902  0.750000  1
  Al  Al4  1  0.131804  0.126013  0.250000  1
  Al  Al5  1  0.870253  0.873671  0.750000  1
  Al  Al6  1  0.000050  0.332038  0.078122  1
  Al  Al7  1  0.000284  0.668171  0.920578  1
  Al  Al8  1  0.000284  0.668171  0.579422  1
  Al  Al9  1  0.338575  0.002595  0.425497  1
  Al  Al10  1  0.000050  0.332038  0.421878  1
  Al  Al11  1  0.660999  0.997172  0.575667  1
  Al  Al12  1  0.660999  0.997172  0.924333  1
  Al  Al13  1  0.338575  0.002595  0.074503  1
  Al  Al14  1  0.334611  0.332608  0.553720  1
  Al  Al15  1  0.664977  0.666648  0.448527  1
  Al  Al16  1  0.664977  0.666648  0.051473  1
  Al  Al17  1  0.334611  0.332608  0.946280  1
  Al  Al18  1  0.338575  0.548373  0.250000  1
  Al  Al19  1  0.659192  0.450523  0.750000  1
  Al  Al20  1  0.550549  0.344339  0.250000  1
  Al  Al21  1  0.449909  0.658776  0.750000  1
  Rh  Rh22  1  0.674619  0.329954  0.998016  1
  Rh  Rh23  1  0.323586  0.669741  0.998883  1
  Rh  Rh24  1  0.323586  0.669741  0.501117  1
  Rh  Rh25  1  0.674619  0.329954  0.501984  1
  Rh  Rh26  1  0.001934  0.000338  0.998342  1
  Rh  Rh27  1  0.001934  0.000338  0.501658  1
