# generated using pymatgen
data_Dy20AgIr7Os4
_symmetry_space_group_name_H-M   'P 1'
_cell_length_a   10.90214926
_cell_length_b   10.90214926
_cell_length_c   6.44858675
_cell_angle_alpha   90.03888596
_cell_angle_beta   90.03888596
_cell_angle_gamma   89.72392405
_symmetry_Int_Tables_number   1
_chemical_formula_structural   Dy20AgIr7Os4
_chemical_formula_sum   'Dy20 Ag1 Ir7 Os4'
_cell_volume   766.44951345
_cell_formula_units_Z   1
loop_
 _symmetry_equiv_pos_site_id
 _symmetry_equiv_pos_as_xyz
  1  'x, y, z'
loop_
 _atom_site_type_symbol
 _atom_site_label
 _atom_site_symmetry_multiplicity
 _atom_site_fract_x
 _atom_site_fract_y
 _atom_site_fract_z
 _atom_site_occupancy
  Dy  Dy0  1  0.292236  0.084964  0.377454  1
  Dy  Dy1  1  0.295449  0.913177  0.877552  1
  Dy  Dy2  1  0.700990  0.082590  0.861108  1
  Dy  Dy3  1  0.702620  0.905302  0.381528  1
  Dy  Dy4  1  0.585826  0.793075  0.879630  1
  Dy  Dy5  1  0.575380  0.207315  0.378858  1
  Dy  Dy6  1  0.411870  0.793013  0.378489  1
  Dy  Dy7  1  0.412628  0.205638  0.879607  1
  Dy  Dy8  1  0.206925  0.414174  0.620370  1
  Dy  Dy9  1  0.206987  0.588130  0.121511  1
  Dy  Dy10  1  0.792685  0.424620  0.121142  1
  Dy  Dy11  1  0.794362  0.587372  0.620393  1
  Dy  Dy12  1  0.915036  0.707764  0.122546  1
  Dy  Dy13  1  0.917410  0.299010  0.638892  1
  Dy  Dy14  1  0.086823  0.704551  0.622448  1
  Dy  Dy15  1  0.094698  0.297380  0.118472  1
  Dy  Dy16  1  0.004090  0.994674  0.503915  1
  Dy  Dy17  1  0.005326  0.995910  0.996085  1
  Dy  Dy18  1  0.499137  0.500008  0.999088  1
  Dy  Dy19  1  0.499992  0.500863  0.500912  1
  Ag  Ag20  1  0.843420  0.156580  0.250000  1
  Ir  Ir21  1  0.849445  0.849767  0.750382  1
  Ir  Ir22  1  0.150233  0.150555  0.749618  1
  Ir  Ir23  1  0.152946  0.847054  0.250000  1
  Ir  Ir24  1  0.653099  0.346901  0.750000  1
  Ir  Ir25  1  0.651680  0.651360  0.249843  1
  Ir  Ir26  1  0.348640  0.348320  0.250157  1
  Ir  Ir27  1  0.348036  0.651964  0.750000  1
  Os  Os28  1  0.501136  0.999612  0.126163  1
  Os  Os29  1  0.499633  0.999126  0.622707  1
  Os  Os30  1  0.000874  0.500367  0.877293  1
  Os  Os31  1  0.000388  0.498864  0.373837  1
