# generated using pymatgen
data_Pr8Cd2OsPt
_symmetry_space_group_name_H-M   'P 1'
_cell_length_a   10.06414631
_cell_length_b   10.06414655
_cell_length_c   10.13341300
_cell_angle_alpha   59.77206320
_cell_angle_beta   59.77206241
_cell_angle_gamma   59.77613196
_symmetry_Int_Tables_number   1
_chemical_formula_structural   Pr8Cd2OsPt
_chemical_formula_sum   'Pr16 Cd4 Os2 Pt2'
_cell_volume   722.02905664
_cell_formula_units_Z   2
loop_
 _symmetry_equiv_pos_site_id
 _symmetry_equiv_pos_as_xyz
  1  'x, y, z'
loop_
 _atom_site_type_symbol
 _atom_site_label
 _atom_site_symmetry_multiplicity
 _atom_site_fract_x
 _atom_site_fract_y
 _atom_site_fract_z
 _atom_site_occupancy
  Pr  Pr0  1  0.347440  0.347440  0.353397  1
  Pr  Pr1  1  0.347440  0.347440  0.951723  1
  Pr  Pr2  1  0.344240  0.956442  0.349659  1
  Pr  Pr3  1  0.956442  0.344240  0.349659  1
  Pr  Pr4  1  0.814157  0.190107  0.191276  1
  Pr  Pr5  1  0.190107  0.814157  0.804460  1
  Pr  Pr6  1  0.190107  0.814157  0.191276  1
  Pr  Pr7  1  0.814157  0.190107  0.804460  1
  Pr  Pr8  1  0.189578  0.189578  0.810422  1
  Pr  Pr9  1  0.806269  0.806269  0.193731  1
  Pr  Pr10  1  0.938608  0.557759  0.564508  1
  Pr  Pr11  1  0.557759  0.938608  0.939124  1
  Pr  Pr12  1  0.557759  0.938608  0.564508  1
  Pr  Pr13  1  0.938608  0.557759  0.939124  1
  Pr  Pr14  1  0.562937  0.562937  0.937063  1
  Pr  Pr15  1  0.939713  0.939713  0.560287  1
  Cd  Cd16  1  0.579629  0.579629  0.580074  1
  Cd  Cd17  1  0.579629  0.579629  0.260668  1
  Cd  Cd18  1  0.579890  0.259752  0.580178  1
  Cd  Cd19  1  0.259752  0.579890  0.580178  1
  Os  Os20  1  0.143013  0.143013  0.137825  1
  Os  Os21  1  0.143013  0.143013  0.576150  1
  Pt  Pt22  1  0.144982  0.574770  0.140124  1
  Pt  Pt23  1  0.574770  0.144982  0.140124  1
