# generated using pymatgen
data_TmSc3(Co4P3)2
_symmetry_space_group_name_H-M   'P 1'
_cell_length_a   12.05900500
_cell_length_b   12.05900503
_cell_length_c   3.64650600
_cell_angle_alpha   90.00000000
_cell_angle_beta   90.00000000
_cell_angle_gamma   119.99999717
_symmetry_Int_Tables_number   1
_chemical_formula_structural   TmSc3(Co4P3)2
_chemical_formula_sum   'Tm2 Sc6 Co16 P12'
_cell_volume   459.23029273
_cell_formula_units_Z   2
loop_
 _symmetry_equiv_pos_site_id
 _symmetry_equiv_pos_as_xyz
  1  'x, y, z'
loop_
 _atom_site_type_symbol
 _atom_site_label
 _atom_site_symmetry_multiplicity
 _atom_site_fract_x
 _atom_site_fract_y
 _atom_site_fract_z
 _atom_site_occupancy
  Tm  Tm0  1  0.333333  0.666667  0.000000  1
  Tm  Tm1  1  0.666667  0.333333  0.000000  1
  Sc  Sc2  1  0.816031  0.000000  0.500000  1
  Sc  Sc3  1  0.000000  0.816031  0.500000  1
  Sc  Sc4  1  0.183969  0.183969  0.500000  1
  Sc  Sc5  1  0.442635  0.000000  0.000000  1
  Sc  Sc6  1  0.000000  0.442635  0.000000  1
  Sc  Sc7  1  0.557365  0.557365  0.000000  1
  Co  Co8  1  0.275403  0.000000  0.500000  1
  Co  Co9  1  0.000000  0.275403  0.500000  1
  Co  Co10  1  0.724597  0.724597  0.500000  1
  Co  Co11  1  0.629483  0.806995  0.000000  1
  Co  Co12  1  0.193005  0.822489  0.000000  1
  Co  Co13  1  0.177511  0.370517  0.000000  1
  Co  Co14  1  0.370517  0.177511  0.000000  1
  Co  Co15  1  0.806995  0.629483  0.000000  1
  Co  Co16  1  0.822489  0.193005  0.000000  1
  Co  Co17  1  0.521019  0.875729  0.500000  1
  Co  Co18  1  0.124271  0.645290  0.500000  1
  Co  Co19  1  0.354710  0.478981  0.500000  1
  Co  Co20  1  0.478981  0.354710  0.500000  1
  Co  Co21  1  0.875729  0.521019  0.500000  1
  Co  Co22  1  0.645290  0.124271  0.500000  1
  Co  Co23  1  0.000000  0.000000  0.000000  1
  P  P24  1  0.175360  0.000000  0.000000  1
  P  P25  1  0.000000  0.175360  0.000000  1
  P  P26  1  0.824640  0.824640  0.000000  1
  P  P27  1  0.520993  0.691804  0.500000  1
  P  P28  1  0.308196  0.829188  0.500000  1
  P  P29  1  0.170812  0.479007  0.500000  1
  P  P30  1  0.479007  0.170812  0.500000  1
  P  P31  1  0.691804  0.520993  0.500000  1
  P  P32  1  0.829188  0.308196  0.500000  1
  P  P33  1  0.650568  0.000000  0.000000  1
  P  P34  1  0.000000  0.650568  0.000000  1
  P  P35  1  0.349432  0.349432  0.000000  1
