# generated using pymatgen
data_Sr4MgFe(ReN4)2
_symmetry_space_group_name_H-M   'P 1'
_cell_length_a   5.90255500
_cell_length_b   6.34149605
_cell_length_c   6.96168645
_cell_angle_alpha   72.02635557
_cell_angle_beta   90.00000000
_cell_angle_gamma   90.00000000
_symmetry_Int_Tables_number   1
_chemical_formula_structural   Sr4MgFe(ReN4)2
_chemical_formula_sum   'Sr4 Mg1 Fe1 Re2 N8'
_cell_volume   247.86625883
_cell_formula_units_Z   1
loop_
 _symmetry_equiv_pos_site_id
 _symmetry_equiv_pos_as_xyz
  1  'x, y, z'
loop_
 _atom_site_type_symbol
 _atom_site_label
 _atom_site_symmetry_multiplicity
 _atom_site_fract_x
 _atom_site_fract_y
 _atom_site_fract_z
 _atom_site_occupancy
  Sr  Sr0  1  0.250000  0.242843  0.068233  1
  Sr  Sr1  1  0.750000  0.743876  0.935940  1
  Sr  Sr2  1  0.750000  0.817036  0.405134  1
  Sr  Sr3  1  0.250000  0.222036  0.567209  1
  Mg  Mg4  1  0.250000  0.700891  0.690818  1
  Fe  Fe5  1  0.750000  0.340435  0.363020  1
  Re  Re6  1  0.250000  0.707022  0.196806  1
  Re  Re7  1  0.750000  0.291028  0.788723  1
  N  N8  1  0.499864  0.470307  0.757700  1
  N  N9  1  0.003078  0.516235  0.256225  1
  N  N10  1  0.496922  0.516235  0.256225  1
  N  N11  1  0.000136  0.470307  0.757700  1
  N  N12  1  0.750000  0.109157  0.613592  1
  N  N13  1  0.250000  0.882976  0.377873  1
  N  N14  1  0.750000  0.099185  0.045596  1
  N  N15  1  0.250000  0.870430  0.919206  1
