# generated using pymatgen
data_Nd8SiSnI12
_symmetry_space_group_name_H-M   'P 1'
_cell_length_a   4.40495100
_cell_length_b   14.59056874
_cell_length_c   15.40603173
_cell_angle_alpha   89.83140185
_cell_angle_beta   90.00000000
_cell_angle_gamma   90.00000000
_symmetry_Int_Tables_number   1
_chemical_formula_structural   Nd8SiSnI12
_chemical_formula_sum   'Nd8 Si1 Sn1 I12'
_cell_volume   990.15277852
_cell_formula_units_Z   1
loop_
 _symmetry_equiv_pos_site_id
 _symmetry_equiv_pos_as_xyz
  1  'x, y, z'
loop_
 _atom_site_type_symbol
 _atom_site_label
 _atom_site_symmetry_multiplicity
 _atom_site_fract_x
 _atom_site_fract_y
 _atom_site_fract_z
 _atom_site_occupancy
  Nd  Nd0  1  0.500000  0.120177  0.339261  1
  Nd  Nd1  1  0.500000  0.879823  0.660739  1
  Nd  Nd2  1  0.500000  0.613360  0.151802  1
  Nd  Nd3  1  0.500000  0.386640  0.848198  1
  Nd  Nd4  1  0.000000  0.120615  0.580803  1
  Nd  Nd5  1  0.000000  0.879385  0.419197  1
  Nd  Nd6  1  0.000000  0.611027  0.925666  1
  Nd  Nd7  1  0.000000  0.388973  0.074334  1
  Si  Si8  1  0.500000  0.500000  0.000000  1
  Sn  Sn9  1  0.500000  0.000000  0.500000  1
  I  I10  1  0.500000  0.246351  0.160697  1
  I  I11  1  0.500000  0.753649  0.839303  1
  I  I12  1  0.500000  0.742147  0.336050  1
  I  I13  1  0.500000  0.257853  0.663950  1
  I  I14  1  0.000000  0.258210  0.413981  1
  I  I15  1  0.000000  0.741790  0.586019  1
  I  I16  1  0.000000  0.755910  0.085603  1
  I  I17  1  0.000000  0.244090  0.914397  1
  I  I18  1  0.000000  0.999322  0.240708  1
  I  I19  1  0.000000  0.000678  0.759292  1
  I  I20  1  0.000000  0.499471  0.257077  1
  I  I21  1  0.000000  0.500529  0.742923  1
