# generated using pymatgen
data_Er8Ga12CoAu3
_symmetry_space_group_name_H-M   'P 1'
_cell_length_a   7.10243700
_cell_length_b   8.83775892
_cell_length_c   8.83775900
_cell_angle_alpha   119.99999657
_cell_angle_beta   90.00000000
_cell_angle_gamma   90.00000000
_symmetry_Int_Tables_number   1
_chemical_formula_structural   Er8Ga12CoAu3
_chemical_formula_sum   'Er8 Ga12 Co1 Au3'
_cell_volume   480.42139696
_cell_formula_units_Z   1
loop_
 _symmetry_equiv_pos_site_id
 _symmetry_equiv_pos_as_xyz
  1  'x, y, z'
loop_
 _atom_site_type_symbol
 _atom_site_label
 _atom_site_symmetry_multiplicity
 _atom_site_fract_x
 _atom_site_fract_y
 _atom_site_fract_z
 _atom_site_occupancy
  Er  Er0  1  0.738907  0.000000  0.000000  1
  Er  Er1  1  0.250706  0.000000  0.000000  1
  Er  Er2  1  0.749545  0.485460  0.514540  1
  Er  Er3  1  0.258423  0.523172  0.476828  1
  Er  Er4  1  0.749545  0.029080  0.514540  1
  Er  Er5  1  0.258423  0.953656  0.476828  1
  Er  Er6  1  0.749545  0.485460  0.970920  1
  Er  Er7  1  0.258423  0.523172  0.046344  1
  Ga  Ga8  1  0.954407  0.837464  0.162536  1
  Ga  Ga9  1  0.048724  0.164891  0.835109  1
  Ga  Ga10  1  0.954407  0.325074  0.162536  1
  Ga  Ga11  1  0.458878  0.163091  0.836909  1
  Ga  Ga12  1  0.048724  0.670217  0.835109  1
  Ga  Ga13  1  0.542565  0.826083  0.173917  1
  Ga  Ga14  1  0.954407  0.837464  0.674926  1
  Ga  Ga15  1  0.458878  0.673817  0.836909  1
  Ga  Ga16  1  0.048724  0.164891  0.329783  1
  Ga  Ga17  1  0.542565  0.347835  0.173917  1
  Ga  Ga18  1  0.458878  0.163091  0.326183  1
  Ga  Ga19  1  0.542565  0.826083  0.652165  1
  Co  Co20  1  0.515239  0.666667  0.333333  1
  Au  Au21  1  0.953984  0.666667  0.333333  1
  Au  Au22  1  0.032531  0.333333  0.666667  1
  Au  Au23  1  0.471012  0.333333  0.666667  1
