# generated using pymatgen
data_CsCu(PO3)4
_symmetry_space_group_name_H-M   'P 1'
_cell_length_a   13.96169100
_cell_length_b   5.39385657
_cell_length_c   7.48725507
_cell_angle_alpha   75.94897653
_cell_angle_beta   90.00000000
_cell_angle_gamma   90.00000000
_symmetry_Int_Tables_number   1
_chemical_formula_structural   CsCu(PO3)4
_chemical_formula_sum   'Cs2 Cu2 P8 O24'
_cell_volume   546.97509449
_cell_formula_units_Z   2
loop_
 _symmetry_equiv_pos_site_id
 _symmetry_equiv_pos_as_xyz
  1  'x, y, z'
loop_
 _atom_site_type_symbol
 _atom_site_label
 _atom_site_symmetry_multiplicity
 _atom_site_fract_x
 _atom_site_fract_y
 _atom_site_fract_z
 _atom_site_occupancy
  Cs  Cs0  1  0.000251  0.372152  0.831145  1
  Cs  Cs1  1  0.500251  0.627848  0.168855  1
  Cu  Cu2  1  0.236225  0.505516  0.489835  1
  Cu  Cu3  1  0.736225  0.494484  0.510165  1
  P  P4  1  0.879376  0.964778  0.447123  1
  P  P5  1  0.818923  0.785059  0.135111  1
  P  P6  1  0.379376  0.035222  0.552877  1
  P  P7  1  0.177952  0.857276  0.101271  1
  P  P8  1  0.092927  0.975500  0.430457  1
  P  P9  1  0.592927  0.024500  0.569543  1
  P  P10  1  0.677952  0.142724  0.898729  1
  P  P11  1  0.318923  0.214941  0.864889  1
  O  O12  1  0.160236  0.767578  0.537590  1
  O  O13  1  0.095026  0.220152  0.486693  1
  O  O14  1  0.612527  0.981653  0.787334  1
  O  O15  1  0.987281  0.847837  0.453651  1
  O  O16  1  0.876502  0.203255  0.511824  1
  O  O17  1  0.851681  0.012701  0.233226  1
  O  O18  1  0.112527  0.018347  0.212666  1
  O  O19  1  0.625811  0.180861  0.061500  1
  O  O20  1  0.125811  0.819139  0.938500  1
  O  O21  1  0.237756  0.363634  0.745637  1
  O  O22  1  0.376502  0.796745  0.488176  1
  O  O23  1  0.595026  0.779848  0.513307  1
  O  O24  1  0.660236  0.232422  0.462410  1
  O  O25  1  0.487281  0.152163  0.546349  1
  O  O26  1  0.268348  0.049679  0.048431  1
  O  O27  1  0.902530  0.651622  0.083106  1
  O  O28  1  0.716706  0.383994  0.765512  1
  O  O29  1  0.768348  0.950321  0.951569  1
  O  O30  1  0.402530  0.348378  0.916894  1
  O  O31  1  0.819703  0.742558  0.561152  1
  O  O32  1  0.319703  0.257442  0.438848  1
  O  O33  1  0.351681  0.987299  0.766774  1
  O  O34  1  0.737756  0.636366  0.254363  1
  O  O35  1  0.216706  0.616006  0.234488  1
