# generated using pymatgen
data_Pr3NdInRh
_symmetry_space_group_name_H-M   'P 1'
_cell_length_a   10.02207272
_cell_length_b   10.03346627
_cell_length_c   10.03321846
_cell_angle_alpha   60.33629726
_cell_angle_beta   60.16037471
_cell_angle_gamma   60.08014933
_symmetry_Int_Tables_number   1
_chemical_formula_structural   Pr3NdInRh
_chemical_formula_sum   'Pr12 Nd4 In4 Rh4'
_cell_volume   716.49986773
_cell_formula_units_Z   4
loop_
 _symmetry_equiv_pos_site_id
 _symmetry_equiv_pos_as_xyz
  1  'x, y, z'
loop_
 _atom_site_type_symbol
 _atom_site_label
 _atom_site_symmetry_multiplicity
 _atom_site_fract_x
 _atom_site_fract_y
 _atom_site_fract_z
 _atom_site_occupancy
  Pr  Pr0  1  0.690290  0.309500  0.310271  1
  Pr  Pr1  1  0.690973  0.690388  0.311209  1
  Pr  Pr2  1  0.309372  0.691003  0.309348  1
  Pr  Pr3  1  0.938075  0.939163  0.559822  1
  Pr  Pr4  1  0.149613  0.149415  0.549043  1
  Pr  Pr5  1  0.560886  0.938827  0.560047  1
  Pr  Pr6  1  0.151077  0.152334  0.152055  1
  Pr  Pr7  1  0.310126  0.309268  0.691403  1
  Pr  Pr8  1  0.938565  0.560653  0.560506  1
  Pr  Pr9  1  0.560353  0.559640  0.938875  1
  Pr  Pr10  1  0.560314  0.939635  0.938791  1
  Pr  Pr11  1  0.938734  0.559488  0.939043  1
  Nd  Nd12  1  0.149992  0.548160  0.149384  1
  Nd  Nd13  1  0.311699  0.690216  0.690919  1
  Nd  Nd14  1  0.690741  0.310768  0.690731  1
  Nd  Nd15  1  0.547176  0.150502  0.150095  1
  In  In16  1  0.919790  0.919557  0.241891  1
  In  In17  1  0.241588  0.919061  0.919676  1
  In  In18  1  0.919269  0.242014  0.919640  1
  In  In19  1  0.919727  0.919292  0.919072  1
  Rh  Rh20  1  0.357915  0.357925  0.356444  1
  Rh  Rh21  1  0.926540  0.358438  0.357974  1
  Rh  Rh22  1  0.358685  0.358437  0.926098  1
  Rh  Rh23  1  0.358498  0.926319  0.357662  1
