# generated using pymatgen
data_Tb3Dy5Sc12GaSi15
_symmetry_space_group_name_H-M   'P 1'
_cell_length_a   7.11582610
_cell_length_b   7.40738978
_cell_length_c   14.05538235
_cell_angle_alpha   89.97142034
_cell_angle_beta   89.98507592
_cell_angle_gamma   90.02080935
_symmetry_Int_Tables_number   1
_chemical_formula_structural   Tb3Dy5Sc12GaSi15
_chemical_formula_sum   'Tb3 Dy5 Sc12 Ga1 Si15'
_cell_volume   740.85478718
_cell_formula_units_Z   1
loop_
 _symmetry_equiv_pos_site_id
 _symmetry_equiv_pos_as_xyz
  1  'x, y, z'
loop_
 _atom_site_type_symbol
 _atom_site_label
 _atom_site_symmetry_multiplicity
 _atom_site_fract_x
 _atom_site_fract_y
 _atom_site_fract_z
 _atom_site_occupancy
  Tb  Tb0  1  0.011879  0.175375  0.097204  1
  Tb  Tb1  1  0.987950  0.825005  0.903450  1
  Tb  Tb2  1  0.487689  0.676043  0.903293  1
  Dy  Dy3  1  0.987389  0.826531  0.597589  1
  Dy  Dy4  1  0.512189  0.323988  0.097152  1
  Dy  Dy5  1  0.011037  0.174013  0.401399  1
  Dy  Dy6  1  0.512941  0.323485  0.401356  1
  Dy  Dy7  1  0.489838  0.678166  0.597677  1
  Sc  Sc8  1  0.161191  0.502279  0.751651  1
  Sc  Sc9  1  0.839026  0.497883  0.249908  1
  Sc  Sc10  1  0.339020  0.002358  0.249605  1
  Sc  Sc11  1  0.661735  0.996870  0.750199  1
  Sc  Sc12  1  0.332745  0.173672  0.626116  1
  Sc  Sc13  1  0.668357  0.824168  0.374293  1
  Sc  Sc14  1  0.169891  0.677309  0.373386  1
  Sc  Sc15  1  0.669852  0.823880  0.125381  1
  Sc  Sc16  1  0.828313  0.323476  0.625537  1
  Sc  Sc17  1  0.330006  0.175632  0.874923  1
  Sc  Sc18  1  0.830309  0.323275  0.874974  1
  Sc  Sc19  1  0.169210  0.676461  0.125479  1
  Ga  Ga20  1  0.160059  0.462129  0.539130  1
  Si  Si21  1  0.033723  0.118405  0.750608  1
  Si  Si22  1  0.966365  0.882687  0.249713  1
  Si  Si23  1  0.467459  0.616573  0.249863  1
  Si  Si24  1  0.532259  0.384081  0.749738  1
  Si  Si25  1  0.284654  0.873510  0.750154  1
  Si  Si26  1  0.714146  0.126763  0.249589  1
  Si  Si27  1  0.214328  0.373095  0.249540  1
  Si  Si28  1  0.785947  0.626391  0.750559  1
  Si  Si29  1  0.841551  0.536278  0.460380  1
  Si  Si30  1  0.341947  0.964186  0.460192  1
  Si  Si31  1  0.842490  0.535504  0.038857  1
  Si  Si32  1  0.657381  0.035935  0.538896  1
  Si  Si33  1  0.157253  0.464042  0.961746  1
  Si  Si34  1  0.656590  0.035812  0.960826  1
  Si  Si35  1  0.343281  0.964742  0.039639  1
