# generated using pymatgen
data_YTm3Ir2(RhO7)2
_symmetry_space_group_name_H-M   'P 1'
_cell_length_a   7.20838382
_cell_length_b   7.19196979
_cell_length_c   7.19196969
_cell_angle_alpha   59.91236516
_cell_angle_beta   59.98033940
_cell_angle_gamma   59.98036011
_symmetry_Int_Tables_number   1
_chemical_formula_structural   YTm3Ir2(RhO7)2
_chemical_formula_sum   'Y1 Tm3 Ir2 Rh2 O14'
_cell_volume   263.39120248
_cell_formula_units_Z   1
loop_
 _symmetry_equiv_pos_site_id
 _symmetry_equiv_pos_as_xyz
  1  'x, y, z'
loop_
 _atom_site_type_symbol
 _atom_site_label
 _atom_site_symmetry_multiplicity
 _atom_site_fract_x
 _atom_site_fract_y
 _atom_site_fract_z
 _atom_site_occupancy
  Y  Y0  1  0.625000  0.125000  0.125000  1
  Tm  Tm1  1  0.125000  0.625000  0.125000  1
  Tm  Tm2  1  0.125000  0.125000  0.625000  1
  Tm  Tm3  1  0.125000  0.125000  0.125000  1
  Ir  Ir4  1  0.125000  0.625000  0.625000  1
  Ir  Ir5  1  0.625000  0.625000  0.625000  1
  Rh  Rh6  1  0.625000  0.125000  0.625000  1
  Rh  Rh7  1  0.625000  0.625000  0.125000  1
  O  O8  1  0.719767  0.707101  0.288703  1
  O  O9  1  0.283549  0.288304  0.710561  1
  O  O10  1  0.719767  0.288703  0.707101  1
  O  O11  1  0.283549  0.710561  0.288304  1
  O  O12  1  0.288589  0.711189  0.711189  1
  O  O13  1  0.720236  0.282873  0.282873  1
  O  O14  1  0.530233  0.542899  0.961297  1
  O  O15  1  0.966451  0.961696  0.539439  1
  O  O16  1  0.530233  0.961297  0.542899  1
  O  O17  1  0.966451  0.539439  0.961696  1
  O  O18  1  0.961411  0.538811  0.538811  1
  O  O19  1  0.529764  0.967127  0.967127  1
  O  O20  1  0.244120  0.252605  0.252605  1
  O  O21  1  0.005880  0.997395  0.997395  1
