# generated using pymatgen
data_YTm3(MnC2)2
_symmetry_space_group_name_H-M   'P 1'
_cell_length_a   4.99015000
_cell_length_b   6.32856100
_cell_length_c   9.56635200
_cell_angle_alpha   90.00000000
_cell_angle_beta   90.00000000
_cell_angle_gamma   90.00000000
_symmetry_Int_Tables_number   1
_chemical_formula_structural   YTm3(MnC2)2
_chemical_formula_sum   'Y2 Tm6 Mn4 C8'
_cell_volume   302.10987966
_cell_formula_units_Z   2
loop_
 _symmetry_equiv_pos_site_id
 _symmetry_equiv_pos_as_xyz
  1  'x, y, z'
loop_
 _atom_site_type_symbol
 _atom_site_label
 _atom_site_symmetry_multiplicity
 _atom_site_fract_x
 _atom_site_fract_y
 _atom_site_fract_z
 _atom_site_occupancy
  Y  Y0  1  0.250000  0.475166  0.213200  1
  Y  Y1  1  0.750000  0.024834  0.713200  1
  Tm  Tm2  1  0.750000  0.524965  0.785645  1
  Tm  Tm3  1  0.250000  0.975035  0.285645  1
  Tm  Tm4  1  0.750000  0.680719  0.443848  1
  Tm  Tm5  1  0.250000  0.819281  0.943848  1
  Tm  Tm6  1  0.750000  0.179128  0.056167  1
  Tm  Tm7  1  0.250000  0.320872  0.556167  1
  Mn  Mn8  1  0.250000  0.270679  0.858347  1
  Mn  Mn9  1  0.250000  0.770757  0.642083  1
  Mn  Mn10  1  0.750000  0.229321  0.358347  1
  Mn  Mn11  1  0.750000  0.729243  0.142083  1
  C  C12  1  0.250000  0.689176  0.462476  1
  C  C13  1  0.250000  0.537509  0.761642  1
  C  C14  1  0.750000  0.462488  0.239060  1
  C  C15  1  0.750000  0.810824  0.962476  1
  C  C16  1  0.250000  0.037512  0.739060  1
  C  C17  1  0.250000  0.183979  0.037535  1
  C  C18  1  0.750000  0.316021  0.537535  1
  C  C19  1  0.750000  0.962491  0.261642  1
