# generated using pymatgen
data_SmHo3B10
_symmetry_space_group_name_H-M   'P 1'
_cell_length_a   7.11215000
_cell_length_b   7.10221118
_cell_length_c   7.13068569
_cell_angle_alpha   76.54946471
_cell_angle_beta   90.00000000
_cell_angle_gamma   90.00000000
_symmetry_Int_Tables_number   1
_chemical_formula_structural   SmHo3B10
_chemical_formula_sum   'Sm2 Ho6 B20'
_cell_volume   350.30564987
_cell_formula_units_Z   2
loop_
 _symmetry_equiv_pos_site_id
 _symmetry_equiv_pos_as_xyz
  1  'x, y, z'
loop_
 _atom_site_type_symbol
 _atom_site_label
 _atom_site_symmetry_multiplicity
 _atom_site_fract_x
 _atom_site_fract_y
 _atom_site_fract_z
 _atom_site_occupancy
  Sm  Sm0  1  0.310040  0.774457  0.622871  1
  Sm  Sm1  1  0.189960  0.774457  0.122871  1
  Ho  Ho2  1  0.185013  0.245226  0.247885  1
  Ho  Ho3  1  0.814943  0.755626  0.753209  1
  Ho  Ho4  1  0.314987  0.245226  0.747885  1
  Ho  Ho5  1  0.805928  0.232701  0.871841  1
  Ho  Ho6  1  0.694072  0.232701  0.371841  1
  Ho  Ho7  1  0.685057  0.755626  0.253209  1
  B  B8  1  0.674513  0.495719  0.039831  1
  B  B9  1  0.539422  0.502417  0.826059  1
  B  B10  1  0.172915  0.502538  0.460232  1
  B  B11  1  0.825487  0.495719  0.539831  1
  B  B12  1  0.411010  0.495806  0.411443  1
  B  B13  1  0.498649  0.313643  0.041872  1
  B  B14  1  0.516076  0.927472  0.925171  1
  B  B15  1  0.504921  0.686326  0.959107  1
  B  B16  1  0.462788  0.495651  0.174567  1
  B  B17  1  0.007621  0.074213  0.576245  1
  B  B18  1  0.492379  0.074213  0.076245  1
  B  B19  1  0.983924  0.927472  0.425171  1
  B  B20  1  0.088990  0.495806  0.911443  1
  B  B21  1  0.589475  0.498203  0.589665  1
  B  B22  1  0.037212  0.495651  0.674567  1
  B  B23  1  0.960578  0.502417  0.326059  1
  B  B24  1  0.995079  0.686326  0.459107  1
  B  B25  1  0.001351  0.313643  0.541872  1
  B  B26  1  0.910525  0.498203  0.089665  1
  B  B27  1  0.327085  0.502538  0.960232  1
