# generated using pymatgen
data_Yb6Ho2Zn3Si12Pd
_symmetry_space_group_name_H-M   'P 1'
_cell_length_a   8.18395700
_cell_length_b   8.18395704
_cell_length_c   8.21484400
_cell_angle_alpha   90.00000000
_cell_angle_beta   90.00000000
_cell_angle_gamma   119.99999580
_symmetry_Int_Tables_number   1
_chemical_formula_structural   Yb6Ho2Zn3Si12Pd
_chemical_formula_sum   'Yb6 Ho2 Zn3 Si12 Pd1'
_cell_volume   476.49313773
_cell_formula_units_Z   1
loop_
 _symmetry_equiv_pos_site_id
 _symmetry_equiv_pos_as_xyz
  1  'x, y, z'
loop_
 _atom_site_type_symbol
 _atom_site_label
 _atom_site_symmetry_multiplicity
 _atom_site_fract_x
 _atom_site_fract_y
 _atom_site_fract_z
 _atom_site_occupancy
  Yb  Yb0  1  0.498547  0.997094  0.254323  1
  Yb  Yb1  1  0.497182  0.994365  0.745594  1
  Yb  Yb2  1  0.002906  0.501453  0.254323  1
  Yb  Yb3  1  0.005635  0.502818  0.745594  1
  Yb  Yb4  1  0.498547  0.501453  0.254323  1
  Yb  Yb5  1  0.497182  0.502818  0.745594  1
  Ho  Ho6  1  0.000000  0.000000  0.251526  1
  Ho  Ho7  1  0.000000  0.000000  0.748438  1
  Zn  Zn8  1  0.333333  0.666667  0.002650  1
  Zn  Zn9  1  0.666667  0.333333  0.997496  1
  Zn  Zn10  1  0.666667  0.333333  0.502412  1
  Si  Si11  1  0.164914  0.329828  0.000850  1
  Si  Si12  1  0.835579  0.671158  0.999076  1
  Si  Si13  1  0.670172  0.835086  0.000850  1
  Si  Si14  1  0.838326  0.676654  0.500793  1
  Si  Si15  1  0.328842  0.164421  0.999076  1
  Si  Si16  1  0.165669  0.331339  0.499026  1
  Si  Si17  1  0.164914  0.835086  0.000850  1
  Si  Si18  1  0.323346  0.161674  0.500793  1
  Si  Si19  1  0.835579  0.164421  0.999076  1
  Si  Si20  1  0.668661  0.834331  0.499026  1
  Si  Si21  1  0.838326  0.161674  0.500793  1
  Si  Si22  1  0.165669  0.834331  0.499026  1
  Pd  Pd23  1  0.333333  0.666667  0.498499  1
