# generated using pymatgen
data_Tm6Zn22CdGe
_symmetry_space_group_name_H-M   'P 1'
_cell_length_a   9.04472471
_cell_length_b   9.04472434
_cell_length_c   9.04472500
_cell_angle_alpha   59.99999394
_cell_angle_beta   59.99999529
_cell_angle_gamma   59.99999551
_symmetry_Int_Tables_number   1
_chemical_formula_structural   Tm6Zn22CdGe
_chemical_formula_sum   'Tm6 Zn22 Cd1 Ge1'
_cell_volume   523.20394201
_cell_formula_units_Z   1
loop_
 _symmetry_equiv_pos_site_id
 _symmetry_equiv_pos_as_xyz
  1  'x, y, z'
loop_
 _atom_site_type_symbol
 _atom_site_label
 _atom_site_symmetry_multiplicity
 _atom_site_fract_x
 _atom_site_fract_y
 _atom_site_fract_z
 _atom_site_occupancy
  Tm  Tm0  1  0.717274  0.282726  0.282726  1
  Tm  Tm1  1  0.717274  0.282726  0.717274  1
  Tm  Tm2  1  0.717274  0.717274  0.282726  1
  Tm  Tm3  1  0.282726  0.717274  0.717274  1
  Tm  Tm4  1  0.282726  0.717274  0.282726  1
  Tm  Tm5  1  0.282726  0.282726  0.717274  1
  Zn  Zn6  1  0.611699  0.129434  0.129434  1
  Zn  Zn7  1  0.129434  0.611699  0.129434  1
  Zn  Zn8  1  0.129434  0.129434  0.611699  1
  Zn  Zn9  1  0.129434  0.129434  0.129434  1
  Zn  Zn10  1  0.388301  0.870566  0.870566  1
  Zn  Zn11  1  0.870566  0.388301  0.870566  1
  Zn  Zn12  1  0.870566  0.870566  0.388301  1
  Zn  Zn13  1  0.870566  0.870566  0.870566  1
  Zn  Zn14  1  0.500000  0.000000  0.000000  1
  Zn  Zn15  1  0.500000  0.000000  0.500000  1
  Zn  Zn16  1  0.500000  0.500000  0.000000  1
  Zn  Zn17  1  0.000000  0.500000  0.500000  1
  Zn  Zn18  1  0.000000  0.500000  0.000000  1
  Zn  Zn19  1  0.000000  0.000000  0.500000  1
  Zn  Zn20  1  0.998476  0.333841  0.333841  1
  Zn  Zn21  1  0.333841  0.998476  0.333841  1
  Zn  Zn22  1  0.333841  0.333841  0.998476  1
  Zn  Zn23  1  0.333841  0.333841  0.333841  1
  Zn  Zn24  1  0.001524  0.666159  0.666159  1
  Zn  Zn25  1  0.666159  0.001524  0.666159  1
  Zn  Zn26  1  0.666159  0.666159  0.001524  1
  Zn  Zn27  1  0.666159  0.666159  0.666159  1
  Cd  Cd28  1  0.000000  0.000000  0.000000  1
  Ge  Ge29  1  0.500000  0.500000  0.500000  1
