# generated using pymatgen
data_Sc8Fe8Si13Ge
_symmetry_space_group_name_H-M   'P 1'
_cell_length_a   9.56224790
_cell_length_b   9.56323632
_cell_length_c   9.56224722
_cell_angle_alpha   93.94256415
_cell_angle_beta   93.96182708
_cell_angle_gamma   149.54816764
_symmetry_Int_Tables_number   1
_chemical_formula_structural   Sc8Fe8Si13Ge
_chemical_formula_sum   'Sc8 Fe8 Si13 Ge1'
_cell_volume   427.63874236
_cell_formula_units_Z   1
loop_
 _symmetry_equiv_pos_site_id
 _symmetry_equiv_pos_as_xyz
  1  'x, y, z'
loop_
 _atom_site_type_symbol
 _atom_site_label
 _atom_site_symmetry_multiplicity
 _atom_site_fract_x
 _atom_site_fract_y
 _atom_site_fract_z
 _atom_site_occupancy
  Sc  Sc0  1  0.136655  0.136664  0.276596  1
  Sc  Sc1  1  0.860244  0.860183  0.723429  1
  Sc  Sc2  1  0.860070  0.136664  0.000010  1
  Sc  Sc3  1  0.136753  0.860183  0.999939  1
  Sc  Sc4  1  0.501317  0.698193  0.196876  1
  Sc  Sc5  1  0.501723  0.304835  0.803113  1
  Sc  Sc6  1  0.304647  0.501482  0.803184  1
  Sc  Sc7  1  0.698298  0.501482  0.196835  1
  Fe  Fe8  1  0.397257  0.897407  0.794993  1
  Fe  Fe9  1  0.102274  0.602455  0.205119  1
  Fe  Fe10  1  0.102415  0.897407  0.500151  1
  Fe  Fe11  1  0.397336  0.602455  0.500179  1
  Fe  Fe12  1  0.602710  0.397599  0.499717  1
  Fe  Fe13  1  0.897704  0.102707  0.499933  1
  Fe  Fe14  1  0.897883  0.397599  0.794890  1
  Fe  Fe15  1  0.602773  0.102707  0.205003  1
  Si  Si16  1  0.289636  0.289638  0.580065  1
  Si  Si17  1  0.709352  0.709423  0.419914  1
  Si  Si18  1  0.709573  0.289638  0.000002  1
  Si  Si19  1  0.289509  0.709423  0.000071  1
  Si  Si20  1  0.999888  0.298264  0.298376  1
  Si  Si21  1  0.000910  0.702532  0.701624  1
  Si  Si22  1  0.702224  0.000528  0.701686  1
  Si  Si23  1  0.298842  0.000528  0.298305  1
  Si  Si24  1  0.500010  0.909769  0.409760  1
  Si  Si25  1  0.500073  0.090327  0.590255  1
  Si  Si26  1  0.090290  0.499959  0.590283  1
  Si  Si27  1  0.909676  0.499959  0.409669  1
  Si  Si28  1  0.749347  0.749361  0.000014  1
  Ge  Ge29  1  0.250611  0.250622  0.000011  1
