# generated using pymatgen
data_Sc6Zn22PtSe
_symmetry_space_group_name_H-M   'P 1'
_cell_length_a   8.80135783
_cell_length_b   8.80135796
_cell_length_c   8.80135800
_cell_angle_alpha   60.00000738
_cell_angle_beta   60.00000689
_cell_angle_gamma   60.00000074
_symmetry_Int_Tables_number   1
_chemical_formula_structural   Sc6Zn22PtSe
_chemical_formula_sum   'Sc6 Zn22 Pt1 Se1'
_cell_volume   482.09663578
_cell_formula_units_Z   1
loop_
 _symmetry_equiv_pos_site_id
 _symmetry_equiv_pos_as_xyz
  1  'x, y, z'
loop_
 _atom_site_type_symbol
 _atom_site_label
 _atom_site_symmetry_multiplicity
 _atom_site_fract_x
 _atom_site_fract_y
 _atom_site_fract_z
 _atom_site_occupancy
  Sc  Sc0  1  0.712911  0.287089  0.287089  1
  Sc  Sc1  1  0.287089  0.712911  0.712911  1
  Sc  Sc2  1  0.287089  0.712911  0.287089  1
  Sc  Sc3  1  0.712911  0.287089  0.712911  1
  Sc  Sc4  1  0.287089  0.287089  0.712911  1
  Sc  Sc5  1  0.712911  0.712911  0.287089  1
  Zn  Zn6  1  0.121380  0.121380  0.121380  1
  Zn  Zn7  1  0.878620  0.878620  0.878620  1
  Zn  Zn8  1  0.121380  0.121380  0.635859  1
  Zn  Zn9  1  0.121380  0.635859  0.121380  1
  Zn  Zn10  1  0.878620  0.878620  0.364141  1
  Zn  Zn11  1  0.878620  0.364141  0.878620  1
  Zn  Zn12  1  0.635859  0.121380  0.121380  1
  Zn  Zn13  1  0.364141  0.878620  0.878620  1
  Zn  Zn14  1  0.500000  0.000000  0.000000  1
  Zn  Zn15  1  0.000000  0.500000  0.500000  1
  Zn  Zn16  1  0.000000  0.500000  0.000000  1
  Zn  Zn17  1  0.500000  0.000000  0.500000  1
  Zn  Zn18  1  0.000000  0.000000  0.500000  1
  Zn  Zn19  1  0.500000  0.500000  0.000000  1
  Zn  Zn20  1  0.332803  0.332803  0.332803  1
  Zn  Zn21  1  0.667197  0.667197  0.667197  1
  Zn  Zn22  1  0.332803  0.332803  0.001591  1
  Zn  Zn23  1  0.332803  0.001591  0.332803  1
  Zn  Zn24  1  0.667197  0.667197  0.998409  1
  Zn  Zn25  1  0.667197  0.998409  0.667197  1
  Zn  Zn26  1  0.001591  0.332803  0.332803  1
  Zn  Zn27  1  0.998409  0.667197  0.667197  1
  Pt  Pt28  1  0.000000  0.000000  0.000000  1
  Se  Se29  1  0.500000  0.500000  0.500000  1
