# generated using pymatgen
data_DyY(Si7Ir3)2
_symmetry_space_group_name_H-M   'P 1'
_cell_length_a   8.05893464
_cell_length_b   8.05893381
_cell_length_c   8.05893394
_cell_angle_alpha   56.48889130
_cell_angle_beta   56.48889243
_cell_angle_gamma   56.48889063
_symmetry_Int_Tables_number   1
_chemical_formula_structural   DyY(Si7Ir3)2
_chemical_formula_sum   'Dy1 Y1 Si14 Ir6'
_cell_volume   340.06224663
_cell_formula_units_Z   1
loop_
 _symmetry_equiv_pos_site_id
 _symmetry_equiv_pos_as_xyz
  1  'x, y, z'
loop_
 _atom_site_type_symbol
 _atom_site_label
 _atom_site_symmetry_multiplicity
 _atom_site_fract_x
 _atom_site_fract_y
 _atom_site_fract_z
 _atom_site_occupancy
  Dy  Dy0  1  0.000000  0.000000  0.000000  1
  Y  Y1  1  0.500000  0.500000  0.500000  1
  Si  Si2  1  0.850162  0.064113  0.672681  1
  Si  Si3  1  0.672681  0.850162  0.064113  1
  Si  Si4  1  0.064113  0.672681  0.850162  1
  Si  Si5  1  0.649175  0.827381  0.436155  1
  Si  Si6  1  0.249810  0.249810  0.249810  1
  Si  Si7  1  0.750190  0.750190  0.750190  1
  Si  Si8  1  0.172619  0.563845  0.350825  1
  Si  Si9  1  0.563845  0.350825  0.172619  1
  Si  Si10  1  0.350825  0.172619  0.563845  1
  Si  Si11  1  0.935887  0.327319  0.149838  1
  Si  Si12  1  0.327319  0.149838  0.935887  1
  Si  Si13  1  0.149838  0.935887  0.327319  1
  Si  Si14  1  0.827381  0.436155  0.649175  1
  Si  Si15  1  0.436155  0.649175  0.827381  1
  Ir  Ir16  1  0.750118  0.070374  0.429409  1
  Ir  Ir17  1  0.429409  0.750118  0.070374  1
  Ir  Ir18  1  0.070374  0.429409  0.750118  1
  Ir  Ir19  1  0.249882  0.929626  0.570591  1
  Ir  Ir20  1  0.570591  0.249882  0.929626  1
  Ir  Ir21  1  0.929626  0.570591  0.249882  1
