# generated using pymatgen
data_Nb2TcSe6
_symmetry_space_group_name_H-M   'P 1'
_cell_length_a   5.88593663
_cell_length_b   5.88593766
_cell_length_c   7.43455826
_cell_angle_alpha   82.46777470
_cell_angle_beta   82.46776863
_cell_angle_gamma   120.04415117
_symmetry_Int_Tables_number   1
_chemical_formula_structural   Nb2TcSe6
_chemical_formula_sum   'Nb2 Tc1 Se6'
_cell_volume   215.14913317
_cell_formula_units_Z   1
loop_
 _symmetry_equiv_pos_site_id
 _symmetry_equiv_pos_as_xyz
  1  'x, y, z'
loop_
 _atom_site_type_symbol
 _atom_site_label
 _atom_site_symmetry_multiplicity
 _atom_site_fract_x
 _atom_site_fract_y
 _atom_site_fract_z
 _atom_site_occupancy
  Nb  Nb0  1  0.833697  0.500468  0.500008  1
  Nb  Nb1  1  0.500468  0.833697  0.500008  1
  Tc  Tc2  1  0.165990  0.165990  0.500044  1
  Se  Se3  1  0.569267  0.244551  0.265846  1
  Se  Se4  1  0.244551  0.569267  0.265846  1
  Se  Se5  1  0.919254  0.919254  0.265484  1
  Se  Se6  1  0.763601  0.763601  0.734662  1
  Se  Se7  1  0.413900  0.089174  0.734200  1
  Se  Se8  1  0.089174  0.413900  0.734200  1
