# generated using pymatgen
data_Sr4In4Pd3Au
_symmetry_space_group_name_H-M   'P 1'
_cell_length_a   4.57249500
_cell_length_b   7.74936402
_cell_length_c   8.78646200
_cell_angle_alpha   90.40858340
_cell_angle_beta   90.00000000
_cell_angle_gamma   90.00000000
_symmetry_Int_Tables_number   1
_chemical_formula_structural   Sr4In4Pd3Au
_chemical_formula_sum   'Sr4 In4 Pd3 Au1'
_cell_volume   311.33094761
_cell_formula_units_Z   1
loop_
 _symmetry_equiv_pos_site_id
 _symmetry_equiv_pos_as_xyz
  1  'x, y, z'
loop_
 _atom_site_type_symbol
 _atom_site_label
 _atom_site_symmetry_multiplicity
 _atom_site_fract_x
 _atom_site_fract_y
 _atom_site_fract_z
 _atom_site_occupancy
  Sr  Sr0  1  0.250000  0.027377  0.317326  1
  Sr  Sr1  1  0.250000  0.532035  0.178059  1
  Sr  Sr2  1  0.750000  0.966356  0.681746  1
  Sr  Sr3  1  0.750000  0.472614  0.822847  1
  In  In4  1  0.250000  0.143100  0.942628  1
  In  In5  1  0.250000  0.653940  0.564461  1
  In  In6  1  0.750000  0.853438  0.063912  1
  In  In7  1  0.750000  0.358061  0.428329  1
  Pd  Pd8  1  0.250000  0.777665  0.876885  1
  Pd  Pd9  1  0.750000  0.720615  0.377966  1
  Pd  Pd10  1  0.750000  0.221887  0.121653  1
  Au  Au11  1  0.250000  0.272911  0.624186  1
