# generated using pymatgen
data_Dy8Al2PtRh
_symmetry_space_group_name_H-M   'P 1'
_cell_length_a   9.55413317
_cell_length_b   9.57987897
_cell_length_c   9.57987748
_cell_angle_alpha   60.19704230
_cell_angle_beta   60.08886230
_cell_angle_gamma   60.08886873
_symmetry_Int_Tables_number   1
_chemical_formula_structural   Dy8Al2PtRh
_chemical_formula_sum   'Dy16 Al4 Pt2 Rh2'
_cell_volume   621.75975313
_cell_formula_units_Z   2
loop_
 _symmetry_equiv_pos_site_id
 _symmetry_equiv_pos_as_xyz
  1  'x, y, z'
loop_
 _atom_site_type_symbol
 _atom_site_label
 _atom_site_symmetry_multiplicity
 _atom_site_fract_x
 _atom_site_fract_y
 _atom_site_fract_z
 _atom_site_occupancy
  Dy  Dy0  1  0.694362  0.305638  0.305638  1
  Dy  Dy1  1  0.690338  0.696473  0.305828  1
  Dy  Dy2  1  0.307361  0.696473  0.305828  1
  Dy  Dy3  1  0.937596  0.935115  0.562882  1
  Dy  Dy4  1  0.147088  0.142089  0.563735  1
  Dy  Dy5  1  0.564406  0.935115  0.562882  1
  Dy  Dy6  1  0.151202  0.146990  0.146990  1
  Dy  Dy7  1  0.307361  0.305828  0.696473  1
  Dy  Dy8  1  0.938188  0.561812  0.561812  1
  Dy  Dy9  1  0.564406  0.562882  0.935115  1
  Dy  Dy10  1  0.564852  0.935148  0.935148  1
  Dy  Dy11  1  0.937596  0.562882  0.935115  1
  Dy  Dy12  1  0.147088  0.563735  0.142089  1
  Dy  Dy13  1  0.307870  0.692130  0.692130  1
  Dy  Dy14  1  0.690338  0.305828  0.696473  1
  Dy  Dy15  1  0.554818  0.146990  0.146990  1
  Al  Al16  1  0.922259  0.924209  0.231273  1
  Al  Al17  1  0.232149  0.922942  0.922942  1
  Al  Al18  1  0.922259  0.231273  0.924209  1
  Al  Al19  1  0.921966  0.922942  0.922942  1
  Pt  Pt20  1  0.353822  0.357973  0.357973  1
  Pt  Pt21  1  0.930232  0.357973  0.357973  1
  Rh  Rh22  1  0.356222  0.359619  0.927939  1
  Rh  Rh23  1  0.356222  0.927939  0.359619  1
