# generated using pymatgen
data_HoThRh6S
_symmetry_space_group_name_H-M   'P 1'
_cell_length_a   6.00436924
_cell_length_b   6.00436992
_cell_length_c   6.00390500
_cell_angle_alpha   60.00255584
_cell_angle_beta   60.00255206
_cell_angle_gamma   59.99488077
_symmetry_Int_Tables_number   1
_chemical_formula_structural   HoThRh6S
_chemical_formula_sum   'Ho1 Th1 Rh6 S1'
_cell_volume   153.05714332
_cell_formula_units_Z   1
loop_
 _symmetry_equiv_pos_site_id
 _symmetry_equiv_pos_as_xyz
  1  'x, y, z'
loop_
 _atom_site_type_symbol
 _atom_site_label
 _atom_site_symmetry_multiplicity
 _atom_site_fract_x
 _atom_site_fract_y
 _atom_site_fract_z
 _atom_site_occupancy
  Ho  Ho0  1  0.750000  0.750000  0.750000  1
  Th  Th1  1  0.250000  0.250000  0.250000  1
  Rh  Rh2  1  0.736953  0.263048  0.263048  1
  Rh  Rh3  1  0.263048  0.736953  0.263048  1
  Rh  Rh4  1  0.736965  0.736965  0.263036  1
  Rh  Rh5  1  0.263034  0.263034  0.736967  1
  Rh  Rh6  1  0.736951  0.263050  0.736951  1
  Rh  Rh7  1  0.263050  0.736951  0.736951  1
  S  S8  1  0.000000  0.000000  0.000000  1
