# generated using pymatgen
data_Lu4Zr4Pt3Rh
_symmetry_space_group_name_H-M   'P 1'
_cell_length_a   4.67643500
_cell_length_b   6.95548381
_cell_length_c   8.19219187
_cell_angle_alpha   90.34610372
_cell_angle_beta   90.00000000
_cell_angle_gamma   90.00000000
_symmetry_Int_Tables_number   1
_chemical_formula_structural   Lu4Zr4Pt3Rh
_chemical_formula_sum   'Lu4 Zr4 Pt3 Rh1'
_cell_volume   266.46148113
_cell_formula_units_Z   1
loop_
 _symmetry_equiv_pos_site_id
 _symmetry_equiv_pos_as_xyz
  1  'x, y, z'
loop_
 _atom_site_type_symbol
 _atom_site_label
 _atom_site_symmetry_multiplicity
 _atom_site_fract_x
 _atom_site_fract_y
 _atom_site_fract_z
 _atom_site_occupancy
  Lu  Lu0  1  0.250000  0.017023  0.676145  1
  Lu  Lu1  1  0.250000  0.514469  0.819840  1
  Lu  Lu2  1  0.750000  0.985112  0.323044  1
  Lu  Lu3  1  0.750000  0.483106  0.178347  1
  Zr  Zr4  1  0.250000  0.151423  0.081264  1
  Zr  Zr5  1  0.250000  0.643377  0.417990  1
  Zr  Zr6  1  0.750000  0.849670  0.920950  1
  Zr  Zr7  1  0.750000  0.351450  0.578082  1
  Pt  Pt8  1  0.250000  0.766243  0.093970  1
  Pt  Pt9  1  0.750000  0.737088  0.593523  1
  Pt  Pt10  1  0.750000  0.234594  0.906003  1
  Rh  Rh11  1  0.250000  0.266447  0.410843  1
