# generated using pymatgen
data_Pr8Cd(Si4Ir)3
_symmetry_space_group_name_H-M   'P 1'
_cell_length_a   8.30920200
_cell_length_b   8.30920249
_cell_length_c   8.65159100
_cell_angle_alpha   90.00000000
_cell_angle_beta   90.00000000
_cell_angle_gamma   120.00000603
_symmetry_Int_Tables_number   1
_chemical_formula_structural   Pr8Cd(Si4Ir)3
_chemical_formula_sum   'Pr8 Cd1 Si12 Ir3'
_cell_volume   517.30329511
_cell_formula_units_Z   1
loop_
 _symmetry_equiv_pos_site_id
 _symmetry_equiv_pos_as_xyz
  1  'x, y, z'
loop_
 _atom_site_type_symbol
 _atom_site_label
 _atom_site_symmetry_multiplicity
 _atom_site_fract_x
 _atom_site_fract_y
 _atom_site_fract_z
 _atom_site_occupancy
  Pr  Pr0  1  0.495635  0.504365  0.742847  1
  Pr  Pr1  1  0.496954  0.503046  0.256629  1
  Pr  Pr2  1  0.008730  0.504365  0.742847  1
  Pr  Pr3  1  0.006092  0.503046  0.256629  1
  Pr  Pr4  1  0.495635  0.991270  0.742847  1
  Pr  Pr5  1  0.496954  0.993908  0.256629  1
  Pr  Pr6  1  0.000000  0.000000  0.748135  1
  Pr  Pr7  1  0.000000  0.000000  0.253051  1
  Cd  Cd8  1  0.666667  0.333333  0.995597  1
  Si  Si9  1  0.843066  0.156934  0.001782  1
  Si  Si10  1  0.169355  0.830645  0.998964  1
  Si  Si11  1  0.313867  0.156934  0.001782  1
  Si  Si12  1  0.166641  0.833359  0.499988  1
  Si  Si13  1  0.661289  0.830645  0.998964  1
  Si  Si14  1  0.832183  0.167817  0.500106  1
  Si  Si15  1  0.843066  0.686133  0.001782  1
  Si  Si16  1  0.666718  0.833359  0.499988  1
  Si  Si17  1  0.169355  0.338711  0.998964  1
  Si  Si18  1  0.335634  0.167817  0.500106  1
  Si  Si19  1  0.166641  0.333282  0.499988  1
  Si  Si20  1  0.832183  0.664366  0.500106  1
  Ir  Ir21  1  0.333333  0.666667  0.002058  1
  Ir  Ir22  1  0.333333  0.666667  0.498155  1
  Ir  Ir23  1  0.666667  0.333333  0.502063  1
