# generated using pymatgen
data_TmMgCo3P3Rh
_symmetry_space_group_name_H-M   'P 1'
_cell_length_a   3.71124000
_cell_length_b   10.48178200
_cell_length_c   12.36966400
_cell_angle_alpha   90.00000000
_cell_angle_beta   90.00000000
_cell_angle_gamma   90.00000000
_symmetry_Int_Tables_number   1
_chemical_formula_structural   TmMgCo3P3Rh
_chemical_formula_sum   'Tm4 Mg4 Co12 P12 Rh4'
_cell_volume   481.18498421
_cell_formula_units_Z   4
loop_
 _symmetry_equiv_pos_site_id
 _symmetry_equiv_pos_as_xyz
  1  'x, y, z'
loop_
 _atom_site_type_symbol
 _atom_site_label
 _atom_site_symmetry_multiplicity
 _atom_site_fract_x
 _atom_site_fract_y
 _atom_site_fract_z
 _atom_site_occupancy
  Tm  Tm0  1  0.250000  0.582006  0.712125  1
  Tm  Tm1  1  0.250000  0.917994  0.212125  1
  Tm  Tm2  1  0.750000  0.417994  0.287875  1
  Tm  Tm3  1  0.750000  0.082006  0.787875  1
  Mg  Mg4  1  0.250000  0.706144  0.992392  1
  Mg  Mg5  1  0.250000  0.793856  0.492392  1
  Mg  Mg6  1  0.750000  0.293856  0.007608  1
  Mg  Mg7  1  0.750000  0.206144  0.507608  1
  Co  Co8  1  0.250000  0.217209  0.175445  1
  Co  Co9  1  0.250000  0.282791  0.675445  1
  Co  Co10  1  0.750000  0.782791  0.824555  1
  Co  Co11  1  0.750000  0.717209  0.324555  1
  Co  Co12  1  0.250000  0.883956  0.697514  1
  Co  Co13  1  0.250000  0.616044  0.197514  1
  Co  Co14  1  0.750000  0.116044  0.302486  1
  Co  Co15  1  0.750000  0.383956  0.802486  1
  Co  Co16  1  0.250000  0.467348  0.933396  1
  Co  Co17  1  0.250000  0.032652  0.433396  1
  Co  Co18  1  0.750000  0.532652  0.066604  1
  Co  Co19  1  0.750000  0.967348  0.566604  1
  P  P20  1  0.250000  0.422954  0.116555  1
  P  P21  1  0.250000  0.077046  0.616555  1
  P  P22  1  0.750000  0.577046  0.883445  1
  P  P23  1  0.750000  0.922954  0.383445  1
  P  P24  1  0.250000  0.275731  0.853295  1
  P  P25  1  0.250000  0.224269  0.353295  1
  P  P26  1  0.750000  0.724269  0.146705  1
  P  P27  1  0.750000  0.775731  0.646705  1
  P  P28  1  0.250000  0.597263  0.377280  1
  P  P29  1  0.250000  0.902737  0.877280  1
  P  P30  1  0.750000  0.402737  0.622720  1
  P  P31  1  0.750000  0.097263  0.122720  1
  Rh  Rh32  1  0.250000  0.400174  0.476476  1
  Rh  Rh33  1  0.250000  0.099826  0.976476  1
  Rh  Rh34  1  0.750000  0.599826  0.523524  1
  Rh  Rh35  1  0.750000  0.900174  0.023524  1
