# generated using pymatgen
data_Ba6PrMn(BO3)6
_symmetry_space_group_name_H-M   'P 1'
_cell_length_a   8.20973044
_cell_length_b   8.20973061
_cell_length_c   8.20972933
_cell_angle_alpha   105.84909419
_cell_angle_beta   105.84910693
_cell_angle_gamma   105.84910879
_symmetry_Int_Tables_number   1
_chemical_formula_structural   Ba6PrMn(BO3)6
_chemical_formula_sum   'Ba6 Pr1 Mn1 B6 O18'
_cell_volume   474.54615863
_cell_formula_units_Z   1
loop_
 _symmetry_equiv_pos_site_id
 _symmetry_equiv_pos_as_xyz
  1  'x, y, z'
loop_
 _atom_site_type_symbol
 _atom_site_label
 _atom_site_symmetry_multiplicity
 _atom_site_fract_x
 _atom_site_fract_y
 _atom_site_fract_z
 _atom_site_occupancy
  Ba  Ba0  1  0.348312  0.728233  0.833490  1
  Ba  Ba1  1  0.833490  0.348312  0.728233  1
  Ba  Ba2  1  0.728233  0.833490  0.348312  1
  Ba  Ba3  1  0.651688  0.271767  0.166510  1
  Ba  Ba4  1  0.166510  0.651688  0.271767  1
  Ba  Ba5  1  0.271767  0.166510  0.651688  1
  Pr  Pr6  1  0.000000  0.000000  0.000000  1
  Mn  Mn7  1  0.500000  0.500000  0.500000  1
  B  B8  1  0.701843  0.618854  0.944579  1
  B  B9  1  0.944579  0.701843  0.618854  1
  B  B10  1  0.618854  0.944579  0.701843  1
  B  B11  1  0.055421  0.298157  0.381146  1
  B  B12  1  0.381146  0.055421  0.298157  1
  B  B13  1  0.298157  0.381146  0.055421  1
  O  O14  1  0.054258  0.796344  0.547926  1
  O  O15  1  0.547926  0.054258  0.796344  1
  O  O16  1  0.426939  0.498631  0.230734  1
  O  O17  1  0.498631  0.230734  0.426939  1
  O  O18  1  0.230734  0.426939  0.498631  1
  O  O19  1  0.769266  0.573061  0.501369  1
  O  O20  1  0.573061  0.501369  0.769266  1
  O  O21  1  0.501369  0.769266  0.573061  1
  O  O22  1  0.274227  0.196728  0.991584  1
  O  O23  1  0.196728  0.991584  0.274227  1
  O  O24  1  0.991584  0.274227  0.196728  1
  O  O25  1  0.725773  0.803272  0.008416  1
  O  O26  1  0.803272  0.008416  0.725773  1
  O  O27  1  0.008416  0.725773  0.803272  1
  O  O28  1  0.203656  0.452074  0.945742  1
  O  O29  1  0.452074  0.945742  0.203656  1
  O  O30  1  0.945742  0.203656  0.452074  1
  O  O31  1  0.796344  0.547926  0.054258  1
