# generated using pymatgen
data_Yb2SmEr3(Si3Ru)8
_symmetry_space_group_name_H-M   'P 1'
_cell_length_a   10.13244290
_cell_length_b   10.13133278
_cell_length_c   8.14075327
_cell_angle_alpha   90.05791540
_cell_angle_beta   89.94581339
_cell_angle_gamma   132.62680026
_symmetry_Int_Tables_number   1
_chemical_formula_structural   Yb2SmEr3(Si3Ru)8
_chemical_formula_sum   'Yb2 Sm1 Er3 Si24 Ru8'
_cell_volume   614.88415357
_cell_formula_units_Z   1
loop_
 _symmetry_equiv_pos_site_id
 _symmetry_equiv_pos_as_xyz
  1  'x, y, z'
loop_
 _atom_site_type_symbol
 _atom_site_label
 _atom_site_symmetry_multiplicity
 _atom_site_fract_x
 _atom_site_fract_y
 _atom_site_fract_z
 _atom_site_occupancy
  Yb  Yb0  1  0.001446  0.501410  0.749816  1
  Yb  Yb1  1  0.500384  0.500335  0.500248  1
  Sm  Sm2  1  0.498765  0.998654  0.250407  1
  Er  Er3  1  0.503458  0.003622  0.749121  1
  Er  Er4  1  0.996130  0.495883  0.250377  1
  Er  Er5  1  0.000382  0.000376  0.999876  1
  Si  Si6  1  0.388476  0.155580  0.003093  1
  Si  Si7  1  0.654252  0.886410  0.496995  1
  Si  Si8  1  0.113658  0.346306  0.503157  1
  Si  Si9  1  0.844974  0.611616  0.996753  1
  Si  Si10  1  0.612505  0.845000  0.991218  1
  Si  Si11  1  0.346260  0.114556  0.509202  1
  Si  Si12  1  0.885282  0.652777  0.492022  1
  Si  Si13  1  0.154049  0.387321  0.007504  1
  Si  Si14  1  0.612126  0.379507  0.229236  1
  Si  Si15  1  0.878980  0.112153  0.272251  1
  Si  Si16  1  0.887657  0.121429  0.728380  1
  Si  Si17  1  0.621217  0.387776  0.770056  1
  Si  Si18  1  0.392044  0.624621  0.769356  1
  Si  Si19  1  0.125243  0.892100  0.729446  1
  Si  Si20  1  0.707276  0.297423  0.997448  1
  Si  Si21  1  0.797873  0.207130  0.502495  1
  Si  Si22  1  0.293310  0.702066  0.997917  1
  Si  Si23  1  0.201520  0.793288  0.502182  1
  Si  Si24  1  0.166350  0.171396  0.334037  1
  Si  Si25  1  0.668617  0.664438  0.168390  1
  Si  Si26  1  0.336175  0.332799  0.831432  1
  Si  Si27  1  0.830200  0.833988  0.666151  1
  Si  Si28  1  0.374390  0.606637  0.230489  1
  Si  Si29  1  0.106796  0.873893  0.270926  1
  Ru  Ru30  1  0.628128  0.627635  0.875071  1
  Ru  Ru31  1  0.125064  0.124847  0.627765  1
  Ru  Ru32  1  0.875708  0.875433  0.372381  1
  Ru  Ru33  1  0.372585  0.372689  0.124804  1
  Ru  Ru34  1  0.328736  0.671559  0.499505  1
  Ru  Ru35  1  0.170488  0.829829  0.000545  1
  Ru  Ru36  1  0.669540  0.328648  0.499276  1
  Ru  Ru37  1  0.829952  0.168871  0.000672  1
