# generated using pymatgen
data_AcLu(GeAu)2
_symmetry_space_group_name_H-M   'P 1'
_cell_length_a   4.52878100
_cell_length_b   4.52878127
_cell_length_c   7.83261100
_cell_angle_alpha   90.00000000
_cell_angle_beta   90.00000000
_cell_angle_gamma   119.99999069
_symmetry_Int_Tables_number   1
_chemical_formula_structural   AcLu(GeAu)2
_chemical_formula_sum   'Ac1 Lu1 Ge2 Au2'
_cell_volume   139.12330837
_cell_formula_units_Z   1
loop_
 _symmetry_equiv_pos_site_id
 _symmetry_equiv_pos_as_xyz
  1  'x, y, z'
loop_
 _atom_site_type_symbol
 _atom_site_label
 _atom_site_symmetry_multiplicity
 _atom_site_fract_x
 _atom_site_fract_y
 _atom_site_fract_z
 _atom_site_occupancy
  Ac  Ac0  1  0.000000  0.000000  0.488653  1
  Lu  Lu1  1  0.000000  0.000000  0.994393  1
  Ge  Ge2  1  0.666667  0.333333  0.796843  1
  Ge  Ge3  1  0.333333  0.666667  0.250746  1
  Au  Au4  1  0.333333  0.666667  0.761637  1
  Au  Au5  1  0.666667  0.333333  0.173126  1
