# generated using pymatgen
data_Cs7Rb(In2Se5)2
_symmetry_space_group_name_H-M   'P 1'
_cell_length_a   8.21153737
_cell_length_b   10.27081192
_cell_length_c   11.76072978
_cell_angle_alpha   72.98399260
_cell_angle_beta   70.42476367
_cell_angle_gamma   84.56579375
_symmetry_Int_Tables_number   1
_chemical_formula_structural   Cs7Rb(In2Se5)2
_chemical_formula_sum   'Cs7 Rb1 In4 Se10'
_cell_volume   893.64270419
_cell_formula_units_Z   1
loop_
 _symmetry_equiv_pos_site_id
 _symmetry_equiv_pos_as_xyz
  1  'x, y, z'
loop_
 _atom_site_type_symbol
 _atom_site_label
 _atom_site_symmetry_multiplicity
 _atom_site_fract_x
 _atom_site_fract_y
 _atom_site_fract_z
 _atom_site_occupancy
  Cs  Cs0  1  0.495618  0.208644  0.087547  1
  Cs  Cs1  1  0.552799  0.185635  0.541389  1
  Cs  Cs2  1  0.447368  0.813619  0.458936  1
  Cs  Cs3  1  0.114194  0.182374  0.905785  1
  Cs  Cs4  1  0.886124  0.816740  0.093831  1
  Cs  Cs5  1  0.770428  0.471590  0.660320  1
  Cs  Cs6  1  0.229609  0.528254  0.339677  1
  Rb  Rb7  1  0.502534  0.792284  0.912317  1
  In  In8  1  0.034823  0.005794  0.340558  1
  In  In9  1  0.967472  0.991994  0.659787  1
  In  In10  1  0.879528  0.414314  0.165259  1
  In  In11  1  0.119641  0.588395  0.833765  1
  Se  Se12  1  0.833159  0.848809  0.557905  1
  Se  Se13  1  0.167940  0.149997  0.442383  1
  Se  Se14  1  0.818149  0.147455  0.227079  1
  Se  Se15  1  0.186759  0.853690  0.773146  1
  Se  Se16  1  0.210003  0.486490  0.042110  1
  Se  Se17  1  0.787717  0.520395  0.956750  1
  Se  Se18  1  0.721936  0.518328  0.344615  1
  Se  Se19  1  0.276868  0.481417  0.656183  1
  Se  Se20  1  0.257714  0.894205  0.184923  1
  Se  Se21  1  0.739615  0.099578  0.815734  1
