# generated using pymatgen
data_Sm4Dy2NiCl10
_symmetry_space_group_name_H-M   'P 1'
_cell_length_a   7.14956324
_cell_length_b   9.04103086
_cell_length_c   9.03412892
_cell_angle_alpha   109.25891387
_cell_angle_beta   95.55730788
_cell_angle_gamma   105.90570466
_symmetry_Int_Tables_number   1
_chemical_formula_structural   Sm4Dy2NiCl10
_chemical_formula_sum   'Sm4 Dy2 Ni1 Cl10'
_cell_volume   518.77789190
_cell_formula_units_Z   1
loop_
 _symmetry_equiv_pos_site_id
 _symmetry_equiv_pos_as_xyz
  1  'x, y, z'
loop_
 _atom_site_type_symbol
 _atom_site_label
 _atom_site_symmetry_multiplicity
 _atom_site_fract_x
 _atom_site_fract_y
 _atom_site_fract_z
 _atom_site_occupancy
  Sm  Sm0  1  0.531473  0.695963  0.896667  1
  Sm  Sm1  1  0.468527  0.304037  0.103333  1
  Sm  Sm2  1  0.638676  0.053462  0.753209  1
  Sm  Sm3  1  0.361324  0.946538  0.246791  1
  Dy  Dy4  1  0.857889  0.135780  0.182827  1
  Dy  Dy5  1  0.142111  0.864220  0.817173  1
  Ni  Ni6  1  0.500000  0.000000  0.000000  1
  Cl  Cl7  1  0.742570  0.077489  0.444343  1
  Cl  Cl8  1  0.257430  0.922511  0.555657  1
  Cl  Cl9  1  0.949862  0.830407  0.074591  1
  Cl  Cl10  1  0.050138  0.169593  0.925409  1
  Cl  Cl11  1  0.268131  0.244951  0.343094  1
  Cl  Cl12  1  0.731869  0.755049  0.656906  1
  Cl  Cl13  1  0.589931  0.367543  0.836303  1
  Cl  Cl14  1  0.410069  0.632457  0.163697  1
  Cl  Cl15  1  0.850717  0.443943  0.273284  1
  Cl  Cl16  1  0.149283  0.556057  0.726716  1
