# generated using pymatgen
data_ErTm5(Lu2Si3)2
_symmetry_space_group_name_H-M   'P 1'
_cell_length_a   8.29299900
_cell_length_b   8.29413480
_cell_length_c   6.19471500
_cell_angle_alpha   90.00000000
_cell_angle_beta   90.00000000
_cell_angle_gamma   119.99547414
_symmetry_Int_Tables_number   1
_chemical_formula_structural   ErTm5(Lu2Si3)2
_chemical_formula_sum   'Er1 Tm5 Lu4 Si6'
_cell_volume   369.02387870
_cell_formula_units_Z   1
loop_
 _symmetry_equiv_pos_site_id
 _symmetry_equiv_pos_as_xyz
  1  'x, y, z'
loop_
 _atom_site_type_symbol
 _atom_site_label
 _atom_site_symmetry_multiplicity
 _atom_site_fract_x
 _atom_site_fract_y
 _atom_site_fract_z
 _atom_site_occupancy
  Er  Er0  1  0.757934  0.000000  0.750000  1
  Tm  Tm1  1  0.757805  0.757768  0.250000  1
  Tm  Tm2  1  0.000037  0.242232  0.250000  1
  Tm  Tm3  1  0.000030  0.757791  0.750000  1
  Tm  Tm4  1  0.242239  0.242209  0.750000  1
  Tm  Tm5  1  0.242142  0.000000  0.250000  1
  Lu  Lu6  1  0.666649  0.333365  0.000018  1
  Lu  Lu7  1  0.333283  0.666635  0.499982  1
  Lu  Lu8  1  0.333283  0.666635  0.000018  1
  Lu  Lu9  1  0.666649  0.333365  0.499982  1
  Si  Si10  1  0.394991  0.000000  0.750000  1
  Si  Si11  1  0.395094  0.395092  0.250000  1
  Si  Si12  1  0.000002  0.604908  0.250000  1
  Si  Si13  1  0.000087  0.395232  0.750000  1
  Si  Si14  1  0.604855  0.604768  0.750000  1
  Si  Si15  1  0.604920  0.000000  0.250000  1
