# generated using pymatgen
data_Tm12Zn(Si4Rh)3
_symmetry_space_group_name_H-M   'P 1'
_cell_length_a   4.18016800
_cell_length_b   10.61633095
_cell_length_c   12.21072300
_cell_angle_alpha   90.10534847
_cell_angle_beta   90.00000000
_cell_angle_gamma   90.00000000
_symmetry_Int_Tables_number   1
_chemical_formula_structural   Tm12Zn(Si4Rh)3
_chemical_formula_sum   'Tm12 Zn1 Si12 Rh3'
_cell_volume   541.88712194
_cell_formula_units_Z   1
loop_
 _symmetry_equiv_pos_site_id
 _symmetry_equiv_pos_as_xyz
  1  'x, y, z'
loop_
 _atom_site_type_symbol
 _atom_site_label
 _atom_site_symmetry_multiplicity
 _atom_site_fract_x
 _atom_site_fract_y
 _atom_site_fract_z
 _atom_site_occupancy
  Tm  Tm0  1  0.250000  0.879548  0.022180  1
  Tm  Tm1  1  0.250000  0.624253  0.519276  1
  Tm  Tm2  1  0.750000  0.120241  0.980559  1
  Tm  Tm3  1  0.750000  0.378598  0.476981  1
  Tm  Tm4  1  0.250000  0.921561  0.600163  1
  Tm  Tm5  1  0.250000  0.579177  0.102861  1
  Tm  Tm6  1  0.750000  0.079112  0.396286  1
  Tm  Tm7  1  0.750000  0.421036  0.898646  1
  Tm  Tm8  1  0.250000  0.670125  0.802799  1
  Tm  Tm9  1  0.250000  0.839679  0.300317  1
  Tm  Tm10  1  0.750000  0.340323  0.199033  1
  Tm  Tm11  1  0.750000  0.156835  0.700180  1
  Zn  Zn12  1  0.250000  0.389579  0.681650  1
  Si  Si13  1  0.250000  0.011886  0.822929  1
  Si  Si14  1  0.250000  0.486339  0.324952  1
  Si  Si15  1  0.750000  0.985452  0.178278  1
  Si  Si16  1  0.750000  0.523736  0.676247  1
  Si  Si17  1  0.250000  0.242235  0.848225  1
  Si  Si18  1  0.250000  0.251502  0.340384  1
  Si  Si19  1  0.750000  0.751818  0.158580  1
  Si  Si20  1  0.750000  0.752925  0.658177  1
  Si  Si21  1  0.250000  0.185011  0.535385  1
  Si  Si22  1  0.250000  0.301227  0.043743  1
  Si  Si23  1  0.750000  0.801822  0.456905  1
  Si  Si24  1  0.750000  0.698607  0.959349  1
  Rh  Rh25  1  0.250000  0.107787  0.179932  1
  Rh  Rh26  1  0.750000  0.609009  0.317198  1
  Rh  Rh27  1  0.750000  0.890576  0.818783  1
