# generated using pymatgen
data_La6Nd3Tm(Sn3Cl)2
_symmetry_space_group_name_H-M   'P 1'
_cell_length_a   9.54740200
_cell_length_b   9.54740042
_cell_length_c   6.81098100
_cell_angle_alpha   90.00000000
_cell_angle_beta   90.00000000
_cell_angle_gamma   119.99999162
_symmetry_Int_Tables_number   1
_chemical_formula_structural   La6Nd3Tm(Sn3Cl)2
_chemical_formula_sum   'La6 Nd3 Tm1 Sn6 Cl2'
_cell_volume   537.66365944
_cell_formula_units_Z   1
loop_
 _symmetry_equiv_pos_site_id
 _symmetry_equiv_pos_as_xyz
  1  'x, y, z'
loop_
 _atom_site_type_symbol
 _atom_site_label
 _atom_site_symmetry_multiplicity
 _atom_site_fract_x
 _atom_site_fract_y
 _atom_site_fract_z
 _atom_site_occupancy
  La  La0  1  0.738020  0.999858  0.750649  1
  La  La1  1  0.738020  0.738162  0.249351  1
  La  La2  1  0.000142  0.261980  0.249351  1
  La  La3  1  0.000142  0.738162  0.750649  1
  La  La4  1  0.261838  0.261980  0.750649  1
  La  La5  1  0.261838  0.999858  0.249351  1
  Nd  Nd6  1  0.666667  0.333333  0.000000  1
  Nd  Nd7  1  0.333333  0.666667  0.500000  1
  Nd  Nd8  1  0.666667  0.333333  0.500000  1
  Tm  Tm9  1  0.333333  0.666667  0.000000  1
  Sn  Sn10  1  0.607925  0.610985  0.752461  1
  Sn  Sn11  1  0.003060  0.610985  0.247539  1
  Sn  Sn12  1  0.607925  0.996940  0.247539  1
  Sn  Sn13  1  0.389015  0.996940  0.752461  1
  Sn  Sn14  1  0.003060  0.392075  0.752461  1
  Sn  Sn15  1  0.389015  0.392075  0.247539  1
  Cl  Cl16  1  0.000000  0.000000  0.500000  1
  Cl  Cl17  1  0.000000  0.000000  0.000000  1
