# generated using pymatgen
data_Tb12InTc2Ni2Au
_symmetry_space_group_name_H-M   'P 1'
_cell_length_a   8.45752429
_cell_length_b   8.45732548
_cell_length_c   8.45752590
_cell_angle_alpha   104.15936877
_cell_angle_beta   111.16277612
_cell_angle_gamma   113.22709722
_symmetry_Int_Tables_number   1
_chemical_formula_structural   Tb12InTc2Ni2Au
_chemical_formula_sum   'Tb12 In1 Tc2 Ni2 Au1'
_cell_volume   462.55438642
_cell_formula_units_Z   1
loop_
 _symmetry_equiv_pos_site_id
 _symmetry_equiv_pos_as_xyz
  1  'x, y, z'
loop_
 _atom_site_type_symbol
 _atom_site_label
 _atom_site_symmetry_multiplicity
 _atom_site_fract_x
 _atom_site_fract_y
 _atom_site_fract_z
 _atom_site_occupancy
  Tb  Tb0  1  0.693463  0.263089  0.956539  1
  Tb  Tb1  1  0.306537  0.736911  0.043461  1
  Tb  Tb2  1  0.693449  0.736911  0.430374  1
  Tb  Tb3  1  0.306551  0.263089  0.569626  1
  Tb  Tb4  1  0.817008  0.149124  0.332116  1
  Tb  Tb5  1  0.817005  0.484896  0.667891  1
  Tb  Tb6  1  0.182992  0.850876  0.667884  1
  Tb  Tb7  1  0.182995  0.515104  0.332109  1
  Tb  Tb8  1  0.599084  0.781756  0.817334  1
  Tb  Tb9  1  0.964422  0.781756  0.182673  1
  Tb  Tb10  1  0.035578  0.218244  0.817327  1
  Tb  Tb11  1  0.400916  0.218244  0.182666  1
  In  In12  1  0.500000  0.000000  0.500000  1
  Tc  Tc13  1  0.824611  0.500000  0.324611  1
  Tc  Tc14  1  0.175389  0.500000  0.675389  1
  Ni  Ni15  1  0.999991  0.114722  0.114731  1
  Ni  Ni16  1  0.000009  0.885278  0.885269  1
  Au  Au17  1  0.500000  0.500000  0.000000  1
