# generated using pymatgen
data_MgAg2PbO4
_symmetry_space_group_name_H-M   'P 1'
_cell_length_a   3.35281400
_cell_length_b   5.61513747
_cell_length_c   6.68999477
_cell_angle_alpha   72.36169972
_cell_angle_beta   90.00000000
_cell_angle_gamma   90.00000000
_symmetry_Int_Tables_number   1
_chemical_formula_structural   MgAg2PbO4
_chemical_formula_sum   'Mg1 Ag2 Pb1 O4'
_cell_volume   120.02817856
_cell_formula_units_Z   1
loop_
 _symmetry_equiv_pos_site_id
 _symmetry_equiv_pos_as_xyz
  1  'x, y, z'
loop_
 _atom_site_type_symbol
 _atom_site_label
 _atom_site_symmetry_multiplicity
 _atom_site_fract_x
 _atom_site_fract_y
 _atom_site_fract_z
 _atom_site_occupancy
  Mg  Mg0  1  0.000000  0.000000  0.000000  1
  Ag  Ag1  1  0.500000  0.000000  0.500000  1
  Ag  Ag2  1  0.000000  0.500000  0.500000  1
  Pb  Pb3  1  0.500000  0.500000  0.000000  1
  O  O4  1  0.000000  0.618843  0.171893  1
  O  O5  1  0.000000  0.381157  0.828107  1
  O  O6  1  0.500000  0.102870  0.166773  1
  O  O7  1  0.500000  0.897130  0.833227  1
