# generated using pymatgen
data_Pr2Al16OsPt8
_symmetry_space_group_name_H-M   'P 1'
_cell_length_a   11.18626675
_cell_length_b   11.18626666
_cell_length_c   11.18640846
_cell_angle_alpha   158.38571621
_cell_angle_beta   116.65921488
_cell_angle_gamma   67.76631460
_symmetry_Int_Tables_number   1
_chemical_formula_structural   Pr2Al16OsPt8
_chemical_formula_sum   'Pr2 Al16 Os1 Pt8'
_cell_volume   457.60100120
_cell_formula_units_Z   1
loop_
 _symmetry_equiv_pos_site_id
 _symmetry_equiv_pos_as_xyz
  1  'x, y, z'
loop_
 _atom_site_type_symbol
 _atom_site_label
 _atom_site_symmetry_multiplicity
 _atom_site_fract_x
 _atom_site_fract_y
 _atom_site_fract_z
 _atom_site_occupancy
  Pr  Pr0  1  0.230806  0.230343  0.000489  1
  Pr  Pr1  1  0.770146  0.769682  0.000489  1
  Al  Al2  1  0.277081  0.392408  0.884667  1
  Al  Al3  1  0.090101  0.924457  0.165665  1
  Al  Al4  1  0.505667  0.200833  0.304860  1
  Al  Al5  1  0.241208  0.075563  0.165665  1
  Al  Al6  1  0.908565  0.415854  0.492649  1
  Al  Al7  1  0.723762  0.600015  0.123749  1
  Al  Al8  1  0.901764  0.208466  0.693288  1
  Al  Al9  1  0.484824  0.791524  0.693288  1
  Al  Al10  1  0.388244  0.999976  0.388220  1
  Al  Al11  1  0.626996  0.000024  0.627020  1
  Al  Al12  1  0.492260  0.607586  0.884667  1
  Al  Al13  1  0.104027  0.799192  0.304860  1
  Al  Al14  1  0.903994  0.084164  0.819904  1
  Al  Al15  1  0.735741  0.915911  0.819904  1
  Al  Al16  1  0.523733  0.399987  0.123749  1
  Al  Al17  1  0.076795  0.584085  0.492649  1
  Os  Os18  1  0.776291  0.500096  0.276388  1
  Pt  Pt19  1  0.028454  0.344059  0.684434  1
  Pt  Pt20  1  0.627526  0.123879  0.503633  1
  Pt  Pt21  1  0.255777  0.499955  0.755731  1
  Pt  Pt22  1  0.379755  0.876108  0.503633  1
  Pt  Pt23  1  0.984229  0.999902  0.984131  1
  Pt  Pt24  1  0.646917  0.335953  0.310916  1
  Pt  Pt25  1  0.340376  0.655980  0.684434  1
  Pt  Pt26  1  0.974963  0.663999  0.310916  1
