# generated using pymatgen
data_TbDy2AgSn3Ir2
_symmetry_space_group_name_H-M   'P 1'
_cell_length_a   7.70544906
_cell_length_b   7.70248640
_cell_length_c   3.89455200
_cell_angle_alpha   90.00000000
_cell_angle_beta   90.00000000
_cell_angle_gamma   120.02755697
_symmetry_Int_Tables_number   1
_chemical_formula_structural   TbDy2AgSn3Ir2
_chemical_formula_sum   'Tb1 Dy2 Ag1 Sn3 Ir2'
_cell_volume   200.12270755
_cell_formula_units_Z   1
loop_
 _symmetry_equiv_pos_site_id
 _symmetry_equiv_pos_as_xyz
  1  'x, y, z'
loop_
 _atom_site_type_symbol
 _atom_site_label
 _atom_site_symmetry_multiplicity
 _atom_site_fract_x
 _atom_site_fract_y
 _atom_site_fract_z
 _atom_site_occupancy
  Tb  Tb0  1  0.410271  0.386913  0.000000  1
  Dy  Dy1  1  0.614026  0.024195  0.000000  1
  Dy  Dy2  1  0.975775  0.589501  0.000000  1
  Ag  Ag3  1  0.333160  0.667209  0.500000  1
  Sn  Sn4  1  0.255872  0.995936  0.500000  1
  Sn  Sn5  1  0.003414  0.259608  0.500000  1
  Sn  Sn6  1  0.740437  0.743955  0.500000  1
  Ir  Ir7  1  0.667574  0.333109  0.500000  1
  Ir  Ir8  1  0.999471  0.999574  0.000000  1
