# generated using pymatgen
data_Tm(ThGa)2
_symmetry_space_group_name_H-M   'P 1'
_cell_length_a   7.79949000
_cell_length_b   7.79949000
_cell_length_c   4.36728200
_cell_angle_alpha   90.00000000
_cell_angle_beta   90.00000000
_cell_angle_gamma   90.00000000
_symmetry_Int_Tables_number   1
_chemical_formula_structural   Tm(ThGa)2
_chemical_formula_sum   'Tm2 Th4 Ga4'
_cell_volume   265.67069192
_cell_formula_units_Z   2
loop_
 _symmetry_equiv_pos_site_id
 _symmetry_equiv_pos_as_xyz
  1  'x, y, z'
loop_
 _atom_site_type_symbol
 _atom_site_label
 _atom_site_symmetry_multiplicity
 _atom_site_fract_x
 _atom_site_fract_y
 _atom_site_fract_z
 _atom_site_occupancy
  Tm  Tm0  1  0.000000  0.000000  0.000000  1
  Tm  Tm1  1  0.500000  0.500000  0.000000  1
  Th  Th2  1  0.676151  0.176151  0.500000  1
  Th  Th3  1  0.176151  0.323849  0.500000  1
  Th  Th4  1  0.823849  0.676151  0.500000  1
  Th  Th5  1  0.323849  0.823849  0.500000  1
  Ga  Ga6  1  0.879529  0.379529  0.000000  1
  Ga  Ga7  1  0.379529  0.120471  0.000000  1
  Ga  Ga8  1  0.620471  0.879529  0.000000  1
  Ga  Ga9  1  0.120471  0.620471  0.000000  1
