# generated using pymatgen
data_KNi8Bi8S
_symmetry_space_group_name_H-M   'P 1'
_cell_length_a   9.95324400
_cell_length_b   9.95324400
_cell_length_c   4.28351200
_cell_angle_alpha   90.00000000
_cell_angle_beta   90.00000000
_cell_angle_gamma   90.00000000
_symmetry_Int_Tables_number   1
_chemical_formula_structural   KNi8Bi8S
_chemical_formula_sum   'K1 Ni8 Bi8 S1'
_cell_volume   424.35496654
_cell_formula_units_Z   1
loop_
 _symmetry_equiv_pos_site_id
 _symmetry_equiv_pos_as_xyz
  1  'x, y, z'
loop_
 _atom_site_type_symbol
 _atom_site_label
 _atom_site_symmetry_multiplicity
 _atom_site_fract_x
 _atom_site_fract_y
 _atom_site_fract_z
 _atom_site_occupancy
  K  K0  1  0.500000  0.500000  0.512835  1
  Ni  Ni1  1  0.085922  0.823166  0.504552  1
  Ni  Ni2  1  0.914078  0.176834  0.504552  1
  Ni  Ni3  1  0.823166  0.914078  0.504552  1
  Ni  Ni4  1  0.176834  0.085922  0.504552  1
  Ni  Ni5  1  0.187248  0.939507  0.998841  1
  Ni  Ni6  1  0.812752  0.060493  0.998841  1
  Ni  Ni7  1  0.939507  0.812752  0.998841  1
  Ni  Ni8  1  0.060493  0.187248  0.998841  1
  Bi  Bi9  1  0.351678  0.878164  0.499656  1
  Bi  Bi10  1  0.648322  0.121836  0.499656  1
  Bi  Bi11  1  0.878164  0.648322  0.499656  1
  Bi  Bi12  1  0.121836  0.351678  0.499656  1
  Bi  Bi13  1  0.169346  0.668883  0.002926  1
  Bi  Bi14  1  0.830654  0.331117  0.002926  1
  Bi  Bi15  1  0.668883  0.830654  0.002926  1
  Bi  Bi16  1  0.331117  0.169346  0.002926  1
  S  S17  1  0.000000  0.000000  0.252664  1
