# generated using pymatgen
data_Dy12Ga2Si3Tc
_symmetry_space_group_name_H-M   'P 1'
_cell_length_a   8.48244085
_cell_length_b   8.48244295
_cell_length_c   8.48244200
_cell_angle_alpha   110.85636587
_cell_angle_beta   111.71755046
_cell_angle_gamma   105.89898517
_symmetry_Int_Tables_number   1
_chemical_formula_structural   Dy12Ga2Si3Tc
_chemical_formula_sum   'Dy12 Ga2 Si3 Tc1'
_cell_volume   468.44302152
_cell_formula_units_Z   1
loop_
 _symmetry_equiv_pos_site_id
 _symmetry_equiv_pos_as_xyz
  1  'x, y, z'
loop_
 _atom_site_type_symbol
 _atom_site_label
 _atom_site_symmetry_multiplicity
 _atom_site_fract_x
 _atom_site_fract_y
 _atom_site_fract_z
 _atom_site_occupancy
  Dy  Dy0  1  0.044112  0.745573  0.298540  1
  Dy  Dy1  1  0.951607  0.258248  0.693358  1
  Dy  Dy2  1  0.552966  0.254427  0.298540  1
  Dy  Dy3  1  0.435111  0.741752  0.693358  1
  Dy  Dy4  1  0.674364  0.872150  0.203605  1
  Dy  Dy5  1  0.331456  0.529242  0.203605  1
  Dy  Dy6  1  0.331456  0.127850  0.802214  1
  Dy  Dy7  1  0.674364  0.470758  0.802214  1
  Dy  Dy8  1  0.175123  0.234752  0.409876  1
  Dy  Dy9  1  0.818789  0.230576  0.049365  1
  Dy  Dy10  1  0.175123  0.765248  0.940371  1
  Dy  Dy11  1  0.818789  0.769424  0.588214  1
  Ga  Ga12  1  0.979655  0.500000  0.479655  1
  Ga  Ga13  1  0.505614  0.000000  0.505614  1
  Si  Si14  1  0.368148  0.500000  0.868148  1
  Si  Si15  1  0.884435  0.884391  0.000044  1
  Si  Si16  1  0.115651  0.115609  0.000044  1
  Tc  Tc17  1  0.663238  0.500000  0.163238  1
