# generated using pymatgen
data_TaNb3(AsO5)4
_symmetry_space_group_name_H-M   'P 1'
_cell_length_a   5.59903600
_cell_length_b   11.84279136
_cell_length_c   6.98280421
_cell_angle_alpha   89.97157918
_cell_angle_beta   90.00000000
_cell_angle_gamma   90.00000000
_symmetry_Int_Tables_number   1
_chemical_formula_structural   TaNb3(AsO5)4
_chemical_formula_sum   'Ta1 Nb3 As4 O20'
_cell_volume   463.01722753
_cell_formula_units_Z   1
loop_
 _symmetry_equiv_pos_site_id
 _symmetry_equiv_pos_as_xyz
  1  'x, y, z'
loop_
 _atom_site_type_symbol
 _atom_site_label
 _atom_site_symmetry_multiplicity
 _atom_site_fract_x
 _atom_site_fract_y
 _atom_site_fract_z
 _atom_site_occupancy
  Ta  Ta0  1  0.750000  0.440628  0.662814  1
  Nb  Nb1  1  0.750000  0.940572  0.839771  1
  Nb  Nb2  1  0.250000  0.059500  0.160417  1
  Nb  Nb3  1  0.250000  0.558159  0.342364  1
  As  As4  1  0.750000  0.154778  0.471587  1
  As  As5  1  0.250000  0.845978  0.528896  1
  As  As6  1  0.250000  0.346389  0.970099  1
  As  As7  1  0.750000  0.653067  0.030018  1
  O  O8  1  0.750000  0.794784  0.981085  1
  O  O9  1  0.250000  0.204670  0.014632  1
  O  O10  1  0.250000  0.704201  0.483563  1
  O  O11  1  0.750000  0.296422  0.519453  1
  O  O12  1  0.501599  0.875914  0.653664  1
  O  O13  1  0.498394  0.125313  0.346284  1
  O  O14  1  0.497172  0.623827  0.152909  1
  O  O15  1  0.001606  0.125313  0.346284  1
  O  O16  1  0.501071  0.376336  0.843977  1
  O  O17  1  0.998401  0.875914  0.653664  1
  O  O18  1  0.998929  0.376336  0.843977  1
  O  O19  1  0.002828  0.623827  0.152909  1
  O  O20  1  0.750000  0.583437  0.814778  1
  O  O21  1  0.250000  0.414548  0.184801  1
  O  O22  1  0.250000  0.915083  0.313848  1
  O  O23  1  0.750000  0.085588  0.686434  1
  O  O24  1  0.000066  0.000217  0.000245  1
  O  O25  1  0.999251  0.499491  0.500641  1
  O  O26  1  0.499934  0.000217  0.000245  1
  O  O27  1  0.500749  0.499491  0.500641  1
