# generated using pymatgen
data_Tb2U9Se20
_symmetry_space_group_name_H-M   'P 1'
_cell_length_a   10.75832712
_cell_length_b   10.73530520
_cell_length_c   6.72647738
_cell_angle_alpha   90.06074806
_cell_angle_beta   90.30240379
_cell_angle_gamma   89.91875987
_symmetry_Int_Tables_number   1
_chemical_formula_structural   Tb2U9Se20
_chemical_formula_sum   'Tb2 U9 Se20'
_cell_volume   776.85524261
_cell_formula_units_Z   1
loop_
 _symmetry_equiv_pos_site_id
 _symmetry_equiv_pos_as_xyz
  1  'x, y, z'
loop_
 _atom_site_type_symbol
 _atom_site_label
 _atom_site_symmetry_multiplicity
 _atom_site_fract_x
 _atom_site_fract_y
 _atom_site_fract_z
 _atom_site_occupancy
  Tb  Tb0  1  0.838151  0.648096  0.248532  1
  Tb  Tb1  1  0.843439  0.348373  0.747993  1
  U  U2  1  0.156133  0.649892  0.749949  1
  U  U3  1  0.159892  0.352866  0.251492  1
  U  U4  1  0.652820  0.841912  0.749166  1
  U  U5  1  0.648972  0.163025  0.248699  1
  U  U6  1  0.351951  0.838602  0.252475  1
  U  U7  1  0.350467  0.158633  0.753454  1
  U  U8  1  0.500371  0.500273  0.641717  1
  U  U9  1  0.000780  0.001694  0.856956  1
  U  U10  1  0.001585  0.997615  0.355718  1
  Se  Se11  1  0.290876  0.588777  0.389612  1
  Se  Se12  1  0.289688  0.412497  0.878762  1
  Se  Se13  1  0.706998  0.589300  0.874259  1
  Se  Se14  1  0.705515  0.409548  0.387018  1
  Se  Se15  1  0.584933  0.290788  0.880479  1
  Se  Se16  1  0.586279  0.708731  0.390698  1
  Se  Se17  1  0.408942  0.291562  0.390309  1
  Se  Se18  1  0.409933  0.709477  0.879145  1
  Se  Se19  1  0.208933  0.910361  0.616443  1
  Se  Se20  1  0.209725  0.089786  0.116115  1
  Se  Se21  1  0.792143  0.912583  0.114990  1
  Se  Se22  1  0.792964  0.085654  0.613379  1
  Se  Se23  1  0.911933  0.208449  0.121886  1
  Se  Se24  1  0.914086  0.791514  0.620056  1
  Se  Se25  1  0.090913  0.206361  0.614190  1
  Se  Se26  1  0.091301  0.792378  0.115128  1
  Se  Se27  1  0.999583  0.501110  0.499505  1
  Se  Se28  1  0.999935  0.499997  0.000505  1
  Se  Se29  1  0.500367  0.997865  0.003675  1
  Se  Se30  1  0.500389  0.002280  0.501699  1
