# generated using pymatgen
data_Ba4HfMn3O12
_symmetry_space_group_name_H-M   'P 1'
_cell_length_a   10.09420534
_cell_length_b   10.09420496
_cell_length_c   10.09420421
_cell_angle_alpha   33.38018378
_cell_angle_beta   33.38018991
_cell_angle_gamma   33.38017808
_symmetry_Int_Tables_number   1
_chemical_formula_structural   Ba4HfMn3O12
_chemical_formula_sum   'Ba4 Hf1 Mn3 O12'
_cell_volume   277.24362609
_cell_formula_units_Z   1
loop_
 _symmetry_equiv_pos_site_id
 _symmetry_equiv_pos_as_xyz
  1  'x, y, z'
loop_
 _atom_site_type_symbol
 _atom_site_label
 _atom_site_symmetry_multiplicity
 _atom_site_fract_x
 _atom_site_fract_y
 _atom_site_fract_z
 _atom_site_occupancy
  Ba  Ba0  1  0.714411  0.714411  0.714411  1
  Ba  Ba1  1  0.285589  0.285589  0.285589  1
  Ba  Ba2  1  0.871341  0.871341  0.871341  1
  Ba  Ba3  1  0.128659  0.128659  0.128659  1
  Hf  Hf4  1  0.000000  0.000000  0.000000  1
  Mn  Mn5  1  0.410433  0.410433  0.410433  1
  Mn  Mn6  1  0.500000  0.500000  0.500000  1
  Mn  Mn7  1  0.589567  0.589567  0.589567  1
  O  O8  1  0.212011  0.212011  0.701042  1
  O  O9  1  0.701042  0.212011  0.212011  1
  O  O10  1  0.212011  0.701042  0.212011  1
  O  O11  1  0.787989  0.298958  0.787989  1
  O  O12  1  0.787989  0.787989  0.298958  1
  O  O13  1  0.298958  0.787989  0.787989  1
  O  O14  1  0.396511  0.396511  0.837103  1
  O  O15  1  0.837103  0.396511  0.396511  1
  O  O16  1  0.162897  0.603489  0.603489  1
  O  O17  1  0.603489  0.603489  0.162897  1
  O  O18  1  0.603489  0.162897  0.603489  1
  O  O19  1  0.396511  0.837103  0.396511  1
