# generated using pymatgen
data_YTmSb5
_symmetry_space_group_name_H-M   'P 1'
_cell_length_a   4.20761100
_cell_length_b   13.19145871
_cell_length_c   14.60204570
_cell_angle_alpha   78.35363382
_cell_angle_beta   90.00000000
_cell_angle_gamma   90.00000000
_symmetry_Int_Tables_number   1
_chemical_formula_structural   YTmSb5
_chemical_formula_sum   'Y4 Tm4 Sb20'
_cell_volume   793.79365017
_cell_formula_units_Z   4
loop_
 _symmetry_equiv_pos_site_id
 _symmetry_equiv_pos_as_xyz
  1  'x, y, z'
loop_
 _atom_site_type_symbol
 _atom_site_label
 _atom_site_symmetry_multiplicity
 _atom_site_fract_x
 _atom_site_fract_y
 _atom_site_fract_z
 _atom_site_occupancy
  Y  Y0  1  0.250000  0.668795  0.576369  1
  Y  Y1  1  0.750000  0.331205  0.423631  1
  Y  Y2  1  0.250000  0.953136  0.358847  1
  Y  Y3  1  0.750000  0.046864  0.641153  1
  Tm  Tm4  1  0.250000  0.395129  0.771269  1
  Tm  Tm5  1  0.750000  0.604871  0.228731  1
  Tm  Tm6  1  0.250000  0.661506  0.856473  1
  Tm  Tm7  1  0.750000  0.338494  0.143527  1
  Sb  Sb8  1  0.250000  0.144980  0.779038  1
  Sb  Sb9  1  0.750000  0.855020  0.220962  1
  Sb  Sb10  1  0.250000  0.143511  0.482302  1
  Sb  Sb11  1  0.750000  0.856489  0.517698  1
  Sb  Sb12  1  0.250000  0.153858  0.170440  1
  Sb  Sb13  1  0.750000  0.846142  0.829560  1
  Sb  Sb14  1  0.250000  0.420694  0.975321  1
  Sb  Sb15  1  0.750000  0.579306  0.024679  1
  Sb  Sb16  1  0.750000  0.028494  0.909502  1
  Sb  Sb17  1  0.250000  0.971506  0.090498  1
  Sb  Sb18  1  0.750000  0.139965  0.321495  1
  Sb  Sb19  1  0.250000  0.860035  0.678505  1
  Sb  Sb20  1  0.750000  0.279667  0.936899  1
  Sb  Sb21  1  0.250000  0.720333  0.063101  1
  Sb  Sb22  1  0.750000  0.286064  0.653794  1
  Sb  Sb23  1  0.250000  0.713936  0.346206  1
  Sb  Sb24  1  0.750000  0.575147  0.736640  1
  Sb  Sb25  1  0.250000  0.424853  0.263360  1
  Sb  Sb26  1  0.750000  0.571834  0.446348  1
  Sb  Sb27  1  0.250000  0.428166  0.553652  1
