# generated using pymatgen
data_ScTi5(SnRu2)6
_symmetry_space_group_name_H-M   'P 1'
_cell_length_a   4.47088900
_cell_length_b   6.31126000
_cell_length_c   13.39739900
_cell_angle_alpha   90.00000000
_cell_angle_beta   89.99951702
_cell_angle_gamma   90.00000000
_symmetry_Int_Tables_number   1
_chemical_formula_structural   ScTi5(SnRu2)6
_chemical_formula_sum   'Sc1 Ti5 Sn6 Ru12'
_cell_volume   378.03364272
_cell_formula_units_Z   1
loop_
 _symmetry_equiv_pos_site_id
 _symmetry_equiv_pos_as_xyz
  1  'x, y, z'
loop_
 _atom_site_type_symbol
 _atom_site_label
 _atom_site_symmetry_multiplicity
 _atom_site_fract_x
 _atom_site_fract_y
 _atom_site_fract_z
 _atom_site_occupancy
  Sc  Sc0  1  0.500167  0.500001  0.833320  1
  Ti  Ti1  1  0.999991  0.000000  0.999789  1
  Ti  Ti2  1  0.499799  0.500001  0.166108  1
  Ti  Ti3  1  0.999822  0.000000  0.333300  1
  Ti  Ti4  1  0.500000  0.500001  0.500550  1
  Ti  Ti5  1  0.000181  0.000000  0.666887  1
  Sn  Sn6  1  0.999994  0.500001  0.999328  1
  Sn  Sn7  1  0.499926  0.000000  0.168048  1
  Sn  Sn8  1  0.999875  0.500001  0.333327  1
  Sn  Sn9  1  0.499985  0.000000  0.498632  1
  Sn  Sn10  1  0.000153  0.500001  0.667326  1
  Sn  Sn11  1  0.500237  0.000000  0.833353  1
  Ru  Ru12  1  0.499993  0.246403  0.003627  1
  Ru  Ru13  1  0.499993  0.753597  0.003627  1
  Ru  Ru14  1  0.999932  0.250567  0.167459  1
  Ru  Ru15  1  0.999932  0.749433  0.167459  1
  Ru  Ru16  1  0.499923  0.250369  0.333315  1
  Ru  Ru17  1  0.499923  0.749630  0.333315  1
  Ru  Ru18  1  0.999983  0.250556  0.499176  1
  Ru  Ru19  1  0.999983  0.749447  0.499176  1
  Ru  Ru20  1  0.500066  0.246367  0.663075  1
  Ru  Ru21  1  0.500066  0.753632  0.663075  1
  Ru  Ru22  1  0.000036  0.241911  0.833364  1
  Ru  Ru23  1  0.000036  0.758089  0.833364  1
