# generated using pymatgen
data_NaPr4Nd2RhBr12
_symmetry_space_group_name_H-M   'P 1'
_cell_length_a   9.74576545
_cell_length_b   9.56469452
_cell_length_c   9.57649071
_cell_angle_alpha   106.81372738
_cell_angle_beta   107.40893766
_cell_angle_gamma   107.00542225
_symmetry_Int_Tables_number   1
_chemical_formula_structural   NaPr4Nd2RhBr12
_chemical_formula_sum   'Na1 Pr4 Nd2 Rh1 Br12'
_cell_volume   741.86501771
_cell_formula_units_Z   1
loop_
 _symmetry_equiv_pos_site_id
 _symmetry_equiv_pos_as_xyz
  1  'x, y, z'
loop_
 _atom_site_type_symbol
 _atom_site_label
 _atom_site_symmetry_multiplicity
 _atom_site_fract_x
 _atom_site_fract_y
 _atom_site_fract_z
 _atom_site_occupancy
  Na  Na0  1  0.499998  0.499356  0.498764  1
  Pr  Pr1  1  0.027869  0.112119  0.316281  1
  Pr  Pr2  1  0.971987  0.889961  0.684599  1
  Pr  Pr3  1  0.671132  0.970862  0.881328  1
  Pr  Pr4  1  0.890902  0.683846  0.972014  1
  Nd  Nd5  1  0.110273  0.315071  0.028562  1
  Nd  Nd6  1  0.326341  0.028046  0.118723  1
  Rh  Rh7  1  0.999600  0.999834  0.000301  1
  Br  Br8  1  0.216793  0.682354  0.073303  1
  Br  Br9  1  0.446607  0.363717  0.151441  1
  Br  Br10  1  0.683473  0.071391  0.215833  1
  Br  Br11  1  0.928147  0.783088  0.317800  1
  Br  Br12  1  0.157837  0.455007  0.368915  1
  Br  Br13  1  0.367381  0.154878  0.453695  1
  Br  Br14  1  0.632028  0.844006  0.544405  1
  Br  Br15  1  0.842469  0.546169  0.628278  1
  Br  Br16  1  0.073596  0.220080  0.685635  1
  Br  Br17  1  0.315010  0.929800  0.786839  1
  Br  Br18  1  0.551024  0.632104  0.846110  1
  Br  Br19  1  0.787535  0.318312  0.927175  1
