# generated using pymatgen
data_Zr2ScAlFe8
_symmetry_space_group_name_H-M   'P 1'
_cell_length_a   8.50037865
_cell_length_b   8.50037870
_cell_length_c   8.50037829
_cell_angle_alpha   33.48886247
_cell_angle_beta   33.48886653
_cell_angle_gamma   33.48885952
_symmetry_Int_Tables_number   1
_chemical_formula_structural   Zr2ScAlFe8
_chemical_formula_sum   'Zr2 Sc1 Al1 Fe8'
_cell_volume   166.54544102
_cell_formula_units_Z   1
loop_
 _symmetry_equiv_pos_site_id
 _symmetry_equiv_pos_as_xyz
  1  'x, y, z'
loop_
 _atom_site_type_symbol
 _atom_site_label
 _atom_site_symmetry_multiplicity
 _atom_site_fract_x
 _atom_site_fract_y
 _atom_site_fract_z
 _atom_site_occupancy
  Zr  Zr0  1  0.002561  0.002561  0.002561  1
  Zr  Zr1  1  0.497743  0.497743  0.497743  1
  Sc  Sc2  1  0.624594  0.624594  0.624594  1
  Al  Al3  1  0.125918  0.125918  0.125918  1
  Fe  Fe4  1  0.564006  0.062816  0.564006  1
  Fe  Fe5  1  0.062492  0.558880  0.062492  1
  Fe  Fe6  1  0.062816  0.564006  0.564006  1
  Fe  Fe7  1  0.558880  0.062492  0.062492  1
  Fe  Fe8  1  0.812253  0.812253  0.812253  1
  Fe  Fe9  1  0.312239  0.312239  0.312239  1
  Fe  Fe10  1  0.564006  0.564006  0.062816  1
  Fe  Fe11  1  0.062492  0.062492  0.558880  1
