# generated using pymatgen
data_Tb3Dy9Co5Bi
_symmetry_space_group_name_H-M   'P 1'
_cell_length_a   8.31889188
_cell_length_b   8.31947199
_cell_length_c   8.31947110
_cell_angle_alpha   110.88453226
_cell_angle_beta   110.64588641
_cell_angle_gamma   106.91591117
_symmetry_Int_Tables_number   1
_chemical_formula_structural   Tb3Dy9Co5Bi
_chemical_formula_sum   'Tb3 Dy9 Co5 Bi1'
_cell_volume   442.56114503
_cell_formula_units_Z   1
loop_
 _symmetry_equiv_pos_site_id
 _symmetry_equiv_pos_as_xyz
  1  'x, y, z'
loop_
 _atom_site_type_symbol
 _atom_site_label
 _atom_site_symmetry_multiplicity
 _atom_site_fract_x
 _atom_site_fract_y
 _atom_site_fract_z
 _atom_site_occupancy
  Tb  Tb0  1  0.400194  0.206040  0.194154  1
  Tb  Tb1  1  0.987936  0.794055  0.193881  1
  Tb  Tb2  1  0.011450  0.205700  0.805750  1
  Dy  Dy3  1  0.816537  0.709649  0.526418  1
  Dy  Dy4  1  0.183591  0.290677  0.474079  1
  Dy  Dy5  1  0.183591  0.709512  0.892916  1
  Dy  Dy6  1  0.816537  0.290119  0.106887  1
  Dy  Dy7  1  0.687649  0.378556  0.690617  1
  Dy  Dy8  1  0.312486  0.621770  0.309706  1
  Dy  Dy9  1  0.687649  0.997032  0.309093  1
  Dy  Dy10  1  0.312486  0.002780  0.690716  1
  Dy  Dy11  1  0.599911  0.794185  0.805727  1
  Co  Co12  1  0.623996  0.999769  0.624227  1
  Co  Co13  1  0.376307  0.000125  0.376181  1
  Co  Co14  1  0.111811  0.611586  0.500225  1
  Co  Co15  1  0.888550  0.388597  0.499952  1
  Co  Co16  1  0.999314  0.999678  0.999636  1
  Bi  Bi17  1  0.500003  0.500169  0.999835  1
