# generated using pymatgen
data_Ce3Tm6Lu(Al2Ru3)2
_symmetry_space_group_name_H-M   'P 1'
_cell_length_a   8.35385628
_cell_length_b   8.35385580
_cell_length_c   8.35385676
_cell_angle_alpha   110.06538920
_cell_angle_beta   110.06539265
_cell_angle_gamma   110.06538948
_symmetry_Int_Tables_number   1
_chemical_formula_structural   Ce3Tm6Lu(Al2Ru3)2
_chemical_formula_sum   'Ce3 Tm6 Lu1 Al4 Ru6'
_cell_volume   438.63563172
_cell_formula_units_Z   1
loop_
 _symmetry_equiv_pos_site_id
 _symmetry_equiv_pos_as_xyz
  1  'x, y, z'
loop_
 _atom_site_type_symbol
 _atom_site_label
 _atom_site_symmetry_multiplicity
 _atom_site_fract_x
 _atom_site_fract_y
 _atom_site_fract_z
 _atom_site_occupancy
  Ce  Ce0  1  0.253545  0.198668  0.944205  1
  Ce  Ce1  1  0.944205  0.253545  0.198668  1
  Ce  Ce2  1  0.198668  0.944205  0.253545  1
  Tm  Tm3  1  0.315629  0.568821  0.750681  1
  Tm  Tm4  1  0.750681  0.315629  0.568821  1
  Tm  Tm5  1  0.568821  0.750681  0.315629  1
  Tm  Tm6  1  0.719599  0.506352  0.995099  1
  Tm  Tm7  1  0.995099  0.719599  0.506352  1
  Tm  Tm8  1  0.506352  0.995099  0.719599  1
  Lu  Lu9  1  0.779932  0.779932  0.779932  1
  Al  Al10  1  0.414040  0.414040  0.414040  1
  Al  Al11  1  0.093006  0.499645  0.999881  1
  Al  Al12  1  0.999881  0.093006  0.499645  1
  Al  Al13  1  0.499645  0.999881  0.093006  1
  Ru  Ru14  1  0.894540  0.118449  0.753400  1
  Ru  Ru15  1  0.753400  0.894540  0.118449  1
  Ru  Ru16  1  0.118449  0.753400  0.894540  1
  Ru  Ru17  1  0.226885  0.600383  0.367243  1
  Ru  Ru18  1  0.367243  0.226885  0.600383  1
  Ru  Ru19  1  0.600383  0.367243  0.226885  1
