# generated using pymatgen
data_YbSmCo6(GeB)2
_symmetry_space_group_name_H-M   'P 1'
_cell_length_a   5.20584800
_cell_length_b   5.20436280
_cell_length_c   6.51968000
_cell_angle_alpha   90.00000000
_cell_angle_beta   90.00000000
_cell_angle_gamma   120.00945330
_symmetry_Int_Tables_number   1
_chemical_formula_structural   YbSmCo6(GeB)2
_chemical_formula_sum   'Yb1 Sm1 Co6 Ge2 B2'
_cell_volume   152.95884013
_cell_formula_units_Z   1
loop_
 _symmetry_equiv_pos_site_id
 _symmetry_equiv_pos_as_xyz
  1  'x, y, z'
loop_
 _atom_site_type_symbol
 _atom_site_label
 _atom_site_symmetry_multiplicity
 _atom_site_fract_x
 _atom_site_fract_y
 _atom_site_fract_z
 _atom_site_occupancy
  Yb  Yb0  1  0.999977  0.000000  0.000000  1
  Sm  Sm1  1  0.999988  0.000000  0.500000  1
  Co  Co2  1  0.499987  0.000000  0.291417  1
  Co  Co3  1  0.499985  0.500001  0.291423  1
  Co  Co4  1  0.999983  0.499999  0.291423  1
  Co  Co5  1  0.499987  0.000000  0.708583  1
  Co  Co6  1  0.499985  0.500001  0.708577  1
  Co  Co7  1  0.999983  0.499999  0.708577  1
  Ge  Ge8  1  0.333282  0.666603  0.000000  1
  Ge  Ge9  1  0.666680  0.333397  0.000000  1
  B  B10  1  0.333321  0.666675  0.500000  1
  B  B11  1  0.666645  0.333325  0.500000  1
