# generated using pymatgen
data_Li8Dy7Y(SnSb3)2
_symmetry_space_group_name_H-M   'P 1'
_cell_length_a   9.45989700
_cell_length_b   9.45767365
_cell_length_c   7.03254600
_cell_angle_alpha   90.00203271
_cell_angle_beta   90.00000000
_cell_angle_gamma   120.00777334
_symmetry_Int_Tables_number   1
_chemical_formula_structural   Li8Dy7Y(SnSb3)2
_chemical_formula_sum   'Li8 Dy7 Y1 Sn2 Sb6'
_cell_volume   544.85372127
_cell_formula_units_Z   1
loop_
 _symmetry_equiv_pos_site_id
 _symmetry_equiv_pos_as_xyz
  1  'x, y, z'
loop_
 _atom_site_type_symbol
 _atom_site_label
 _atom_site_symmetry_multiplicity
 _atom_site_fract_x
 _atom_site_fract_y
 _atom_site_fract_z
 _atom_site_occupancy
  Li  Li0  1  0.167233  0.334466  0.274103  1
  Li  Li1  1  0.167223  0.832715  0.273990  1
  Li  Li2  1  0.665492  0.832715  0.273990  1
  Li  Li3  1  0.832758  0.665515  0.773976  1
  Li  Li4  1  0.832780  0.167284  0.774092  1
  Li  Li5  1  0.334504  0.167284  0.774092  1
  Li  Li6  1  0.333322  0.666645  0.693531  1
  Li  Li7  1  0.666673  0.333345  0.193411  1
  Dy  Dy8  1  0.508165  0.491796  0.494081  1
  Dy  Dy9  1  0.983632  0.491796  0.494081  1
  Dy  Dy10  1  0.491832  0.983664  0.994116  1
  Dy  Dy11  1  0.491835  0.508136  0.994066  1
  Dy  Dy12  1  0.016300  0.508136  0.994066  1
  Dy  Dy13  1  0.999998  0.999996  0.501469  1
  Dy  Dy14  1  0.999991  0.999983  0.001459  1
  Y  Y15  1  0.508279  0.016557  0.494092  1
  Sn  Sn16  1  0.333280  0.666561  0.257507  1
  Sn  Sn17  1  0.666759  0.333517  0.758147  1
  Sb  Sb18  1  0.166269  0.332537  0.737953  1
  Sb  Sb19  1  0.166109  0.833599  0.738279  1
  Sb  Sb20  1  0.667491  0.833599  0.738279  1
  Sb  Sb21  1  0.833707  0.667415  0.238033  1
  Sb  Sb22  1  0.833916  0.166369  0.237590  1
  Sb  Sb23  1  0.332452  0.166369  0.237590  1
