# generated using pymatgen
data_Ti8Pd3RhO2
_symmetry_space_group_name_H-M   'P 1'
_cell_length_a   8.28482864
_cell_length_b   8.28482892
_cell_length_c   8.27766500
_cell_angle_alpha   60.02859604
_cell_angle_beta   60.02859491
_cell_angle_gamma   60.16349046
_symmetry_Int_Tables_number   1
_chemical_formula_structural   Ti8Pd3RhO2
_chemical_formula_sum   'Ti16 Pd6 Rh2 O4'
_cell_volume   402.42198335
_cell_formula_units_Z   2
loop_
 _symmetry_equiv_pos_site_id
 _symmetry_equiv_pos_as_xyz
  1  'x, y, z'
loop_
 _atom_site_type_symbol
 _atom_site_label
 _atom_site_symmetry_multiplicity
 _atom_site_fract_x
 _atom_site_fract_y
 _atom_site_fract_z
 _atom_site_occupancy
  Ti  Ti0  1  0.115822  0.629804  0.627187  1
  Ti  Ti1  1  0.629804  0.115822  0.627187  1
  Ti  Ti2  1  0.627731  0.627731  0.122109  1
  Ti  Ti3  1  0.627731  0.627731  0.622429  1
  Ti  Ti4  1  0.819049  0.819049  0.180951  1
  Ti  Ti5  1  0.177716  0.177716  0.822284  1
  Ti  Ti6  1  0.819448  0.177668  0.820140  1
  Ti  Ti7  1  0.177668  0.819448  0.182744  1
  Ti  Ti8  1  0.177668  0.819448  0.820140  1
  Ti  Ti9  1  0.819448  0.177668  0.182744  1
  Ti  Ti10  1  0.427926  0.427926  0.072074  1
  Ti  Ti11  1  0.069183  0.069183  0.430817  1
  Ti  Ti12  1  0.429523  0.071280  0.429476  1
  Ti  Ti13  1  0.071280  0.429523  0.069720  1
  Ti  Ti14  1  0.071280  0.429523  0.429476  1
  Ti  Ti15  1  0.429523  0.071280  0.069720  1
  Pd  Pd16  1  0.768433  0.409410  0.411078  1
  Pd  Pd17  1  0.409410  0.768433  0.411078  1
  Pd  Pd18  1  0.411842  0.411842  0.763464  1
  Pd  Pd19  1  0.411842  0.411842  0.412851  1
  Pd  Pd20  1  0.481349  0.837527  0.840563  1
  Pd  Pd21  1  0.837527  0.481349  0.840563  1
  Rh  Rh22  1  0.844195  0.844195  0.468072  1
  Rh  Rh23  1  0.844195  0.844195  0.843540  1
  O  O24  1  0.623694  0.125667  0.125319  1
  O  O25  1  0.125667  0.623694  0.125319  1
  O  O26  1  0.125523  0.125523  0.623857  1
  O  O27  1  0.125523  0.125523  0.125098  1
