# generated using pymatgen
data_DyY5Th2(MgCo)2
_symmetry_space_group_name_H-M   'P 1'
_cell_length_a   9.66870822
_cell_length_b   9.67201299
_cell_length_c   9.67201456
_cell_angle_alpha   59.97739091
_cell_angle_beta   60.01130478
_cell_angle_gamma   60.01130578
_symmetry_Int_Tables_number   1
_chemical_formula_structural   DyY5Th2(MgCo)2
_chemical_formula_sum   'Dy2 Y10 Th4 Mg4 Co4'
_cell_volume   639.56865778
_cell_formula_units_Z   2
loop_
 _symmetry_equiv_pos_site_id
 _symmetry_equiv_pos_as_xyz
  1  'x, y, z'
loop_
 _atom_site_type_symbol
 _atom_site_label
 _atom_site_symmetry_multiplicity
 _atom_site_fract_x
 _atom_site_fract_y
 _atom_site_fract_z
 _atom_site_occupancy
  Dy  Dy0  1  0.813028  0.186972  0.186972  1
  Dy  Dy1  1  0.186972  0.813028  0.813028  1
  Y  Y2  1  0.186988  0.813012  0.186988  1
  Y  Y3  1  0.813012  0.186988  0.813012  1
  Y  Y4  1  0.186988  0.186988  0.813012  1
  Y  Y5  1  0.813012  0.813012  0.186988  1
  Y  Y6  1  0.935800  0.564200  0.564200  1
  Y  Y7  1  0.564200  0.935800  0.935800  1
  Y  Y8  1  0.564161  0.935839  0.564161  1
  Y  Y9  1  0.935839  0.564161  0.935839  1
  Y  Y10  1  0.564161  0.564161  0.935839  1
  Y  Y11  1  0.935839  0.935839  0.564161  1
  Th  Th12  1  0.343857  0.343842  0.343842  1
  Th  Th13  1  0.343842  0.343857  0.968460  1
  Th  Th14  1  0.343842  0.968460  0.343857  1
  Th  Th15  1  0.968460  0.343842  0.343842  1
  Mg  Mg16  1  0.579923  0.579865  0.579865  1
  Mg  Mg17  1  0.579865  0.579923  0.260346  1
  Mg  Mg18  1  0.579865  0.260346  0.579923  1
  Mg  Mg19  1  0.260346  0.579865  0.579865  1
  Co  Co20  1  0.145235  0.145702  0.145702  1
  Co  Co21  1  0.145702  0.145235  0.563360  1
  Co  Co22  1  0.145702  0.563360  0.145235  1
  Co  Co23  1  0.563360  0.145702  0.145702  1
