# generated using pymatgen
data_Zr(PaSe2)2
_symmetry_space_group_name_H-M   'P 1'
_cell_length_a   6.91675380
_cell_length_b   6.91675432
_cell_length_c   3.93364900
_cell_angle_alpha   90.00000000
_cell_angle_beta   90.00000000
_cell_angle_gamma   107.46904243
_symmetry_Int_Tables_number   1
_chemical_formula_structural   Zr(PaSe2)2
_chemical_formula_sum   'Zr1 Pa2 Se4'
_cell_volume   179.51208457
_cell_formula_units_Z   1
loop_
 _symmetry_equiv_pos_site_id
 _symmetry_equiv_pos_as_xyz
  1  'x, y, z'
loop_
 _atom_site_type_symbol
 _atom_site_label
 _atom_site_symmetry_multiplicity
 _atom_site_fract_x
 _atom_site_fract_y
 _atom_site_fract_z
 _atom_site_occupancy
  Zr  Zr0  1  0.000000  0.000000  0.500000  1
  Pa  Pa1  1  0.000000  0.500000  0.000000  1
  Pa  Pa2  1  0.500000  0.000000  0.000000  1
  Se  Se3  1  0.745629  0.254371  0.500000  1
  Se  Se4  1  0.756673  0.756673  0.000000  1
  Se  Se5  1  0.254371  0.745629  0.500000  1
  Se  Se6  1  0.243327  0.243327  0.000000  1
