# generated using pymatgen
data_Lu16In6CuRh
_symmetry_space_group_name_H-M   'P 1'
_cell_length_a   10.30033600
_cell_length_b   10.30033631
_cell_length_c   6.81223700
_cell_angle_alpha   90.00000000
_cell_angle_beta   90.00000000
_cell_angle_gamma   119.99999901
_symmetry_Int_Tables_number   1
_chemical_formula_structural   Lu16In6CuRh
_chemical_formula_sum   'Lu16 In6 Cu1 Rh1'
_cell_volume   625.92627312
_cell_formula_units_Z   1
loop_
 _symmetry_equiv_pos_site_id
 _symmetry_equiv_pos_as_xyz
  1  'x, y, z'
loop_
 _atom_site_type_symbol
 _atom_site_label
 _atom_site_symmetry_multiplicity
 _atom_site_fract_x
 _atom_site_fract_y
 _atom_site_fract_z
 _atom_site_occupancy
  Lu  Lu0  1  0.527672  0.055345  0.527469  1
  Lu  Lu1  1  0.944655  0.472328  0.527469  1
  Lu  Lu2  1  0.527672  0.472328  0.527469  1
  Lu  Lu3  1  0.467924  0.935848  0.025655  1
  Lu  Lu4  1  0.064152  0.532076  0.025655  1
  Lu  Lu5  1  0.467924  0.532076  0.025655  1
  Lu  Lu6  1  0.177056  0.354112  0.730533  1
  Lu  Lu7  1  0.645888  0.822944  0.730533  1
  Lu  Lu8  1  0.177056  0.822944  0.730533  1
  Lu  Lu9  1  0.823924  0.647847  0.230854  1
  Lu  Lu10  1  0.352153  0.176076  0.230854  1
  Lu  Lu11  1  0.823924  0.176076  0.230854  1
  Lu  Lu12  1  0.666667  0.333333  0.899050  1
  Lu  Lu13  1  0.333333  0.666667  0.404867  1
  Lu  Lu14  1  0.000000  0.000000  0.503818  1
  Lu  Lu15  1  0.000000  0.000000  0.007651  1
  In  In16  1  0.836385  0.672770  0.763679  1
  In  In17  1  0.327230  0.163615  0.763679  1
  In  In18  1  0.836385  0.163615  0.763679  1
  In  In19  1  0.161707  0.323415  0.267674  1
  In  In20  1  0.676585  0.838293  0.267674  1
  In  In21  1  0.161707  0.838293  0.267674  1
  Cu  Cu22  1  0.666667  0.333333  0.299887  1
  Rh  Rh23  1  0.333333  0.666667  0.802816  1
