# generated using pymatgen
data_HoCdCuPt3
_symmetry_space_group_name_H-M   'P 1'
_cell_length_a   5.18508284
_cell_length_b   5.45341622
_cell_length_c   5.45341700
_cell_angle_alpha   60.00000134
_cell_angle_beta   58.27280018
_cell_angle_gamma   58.27281048
_symmetry_Int_Tables_number   1
_chemical_formula_structural   HoCdCuPt3
_chemical_formula_sum   'Ho1 Cd1 Cu1 Pt3'
_cell_volume   106.10416467
_cell_formula_units_Z   1
loop_
 _symmetry_equiv_pos_site_id
 _symmetry_equiv_pos_as_xyz
  1  'x, y, z'
loop_
 _atom_site_type_symbol
 _atom_site_label
 _atom_site_symmetry_multiplicity
 _atom_site_fract_x
 _atom_site_fract_y
 _atom_site_fract_z
 _atom_site_occupancy
  Ho  Ho0  1  0.747167  0.750944  0.750944  1
  Cd  Cd1  1  0.994915  0.001695  0.001695  1
  Cu  Cu2  1  0.877379  0.374207  0.374207  1
  Pt  Pt3  1  0.376846  0.373797  0.875559  1
  Pt  Pt4  1  0.376846  0.875559  0.373797  1
  Pt  Pt5  1  0.376846  0.373797  0.373797  1
