# generated using pymatgen
data_Sc6InSn6Ir5
_symmetry_space_group_name_H-M   'P 1'
_cell_length_a   7.60198900
_cell_length_b   7.60198910
_cell_length_c   7.17305300
_cell_angle_alpha   90.00000000
_cell_angle_beta   90.00000000
_cell_angle_gamma   120.00000274
_symmetry_Int_Tables_number   1
_chemical_formula_structural   Sc6InSn6Ir5
_chemical_formula_sum   'Sc6 In1 Sn6 Ir5'
_cell_volume   358.99561097
_cell_formula_units_Z   1
loop_
 _symmetry_equiv_pos_site_id
 _symmetry_equiv_pos_as_xyz
  1  'x, y, z'
loop_
 _atom_site_type_symbol
 _atom_site_label
 _atom_site_symmetry_multiplicity
 _atom_site_fract_x
 _atom_site_fract_y
 _atom_site_fract_z
 _atom_site_occupancy
  Sc  Sc0  1  0.386998  0.991446  0.239091  1
  Sc  Sc1  1  0.604448  0.613002  0.239091  1
  Sc  Sc2  1  0.008554  0.395552  0.239091  1
  Sc  Sc3  1  0.368837  0.963808  0.764286  1
  Sc  Sc4  1  0.594970  0.631163  0.764286  1
  Sc  Sc5  1  0.036192  0.405030  0.764286  1
  In  In6  1  0.666667  0.333333  0.549274  1
  Sn  Sn7  1  0.292453  0.278770  0.998781  1
  Sn  Sn8  1  0.986316  0.707547  0.998781  1
  Sn  Sn9  1  0.008238  0.748614  0.495448  1
  Sn  Sn10  1  0.740376  0.991762  0.495448  1
  Sn  Sn11  1  0.251386  0.259624  0.495448  1
  Sn  Sn12  1  0.721230  0.013684  0.998781  1
  Ir  Ir13  1  0.000000  0.000000  0.772083  1
  Ir  Ir14  1  0.000000  0.000000  0.221860  1
  Ir  Ir15  1  0.666667  0.333333  0.962849  1
  Ir  Ir16  1  0.333333  0.666667  0.484125  1
  Ir  Ir17  1  0.333333  0.666667  0.016989  1
