# generated using pymatgen
data_LaHo3(TmBi)6
_symmetry_space_group_name_H-M   'P 1'
_cell_length_a   8.25149100
_cell_length_b   9.46093600
_cell_length_c   12.08057500
_cell_angle_alpha   90.00000000
_cell_angle_beta   90.00000000
_cell_angle_gamma   90.00000000
_symmetry_Int_Tables_number   1
_chemical_formula_structural   LaHo3(TmBi)6
_chemical_formula_sum   'La2 Ho6 Tm12 Bi12'
_cell_volume   943.09217375
_cell_formula_units_Z   2
loop_
 _symmetry_equiv_pos_site_id
 _symmetry_equiv_pos_as_xyz
  1  'x, y, z'
loop_
 _atom_site_type_symbol
 _atom_site_label
 _atom_site_symmetry_multiplicity
 _atom_site_fract_x
 _atom_site_fract_y
 _atom_site_fract_z
 _atom_site_occupancy
  La  La0  1  0.183007  0.750000  0.721038  1
  La  La1  1  0.683007  0.750000  0.778962  1
  Ho  Ho2  1  0.814098  0.250000  0.282132  1
  Ho  Ho3  1  0.314098  0.250000  0.217868  1
  Ho  Ho4  1  0.353558  0.750000  0.218984  1
  Ho  Ho5  1  0.853558  0.750000  0.281016  1
  Ho  Ho6  1  0.647691  0.250000  0.783865  1
  Ho  Ho7  1  0.147691  0.250000  0.716135  1
  Tm  Tm8  1  0.022801  0.750000  0.990667  1
  Tm  Tm9  1  0.522801  0.750000  0.509333  1
  Tm  Tm10  1  0.976628  0.250000  0.013194  1
  Tm  Tm11  1  0.476628  0.250000  0.486806  1
  Tm  Tm12  1  0.308605  0.433655  0.940904  1
  Tm  Tm13  1  0.808605  0.066345  0.559096  1
  Tm  Tm14  1  0.692150  0.934521  0.061421  1
  Tm  Tm15  1  0.192150  0.565479  0.438579  1
  Tm  Tm16  1  0.692150  0.565479  0.061421  1
  Tm  Tm17  1  0.192150  0.934521  0.438579  1
  Tm  Tm18  1  0.308605  0.066345  0.940904  1
  Tm  Tm19  1  0.808605  0.433655  0.559096  1
  Bi  Bi20  1  0.434900  0.011040  0.669705  1
  Bi  Bi21  1  0.934900  0.488960  0.830295  1
  Bi  Bi22  1  0.566772  0.503641  0.326930  1
  Bi  Bi23  1  0.066772  0.996359  0.173070  1
  Bi  Bi24  1  0.566772  0.996359  0.326930  1
  Bi  Bi25  1  0.066772  0.503641  0.173070  1
  Bi  Bi26  1  0.434900  0.488960  0.669705  1
  Bi  Bi27  1  0.934900  0.011040  0.830295  1
  Bi  Bi28  1  0.402668  0.750000  0.964726  1
  Bi  Bi29  1  0.902668  0.750000  0.535274  1
  Bi  Bi30  1  0.594698  0.250000  0.042674  1
  Bi  Bi31  1  0.094698  0.250000  0.457326  1
