# generated using pymatgen
data_Er4Sc4B24MoIr3
_symmetry_space_group_name_H-M   'P 1'
_cell_length_a   3.54791900
_cell_length_b   8.99585203
_cell_length_c   11.38073159
_cell_angle_alpha   90.13249869
_cell_angle_beta   90.00000000
_cell_angle_gamma   90.00000000
_symmetry_Int_Tables_number   1
_chemical_formula_structural   Er4Sc4B24MoIr3
_chemical_formula_sum   'Er4 Sc4 B24 Mo1 Ir3'
_cell_volume   363.23276685
_cell_formula_units_Z   1
loop_
 _symmetry_equiv_pos_site_id
 _symmetry_equiv_pos_as_xyz
  1  'x, y, z'
loop_
 _atom_site_type_symbol
 _atom_site_label
 _atom_site_symmetry_multiplicity
 _atom_site_fract_x
 _atom_site_fract_y
 _atom_site_fract_z
 _atom_site_occupancy
  Er  Er0  1  0.500000  0.317505  0.411554  1
  Er  Er1  1  0.500000  0.680098  0.585223  1
  Er  Er2  1  0.500000  0.180073  0.916614  1
  Er  Er3  1  0.500000  0.821763  0.086592  1
  Sc  Sc4  1  0.500000  0.443716  0.123841  1
  Sc  Sc5  1  0.500000  0.555427  0.875697  1
  Sc  Sc6  1  0.500000  0.054750  0.625079  1
  Sc  Sc7  1  0.500000  0.947646  0.374800  1
  B  B8  1  0.000000  0.100157  0.474517  1
  B  B9  1  0.000000  0.899112  0.527873  1
  B  B10  1  0.000000  0.401177  0.971600  1
  B  B11  1  0.000000  0.601352  0.026625  1
  B  B12  1  0.000000  0.130046  0.319069  1
  B  B13  1  0.000000  0.869366  0.681110  1
  B  B14  1  0.000000  0.370543  0.818785  1
  B  B15  1  0.000000  0.629701  0.182036  1
  B  B16  1  0.000000  0.052577  0.064219  1
  B  B17  1  0.000000  0.945161  0.933268  1
  B  B18  1  0.000000  0.444876  0.565758  1
  B  B19  1  0.000000  0.554608  0.433985  1
  B  B20  1  0.000000  0.482013  0.286026  1
  B  B21  1  0.000000  0.518399  0.714622  1
  B  B22  1  0.000000  0.018345  0.785141  1
  B  B23  1  0.000000  0.978391  0.215185  1
  B  B24  1  0.000000  0.255263  0.079173  1
  B  B25  1  0.000000  0.746478  0.919992  1
  B  B26  1  0.000000  0.246069  0.579840  1
  B  B27  1  0.000000  0.754033  0.420147  1
  B  B28  1  0.000000  0.297679  0.236036  1
  B  B29  1  0.000000  0.704641  0.764334  1
  B  B30  1  0.000000  0.205479  0.735743  1
  B  B31  1  0.000000  0.794301  0.265971  1
  Mo  Mo32  1  0.500000  0.139792  0.180822  1
  Ir  Ir33  1  0.500000  0.858961  0.818287  1
  Ir  Ir34  1  0.500000  0.359683  0.680926  1
  Ir  Ir35  1  0.500000  0.640822  0.319512  1
