# generated using pymatgen
data_ErTm5(Lu2Pb3)2
_symmetry_space_group_name_H-M   'P 1'
_cell_length_a   6.48715700
_cell_length_b   8.93069448
_cell_length_c   8.93357207
_cell_angle_alpha   119.98934308
_cell_angle_beta   90.00058642
_cell_angle_gamma   89.99883446
_symmetry_Int_Tables_number   1
_chemical_formula_structural   ErTm5(Lu2Pb3)2
_chemical_formula_sum   'Er1 Tm5 Lu4 Pb6'
_cell_volume   448.27244619
_cell_formula_units_Z   1
loop_
 _symmetry_equiv_pos_site_id
 _symmetry_equiv_pos_as_xyz
  1  'x, y, z'
loop_
 _atom_site_type_symbol
 _atom_site_label
 _atom_site_symmetry_multiplicity
 _atom_site_fract_x
 _atom_site_fract_y
 _atom_site_fract_z
 _atom_site_occupancy
  Er  Er0  1  0.749942  0.237801  0.000000  1
  Tm  Tm1  1  0.749999  0.762004  0.762082  1
  Tm  Tm2  1  0.749999  0.999922  0.237918  1
  Tm  Tm3  1  0.249998  0.762236  0.000000  1
  Tm  Tm4  1  0.250003  0.237921  0.237942  1
  Tm  Tm5  1  0.250003  0.999979  0.762058  1
  Lu  Lu6  1  0.499988  0.333344  0.666677  1
  Lu  Lu7  1  0.499988  0.666667  0.333323  1
  Lu  Lu8  1  0.000020  0.666695  0.333317  1
  Lu  Lu9  1  0.000020  0.333378  0.666683  1
  Pb  Pb10  1  0.749984  0.605556  0.000000  1
  Pb  Pb11  1  0.750005  0.394532  0.394589  1
  Pb  Pb12  1  0.750005  0.999943  0.605411  1
  Pb  Pb13  1  0.250017  0.394519  0.000000  1
  Pb  Pb14  1  0.250017  0.605523  0.605541  1
  Pb  Pb15  1  0.250017  0.999982  0.394459  1
