# generated using pymatgen
data_SmHoLu(Co3P2)3
_symmetry_space_group_name_H-M   'P 1'
_cell_length_a   3.69463500
_cell_length_b   10.51099800
_cell_length_c   12.17474900
_cell_angle_alpha   90.00000000
_cell_angle_beta   90.00000000
_cell_angle_gamma   90.00000000
_symmetry_Int_Tables_number   1
_chemical_formula_structural   SmHoLu(Co3P2)3
_chemical_formula_sum   'Sm2 Ho2 Lu2 Co18 P12'
_cell_volume   472.79786843
_cell_formula_units_Z   2
loop_
 _symmetry_equiv_pos_site_id
 _symmetry_equiv_pos_as_xyz
  1  'x, y, z'
loop_
 _atom_site_type_symbol
 _atom_site_label
 _atom_site_symmetry_multiplicity
 _atom_site_fract_x
 _atom_site_fract_y
 _atom_site_fract_z
 _atom_site_occupancy
  Sm  Sm0  1  0.000000  0.500000  0.522098  1
  Sm  Sm1  1  0.500000  0.000000  0.477468  1
  Ho  Ho2  1  0.000000  0.682328  0.794793  1
  Ho  Ho3  1  0.000000  0.317672  0.794793  1
  Lu  Lu4  1  0.500000  0.817873  0.205409  1
  Lu  Lu5  1  0.500000  0.182127  0.205409  1
  Co  Co6  1  0.000000  0.500000  0.986816  1
  Co  Co7  1  0.500000  0.000000  0.014386  1
  Co  Co8  1  0.500000  0.296760  0.428884  1
  Co  Co9  1  0.500000  0.703240  0.428884  1
  Co  Co10  1  0.000000  0.202981  0.570246  1
  Co  Co11  1  0.000000  0.797019  0.570246  1
  Co  Co12  1  0.500000  0.879275  0.711686  1
  Co  Co13  1  0.500000  0.120725  0.711686  1
  Co  Co14  1  0.000000  0.621650  0.287767  1
  Co  Co15  1  0.000000  0.378350  0.287767  1
  Co  Co16  1  0.500000  0.332790  0.995442  1
  Co  Co17  1  0.500000  0.667210  0.995442  1
  Co  Co18  1  0.000000  0.166571  0.005926  1
  Co  Co19  1  0.000000  0.833429  0.005926  1
  Co  Co20  1  0.500000  0.500000  0.157420  1
  Co  Co21  1  0.000000  0.000000  0.842727  1
  Co  Co22  1  0.500000  0.500000  0.705461  1
  Co  Co23  1  0.000000  0.000000  0.293534  1
  P  P24  1  0.500000  0.308826  0.617029  1
  P  P25  1  0.500000  0.691174  0.617029  1
  P  P26  1  0.000000  0.190696  0.381527  1
  P  P27  1  0.000000  0.809304  0.381527  1
  P  P28  1  0.500000  0.500000  0.883487  1
  P  P29  1  0.000000  0.000000  0.117804  1
  P  P30  1  0.500000  0.846920  0.893564  1
  P  P31  1  0.500000  0.153080  0.893564  1
  P  P32  1  0.000000  0.654346  0.107153  1
  P  P33  1  0.000000  0.345654  0.107153  1
  P  P34  1  0.500000  0.500000  0.341316  1
  P  P35  1  0.000000  0.000000  0.658631  1
