# generated using pymatgen
data_Ac2CoCuO6
_symmetry_space_group_name_H-M   'P 1'
_cell_length_a   5.64545948
_cell_length_b   5.60008600
_cell_length_c   7.93321300
_cell_angle_alpha   90.00033763
_cell_angle_beta   90.05370853
_cell_angle_gamma   90.00075679
_symmetry_Int_Tables_number   1
_chemical_formula_structural   Ac2CoCuO6
_chemical_formula_sum   'Ac4 Co2 Cu2 O12'
_cell_volume   250.80888368
_cell_formula_units_Z   2
loop_
 _symmetry_equiv_pos_site_id
 _symmetry_equiv_pos_as_xyz
  1  'x, y, z'
loop_
 _atom_site_type_symbol
 _atom_site_label
 _atom_site_symmetry_multiplicity
 _atom_site_fract_x
 _atom_site_fract_y
 _atom_site_fract_z
 _atom_site_occupancy
  Ac  Ac0  1  0.002233  0.012226  0.249821  1
  Ac  Ac1  1  0.497878  0.512235  0.250059  1
  Ac  Ac2  1  0.501908  0.487824  0.750035  1
  Ac  Ac3  1  0.997984  0.987694  0.750143  1
  Co  Co4  1  0.000092  0.500054  0.500023  1
  Co  Co5  1  0.499943  0.999992  0.000003  1
  Cu  Cu6  1  0.499577  0.999703  0.499986  1
  Cu  Cu7  1  0.000338  0.500160  0.999782  1
  O  O8  1  0.762865  0.234635  0.977525  1
  O  O9  1  0.765471  0.240085  0.525712  1
  O  O10  1  0.955452  0.501978  0.253983  1
  O  O11  1  0.237072  0.765327  0.022519  1
  O  O12  1  0.455720  0.998012  0.754231  1
  O  O13  1  0.737112  0.734641  0.522555  1
  O  O14  1  0.734636  0.739823  0.974274  1
  O  O15  1  0.234589  0.760046  0.474265  1
  O  O16  1  0.544378  0.002001  0.245786  1
  O  O17  1  0.262939  0.265311  0.477461  1
  O  O18  1  0.265362  0.260250  0.025769  1
  O  O19  1  0.044452  0.497998  0.746063  1
