# generated using pymatgen
data_DyCd(NiRh)2
_symmetry_space_group_name_H-M   'P 1'
_cell_length_a   5.02580902
_cell_length_b   5.12712309
_cell_length_c   5.12712260
_cell_angle_alpha   62.29426598
_cell_angle_beta   60.65153109
_cell_angle_gamma   60.65154166
_symmetry_Int_Tables_number   1
_chemical_formula_structural   DyCd(NiRh)2
_chemical_formula_sum   'Dy1 Cd1 Ni2 Rh2'
_cell_volume   95.88824085
_cell_formula_units_Z   1
loop_
 _symmetry_equiv_pos_site_id
 _symmetry_equiv_pos_as_xyz
  1  'x, y, z'
loop_
 _atom_site_type_symbol
 _atom_site_label
 _atom_site_symmetry_multiplicity
 _atom_site_fract_x
 _atom_site_fract_y
 _atom_site_fract_z
 _atom_site_occupancy
  Dy  Dy0  1  0.248328  0.251672  0.251672  1
  Cd  Cd1  1  0.003817  0.996183  0.996183  1
  Ni  Ni2  1  0.124074  0.626720  0.626720  1
  Ni  Ni3  1  0.622487  0.626720  0.626720  1
  Rh  Rh4  1  0.625647  0.625503  0.123203  1
  Rh  Rh5  1  0.625647  0.123203  0.625503  1
