# generated using pymatgen
data_YLu7In3Rh
_symmetry_space_group_name_H-M   'P 1'
_cell_length_a   10.23840100
_cell_length_b   10.23840230
_cell_length_c   6.95084200
_cell_angle_alpha   90.00000000
_cell_angle_beta   90.00000000
_cell_angle_gamma   120.00000548
_symmetry_Int_Tables_number   1
_chemical_formula_structural   YLu7In3Rh
_chemical_formula_sum   'Y2 Lu14 In6 Rh2'
_cell_volume   631.00434563
_cell_formula_units_Z   2
loop_
 _symmetry_equiv_pos_site_id
 _symmetry_equiv_pos_as_xyz
  1  'x, y, z'
loop_
 _atom_site_type_symbol
 _atom_site_label
 _atom_site_symmetry_multiplicity
 _atom_site_fract_x
 _atom_site_fract_y
 _atom_site_fract_z
 _atom_site_occupancy
  Y  Y0  1  0.000000  0.000000  0.495812  1
  Y  Y1  1  0.000000  0.000000  0.995812  1
  Lu  Lu2  1  0.466379  0.533621  0.479216  1
  Lu  Lu3  1  0.067243  0.533621  0.479216  1
  Lu  Lu4  1  0.466379  0.932757  0.479216  1
  Lu  Lu5  1  0.533621  0.466379  0.979216  1
  Lu  Lu6  1  0.932757  0.466379  0.979216  1
  Lu  Lu7  1  0.533621  0.067243  0.979216  1
  Lu  Lu8  1  0.821850  0.178150  0.277229  1
  Lu  Lu9  1  0.356300  0.178150  0.277229  1
  Lu  Lu10  1  0.821850  0.643700  0.277229  1
  Lu  Lu11  1  0.178150  0.821850  0.777229  1
  Lu  Lu12  1  0.643700  0.821850  0.777229  1
  Lu  Lu13  1  0.178150  0.356300  0.777229  1
  Lu  Lu14  1  0.333333  0.666667  0.098265  1
  Lu  Lu15  1  0.666667  0.333333  0.598265  1
  In  In16  1  0.162853  0.837147  0.234465  1
  In  In17  1  0.674292  0.837147  0.234465  1
  In  In18  1  0.162853  0.325708  0.234465  1
  In  In19  1  0.837147  0.162853  0.734465  1
  In  In20  1  0.325708  0.162853  0.734465  1
  In  In21  1  0.837147  0.674292  0.734465  1
  Rh  Rh22  1  0.333333  0.666667  0.705472  1
  Rh  Rh23  1  0.666667  0.333333  0.205472  1
