# generated using pymatgen
data_Li28MgScSi8
_symmetry_space_group_name_H-M   'P 1'
_cell_length_a   9.22123947
_cell_length_b   9.22123863
_cell_length_c   9.22123856
_cell_angle_alpha   109.40246470
_cell_angle_beta   109.40246217
_cell_angle_gamma   109.60881985
_symmetry_Int_Tables_number   1
_chemical_formula_structural   Li28MgScSi8
_chemical_formula_sum   'Li28 Mg1 Sc1 Si8'
_cell_volume   603.59281927
_cell_formula_units_Z   1
loop_
 _symmetry_equiv_pos_site_id
 _symmetry_equiv_pos_as_xyz
  1  'x, y, z'
loop_
 _atom_site_type_symbol
 _atom_site_label
 _atom_site_symmetry_multiplicity
 _atom_site_fract_x
 _atom_site_fract_y
 _atom_site_fract_z
 _atom_site_occupancy
  Li  Li0  1  0.068583  0.539184  0.276810  1
  Li  Li1  1  0.262375  0.791773  0.723190  1
  Li  Li2  1  0.182430  0.961288  0.974964  1
  Li  Li3  1  0.986324  0.207465  0.025036  1
  Li  Li4  1  0.038712  0.013676  0.221141  1
  Li  Li5  1  0.792535  0.817570  0.778859  1
  Li  Li6  1  0.460816  0.737625  0.529399  1
  Li  Li7  1  0.208227  0.931417  0.470601  1
  Li  Li8  1  0.723705  0.343736  0.062562  1
  Li  Li9  1  0.963706  0.402517  0.869773  1
  Li  Li10  1  0.281174  0.661142  0.937438  1
  Li  Li11  1  0.532744  0.093933  0.130227  1
  Li  Li12  1  0.693437  0.865938  0.093230  1
  Li  Li13  1  0.482687  0.891521  0.331008  1
  Li  Li14  1  0.560513  0.151679  0.668992  1
  Li  Li15  1  0.772708  0.600206  0.906770  1
  Li  Li16  1  0.848321  0.517313  0.408836  1
  Li  Li17  1  0.399794  0.306563  0.172501  1
  Li  Li18  1  0.134062  0.227292  0.827499  1
  Li  Li19  1  0.108479  0.439487  0.591164  1
  Li  Li20  1  0.906067  0.036294  0.438811  1
  Li  Li21  1  0.338858  0.276295  0.620032  1
  Li  Li22  1  0.597483  0.467256  0.561189  1
  Li  Li23  1  0.656264  0.718826  0.379968  1
  Li  Li24  1  0.999100  0.874813  0.626597  1
  Li  Li25  1  0.248215  0.372504  0.373403  1
  Li  Li26  1  0.125187  0.751785  0.124288  1
  Li  Li27  1  0.627496  0.000900  0.875712  1
  Mg  Mg28  1  0.750000  0.250000  0.500000  1
  Sc  Sc29  1  0.500000  0.500000  0.000000  1
  Si  Si30  1  0.296246  0.537104  0.160850  1
  Si  Si31  1  0.376253  0.135397  0.839150  1
  Si  Si32  1  0.959112  0.623834  0.745584  1
  Si  Si33  1  0.878250  0.213529  0.254416  1
  Si  Si34  1  0.376166  0.121750  0.335279  1
  Si  Si35  1  0.786471  0.040888  0.664721  1
  Si  Si36  1  0.462896  0.623747  0.759143  1
  Si  Si37  1  0.864603  0.703754  0.240857  1
