# generated using pymatgen
data_La5In4RuAu
_symmetry_space_group_name_H-M   'P 1'
_cell_length_a   19.37535100
_cell_length_b   8.69484000
_cell_length_c   3.76902100
_cell_angle_alpha   90.00000000
_cell_angle_beta   90.00000000
_cell_angle_gamma   90.00000000
_symmetry_Int_Tables_number   1
_chemical_formula_structural   La5In4RuAu
_chemical_formula_sum   'La10 In8 Ru2 Au2'
_cell_volume   634.95029707
_cell_formula_units_Z   2
loop_
 _symmetry_equiv_pos_site_id
 _symmetry_equiv_pos_as_xyz
  1  'x, y, z'
loop_
 _atom_site_type_symbol
 _atom_site_label
 _atom_site_symmetry_multiplicity
 _atom_site_fract_x
 _atom_site_fract_y
 _atom_site_fract_z
 _atom_site_occupancy
  La  La0  1  0.001358  0.000850  0.000000  1
  La  La1  1  0.418254  0.121669  0.000000  1
  La  La2  1  0.218571  0.262012  0.000000  1
  La  La3  1  0.718571  0.237988  0.000000  1
  La  La4  1  0.918254  0.378331  0.000000  1
  La  La5  1  0.501358  0.499150  0.000000  1
  La  La6  1  0.089267  0.612434  0.000000  1
  La  La7  1  0.274456  0.716566  0.000000  1
  La  La8  1  0.774455  0.783433  0.000000  1
  La  La9  1  0.589267  0.887567  0.000000  1
  In  In10  1  0.850165  0.070463  0.500000  1
  In  In11  1  0.571055  0.208324  0.500000  1
  In  In12  1  0.071055  0.291677  0.500000  1
  In  In13  1  0.350165  0.429538  0.500000  1
  In  In14  1  0.648669  0.567692  0.500000  1
  In  In15  1  0.930031  0.711952  0.500000  1
  In  In16  1  0.430031  0.788049  0.500000  1
  In  In17  1  0.148670  0.932309  0.500000  1
  Ru  Ru18  1  0.197685  0.501761  0.500000  1
  Ru  Ru19  1  0.697685  0.998239  0.500000  1
  Au  Au20  1  0.300490  0.013480  0.500000  1
  Au  Au21  1  0.800490  0.486520  0.500000  1
