# generated using pymatgen
data_TmVFe2P3Rh2
_symmetry_space_group_name_H-M   'P 1'
_cell_length_a   3.72718100
_cell_length_b   10.56568400
_cell_length_c   12.32290000
_cell_angle_alpha   90.00000000
_cell_angle_beta   90.00000000
_cell_angle_gamma   90.00000000
_symmetry_Int_Tables_number   1
_chemical_formula_structural   TmVFe2P3Rh2
_chemical_formula_sum   'Tm4 V4 Fe8 P12 Rh8'
_cell_volume   485.27847184
_cell_formula_units_Z   4
loop_
 _symmetry_equiv_pos_site_id
 _symmetry_equiv_pos_as_xyz
  1  'x, y, z'
loop_
 _atom_site_type_symbol
 _atom_site_label
 _atom_site_symmetry_multiplicity
 _atom_site_fract_x
 _atom_site_fract_y
 _atom_site_fract_z
 _atom_site_occupancy
  Tm  Tm0  1  0.250000  0.578380  0.711422  1
  Tm  Tm1  1  0.250000  0.921620  0.211422  1
  Tm  Tm2  1  0.750000  0.421620  0.288578  1
  Tm  Tm3  1  0.750000  0.078380  0.788578  1
  V  V4  1  0.250000  0.693430  0.991470  1
  V  V5  1  0.250000  0.806570  0.491470  1
  V  V6  1  0.750000  0.306570  0.008530  1
  V  V7  1  0.750000  0.193430  0.508530  1
  Fe  Fe8  1  0.250000  0.877806  0.693562  1
  Fe  Fe9  1  0.250000  0.622194  0.193562  1
  Fe  Fe10  1  0.750000  0.122194  0.306438  1
  Fe  Fe11  1  0.750000  0.377806  0.806438  1
  Fe  Fe12  1  0.250000  0.462744  0.936886  1
  Fe  Fe13  1  0.250000  0.037256  0.436886  1
  Fe  Fe14  1  0.750000  0.537256  0.063114  1
  Fe  Fe15  1  0.750000  0.962744  0.563114  1
  P  P16  1  0.250000  0.433797  0.112488  1
  P  P17  1  0.250000  0.066203  0.612488  1
  P  P18  1  0.750000  0.566203  0.887512  1
  P  P19  1  0.750000  0.933797  0.387512  1
  P  P20  1  0.250000  0.273170  0.864831  1
  P  P21  1  0.250000  0.226830  0.364831  1
  P  P22  1  0.750000  0.726830  0.135169  1
  P  P23  1  0.750000  0.773170  0.635169  1
  P  P24  1  0.250000  0.599960  0.380743  1
  P  P25  1  0.250000  0.900040  0.880743  1
  P  P26  1  0.750000  0.400040  0.619257  1
  P  P27  1  0.750000  0.099960  0.119257  1
  Rh  Rh28  1  0.250000  0.403292  0.479782  1
  Rh  Rh29  1  0.250000  0.096708  0.979782  1
  Rh  Rh30  1  0.750000  0.596708  0.520218  1
  Rh  Rh31  1  0.750000  0.903292  0.020218  1
  Rh  Rh32  1  0.250000  0.226346  0.175157  1
  Rh  Rh33  1  0.250000  0.273654  0.675157  1
  Rh  Rh34  1  0.750000  0.773654  0.824843  1
  Rh  Rh35  1  0.750000  0.726346  0.324843  1
