# generated using pymatgen
data_Ba2ZnSb3Pt2
_symmetry_space_group_name_H-M   'P 1'
_cell_length_a   9.52550748
_cell_length_b   9.52550743
_cell_length_c   4.85117200
_cell_angle_alpha   90.00000000
_cell_angle_beta   90.00000000
_cell_angle_gamma   151.02436635
_symmetry_Int_Tables_number   1
_chemical_formula_structural   Ba2ZnSb3Pt2
_chemical_formula_sum   'Ba2 Zn1 Sb3 Pt2'
_cell_volume   213.23612468
_cell_formula_units_Z   1
loop_
 _symmetry_equiv_pos_site_id
 _symmetry_equiv_pos_as_xyz
  1  'x, y, z'
loop_
 _atom_site_type_symbol
 _atom_site_label
 _atom_site_symmetry_multiplicity
 _atom_site_fract_x
 _atom_site_fract_y
 _atom_site_fract_z
 _atom_site_occupancy
  Ba  Ba0  1  0.109066  0.890933  0.250001  1
  Ba  Ba1  1  0.892215  0.107784  0.750000  1
  Zn  Zn2  1  0.748322  0.251676  0.250001  1
  Sb  Sb3  1  0.455520  0.544479  0.250001  1
  Sb  Sb4  1  0.545074  0.454925  0.750000  1
  Sb  Sb5  1  0.250769  0.749229  0.750000  1
  Pt  Pt6  1  0.310743  0.689256  0.250001  1
  Pt  Pt7  1  0.688284  0.311715  0.750000  1
