# generated using pymatgen
data_Zr8Ti12Si11P5
_symmetry_space_group_name_H-M   'P 1'
_cell_length_a   6.79240950
_cell_length_b   6.78601719
_cell_length_c   12.46803282
_cell_angle_alpha   90.06566378
_cell_angle_beta   90.04059413
_cell_angle_gamma   89.98324489
_symmetry_Int_Tables_number   1
_chemical_formula_structural   Zr8Ti12Si11P5
_chemical_formula_sum   'Zr8 Ti12 Si11 P5'
_cell_volume   574.69357301
_cell_formula_units_Z   1
loop_
 _symmetry_equiv_pos_site_id
 _symmetry_equiv_pos_as_xyz
  1  'x, y, z'
loop_
 _atom_site_type_symbol
 _atom_site_label
 _atom_site_symmetry_multiplicity
 _atom_site_fract_x
 _atom_site_fract_y
 _atom_site_fract_z
 _atom_site_occupancy
  Zr  Zr0  1  0.000953  0.652401  0.030591  1
  Zr  Zr1  1  0.997733  0.346296  0.530113  1
  Zr  Zr2  1  0.657858  0.002814  0.968989  1
  Zr  Zr3  1  0.152167  0.499092  0.780262  1
  Zr  Zr4  1  0.848725  0.501401  0.280534  1
  Zr  Zr5  1  0.497234  0.157842  0.219857  1
  Zr  Zr6  1  0.503828  0.843376  0.718273  1
  Zr  Zr7  1  0.345754  0.997739  0.470419  1
  Ti  Ti8  1  0.340404  0.505904  0.376497  1
  Ti  Ti9  1  0.847879  0.993161  0.376514  1
  Ti  Ti10  1  0.005526  0.158239  0.125799  1
  Ti  Ti11  1  0.991531  0.844058  0.624746  1
  Ti  Ti12  1  0.658469  0.494653  0.875580  1
  Ti  Ti13  1  0.510578  0.344167  0.622481  1
  Ti  Ti14  1  0.492207  0.650947  0.123500  1
  Ti  Ti15  1  0.150791  0.008184  0.873322  1
  Ti  Ti16  1  0.673853  0.671154  0.501622  1
  Ti  Ti17  1  0.829203  0.172347  0.748686  1
  Ti  Ti18  1  0.169412  0.826496  0.251344  1
  Ti  Ti19  1  0.325912  0.330633  0.000867  1
  Si  Si20  1  0.452054  0.207708  0.813790  1
  Si  Si21  1  0.547380  0.791980  0.313561  1
  Si  Si22  1  0.292650  0.952628  0.063745  1
  Si  Si23  1  0.866617  0.796727  0.823793  1
  Si  Si24  1  0.133901  0.201439  0.324323  1
  Si  Si25  1  0.794810  0.866853  0.177199  1
  Si  Si26  1  0.296702  0.632353  0.574592  1
  Si  Si27  1  0.702958  0.365858  0.073796  1
  Si  Si28  1  0.632937  0.297743  0.424405  1
  Si  Si29  1  0.366446  0.705685  0.926072  1
  Si  Si30  1  0.205804  0.133573  0.676524  1
  P  P31  1  0.046260  0.707813  0.436297  1
  P  P32  1  0.953690  0.292033  0.935437  1
  P  P33  1  0.708000  0.046756  0.563856  1
  P  P34  1  0.207811  0.453833  0.186187  1
  P  P35  1  0.791962  0.546114  0.686426  1
