# generated using pymatgen
data_Nb12Ga5Cu3N4
_symmetry_space_group_name_H-M   'P 1'
_cell_length_a   7.00750506
_cell_length_b   7.00750504
_cell_length_c   7.00750526
_cell_angle_alpha   90.15071345
_cell_angle_beta   90.15071263
_cell_angle_gamma   90.15071527
_symmetry_Int_Tables_number   1
_chemical_formula_structural   Nb12Ga5Cu3N4
_chemical_formula_sum   'Nb12 Ga5 Cu3 N4'
_cell_volume   344.10085839
_cell_formula_units_Z   1
loop_
 _symmetry_equiv_pos_site_id
 _symmetry_equiv_pos_as_xyz
  1  'x, y, z'
loop_
 _atom_site_type_symbol
 _atom_site_label
 _atom_site_symmetry_multiplicity
 _atom_site_fract_x
 _atom_site_fract_y
 _atom_site_fract_z
 _atom_site_occupancy
  Nb  Nb0  1  0.792666  0.957143  0.376256  1
  Nb  Nb1  1  0.706821  0.042567  0.873645  1
  Nb  Nb2  1  0.207651  0.456099  0.125442  1
  Nb  Nb3  1  0.292935  0.544147  0.625116  1
  Nb  Nb4  1  0.957143  0.376256  0.792666  1
  Nb  Nb5  1  0.042567  0.873645  0.706821  1
  Nb  Nb6  1  0.456099  0.125442  0.207651  1
  Nb  Nb7  1  0.544147  0.625116  0.292935  1
  Nb  Nb8  1  0.376256  0.792666  0.957143  1
  Nb  Nb9  1  0.873645  0.706821  0.042567  1
  Nb  Nb10  1  0.125442  0.207651  0.456099  1
  Nb  Nb11  1  0.625116  0.292935  0.544147  1
  Ga  Ga12  1  0.678652  0.678652  0.678652  1
  Ga  Ga13  1  0.569898  0.418153  0.936085  1
  Ga  Ga14  1  0.418153  0.936085  0.569898  1
  Ga  Ga15  1  0.936085  0.569898  0.418153  1
  Ga  Ga16  1  0.072658  0.072658  0.072658  1
  Cu  Cu17  1  0.179066  0.821693  0.318469  1
  Cu  Cu18  1  0.318469  0.179066  0.821693  1
  Cu  Cu19  1  0.821693  0.318469  0.179066  1
  N  N20  1  0.878275  0.125741  0.624541  1
  N  N21  1  0.624541  0.878275  0.125741  1
  N  N22  1  0.125741  0.624541  0.878275  1
  N  N23  1  0.376281  0.376281  0.376281  1
