# generated using pymatgen
data_BrClF36
_symmetry_space_group_name_H-M   'P 1'
_cell_length_a   7.34046842
_cell_length_b   10.03991000
_cell_length_c   9.88769100
_cell_angle_alpha   94.29390129
_cell_angle_beta   96.13707595
_cell_angle_gamma   68.66767124
_symmetry_Int_Tables_number   1
_chemical_formula_structural   BrClF36
_chemical_formula_sum   'Br1 Cl1 F36'
_cell_volume   674.37387578
_cell_formula_units_Z   1
loop_
 _symmetry_equiv_pos_site_id
 _symmetry_equiv_pos_as_xyz
  1  'x, y, z'
loop_
 _atom_site_type_symbol
 _atom_site_label
 _atom_site_symmetry_multiplicity
 _atom_site_fract_x
 _atom_site_fract_y
 _atom_site_fract_z
 _atom_site_occupancy
  Br  Br0  1  0.245291  0.192536  0.184412  1
  Cl  Cl1  1  0.748709  0.807813  0.817888  1
  F  F2  1  0.302388  0.432177  0.897365  1
  F  F3  1  0.690527  0.572837  0.099270  1
  F  F4  1  0.320405  0.272928  0.561645  1
  F  F5  1  0.681684  0.727005  0.440667  1
  F  F6  1  0.940804  0.225638  0.816604  1
  F  F7  1  0.058976  0.775860  0.182208  1
  F  F8  1  0.608825  0.824557  0.940227  1
  F  F9  1  0.395149  0.172577  0.051816  1
  F  F10  1  0.921800  0.670801  0.906326  1
  F  F11  1  0.066198  0.337881  0.087707  1
  F  F12  1  0.463984  0.422829  0.823980  1
  F  F13  1  0.537083  0.578226  0.179167  1
  F  F14  1  0.650332  0.687382  0.738728  1
  F  F15  1  0.352695  0.320018  0.264903  1
  F  F16  1  0.754649  0.024110  0.497682  1
  F  F17  1  0.242218  0.977111  0.502766  1
  F  F18  1  0.257708  0.207253  0.661419  1
  F  F19  1  0.755341  0.782876  0.339196  1
  F  F20  1  0.807801  0.097668  0.615892  1
  F  F21  1  0.191667  0.901855  0.384801  1
  F  F22  1  0.830699  0.929994  0.909456  1
  F  F23  1  0.160642  0.062063  0.086078  1
  F  F24  1  0.862900  0.374479  0.790374  1
  F  F25  1  0.140236  0.626300  0.205145  1
  F  F26  1  0.281786  0.747578  0.930148  1
  F  F27  1  0.719245  0.253129  0.070450  1
  F  F28  1  0.558635  0.945073  0.742140  1
  F  F29  1  0.450007  0.047029  0.262660  1
  F  F30  1  0.062180  0.743353  0.563731  1
  F  F31  1  0.938908  0.256924  0.438935  1
  F  F32  1  0.131384  0.613326  0.634729  1
  F  F33  1  0.870691  0.385530  0.365540  1
  F  F34  1  0.224611  0.846134  0.823436  1
  F  F35  1  0.769866  0.156673  0.178665  1
  F  F36  1  0.536262  0.434364  0.535833  1
  F  F37  1  0.467712  0.566110  0.468010  1
