# generated using pymatgen
data_Th4Mg2GaSi3
_symmetry_space_group_name_H-M   'P 1'
_cell_length_a   7.32576100
_cell_length_b   7.32576139
_cell_length_c   4.42277500
_cell_angle_alpha   90.00000000
_cell_angle_beta   90.00000000
_cell_angle_gamma   89.76735184
_symmetry_Int_Tables_number   1
_chemical_formula_structural   Th4Mg2GaSi3
_chemical_formula_sum   'Th4 Mg2 Ga1 Si3'
_cell_volume   237.35412338
_cell_formula_units_Z   1
loop_
 _symmetry_equiv_pos_site_id
 _symmetry_equiv_pos_as_xyz
  1  'x, y, z'
loop_
 _atom_site_type_symbol
 _atom_site_label
 _atom_site_symmetry_multiplicity
 _atom_site_fract_x
 _atom_site_fract_y
 _atom_site_fract_z
 _atom_site_occupancy
  Th  Th0  1  0.677836  0.177836  0.500000  1
  Th  Th1  1  0.323831  0.823831  0.500000  1
  Th  Th2  1  0.178635  0.319012  0.500000  1
  Th  Th3  1  0.819012  0.678635  0.500000  1
  Mg  Mg4  1  0.999017  0.001052  0.000000  1
  Mg  Mg5  1  0.501052  0.499017  0.000000  1
  Ga  Ga6  1  0.120715  0.620715  0.000000  1
  Si  Si7  1  0.879029  0.379029  0.000000  1
  Si  Si8  1  0.617635  0.883237  0.000000  1
  Si  Si9  1  0.383237  0.117635  0.000000  1
