# generated using pymatgen
data_Nd16Hg4RuRh3
_symmetry_space_group_name_H-M   'P 1'
_cell_length_a   9.94507189
_cell_length_b   9.94507298
_cell_length_c   9.94507350
_cell_angle_alpha   59.65770390
_cell_angle_beta   59.65770117
_cell_angle_gamma   59.65770315
_symmetry_Int_Tables_number   1
_chemical_formula_structural   Nd16Hg4RuRh3
_chemical_formula_sum   'Nd16 Hg4 Ru1 Rh3'
_cell_volume   690.10960667
_cell_formula_units_Z   1
loop_
 _symmetry_equiv_pos_site_id
 _symmetry_equiv_pos_as_xyz
  1  'x, y, z'
loop_
 _atom_site_type_symbol
 _atom_site_label
 _atom_site_symmetry_multiplicity
 _atom_site_fract_x
 _atom_site_fract_y
 _atom_site_fract_z
 _atom_site_occupancy
  Nd  Nd0  1  0.599946  0.599946  0.599946  1
  Nd  Nd1  1  0.598754  0.598754  0.199418  1
  Nd  Nd2  1  0.598754  0.199418  0.598754  1
  Nd  Nd3  1  0.199418  0.598754  0.598754  1
  Nd  Nd4  1  0.060405  0.440836  0.440836  1
  Nd  Nd5  1  0.441169  0.058407  0.058407  1
  Nd  Nd6  1  0.440836  0.060405  0.440836  1
  Nd  Nd7  1  0.058407  0.441169  0.058407  1
  Nd  Nd8  1  0.440836  0.440836  0.060405  1
  Nd  Nd9  1  0.058407  0.058407  0.441169  1
  Nd  Nd10  1  0.188245  0.812429  0.812429  1
  Nd  Nd11  1  0.809558  0.189296  0.189296  1
  Nd  Nd12  1  0.812429  0.188245  0.812429  1
  Nd  Nd13  1  0.189296  0.809558  0.189296  1
  Nd  Nd14  1  0.812429  0.812429  0.188245  1
  Nd  Nd15  1  0.189296  0.189296  0.809558  1
  Hg  Hg16  1  0.834073  0.834073  0.834073  1
  Hg  Hg17  1  0.834490  0.834490  0.497010  1
  Hg  Hg18  1  0.834490  0.497010  0.834490  1
  Hg  Hg19  1  0.497010  0.834490  0.834490  1
  Ru  Ru20  1  0.390343  0.390343  0.390343  1
  Rh  Rh21  1  0.393386  0.393386  0.824638  1
  Rh  Rh22  1  0.393386  0.824638  0.393386  1
  Rh  Rh23  1  0.824638  0.393386  0.393386  1
