# generated using pymatgen
data_La4NdSn3H
_symmetry_space_group_name_H-M   'P 1'
_cell_length_a   9.45967578
_cell_length_b   9.45967659
_cell_length_c   9.45967708
_cell_angle_alpha   126.67865764
_cell_angle_beta   126.67865160
_cell_angle_gamma   78.77555797
_symmetry_Int_Tables_number   1
_chemical_formula_structural   La4NdSn3H
_chemical_formula_sum   'La8 Nd2 Sn6 H2'
_cell_volume   526.88744974
_cell_formula_units_Z   2
loop_
 _symmetry_equiv_pos_site_id
 _symmetry_equiv_pos_as_xyz
  1  'x, y, z'
loop_
 _atom_site_type_symbol
 _atom_site_label
 _atom_site_symmetry_multiplicity
 _atom_site_fract_x
 _atom_site_fract_y
 _atom_site_fract_z
 _atom_site_occupancy
  La  La0  1  0.514536  0.014536  0.832618  1
  La  La1  1  0.181919  0.681919  0.167382  1
  La  La2  1  0.014536  0.181919  0.500000  1
  La  La3  1  0.681919  0.514536  0.500000  1
  La  La4  1  0.485464  0.985464  0.167382  1
  La  La5  1  0.818081  0.318081  0.832618  1
  La  La6  1  0.985464  0.818081  0.500000  1
  La  La7  1  0.318081  0.485464  0.500000  1
  Nd  Nd8  1  0.500000  0.500000  0.000000  1
  Nd  Nd9  1  0.000000  0.000000  0.000000  1
  Sn  Sn10  1  0.250000  0.250000  0.000000  1
  Sn  Sn11  1  0.750000  0.750000  0.000000  1
  Sn  Sn12  1  0.869051  0.369051  0.238104  1
  Sn  Sn13  1  0.130949  0.630949  0.761896  1
  Sn  Sn14  1  0.369051  0.130949  0.500000  1
  Sn  Sn15  1  0.630949  0.869051  0.500000  1
  H  H16  1  0.250000  0.750000  0.500000  1
  H  H17  1  0.750000  0.250000  0.500000  1
