# generated using pymatgen
data_KAc(CO3)2
_symmetry_space_group_name_H-M   'P 1'
_cell_length_a   6.55408600
_cell_length_b   8.68956700
_cell_length_c   9.83449200
_cell_angle_alpha   90.00000000
_cell_angle_beta   90.00000000
_cell_angle_gamma   90.00000000
_symmetry_Int_Tables_number   1
_chemical_formula_structural   KAc(CO3)2
_chemical_formula_sum   'K4 Ac4 C8 O24'
_cell_volume   560.09565455
_cell_formula_units_Z   4
loop_
 _symmetry_equiv_pos_site_id
 _symmetry_equiv_pos_as_xyz
  1  'x, y, z'
loop_
 _atom_site_type_symbol
 _atom_site_label
 _atom_site_symmetry_multiplicity
 _atom_site_fract_x
 _atom_site_fract_y
 _atom_site_fract_z
 _atom_site_occupancy
  K  K0  1  0.460751  0.690737  0.240310  1
  K  K1  1  0.460751  0.690737  0.759690  1
  K  K2  1  0.539249  0.190737  0.259690  1
  K  K3  1  0.539249  0.190737  0.740310  1
  Ac  Ac4  1  0.970623  0.953342  0.000000  1
  Ac  Ac5  1  0.045129  0.456621  0.000000  1
  Ac  Ac6  1  0.029377  0.453342  0.500000  1
  Ac  Ac7  1  0.954871  0.956621  0.500000  1
  C  C8  1  0.948707  0.759268  0.749225  1
  C  C9  1  0.051293  0.259268  0.750775  1
  C  C10  1  0.474972  0.438794  0.500000  1
  C  C11  1  0.051293  0.259268  0.249225  1
  C  C12  1  0.405082  0.963830  0.500000  1
  C  C13  1  0.948707  0.759268  0.250775  1
  C  C14  1  0.594918  0.463830  0.000000  1
  C  C15  1  0.525028  0.938794  0.000000  1
  O  O16  1  0.405722  0.503560  0.000000  1
  O  O17  1  0.369523  0.312589  0.500000  1
  O  O18  1  0.330299  0.930730  0.000000  1
  O  O19  1  0.046980  0.191871  0.133404  1
  O  O20  1  0.041144  0.704458  0.854397  1
  O  O21  1  0.854489  0.891137  0.755672  1
  O  O22  1  0.953020  0.691871  0.366596  1
  O  O23  1  0.594278  0.003560  0.500000  1
  O  O24  1  0.690860  0.446303  0.885075  1
  O  O25  1  0.145511  0.391137  0.744328  1
  O  O26  1  0.958856  0.204458  0.645603  1
  O  O27  1  0.630477  0.812589  0.000000  1
  O  O28  1  0.145511  0.391137  0.255672  1
  O  O29  1  0.958856  0.204458  0.354397  1
  O  O30  1  0.614098  0.073183  0.000000  1
  O  O31  1  0.854489  0.891137  0.244328  1
  O  O32  1  0.690860  0.446303  0.114925  1
  O  O33  1  0.953020  0.691871  0.633404  1
  O  O34  1  0.385902  0.573183  0.500000  1
  O  O35  1  0.309140  0.946303  0.385075  1
  O  O36  1  0.041144  0.704458  0.145603  1
  O  O37  1  0.046980  0.191871  0.866596  1
  O  O38  1  0.309140  0.946303  0.614925  1
  O  O39  1  0.669701  0.430730  0.500000  1
