# generated using pymatgen
data_SmYAl20(RuRh)2
_symmetry_space_group_name_H-M   'P 1'
_cell_length_a   6.85983119
_cell_length_b   6.85511434
_cell_length_c   9.17504200
_cell_angle_alpha   90.00000000
_cell_angle_beta   90.00000000
_cell_angle_gamma   97.15619096
_symmetry_Int_Tables_number   1
_chemical_formula_structural   SmYAl20(RuRh)2
_chemical_formula_sum   'Sm1 Y1 Al20 Ru2 Rh2'
_cell_volume   428.09474642
_cell_formula_units_Z   1
loop_
 _symmetry_equiv_pos_site_id
 _symmetry_equiv_pos_as_xyz
  1  'x, y, z'
loop_
 _atom_site_type_symbol
 _atom_site_label
 _atom_site_symmetry_multiplicity
 _atom_site_fract_x
 _atom_site_fract_y
 _atom_site_fract_z
 _atom_site_occupancy
  Sm  Sm0  1  0.870540  0.124890  0.750000  1
  Y  Y1  1  0.131157  0.874297  0.250000  1
  Al  Al2  1  0.620769  0.375746  0.549188  1
  Al  Al3  1  0.378667  0.624692  0.450386  1
  Al  Al4  1  0.378667  0.624692  0.049614  1
  Al  Al5  1  0.620769  0.375746  0.950812  1
  Al  Al6  1  0.225715  0.223671  0.498565  1
  Al  Al7  1  0.774434  0.776118  0.500402  1
  Al  Al8  1  0.774434  0.776118  0.999598  1
  Al  Al9  1  0.225715  0.223671  0.001435  1
  Al  Al10  1  0.843952  0.154748  0.102110  1
  Al  Al11  1  0.156643  0.844588  0.898617  1
  Al  Al12  1  0.156643  0.844588  0.601383  1
  Al  Al13  1  0.843952  0.154748  0.397890  1
  Al  Al14  1  0.857300  0.589751  0.750000  1
  Al  Al15  1  0.142974  0.411664  0.250000  1
  Al  Al16  1  0.411081  0.140762  0.750000  1
  Al  Al17  1  0.587589  0.859037  0.250000  1
  Al  Al18  1  0.224803  0.481533  0.750000  1
  Al  Al19  1  0.775864  0.519348  0.250000  1
  Al  Al20  1  0.517663  0.777391  0.750000  1
  Al  Al21  1  0.481428  0.222012  0.250000  1
  Ru  Ru22  1  0.499777  0.000036  0.000632  1
  Ru  Ru23  1  0.499777  0.000036  0.499368  1
  Rh  Rh24  1  0.999843  0.500059  0.499559  1
  Rh  Rh25  1  0.999843  0.500059  0.000441  1
