# generated using pymatgen
data_Sm2FeCoBr2
_symmetry_space_group_name_H-M   'P 1'
_cell_length_a   3.95048400
_cell_length_b   3.95048443
_cell_length_c   12.22147200
_cell_angle_alpha   90.00000000
_cell_angle_beta   90.00000000
_cell_angle_gamma   119.99999638
_symmetry_Int_Tables_number   1
_chemical_formula_structural   Sm2FeCoBr2
_chemical_formula_sum   'Sm2 Fe1 Co1 Br2'
_cell_volume   165.17899770
_cell_formula_units_Z   1
loop_
 _symmetry_equiv_pos_site_id
 _symmetry_equiv_pos_as_xyz
  1  'x, y, z'
loop_
 _atom_site_type_symbol
 _atom_site_label
 _atom_site_symmetry_multiplicity
 _atom_site_fract_x
 _atom_site_fract_y
 _atom_site_fract_z
 _atom_site_occupancy
  Sm  Sm0  1  0.000000  0.000000  0.163204  1
  Sm  Sm1  1  0.000000  0.000000  0.837582  1
  Fe  Fe2  1  0.666666  0.333334  0.005915  1
  Co  Co3  1  0.333333  0.666666  0.993212  1
  Br  Br4  1  0.333333  0.666666  0.323871  1
  Br  Br5  1  0.666666  0.333334  0.676216  1
