# generated using pymatgen
data_K2BaFe4(NiP3)2
_symmetry_space_group_name_H-M   'P 1'
_cell_length_a   8.33173634
_cell_length_b   8.33908995
_cell_length_c   7.04886907
_cell_angle_alpha   69.16329704
_cell_angle_beta   69.20823308
_cell_angle_gamma   36.93169553
_symmetry_Int_Tables_number   1
_chemical_formula_structural   K2BaFe4(NiP3)2
_chemical_formula_sum   'K2 Ba1 Fe4 Ni2 P6'
_cell_volume   272.84138279
_cell_formula_units_Z   1
loop_
 _symmetry_equiv_pos_site_id
 _symmetry_equiv_pos_as_xyz
  1  'x, y, z'
loop_
 _atom_site_type_symbol
 _atom_site_label
 _atom_site_symmetry_multiplicity
 _atom_site_fract_x
 _atom_site_fract_y
 _atom_site_fract_z
 _atom_site_occupancy
  K  K0  1  0.673827  0.670302  0.999812  1
  K  K1  1  0.327221  0.328929  0.998602  1
  Ba  Ba2  1  0.999015  0.001065  0.001596  1
  Fe  Fe3  1  0.416645  0.915999  0.500839  1
  Fe  Fe4  1  0.583941  0.084709  0.499596  1
  Fe  Fe5  1  0.916751  0.416297  0.499871  1
  Fe  Fe6  1  0.249452  0.748661  0.500089  1
  Ni  Ni7  1  0.750121  0.251701  0.499836  1
  Ni  Ni8  1  0.082810  0.582636  0.500005  1
  P  P9  1  0.886136  0.887175  0.681982  1
  P  P10  1  0.223337  0.209886  0.682107  1
  P  P11  1  0.549638  0.561035  0.684172  1
  P  P12  1  0.447132  0.447671  0.315921  1
  P  P13  1  0.771071  0.784533  0.318085  1
  P  P14  1  0.122902  0.109400  0.317489  1
