# generated using pymatgen
data_Nd14Dy5TmPb16
_symmetry_space_group_name_H-M   'P 1'
_cell_length_a   8.36673200
_cell_length_b   8.45968122
_cell_length_c   16.06284500
_cell_angle_alpha   90.01315279
_cell_angle_beta   90.00000000
_cell_angle_gamma   90.00000000
_symmetry_Int_Tables_number   1
_chemical_formula_structural   Nd14Dy5TmPb16
_chemical_formula_sum   'Nd14 Dy5 Tm1 Pb16'
_cell_volume   1136.92630151
_cell_formula_units_Z   1
loop_
 _symmetry_equiv_pos_site_id
 _symmetry_equiv_pos_as_xyz
  1  'x, y, z'
loop_
 _atom_site_type_symbol
 _atom_site_label
 _atom_site_symmetry_multiplicity
 _atom_site_fract_x
 _atom_site_fract_y
 _atom_site_fract_z
 _atom_site_occupancy
  Nd  Nd0  1  0.373098  0.840814  0.118180  1
  Nd  Nd1  1  0.872801  0.659403  0.381816  1
  Nd  Nd2  1  0.375143  0.839820  0.380006  1
  Nd  Nd3  1  0.874865  0.660387  0.119985  1
  Nd  Nd4  1  0.624360  0.159058  0.880254  1
  Nd  Nd5  1  0.124381  0.340963  0.619794  1
  Nd  Nd6  1  0.469236  0.677388  0.600156  1
  Nd  Nd7  1  0.969224  0.822635  0.899857  1
  Nd  Nd8  1  0.530695  0.321812  0.099381  1
  Nd  Nd9  1  0.030558  0.178060  0.400585  1
  Nd  Nd10  1  0.528823  0.321132  0.402021  1
  Nd  Nd11  1  0.028672  0.178726  0.098012  1
  Nd  Nd12  1  0.470922  0.676257  0.898924  1
  Nd  Nd13  1  0.970955  0.823752  0.601063  1
  Dy  Dy14  1  0.627912  0.157668  0.623043  1
  Dy  Dy15  1  0.127943  0.342359  0.876923  1
  Dy  Dy16  1  0.794511  0.495258  0.750164  1
  Dy  Dy17  1  0.294556  0.004699  0.749839  1
  Dy  Dy18  1  0.205096  0.503725  0.249263  1
  Tm  Tm19  1  0.705312  0.996122  0.250705  1
  Pb  Pb20  1  0.715574  0.970253  0.458510  1
  Pb  Pb21  1  0.215574  0.529759  0.041339  1
  Pb  Pb22  1  0.279317  0.037676  0.954073  1
  Pb  Pb23  1  0.779327  0.462351  0.545927  1
  Pb  Pb24  1  0.290613  0.034688  0.545892  1
  Pb  Pb25  1  0.790596  0.465350  0.954114  1
  Pb  Pb26  1  0.715470  0.967778  0.045326  1
  Pb  Pb27  1  0.215470  0.532217  0.454835  1
  Pb  Pb28  1  0.431702  0.373176  0.749414  1
  Pb  Pb29  1  0.931719  0.126801  0.750581  1
  Pb  Pb30  1  0.569044  0.623977  0.249528  1
  Pb  Pb31  1  0.068523  0.876337  0.250457  1
  Pb  Pb32  1  0.659757  0.848971  0.748908  1
  Pb  Pb33  1  0.159727  0.651142  0.751084  1
  Pb  Pb34  1  0.339296  0.152078  0.249861  1
  Pb  Pb35  1  0.839231  0.347408  0.250181  1
