# generated using pymatgen
data_Ce3Al11SiOs3Ru
_symmetry_space_group_name_H-M   'P 1'
_cell_length_a   8.85712000
_cell_length_b   8.85712007
_cell_length_c   9.54881900
_cell_angle_alpha   90.00000000
_cell_angle_beta   90.00000000
_cell_angle_gamma   119.99999976
_symmetry_Int_Tables_number   1
_chemical_formula_structural   Ce3Al11SiOs3Ru
_chemical_formula_sum   'Ce6 Al22 Si2 Os6 Ru2'
_cell_volume   648.73205048
_cell_formula_units_Z   2
loop_
 _symmetry_equiv_pos_site_id
 _symmetry_equiv_pos_as_xyz
  1  'x, y, z'
loop_
 _atom_site_type_symbol
 _atom_site_label
 _atom_site_symmetry_multiplicity
 _atom_site_fract_x
 _atom_site_fract_y
 _atom_site_fract_z
 _atom_site_occupancy
  Ce  Ce0  1  0.804975  0.609951  0.750506  1
  Ce  Ce1  1  0.195025  0.804975  0.250506  1
  Ce  Ce2  1  0.609951  0.804975  0.250506  1
  Ce  Ce3  1  0.390049  0.195025  0.750506  1
  Ce  Ce4  1  0.804975  0.195025  0.750506  1
  Ce  Ce5  1  0.195025  0.390049  0.250506  1
  Al  Al6  1  0.666667  0.333333  0.514128  1
  Al  Al7  1  0.333333  0.666667  0.014128  1
  Al  Al8  1  0.162779  0.325557  0.578676  1
  Al  Al9  1  0.674443  0.837221  0.578676  1
  Al  Al10  1  0.162779  0.837221  0.578676  1
  Al  Al11  1  0.837221  0.162779  0.078676  1
  Al  Al12  1  0.837854  0.162146  0.423913  1
  Al  Al13  1  0.837221  0.674443  0.078676  1
  Al  Al14  1  0.325557  0.162779  0.078676  1
  Al  Al15  1  0.675710  0.837854  0.923913  1
  Al  Al16  1  0.162146  0.324290  0.923913  1
  Al  Al17  1  0.837854  0.675710  0.423913  1
  Al  Al18  1  0.000000  0.000000  0.250632  1
  Al  Al19  1  0.000000  0.000000  0.750632  1
  Al  Al20  1  0.563056  0.126112  0.252250  1
  Al  Al21  1  0.436944  0.563056  0.752250  1
  Al  Al22  1  0.126112  0.563056  0.752250  1
  Al  Al23  1  0.873888  0.436944  0.252250  1
  Al  Al24  1  0.563056  0.436944  0.252250  1
  Al  Al25  1  0.436944  0.873888  0.752250  1
  Al  Al26  1  0.162146  0.837854  0.923913  1
  Al  Al27  1  0.324290  0.162146  0.423913  1
  Si  Si28  1  0.333333  0.666667  0.468923  1
  Si  Si29  1  0.666667  0.333333  0.968923  1
  Os  Os30  1  0.496157  0.992315  0.499834  1
  Os  Os31  1  0.503843  0.496157  0.999834  1
  Os  Os32  1  0.992315  0.496157  0.999834  1
  Os  Os33  1  0.007685  0.503843  0.499834  1
  Os  Os34  1  0.496157  0.503843  0.499834  1
  Os  Os35  1  0.503843  0.007685  0.999834  1
  Ru  Ru36  1  0.000000  0.000000  0.500780  1
  Ru  Ru37  1  0.000000  0.000000  0.000780  1
