# generated using pymatgen
data_Hf12Zr8Si15Au
_symmetry_space_group_name_H-M   'P 1'
_cell_length_a   7.14161686
_cell_length_b   7.12539350
_cell_length_c   13.00269385
_cell_angle_alpha   90.11312230
_cell_angle_beta   89.94457952
_cell_angle_gamma   89.91374852
_symmetry_Int_Tables_number   1
_chemical_formula_structural   Hf12Zr8Si15Au
_chemical_formula_sum   'Hf12 Zr8 Si15 Au1'
_cell_volume   661.66352530
_cell_formula_units_Z   1
loop_
 _symmetry_equiv_pos_site_id
 _symmetry_equiv_pos_as_xyz
  1  'x, y, z'
loop_
 _atom_site_type_symbol
 _atom_site_label
 _atom_site_symmetry_multiplicity
 _atom_site_fract_x
 _atom_site_fract_y
 _atom_site_fract_z
 _atom_site_occupancy
  Hf  Hf0  1  0.676005  0.325470  0.749184  1
  Hf  Hf1  1  0.324331  0.675018  0.250547  1
  Hf  Hf2  1  0.824084  0.824752  0.500465  1
  Hf  Hf3  1  0.180495  0.175361  0.998555  1
  Hf  Hf4  1  0.496679  0.355171  0.127741  1
  Hf  Hf5  1  0.500096  0.647471  0.626499  1
  Hf  Hf6  1  0.854225  0.001405  0.872033  1
  Hf  Hf7  1  0.146903  0.998835  0.376853  1
  Hf  Hf8  1  0.647094  0.500776  0.374041  1
  Hf  Hf9  1  0.352884  0.499435  0.871612  1
  Hf  Hf10  1  0.006163  0.849516  0.126667  1
  Hf  Hf11  1  0.999476  0.147866  0.623594  1
  Zr  Zr12  1  0.498317  0.151714  0.534303  1
  Zr  Zr13  1  0.493401  0.838996  0.033130  1
  Zr  Zr14  1  0.647819  0.997971  0.288986  1
  Zr  Zr15  1  0.347709  0.997082  0.783130  1
  Zr  Zr16  1  0.853183  0.511815  0.962022  1
  Zr  Zr17  1  0.150453  0.497432  0.466054  1
  Zr  Zr18  1  0.003127  0.651898  0.715581  1
  Zr  Zr19  1  0.003719  0.351926  0.220139  1
  Si  Si20  1  0.204749  0.854854  0.572073  1
  Si  Si21  1  0.643121  0.706902  0.821805  1
  Si  Si22  1  0.356822  0.294284  0.323937  1
  Si  Si23  1  0.855034  0.204592  0.428510  1
  Si  Si24  1  0.143934  0.796267  0.927063  1
  Si  Si25  1  0.704829  0.645905  0.178289  1
  Si  Si26  1  0.295849  0.354654  0.677296  1
  Si  Si27  1  0.547408  0.199350  0.933456  1
  Si  Si28  1  0.449137  0.798248  0.437495  1
  Si  Si29  1  0.699726  0.951346  0.684798  1
  Si  Si30  1  0.300811  0.050214  0.186405  1
  Si  Si31  1  0.799371  0.450289  0.563570  1
  Si  Si32  1  0.199917  0.548213  0.062709  1
  Si  Si33  1  0.949328  0.702549  0.315131  1
  Si  Si34  1  0.049484  0.299904  0.813594  1
  Au  Au35  1  0.794318  0.142522  0.072733  1
