# generated using pymatgen
data_DyTh3(Si5Os3)2
_symmetry_space_group_name_H-M   'P 1'
_cell_length_a   8.20242499
_cell_length_b   8.20151668
_cell_length_c   5.88360132
_cell_angle_alpha   70.51350098
_cell_angle_beta   70.67138802
_cell_angle_gamma   93.60253795
_symmetry_Int_Tables_number   1
_chemical_formula_structural   DyTh3(Si5Os3)2
_chemical_formula_sum   'Dy1 Th3 Si10 Os6'
_cell_volume   345.35897769
_cell_formula_units_Z   1
loop_
 _symmetry_equiv_pos_site_id
 _symmetry_equiv_pos_as_xyz
  1  'x, y, z'
loop_
 _atom_site_type_symbol
 _atom_site_label
 _atom_site_symmetry_multiplicity
 _atom_site_fract_x
 _atom_site_fract_y
 _atom_site_fract_z
 _atom_site_occupancy
  Dy  Dy0  1  0.866447  0.600241  0.759387  1
  Th  Th1  1  0.399270  0.132851  0.741457  1
  Th  Th2  1  0.132690  0.401014  0.241585  1
  Th  Th3  1  0.600514  0.866214  0.258714  1
  Si  Si4  1  0.057868  0.260579  0.837718  1
  Si  Si5  1  0.742083  0.936030  0.663903  1
  Si  Si6  1  0.940009  0.738287  0.162687  1
  Si  Si7  1  0.260920  0.059332  0.337702  1
  Si  Si8  1  0.204675  0.789220  0.748299  1
  Si  Si9  1  0.790750  0.207378  0.254261  1
  Si  Si10  1  0.517312  0.489846  0.746403  1
  Si  Si11  1  0.489011  0.512585  0.248778  1
  Si  Si12  1  0.773685  0.230680  0.747923  1
  Si  Si13  1  0.223005  0.773787  0.255087  1
  Os  Os14  1  0.254374  0.539339  0.634524  1
  Os  Os15  1  0.457161  0.746395  0.866847  1
  Os  Os16  1  0.745753  0.459263  0.364677  1
  Os  Os17  1  0.542984  0.255352  0.133043  1
  Os  Os18  1  0.004719  0.997448  0.748178  1
  Os  Os19  1  0.996772  0.004157  0.248829  1
