# generated using pymatgen
data_Li2Al4IrPt
_symmetry_space_group_name_H-M   'P 1'
_cell_length_a   6.07696400
_cell_length_b   4.29279100
_cell_length_c   8.58388100
_cell_angle_alpha   90.00000000
_cell_angle_beta   90.00002553
_cell_angle_gamma   90.00000000
_symmetry_Int_Tables_number   1
_chemical_formula_structural   Li2Al4IrPt
_chemical_formula_sum   'Li4 Al8 Ir2 Pt2'
_cell_volume   223.92887420
_cell_formula_units_Z   2
loop_
 _symmetry_equiv_pos_site_id
 _symmetry_equiv_pos_as_xyz
  1  'x, y, z'
loop_
 _atom_site_type_symbol
 _atom_site_label
 _atom_site_symmetry_multiplicity
 _atom_site_fract_x
 _atom_site_fract_y
 _atom_site_fract_z
 _atom_site_occupancy
  Li  Li0  1  0.249929  0.250000  0.126066  1
  Li  Li1  1  0.749929  0.750001  0.373926  1
  Li  Li2  1  0.250083  0.250000  0.623677  1
  Li  Li3  1  0.750083  0.750001  0.876330  1
  Al  Al4  1  0.501465  0.750001  0.128970  1
  Al  Al5  1  0.998513  0.750001  0.129023  1
  Al  Al6  1  0.498519  0.250000  0.370976  1
  Al  Al7  1  0.001462  0.250000  0.371027  1
  Al  Al8  1  0.002850  0.750001  0.621128  1
  Al  Al9  1  0.497167  0.750001  0.621179  1
  Al  Al10  1  0.997164  0.250000  0.878823  1
  Al  Al11  1  0.502855  0.250000  0.878874  1
  Ir  Ir12  1  0.750022  0.250000  0.123075  1
  Ir  Ir13  1  0.250022  0.750001  0.376926  1
  Pt  Pt14  1  0.749969  0.250000  0.627243  1
  Pt  Pt15  1  0.249970  0.750001  0.872759  1
