# generated using pymatgen
data_Y8Sc2Ir5Au
_symmetry_space_group_name_H-M   'P 1'
_cell_length_a   10.95088705
_cell_length_b   10.89885100
_cell_length_c   6.27874004
_cell_angle_alpha   90.00000000
_cell_angle_beta   89.98835159
_cell_angle_gamma   90.00000000
_symmetry_Int_Tables_number   1
_chemical_formula_structural   Y8Sc2Ir5Au
_chemical_formula_sum   'Y16 Sc4 Ir10 Au2'
_cell_volume   749.38070711
_cell_formula_units_Z   2
loop_
 _symmetry_equiv_pos_site_id
 _symmetry_equiv_pos_as_xyz
  1  'x, y, z'
loop_
 _atom_site_type_symbol
 _atom_site_label
 _atom_site_symmetry_multiplicity
 _atom_site_fract_x
 _atom_site_fract_y
 _atom_site_fract_z
 _atom_site_occupancy
  Y  Y0  1  0.289131  0.086628  0.374625  1
  Y  Y1  1  0.289131  0.913372  0.874625  1
  Y  Y2  1  0.701743  0.091041  0.867033  1
  Y  Y3  1  0.701743  0.908959  0.367033  1
  Y  Y4  1  0.577609  0.784158  0.877510  1
  Y  Y5  1  0.577609  0.215842  0.377510  1
  Y  Y6  1  0.410665  0.785940  0.378156  1
  Y  Y7  1  0.410665  0.214060  0.878156  1
  Y  Y8  1  0.214455  0.414519  0.619685  1
  Y  Y9  1  0.214455  0.585481  0.119685  1
  Y  Y10  1  0.784445  0.420480  0.121425  1
  Y  Y11  1  0.784445  0.579520  0.621425  1
  Y  Y12  1  0.919026  0.709413  0.136319  1
  Y  Y13  1  0.919026  0.290587  0.636319  1
  Y  Y14  1  0.094349  0.706841  0.623231  1
  Y  Y15  1  0.094349  0.293159  0.123231  1
  Sc  Sc16  1  0.011227  0.997742  0.500826  1
  Sc  Sc17  1  0.011227  0.002258  0.000826  1
  Sc  Sc18  1  0.498915  0.499101  0.000076  1
  Sc  Sc19  1  0.498915  0.500899  0.500076  1
  Ir  Ir20  1  0.146569  0.145833  0.751186  1
  Ir  Ir21  1  0.146569  0.854167  0.251186  1
  Ir  Ir22  1  0.646439  0.352687  0.749936  1
  Ir  Ir23  1  0.646439  0.647313  0.249936  1
  Ir  Ir24  1  0.353069  0.354382  0.249976  1
  Ir  Ir25  1  0.353069  0.645618  0.749976  1
  Ir  Ir26  1  0.499959  0.999962  0.123691  1
  Ir  Ir27  1  0.499959  0.000038  0.623691  1
  Ir  Ir28  1  0.000190  0.501120  0.876480  1
  Ir  Ir29  1  0.000190  0.498880  0.376480  1
  Au  Au30  1  0.852209  0.148173  0.249845  1
  Au  Au31  1  0.852209  0.851827  0.749845  1
