# generated using pymatgen
data_Tb8Sc2Ir5Pt
_symmetry_space_group_name_H-M   'P 1'
_cell_length_a   10.84640656
_cell_length_b   10.84649800
_cell_length_c   6.27029733
_cell_angle_alpha   90.00000000
_cell_angle_beta   90.03699095
_cell_angle_gamma   90.00000000
_symmetry_Int_Tables_number   1
_chemical_formula_structural   Tb8Sc2Ir5Pt
_chemical_formula_sum   'Tb16 Sc4 Ir10 Pt2'
_cell_volume   737.67228043
_cell_formula_units_Z   2
loop_
 _symmetry_equiv_pos_site_id
 _symmetry_equiv_pos_as_xyz
  1  'x, y, z'
loop_
 _atom_site_type_symbol
 _atom_site_label
 _atom_site_symmetry_multiplicity
 _atom_site_fract_x
 _atom_site_fract_y
 _atom_site_fract_z
 _atom_site_occupancy
  Tb  Tb0  1  0.287484  0.086576  0.377787  1
  Tb  Tb1  1  0.287484  0.913424  0.877787  1
  Tb  Tb2  1  0.709557  0.088178  0.875762  1
  Tb  Tb3  1  0.709557  0.911822  0.375762  1
  Tb  Tb4  1  0.583709  0.786274  0.879308  1
  Tb  Tb5  1  0.583709  0.213726  0.379308  1
  Tb  Tb6  1  0.413271  0.786774  0.378576  1
  Tb  Tb7  1  0.413271  0.213226  0.878576  1
  Tb  Tb8  1  0.213158  0.413764  0.621211  1
  Tb  Tb9  1  0.213158  0.586236  0.121211  1
  Tb  Tb10  1  0.786283  0.415927  0.120730  1
  Tb  Tb11  1  0.786283  0.584073  0.620730  1
  Tb  Tb12  1  0.914546  0.711135  0.125305  1
  Tb  Tb13  1  0.914546  0.288865  0.625305  1
  Tb  Tb14  1  0.089207  0.711187  0.621303  1
  Tb  Tb15  1  0.089207  0.288813  0.121303  1
  Sc  Sc16  1  0.003888  0.999706  0.500122  1
  Sc  Sc17  1  0.003888  0.000294  0.000122  1
  Sc  Sc18  1  0.499684  0.499900  0.999947  1
  Sc  Sc19  1  0.499684  0.500100  0.499947  1
  Ir  Ir20  1  0.145196  0.146144  0.750005  1
  Ir  Ir21  1  0.145196  0.853856  0.250005  1
  Ir  Ir22  1  0.647652  0.352308  0.750038  1
  Ir  Ir23  1  0.647652  0.647692  0.250038  1
  Ir  Ir24  1  0.352958  0.352975  0.249852  1
  Ir  Ir25  1  0.352958  0.647025  0.749852  1
  Ir  Ir26  1  0.500964  0.999931  0.123213  1
  Ir  Ir27  1  0.500964  0.000069  0.623213  1
  Ir  Ir28  1  0.999660  0.500265  0.876846  1
  Ir  Ir29  1  0.999660  0.499735  0.376846  1
  Pt  Pt30  1  0.852784  0.146468  0.249993  1
  Pt  Pt31  1  0.852784  0.853532  0.749993  1
