# generated using pymatgen
data_PrYZn4Ru
_symmetry_space_group_name_H-M   'P 1'
_cell_length_a   7.03812100
_cell_length_b   7.03812100
_cell_length_c   5.41932800
_cell_angle_alpha   90.00000000
_cell_angle_beta   90.00000000
_cell_angle_gamma   90.00000000
_symmetry_Int_Tables_number   1
_chemical_formula_structural   PrYZn4Ru
_chemical_formula_sum   'Pr2 Y2 Zn8 Ru2'
_cell_volume   268.44721026
_cell_formula_units_Z   2
loop_
 _symmetry_equiv_pos_site_id
 _symmetry_equiv_pos_as_xyz
  1  'x, y, z'
loop_
 _atom_site_type_symbol
 _atom_site_label
 _atom_site_symmetry_multiplicity
 _atom_site_fract_x
 _atom_site_fract_y
 _atom_site_fract_z
 _atom_site_occupancy
  Pr  Pr0  1  0.000000  0.500000  0.775596  1
  Pr  Pr1  1  0.500000  0.000000  0.224404  1
  Y  Y2  1  0.000000  0.000000  0.000000  1
  Y  Y3  1  0.500000  0.500000  0.000000  1
  Zn  Zn4  1  0.186810  0.686810  0.296203  1
  Zn  Zn5  1  0.813190  0.686810  0.296203  1
  Zn  Zn6  1  0.813190  0.313190  0.296203  1
  Zn  Zn7  1  0.313190  0.186810  0.703797  1
  Zn  Zn8  1  0.186810  0.313190  0.296203  1
  Zn  Zn9  1  0.686810  0.186810  0.703797  1
  Zn  Zn10  1  0.686810  0.813190  0.703797  1
  Zn  Zn11  1  0.313190  0.813190  0.703797  1
  Ru  Ru12  1  0.500000  0.500000  0.500000  1
  Ru  Ru13  1  0.000000  0.000000  0.500000  1
