# generated using pymatgen
data_Tm12Cu(Si4Rh)3
_symmetry_space_group_name_H-M   'P 1'
_cell_length_a   4.19990000
_cell_length_b   10.57668914
_cell_length_c   12.19464900
_cell_angle_alpha   90.03646301
_cell_angle_beta   90.00000000
_cell_angle_gamma   90.00000000
_symmetry_Int_Tables_number   1
_chemical_formula_structural   Tm12Cu(Si4Rh)3
_chemical_formula_sum   'Tm12 Cu1 Si12 Rh3'
_cell_volume   541.69884140
_cell_formula_units_Z   1
loop_
 _symmetry_equiv_pos_site_id
 _symmetry_equiv_pos_as_xyz
  1  'x, y, z'
loop_
 _atom_site_type_symbol
 _atom_site_label
 _atom_site_symmetry_multiplicity
 _atom_site_fract_x
 _atom_site_fract_y
 _atom_site_fract_z
 _atom_site_occupancy
  Tm  Tm0  1  0.250000  0.880413  0.021659  1
  Tm  Tm1  1  0.250000  0.620864  0.521315  1
  Tm  Tm2  1  0.750000  0.121167  0.978952  1
  Tm  Tm3  1  0.750000  0.378078  0.477308  1
  Tm  Tm4  1  0.250000  0.920833  0.600989  1
  Tm  Tm5  1  0.250000  0.579916  0.102852  1
  Tm  Tm6  1  0.750000  0.079505  0.396166  1
  Tm  Tm7  1  0.750000  0.421500  0.899401  1
  Tm  Tm8  1  0.250000  0.665496  0.801911  1
  Tm  Tm9  1  0.250000  0.839258  0.301146  1
  Tm  Tm10  1  0.750000  0.340921  0.199084  1
  Tm  Tm11  1  0.750000  0.161524  0.699713  1
  Cu  Cu12  1  0.250000  0.392449  0.683493  1
  Si  Si13  1  0.250000  0.013229  0.821743  1
  Si  Si14  1  0.250000  0.484954  0.324384  1
  Si  Si15  1  0.750000  0.985667  0.177626  1
  Si  Si16  1  0.750000  0.516677  0.676957  1
  Si  Si17  1  0.250000  0.246426  0.845093  1
  Si  Si18  1  0.250000  0.251232  0.340582  1
  Si  Si19  1  0.750000  0.752439  0.158441  1
  Si  Si20  1  0.750000  0.749802  0.658064  1
  Si  Si21  1  0.250000  0.189017  0.538266  1
  Si  Si22  1  0.250000  0.301087  0.043582  1
  Si  Si23  1  0.750000  0.800270  0.457464  1
  Si  Si24  1  0.750000  0.699357  0.958648  1
  Rh  Rh25  1  0.250000  0.108749  0.179389  1
  Rh  Rh26  1  0.750000  0.608627  0.317609  1
  Rh  Rh27  1  0.750000  0.890539  0.818158  1
