# generated using pymatgen
data_Er16Al4Pd3Pt
_symmetry_space_group_name_H-M   'P 1'
_cell_length_a   9.52565565
_cell_length_b   9.51100182
_cell_length_c   9.51100200
_cell_angle_alpha   59.99999937
_cell_angle_beta   60.05087468
_cell_angle_gamma   60.05087794
_symmetry_Int_Tables_number   1
_chemical_formula_structural   Er16Al4Pd3Pt
_chemical_formula_sum   'Er16 Al4 Pd3 Pt1'
_cell_volume   609.76986592
_cell_formula_units_Z   1
loop_
 _symmetry_equiv_pos_site_id
 _symmetry_equiv_pos_as_xyz
  1  'x, y, z'
loop_
 _atom_site_type_symbol
 _atom_site_label
 _atom_site_symmetry_multiplicity
 _atom_site_fract_x
 _atom_site_fract_y
 _atom_site_fract_z
 _atom_site_occupancy
  Er  Er0  1  0.356568  0.354247  0.354247  1
  Er  Er1  1  0.356568  0.354247  0.934938  1
  Er  Er2  1  0.356568  0.934938  0.354247  1
  Er  Er3  1  0.933043  0.355652  0.355652  1
  Er  Er4  1  0.806284  0.192689  0.192689  1
  Er  Er5  1  0.193060  0.807010  0.807010  1
  Er  Er6  1  0.193060  0.807010  0.192919  1
  Er  Er7  1  0.806284  0.192689  0.808338  1
  Er  Er8  1  0.193060  0.192919  0.807010  1
  Er  Er9  1  0.806284  0.808338  0.192689  1
  Er  Er10  1  0.934809  0.565536  0.565536  1
  Er  Er11  1  0.565755  0.934851  0.934851  1
  Er  Er12  1  0.565755  0.934851  0.564543  1
  Er  Er13  1  0.934809  0.565536  0.934117  1
  Er  Er14  1  0.565755  0.564543  0.934851  1
  Er  Er15  1  0.934809  0.934117  0.565536  1
  Al  Al16  1  0.576955  0.577708  0.577708  1
  Al  Al17  1  0.576955  0.577708  0.267630  1
  Al  Al18  1  0.576955  0.267630  0.577708  1
  Al  Al19  1  0.267593  0.577469  0.577469  1
  Pd  Pd20  1  0.143810  0.144779  0.144779  1
  Pd  Pd21  1  0.143810  0.144779  0.566630  1
  Pd  Pd22  1  0.143810  0.566630  0.144779  1
  Pt  Pt23  1  0.567644  0.144119  0.144119  1
