# generated using pymatgen
data_Tb5ErAl24(Os3Ru)2
_symmetry_space_group_name_H-M   'P 1'
_cell_length_a   8.82126700
_cell_length_b   8.83034571
_cell_length_c   9.57864200
_cell_angle_alpha   90.00000000
_cell_angle_beta   90.00000000
_cell_angle_gamma   119.96599194
_symmetry_Int_Tables_number   1
_chemical_formula_structural   Tb5ErAl24(Os3Ru)2
_chemical_formula_sum   'Tb5 Er1 Al24 Os6 Ru2'
_cell_volume   646.38604696
_cell_formula_units_Z   1
loop_
 _symmetry_equiv_pos_site_id
 _symmetry_equiv_pos_as_xyz
  1  'x, y, z'
loop_
 _atom_site_type_symbol
 _atom_site_label
 _atom_site_symmetry_multiplicity
 _atom_site_fract_x
 _atom_site_fract_y
 _atom_site_fract_z
 _atom_site_occupancy
  Tb  Tb0  1  0.806401  0.612804  0.750000  1
  Tb  Tb1  1  0.613452  0.806892  0.250000  1
  Tb  Tb2  1  0.386518  0.193002  0.750000  1
  Tb  Tb3  1  0.193441  0.806892  0.250000  1
  Tb  Tb4  1  0.806483  0.193002  0.750000  1
  Er  Er5  1  0.194599  0.389196  0.250000  1
  Al  Al6  1  0.333281  0.666562  0.016238  1
  Al  Al7  1  0.666537  0.333074  0.984440  1
  Al  Al8  1  0.666537  0.333074  0.515560  1
  Al  Al9  1  0.333281  0.666562  0.483762  1
  Al  Al10  1  0.163208  0.326414  0.575207  1
  Al  Al11  1  0.836672  0.673346  0.423819  1
  Al  Al12  1  0.673348  0.836515  0.575161  1
  Al  Al13  1  0.836672  0.673346  0.076181  1
  Al  Al14  1  0.326161  0.163547  0.424364  1
  Al  Al15  1  0.163208  0.326414  0.924793  1
  Al  Al16  1  0.163168  0.836515  0.575161  1
  Al  Al17  1  0.326161  0.163547  0.075636  1
  Al  Al18  1  0.837384  0.163547  0.424364  1
  Al  Al19  1  0.673348  0.836515  0.924839  1
  Al  Al20  1  0.837384  0.163547  0.075636  1
  Al  Al21  1  0.163168  0.836515  0.924839  1
  Al  Al22  1  0.561681  0.123361  0.250000  1
  Al  Al23  1  0.438344  0.876689  0.750000  1
  Al  Al24  1  0.877525  0.438430  0.250000  1
  Al  Al25  1  0.123076  0.561310  0.750000  1
  Al  Al26  1  0.560905  0.438430  0.250000  1
  Al  Al27  1  0.438233  0.561310  0.750000  1
  Al  Al28  1  0.001081  0.002161  0.250000  1
  Al  Al29  1  0.999729  0.999458  0.750000  1
  Os  Os30  1  0.499928  0.999856  0.000142  1
  Os  Os31  1  0.000281  0.499721  0.000462  1
  Os  Os32  1  0.499928  0.999856  0.499858  1
  Os  Os33  1  0.499440  0.499721  0.000462  1
  Os  Os34  1  0.000281  0.499721  0.499538  1
  Os  Os35  1  0.499440  0.499721  0.499538  1
  Ru  Ru36  1  0.999858  0.999716  0.999990  1
  Ru  Ru37  1  0.999858  0.999716  0.500010  1
