# generated using pymatgen
data_Rb4Er4Bi3(SbSe4)5
_symmetry_space_group_name_H-M   'P 1'
_cell_length_a   4.11503900
_cell_length_b   12.34842114
_cell_length_c   22.18622887
_cell_angle_alpha   90.21226127
_cell_angle_beta   90.00000000
_cell_angle_gamma   90.00000000
_symmetry_Int_Tables_number   1
_chemical_formula_structural   Rb4Er4Bi3(SbSe4)5
_chemical_formula_sum   'Rb4 Er4 Bi3 Sb5 Se20'
_cell_volume   1127.36850195
_cell_formula_units_Z   1
loop_
 _symmetry_equiv_pos_site_id
 _symmetry_equiv_pos_as_xyz
  1  'x, y, z'
loop_
 _atom_site_type_symbol
 _atom_site_label
 _atom_site_symmetry_multiplicity
 _atom_site_fract_x
 _atom_site_fract_y
 _atom_site_fract_z
 _atom_site_occupancy
  Rb  Rb0  1  0.250000  0.491256  0.211524  1
  Rb  Rb1  1  0.750000  0.511362  0.789230  1
  Rb  Rb2  1  0.750000  0.990477  0.289334  1
  Rb  Rb3  1  0.250000  0.010064  0.709944  1
  Er  Er4  1  0.250000  0.366046  0.024090  1
  Er  Er5  1  0.750000  0.633982  0.976253  1
  Er  Er6  1  0.750000  0.864394  0.476557  1
  Er  Er7  1  0.250000  0.134117  0.522936  1
  Bi  Bi8  1  0.750000  0.404333  0.573553  1
  Bi  Bi9  1  0.750000  0.095859  0.074151  1
  Bi  Bi10  1  0.250000  0.904464  0.925956  1
  Sb  Sb11  1  0.250000  0.806556  0.126494  1
  Sb  Sb12  1  0.750000  0.193643  0.873464  1
  Sb  Sb13  1  0.750000  0.309233  0.374374  1
  Sb  Sb14  1  0.250000  0.693239  0.624979  1
  Sb  Sb15  1  0.250000  0.595786  0.427178  1
  Se  Se16  1  0.250000  0.802586  0.391023  1
  Se  Se17  1  0.750000  0.188228  0.608946  1
  Se  Se18  1  0.750000  0.312061  0.109950  1
  Se  Se19  1  0.250000  0.688101  0.890371  1
  Se  Se20  1  0.250000  0.255172  0.298451  1
  Se  Se21  1  0.750000  0.748454  0.700577  1
  Se  Se22  1  0.750000  0.752617  0.202158  1
  Se  Se23  1  0.250000  0.247593  0.797941  1
  Se  Se24  1  0.250000  0.354203  0.479633  1
  Se  Se25  1  0.750000  0.643922  0.518679  1
  Se  Se26  1  0.750000  0.854883  0.020428  1
  Se  Se27  1  0.250000  0.145140  0.979812  1
  Se  Se28  1  0.250000  0.021571  0.159434  1
  Se  Se29  1  0.750000  0.978428  0.840758  1
  Se  Se30  1  0.750000  0.525341  0.343938  1
  Se  Se31  1  0.250000  0.479303  0.658924  1
  Se  Se32  1  0.250000  0.583728  0.060474  1
  Se  Se33  1  0.750000  0.416363  0.939875  1
  Se  Se34  1  0.750000  0.081078  0.438760  1
  Se  Se35  1  0.250000  0.916419  0.559851  1
