# generated using pymatgen
data_Tl2Pd2O7
_symmetry_space_group_name_H-M   'P 1'
_cell_length_a   7.27744900
_cell_length_b   7.27744840
_cell_length_c   7.27744800
_cell_angle_alpha   60.00000182
_cell_angle_beta   60.00000456
_cell_angle_gamma   90.00000071
_symmetry_Int_Tables_number   1
_chemical_formula_structural   Tl2Pd2O7
_chemical_formula_sum   'Tl4 Pd4 O14'
_cell_volume   272.53510911
_cell_formula_units_Z   2
loop_
 _symmetry_equiv_pos_site_id
 _symmetry_equiv_pos_as_xyz
  1  'x, y, z'
loop_
 _atom_site_type_symbol
 _atom_site_label
 _atom_site_symmetry_multiplicity
 _atom_site_fract_x
 _atom_site_fract_y
 _atom_site_fract_z
 _atom_site_occupancy
  Tl  Tl0  1  0.500000  0.000000  0.000000  1
  Tl  Tl1  1  0.500000  0.500000  0.000000  1
  Tl  Tl2  1  0.000000  0.000000  0.500000  1
  Tl  Tl3  1  0.500000  0.000000  0.500000  1
  Pd  Pd4  1  0.000000  0.000000  0.000000  1
  Pd  Pd5  1  0.000000  0.500000  0.000000  1
  Pd  Pd6  1  0.000000  0.500000  0.500000  1
  Pd  Pd7  1  0.500000  0.500000  0.500000  1
  O  O8  1  0.915172  0.165171  0.169656  1
  O  O9  1  0.375002  0.125000  0.250000  1
  O  O10  1  0.084827  0.415172  0.250000  1
  O  O11  1  0.665173  0.415172  0.250000  1
  O  O12  1  0.084828  0.834827  0.250002  1
  O  O13  1  0.665172  0.834827  0.250002  1
  O  O14  1  0.334828  0.584827  0.330344  1
  O  O15  1  0.665173  0.415173  0.669656  1
  O  O16  1  0.334826  0.165172  0.750000  1
  O  O17  1  0.915173  0.165172  0.750000  1
  O  O18  1  0.624999  0.874999  0.750000  1
  O  O19  1  0.334826  0.584825  0.750000  1
  O  O20  1  0.915172  0.584825  0.750000  1
  O  O21  1  0.084828  0.834827  0.830344  1
