# generated using pymatgen
data_Pr4Mn6O19
_symmetry_space_group_name_H-M   'P 1'
_cell_length_a   7.63040949
_cell_length_b   7.63040990
_cell_length_c   7.63041000
_cell_angle_alpha   109.47122090
_cell_angle_beta   109.47122198
_cell_angle_gamma   109.47121444
_symmetry_Int_Tables_number   1
_chemical_formula_structural   Pr4Mn6O19
_chemical_formula_sum   'Pr4 Mn6 O19'
_cell_volume   341.99654768
_cell_formula_units_Z   1
loop_
 _symmetry_equiv_pos_site_id
 _symmetry_equiv_pos_as_xyz
  1  'x, y, z'
loop_
 _atom_site_type_symbol
 _atom_site_label
 _atom_site_symmetry_multiplicity
 _atom_site_fract_x
 _atom_site_fract_y
 _atom_site_fract_z
 _atom_site_occupancy
  Pr  Pr0  1  0.672563  0.000000  0.000000  1
  Pr  Pr1  1  0.000000  0.672564  0.000000  1
  Pr  Pr2  1  0.327436  0.327436  0.327436  1
  Pr  Pr3  1  0.000000  0.000000  0.672565  1
  Mn  Mn4  1  0.500000  0.660060  0.160059  1
  Mn  Mn5  1  0.839940  0.500000  0.339940  1
  Mn  Mn6  1  0.660061  0.160061  0.500000  1
  Mn  Mn7  1  0.339939  0.839940  0.500000  1
  Mn  Mn8  1  0.160061  0.500001  0.660061  1
  Mn  Mn9  1  0.499999  0.339939  0.839938  1
  O  O10  1  0.000000  0.000000  0.000000  1
  O  O11  1  0.351926  0.351926  0.000000  1
  O  O12  1  0.648074  0.648074  0.000000  1
  O  O13  1  0.755129  0.369197  0.041151  1
  O  O14  1  0.286021  0.614067  0.244870  1
  O  O15  1  0.614067  0.244869  0.286021  1
  O  O16  1  0.713978  0.958849  0.328046  1
  O  O17  1  0.000000  0.351925  0.351925  1
  O  O18  1  0.351926  0.000000  0.351926  1
  O  O19  1  0.041150  0.755130  0.369196  1
  O  O20  1  0.671954  0.630803  0.385933  1
  O  O21  1  0.244869  0.286020  0.614066  1
  O  O22  1  0.385931  0.671954  0.630802  1
  O  O23  1  0.000000  0.648074  0.648074  1
  O  O24  1  0.648074  0.000000  0.648074  1
  O  O25  1  0.630802  0.385932  0.671953  1
  O  O26  1  0.958849  0.328045  0.713979  1
  O  O27  1  0.369197  0.041152  0.755129  1
  O  O28  1  0.328044  0.713977  0.958846  1
