# generated using pymatgen
data_Zr6Zn21AsOs2
_symmetry_space_group_name_H-M   'P 1'
_cell_length_a   8.81591272
_cell_length_b   8.81591290
_cell_length_c   8.81591248
_cell_angle_alpha   59.60753351
_cell_angle_beta   59.60753417
_cell_angle_gamma   59.60753253
_symmetry_Int_Tables_number   1
_chemical_formula_structural   Zr6Zn21AsOs2
_chemical_formula_sum   'Zr6 Zn21 As1 Os2'
_cell_volume   480.17064021
_cell_formula_units_Z   1
loop_
 _symmetry_equiv_pos_site_id
 _symmetry_equiv_pos_as_xyz
  1  'x, y, z'
loop_
 _atom_site_type_symbol
 _atom_site_label
 _atom_site_symmetry_multiplicity
 _atom_site_fract_x
 _atom_site_fract_y
 _atom_site_fract_z
 _atom_site_occupancy
  Zr  Zr0  1  0.726492  0.284448  0.284448  1
  Zr  Zr1  1  0.273508  0.715552  0.715552  1
  Zr  Zr2  1  0.284448  0.726492  0.284448  1
  Zr  Zr3  1  0.715552  0.273508  0.715552  1
  Zr  Zr4  1  0.284448  0.284448  0.726492  1
  Zr  Zr5  1  0.715552  0.715552  0.273508  1
  Zn  Zn6  1  0.119042  0.119042  0.637308  1
  Zn  Zn7  1  0.119042  0.637308  0.119042  1
  Zn  Zn8  1  0.880958  0.880958  0.362692  1
  Zn  Zn9  1  0.880958  0.362692  0.880958  1
  Zn  Zn10  1  0.637308  0.119042  0.119042  1
  Zn  Zn11  1  0.362692  0.880958  0.880958  1
  Zn  Zn12  1  0.500000  0.000000  0.000000  1
  Zn  Zn13  1  0.000000  0.500000  0.500000  1
  Zn  Zn14  1  0.000000  0.500000  0.000000  1
  Zn  Zn15  1  0.500000  0.000000  0.500000  1
  Zn  Zn16  1  0.000000  0.000000  0.500000  1
  Zn  Zn17  1  0.500000  0.500000  0.000000  1
  Zn  Zn18  1  0.336531  0.336531  0.336531  1
  Zn  Zn19  1  0.663469  0.663469  0.663469  1
  Zn  Zn20  1  0.328980  0.328980  0.005732  1
  Zn  Zn21  1  0.328980  0.005732  0.328980  1
  Zn  Zn22  1  0.671020  0.671020  0.994268  1
  Zn  Zn23  1  0.671020  0.994268  0.671020  1
  Zn  Zn24  1  0.005732  0.328980  0.328980  1
  Zn  Zn25  1  0.994268  0.671020  0.671020  1
  Zn  Zn26  1  0.000000  0.000000  0.000000  1
  As  As27  1  0.500000  0.500000  0.500000  1
  Os  Os28  1  0.118654  0.118654  0.118654  1
  Os  Os29  1  0.881346  0.881346  0.881346  1
