# generated using pymatgen
data_Tb7Dy9(ErPt4)4
_symmetry_space_group_name_H-M   'P 1'
_cell_length_a   7.46822301
_cell_length_b   7.57607601
_cell_length_c   14.75314902
_cell_angle_alpha   90.00378579
_cell_angle_beta   89.99461198
_cell_angle_gamma   89.99565843
_symmetry_Int_Tables_number   1
_chemical_formula_structural   Tb7Dy9(ErPt4)4
_chemical_formula_sum   'Tb7 Dy9 Er4 Pt16'
_cell_volume   834.73058515
_cell_formula_units_Z   1
loop_
 _symmetry_equiv_pos_site_id
 _symmetry_equiv_pos_as_xyz
  1  'x, y, z'
loop_
 _atom_site_type_symbol
 _atom_site_label
 _atom_site_symmetry_multiplicity
 _atom_site_fract_x
 _atom_site_fract_y
 _atom_site_fract_z
 _atom_site_occupancy
  Tb  Tb0  1  0.001552  0.820232  0.906888  1
  Tb  Tb1  1  0.498408  0.320223  0.093112  1
  Tb  Tb2  1  0.998419  0.179770  0.406893  1
  Tb  Tb3  1  0.498430  0.320261  0.406915  1
  Tb  Tb4  1  0.998409  0.179779  0.093128  1
  Tb  Tb5  1  0.501593  0.679784  0.906881  1
  Tb  Tb6  1  0.001624  0.820153  0.593078  1
  Dy  Dy7  1  0.656993  0.167946  0.622699  1
  Dy  Dy8  1  0.157069  0.332043  0.877294  1
  Dy  Dy9  1  0.342904  0.832076  0.122723  1
  Dy  Dy10  1  0.842870  0.667932  0.377313  1
  Dy  Dy11  1  0.343050  0.832028  0.377345  1
  Dy  Dy12  1  0.842943  0.667956  0.122710  1
  Dy  Dy13  1  0.657057  0.167940  0.877293  1
  Dy  Dy14  1  0.157166  0.332156  0.622681  1
  Dy  Dy15  1  0.501755  0.679874  0.593149  1
  Er  Er16  1  0.818850  0.512556  0.749948  1
  Er  Er17  1  0.318986  0.987456  0.749981  1
  Er  Er18  1  0.181049  0.487515  0.249987  1
  Er  Er19  1  0.681058  0.012527  0.249975  1
  Pt  Pt20  1  0.683240  0.967600  0.457947  1
  Pt  Pt21  1  0.183285  0.532293  0.042097  1
  Pt  Pt22  1  0.316754  0.032259  0.957913  1
  Pt  Pt23  1  0.816430  0.467918  0.542152  1
  Pt  Pt24  1  0.316792  0.032053  0.542144  1
  Pt  Pt25  1  0.816701  0.467700  0.957900  1
  Pt  Pt26  1  0.683268  0.967727  0.042076  1
  Pt  Pt27  1  0.183385  0.532320  0.457969  1
  Pt  Pt28  1  0.454266  0.387891  0.749954  1
  Pt  Pt29  1  0.954225  0.112176  0.750029  1
  Pt  Pt30  1  0.545761  0.612195  0.249985  1
  Pt  Pt31  1  0.045764  0.887806  0.249974  1
  Pt  Pt32  1  0.682453  0.856050  0.749899  1
  Pt  Pt33  1  0.182686  0.643822  0.749979  1
  Pt  Pt34  1  0.317402  0.143787  0.249990  1
  Pt  Pt35  1  0.817402  0.356196  0.249996  1
