# generated using pymatgen
data_Cs6Mn3VCl18
_symmetry_space_group_name_H-M   'P 1'
_cell_length_a   7.37421526
_cell_length_b   7.37499083
_cell_length_c   18.52758100
_cell_angle_alpha   89.98661414
_cell_angle_beta   90.01511216
_cell_angle_gamma   119.99999022
_symmetry_Int_Tables_number   1
_chemical_formula_structural   Cs6Mn3VCl18
_chemical_formula_sum   'Cs6 Mn3 V1 Cl18'
_cell_volume   872.62303403
_cell_formula_units_Z   1
loop_
 _symmetry_equiv_pos_site_id
 _symmetry_equiv_pos_as_xyz
  1  'x, y, z'
loop_
 _atom_site_type_symbol
 _atom_site_label
 _atom_site_symmetry_multiplicity
 _atom_site_fract_x
 _atom_site_fract_y
 _atom_site_fract_z
 _atom_site_occupancy
  Cs  Cs0  1  0.665845  0.335438  0.570748  1
  Cs  Cs1  1  0.330283  0.670113  0.074310  1
  Cs  Cs2  1  0.335462  0.666710  0.427178  1
  Cs  Cs3  1  0.666740  0.334651  0.924518  1
  Cs  Cs4  1  0.999793  0.999097  0.252485  1
  Cs  Cs5  1  0.000834  0.998613  0.750586  1
  Mn  Mn6  1  0.351787  0.655621  0.657598  1
  Mn  Mn7  1  0.667361  0.335665  0.342176  1
  Mn  Mn8  1  0.314809  0.679140  0.844442  1
  V  V9  1  0.665970  0.331397  0.162714  1
  Cl  Cl10  1  0.827328  0.651682  0.405237  1
  Cl  Cl11  1  0.193021  0.807919  0.600783  1
  Cl  Cl12  1  0.660660  0.843044  0.591656  1
  Cl  Cl13  1  0.823294  0.177801  0.403914  1
  Cl  Cl14  1  0.352723  0.175460  0.404861  1
  Cl  Cl15  1  0.188954  0.371402  0.904460  1
  Cl  Cl16  1  0.038468  0.517488  0.762448  1
  Cl  Cl17  1  0.624560  0.811310  0.903381  1
  Cl  Cl18  1  0.816576  0.637902  0.095171  1
  Cl  Cl19  1  0.161421  0.348245  0.593811  1
  Cl  Cl20  1  0.476283  0.948653  0.757758  1
  Cl  Cl21  1  0.521359  0.478020  0.246987  1
  Cl  Cl22  1  0.493925  0.505799  0.729113  1
  Cl  Cl23  1  0.164580  0.838736  0.915264  1
  Cl  Cl24  1  0.361605  0.183351  0.095146  1
  Cl  Cl25  1  0.958487  0.478205  0.245091  1
  Cl  Cl26  1  0.519126  0.036979  0.244227  1
  Cl  Cl27  1  0.818742  0.181560  0.093940  1
