# generated using pymatgen
data_Sc22OsRu2Rh5
_symmetry_space_group_name_H-M   'P 1'
_cell_length_a   9.49558889
_cell_length_b   9.50305599
_cell_length_c   9.49559029
_cell_angle_alpha   59.97399501
_cell_angle_beta   59.85422601
_cell_angle_gamma   59.97399505
_symmetry_Int_Tables_number   1
_chemical_formula_structural   Sc22OsRu2Rh5
_chemical_formula_sum   'Sc22 Os1 Ru2 Rh5'
_cell_volume   604.97994413
_cell_formula_units_Z   1
loop_
 _symmetry_equiv_pos_site_id
 _symmetry_equiv_pos_as_xyz
  1  'x, y, z'
loop_
 _atom_site_type_symbol
 _atom_site_label
 _atom_site_symmetry_multiplicity
 _atom_site_fract_x
 _atom_site_fract_y
 _atom_site_fract_z
 _atom_site_occupancy
  Sc  Sc0  1  0.843188  0.842247  0.843188  1
  Sc  Sc1  1  0.528331  0.157054  0.157561  1
  Sc  Sc2  1  0.157561  0.157054  0.528331  1
  Sc  Sc3  1  0.156812  0.528621  0.156812  1
  Sc  Sc4  1  0.842439  0.842946  0.471669  1
  Sc  Sc5  1  0.843188  0.471379  0.843188  1
  Sc  Sc6  1  0.471669  0.842946  0.842439  1
  Sc  Sc7  1  0.156812  0.157753  0.156812  1
  Sc  Sc8  1  0.196115  0.803885  0.196115  1
  Sc  Sc9  1  0.195240  0.801774  0.804760  1
  Sc  Sc10  1  0.804760  0.198226  0.195240  1
  Sc  Sc11  1  0.804760  0.801774  0.195240  1
  Sc  Sc12  1  0.195240  0.198226  0.804760  1
  Sc  Sc13  1  0.803885  0.196115  0.803885  1
  Sc  Sc14  1  0.383928  0.384333  0.383928  1
  Sc  Sc15  1  0.150397  0.614259  0.621086  1
  Sc  Sc16  1  0.616072  0.152190  0.616072  1
  Sc  Sc17  1  0.621086  0.614259  0.150397  1
  Sc  Sc18  1  0.383928  0.847810  0.383928  1
  Sc  Sc19  1  0.378914  0.385741  0.849603  1
  Sc  Sc20  1  0.849603  0.385741  0.378914  1
  Sc  Sc21  1  0.616072  0.615667  0.616072  1
  Os  Os22  1  0.000000  0.500000  0.000000  1
  Ru  Ru23  1  0.500000  0.500000  0.500000  1
  Ru  Ru24  1  0.000000  0.000000  0.000000  1
  Rh  Rh25  1  0.500000  0.500000  0.000000  1
  Rh  Rh26  1  0.000000  0.000000  0.500000  1
  Rh  Rh27  1  0.500000  0.000000  0.500000  1
  Rh  Rh28  1  0.000000  0.500000  0.500000  1
  Rh  Rh29  1  0.500000  0.000000  0.000000  1
