# generated using pymatgen
data_Zr6Zn22PtS
_symmetry_space_group_name_H-M   'P 1'
_cell_length_a   8.73749526
_cell_length_b   8.73784793
_cell_length_c   8.73784200
_cell_angle_alpha   59.99660759
_cell_angle_beta   60.00081496
_cell_angle_gamma   59.99964060
_symmetry_Int_Tables_number   1
_chemical_formula_structural   Zr6Zn22PtS
_chemical_formula_sum   'Zr6 Zn22 Pt1 S1'
_cell_volume   471.70554783
_cell_formula_units_Z   1
loop_
 _symmetry_equiv_pos_site_id
 _symmetry_equiv_pos_as_xyz
  1  'x, y, z'
loop_
 _atom_site_type_symbol
 _atom_site_label
 _atom_site_symmetry_multiplicity
 _atom_site_fract_x
 _atom_site_fract_y
 _atom_site_fract_z
 _atom_site_occupancy
  Zr  Zr0  1  0.705549  0.294447  0.294462  1
  Zr  Zr1  1  0.294465  0.705535  0.705543  1
  Zr  Zr2  1  0.294425  0.705572  0.294442  1
  Zr  Zr3  1  0.705550  0.294454  0.705557  1
  Zr  Zr4  1  0.294442  0.294446  0.705568  1
  Zr  Zr5  1  0.705552  0.705561  0.294457  1
  Zn  Zn6  1  0.121484  0.121501  0.121484  1
  Zn  Zn7  1  0.878530  0.878507  0.878496  1
  Zn  Zn8  1  0.121496  0.121473  0.635535  1
  Zn  Zn9  1  0.121501  0.635525  0.121467  1
  Zn  Zn10  1  0.878499  0.878515  0.364478  1
  Zn  Zn11  1  0.878510  0.364470  0.878509  1
  Zn  Zn12  1  0.635527  0.121498  0.121487  1
  Zn  Zn13  1  0.364471  0.878506  0.878490  1
  Zn  Zn14  1  0.500002  0.000001  0.999998  1
  Zn  Zn15  1  0.999997  0.499997  0.500002  1
  Zn  Zn16  1  0.000003  0.500003  0.999996  1
  Zn  Zn17  1  0.499996  0.999994  0.500004  1
  Zn  Zn18  1  0.000002  0.999998  0.500005  1
  Zn  Zn19  1  0.499999  0.500000  0.999993  1
  Zn  Zn20  1  0.332738  0.332752  0.332756  1
  Zn  Zn21  1  0.667251  0.667238  0.667246  1
  Zn  Zn22  1  0.332761  0.332749  0.001734  1
  Zn  Zn23  1  0.332752  0.001753  0.332746  1
  Zn  Zn24  1  0.667251  0.667264  0.998234  1
  Zn  Zn25  1  0.667244  0.998253  0.667263  1
  Zn  Zn26  1  0.001753  0.332753  0.332759  1
  Zn  Zn27  1  0.998254  0.667244  0.667249  1
  Pt  Pt28  1  0.999997  0.999993  0.000007  1
  S  S29  1  0.500001  0.499998  0.500030  1
