# generated using pymatgen
data_Ta9BeFeS6
_symmetry_space_group_name_H-M   'P 1'
_cell_length_a   10.17869000
_cell_length_b   10.17869026
_cell_length_c   3.38306500
_cell_angle_alpha   90.00000000
_cell_angle_beta   90.00000000
_cell_angle_gamma   119.99999264
_symmetry_Int_Tables_number   1
_chemical_formula_structural   Ta9BeFeS6
_chemical_formula_sum   'Ta9 Be1 Fe1 S6'
_cell_volume   303.54619471
_cell_formula_units_Z   1
loop_
 _symmetry_equiv_pos_site_id
 _symmetry_equiv_pos_as_xyz
  1  'x, y, z'
loop_
 _atom_site_type_symbol
 _atom_site_label
 _atom_site_symmetry_multiplicity
 _atom_site_fract_x
 _atom_site_fract_y
 _atom_site_fract_z
 _atom_site_occupancy
  Ta  Ta0  1  0.464969  0.265342  0.500000  1
  Ta  Ta1  1  0.537828  0.550979  0.000000  1
  Ta  Ta2  1  0.800373  0.535031  0.500000  1
  Ta  Ta3  1  0.200605  0.734077  0.500000  1
  Ta  Ta4  1  0.533471  0.799395  0.500000  1
  Ta  Ta5  1  0.265923  0.466529  0.500000  1
  Ta  Ta6  1  0.449021  0.986848  0.000000  1
  Ta  Ta7  1  0.734658  0.199627  0.500000  1
  Ta  Ta8  1  0.013152  0.462172  0.000000  1
  Be  Be9  1  0.333333  0.666667  0.000000  1
  Fe  Fe10  1  0.666667  0.333333  0.000000  1
  S  S11  1  0.704571  0.997013  0.000000  1
  S  S12  1  0.272243  0.000069  0.500000  1
  S  S13  1  0.727825  0.727757  0.500000  1
  S  S14  1  0.999931  0.272175  0.500000  1
  S  S15  1  0.002987  0.707559  0.000000  1
  S  S16  1  0.292441  0.295429  0.000000  1
