# generated using pymatgen
data_CaHoRu2O7
_symmetry_space_group_name_H-M   'P 1'
_cell_length_a   7.24412862
_cell_length_b   7.24412938
_cell_length_c   7.21584500
_cell_angle_alpha   60.12907906
_cell_angle_beta   60.12907562
_cell_angle_gamma   60.11966242
_symmetry_Int_Tables_number   1
_chemical_formula_structural   CaHoRu2O7
_chemical_formula_sum   'Ca2 Ho2 Ru4 O14'
_cell_volume   268.52322368
_cell_formula_units_Z   2
loop_
 _symmetry_equiv_pos_site_id
 _symmetry_equiv_pos_as_xyz
  1  'x, y, z'
loop_
 _atom_site_type_symbol
 _atom_site_label
 _atom_site_symmetry_multiplicity
 _atom_site_fract_x
 _atom_site_fract_y
 _atom_site_fract_z
 _atom_site_occupancy
  Ca  Ca0  1  0.625000  0.625000  0.125000  1
  Ca  Ca1  1  0.625000  0.625000  0.625000  1
  Ho  Ho2  1  0.625000  0.125000  0.625000  1
  Ho  Ho3  1  0.125000  0.625000  0.625000  1
  Ru  Ru4  1  0.125000  0.125000  0.625000  1
  Ru  Ru5  1  0.125000  0.625000  0.125000  1
  Ru  Ru6  1  0.625000  0.125000  0.125000  1
  Ru  Ru7  1  0.125000  0.125000  0.125000  1
  O  O8  1  0.450194  0.052930  0.452910  1
  O  O9  1  0.197070  0.799806  0.797090  1
  O  O10  1  0.799806  0.197070  0.206034  1
  O  O11  1  0.197070  0.799806  0.206034  1
  O  O12  1  0.805632  0.805632  0.194368  1
  O  O13  1  0.205908  0.205908  0.794092  1
  O  O14  1  0.444368  0.444368  0.055632  1
  O  O15  1  0.052930  0.450194  0.452910  1
  O  O16  1  0.450194  0.052930  0.043966  1
  O  O17  1  0.044092  0.044092  0.455908  1
  O  O18  1  0.799806  0.197070  0.797090  1
  O  O19  1  0.052930  0.450194  0.043966  1
  O  O20  1  0.493014  0.493014  0.506986  1
  O  O21  1  0.756986  0.756986  0.743014  1
