# generated using pymatgen
data_Ca2DyEr(NiB4)4
_symmetry_space_group_name_H-M   'P 1'
_cell_length_a   6.83075218
_cell_length_b   6.83075160
_cell_length_c   6.83075300
_cell_angle_alpha   112.89652662
_cell_angle_beta   112.89652150
_cell_angle_gamma   102.81853422
_symmetry_Int_Tables_number   1
_chemical_formula_structural   Ca2DyEr(NiB4)4
_chemical_formula_sum   'Ca2 Dy1 Er1 Ni4 B16'
_cell_volume   242.90765618
_cell_formula_units_Z   1
loop_
 _symmetry_equiv_pos_site_id
 _symmetry_equiv_pos_as_xyz
  1  'x, y, z'
loop_
 _atom_site_type_symbol
 _atom_site_label
 _atom_site_symmetry_multiplicity
 _atom_site_fract_x
 _atom_site_fract_y
 _atom_site_fract_z
 _atom_site_occupancy
  Ca  Ca0  1  0.797777  0.797777  0.000000  1
  Ca  Ca1  1  0.202223  0.202223  0.000000  1
  Dy  Dy2  1  0.250000  0.750000  0.500000  1
  Er  Er3  1  0.750000  0.250000  0.500000  1
  Ni  Ni4  1  0.272532  0.499950  0.772582  1
  Ni  Ni5  1  0.727369  0.499950  0.227418  1
  Ni  Ni6  1  0.500050  0.727468  0.227418  1
  Ni  Ni7  1  0.500050  0.272631  0.772582  1
  B  B8  1  0.277028  0.112391  0.389393  1
  B  B9  1  0.722997  0.887634  0.610607  1
  B  B10  1  0.277028  0.887634  0.164637  1
  B  B11  1  0.722997  0.112391  0.835363  1
  B  B12  1  0.112366  0.722972  0.835363  1
  B  B13  1  0.887609  0.277003  0.164637  1
  B  B14  1  0.112366  0.277003  0.389393  1
  B  B15  1  0.887609  0.722972  0.610607  1
  B  B16  1  0.113136  0.113208  0.530246  1
  B  B17  1  0.582961  0.582889  0.469754  1
  B  B18  1  0.113136  0.582889  0.999928  1
  B  B19  1  0.582961  0.113208  0.000072  1
  B  B20  1  0.886792  0.886864  0.469754  1
  B  B21  1  0.417111  0.417039  0.530246  1
  B  B22  1  0.886792  0.417039  0.999928  1
  B  B23  1  0.417111  0.886864  0.000072  1
