# generated using pymatgen
data_Yb4SiP4
_symmetry_space_group_name_H-M   'P 1'
_cell_length_a   11.86552500
_cell_length_b   11.86552500
_cell_length_c   11.86552500
_cell_angle_alpha   90.00000000
_cell_angle_beta   90.00000000
_cell_angle_gamma   90.00000000
_symmetry_Int_Tables_number   1
_chemical_formula_structural   Yb4SiP4
_chemical_formula_sum   'Yb32 Si8 P32'
_cell_volume   1670.55537514
_cell_formula_units_Z   8
loop_
 _symmetry_equiv_pos_site_id
 _symmetry_equiv_pos_as_xyz
  1  'x, y, z'
loop_
 _atom_site_type_symbol
 _atom_site_label
 _atom_site_symmetry_multiplicity
 _atom_site_fract_x
 _atom_site_fract_y
 _atom_site_fract_z
 _atom_site_occupancy
  Yb  Yb0  1  0.354945  0.354945  0.354945  1
  Yb  Yb1  1  0.645055  0.645055  0.354945  1
  Yb  Yb2  1  0.645055  0.354945  0.645055  1
  Yb  Yb3  1  0.854945  0.854945  0.854945  1
  Yb  Yb4  1  0.354945  0.645055  0.645055  1
  Yb  Yb5  1  0.145055  0.145055  0.854945  1
  Yb  Yb6  1  0.854945  0.145055  0.145055  1
  Yb  Yb7  1  0.145055  0.854945  0.145055  1
  Yb  Yb8  1  0.096129  0.132963  0.355292  1
  Yb  Yb9  1  0.903871  0.867037  0.355292  1
  Yb  Yb10  1  0.903871  0.132963  0.644708  1
  Yb  Yb11  1  0.355292  0.096129  0.132963  1
  Yb  Yb12  1  0.632963  0.596129  0.855292  1
  Yb  Yb13  1  0.096129  0.867037  0.644708  1
  Yb  Yb14  1  0.355292  0.903871  0.867037  1
  Yb  Yb15  1  0.367037  0.403871  0.855292  1
  Yb  Yb16  1  0.644708  0.903871  0.132963  1
  Yb  Yb17  1  0.632963  0.403871  0.144708  1
  Yb  Yb18  1  0.644708  0.096129  0.867037  1
  Yb  Yb19  1  0.367037  0.596129  0.144708  1
  Yb  Yb20  1  0.132963  0.355292  0.096129  1
  Yb  Yb21  1  0.596129  0.855292  0.632963  1
  Yb  Yb22  1  0.132963  0.644708  0.903871  1
  Yb  Yb23  1  0.403871  0.144708  0.632963  1
  Yb  Yb24  1  0.867037  0.644708  0.096129  1
  Yb  Yb25  1  0.596129  0.144708  0.367037  1
  Yb  Yb26  1  0.867037  0.355292  0.903871  1
  Yb  Yb27  1  0.403871  0.855292  0.367037  1
  Yb  Yb28  1  0.855292  0.632963  0.596129  1
  Yb  Yb29  1  0.855292  0.367037  0.403871  1
  Yb  Yb30  1  0.144708  0.367037  0.596129  1
  Yb  Yb31  1  0.144708  0.632963  0.403871  1
  Si  Si32  1  0.250000  0.000000  0.500000  1
  Si  Si33  1  0.750000  0.000000  0.500000  1
  Si  Si34  1  0.500000  0.250000  0.000000  1
  Si  Si35  1  0.500000  0.750000  0.000000  1
  Si  Si36  1  0.000000  0.500000  0.250000  1
  Si  Si37  1  0.000000  0.500000  0.750000  1
  Si  Si38  1  0.000000  0.000000  0.000000  1
  Si  Si39  1  0.500000  0.500000  0.500000  1
  P  P40  1  0.108141  0.381498  0.353950  1
  P  P41  1  0.891859  0.618502  0.353950  1
  P  P42  1  0.891859  0.381498  0.646050  1
  P  P43  1  0.353950  0.108141  0.381498  1
  P  P44  1  0.881498  0.608141  0.853950  1
  P  P45  1  0.108141  0.618502  0.646050  1
  P  P46  1  0.353950  0.891859  0.618502  1
  P  P47  1  0.118502  0.391859  0.853950  1
  P  P48  1  0.646050  0.891859  0.381498  1
  P  P49  1  0.881498  0.391859  0.146050  1
  P  P50  1  0.646050  0.108141  0.618502  1
  P  P51  1  0.118502  0.608141  0.146050  1
  P  P52  1  0.381498  0.353950  0.108141  1
  P  P53  1  0.608141  0.853950  0.881498  1
  P  P54  1  0.381498  0.646050  0.891859  1
  P  P55  1  0.391859  0.146050  0.881498  1
  P  P56  1  0.618502  0.646050  0.108141  1
  P  P57  1  0.608141  0.146050  0.118502  1
  P  P58  1  0.618502  0.353950  0.891859  1
  P  P59  1  0.391859  0.853950  0.118502  1
  P  P60  1  0.853950  0.881498  0.608141  1
  P  P61  1  0.853950  0.118502  0.391859  1
  P  P62  1  0.146050  0.118502  0.608141  1
  P  P63  1  0.146050  0.881498  0.391859  1
  P  P64  1  0.110031  0.110031  0.110031  1
  P  P65  1  0.889969  0.889969  0.110031  1
  P  P66  1  0.889969  0.110031  0.889969  1
  P  P67  1  0.610031  0.610031  0.610031  1
  P  P68  1  0.110031  0.889969  0.889969  1
  P  P69  1  0.389969  0.389969  0.610031  1
  P  P70  1  0.610031  0.389969  0.389969  1
  P  P71  1  0.389969  0.610031  0.389969  1
