# generated using pymatgen
data_KSm6RuBr12
_symmetry_space_group_name_H-M   'P 1'
_cell_length_a   9.36861385
_cell_length_b   9.36861331
_cell_length_c   9.36861300
_cell_angle_alpha   105.34510080
_cell_angle_beta   105.34510623
_cell_angle_gamma   105.34510298
_symmetry_Int_Tables_number   1
_chemical_formula_structural   KSm6RuBr12
_chemical_formula_sum   'K1 Sm6 Ru1 Br12'
_cell_volume   713.47485026
_cell_formula_units_Z   1
loop_
 _symmetry_equiv_pos_site_id
 _symmetry_equiv_pos_as_xyz
  1  'x, y, z'
loop_
 _atom_site_type_symbol
 _atom_site_label
 _atom_site_symmetry_multiplicity
 _atom_site_fract_x
 _atom_site_fract_y
 _atom_site_fract_z
 _atom_site_occupancy
  K  K0  1  0.500000  0.500000  0.500000  1
  Sm  Sm1  1  0.900667  0.688820  0.980505  1
  Sm  Sm2  1  0.980505  0.900667  0.688820  1
  Sm  Sm3  1  0.688820  0.980505  0.900667  1
  Sm  Sm4  1  0.099333  0.311180  0.019495  1
  Sm  Sm5  1  0.019495  0.099333  0.311180  1
  Sm  Sm6  1  0.311180  0.019495  0.099333  1
  Ru  Ru7  1  0.000000  0.000000  0.000000  1
  Br  Br8  1  0.777417  0.321795  0.922495  1
  Br  Br9  1  0.922495  0.777417  0.321795  1
  Br  Br10  1  0.321795  0.922495  0.777417  1
  Br  Br11  1  0.222583  0.678205  0.077505  1
  Br  Br12  1  0.077505  0.222583  0.678205  1
  Br  Br13  1  0.678205  0.077505  0.222583  1
  Br  Br14  1  0.567202  0.650477  0.881976  1
  Br  Br15  1  0.881976  0.567202  0.650477  1
  Br  Br16  1  0.650477  0.881976  0.567202  1
  Br  Br17  1  0.432798  0.349523  0.118024  1
  Br  Br18  1  0.118024  0.432798  0.349523  1
  Br  Br19  1  0.349523  0.118024  0.432798  1
