# generated using pymatgen
data_Ca3Zn3N
_symmetry_space_group_name_H-M   'P 1'
_cell_length_a   9.22903322
_cell_length_b   9.22903324
_cell_length_c   9.22903400
_cell_angle_alpha   59.99999728
_cell_angle_beta   59.99999722
_cell_angle_gamma   60.00000028
_symmetry_Int_Tables_number   1
_chemical_formula_structural   Ca3Zn3N
_chemical_formula_sum   'Ca12 Zn12 N4'
_cell_volume   555.84493240
_cell_formula_units_Z   4
loop_
 _symmetry_equiv_pos_site_id
 _symmetry_equiv_pos_as_xyz
  1  'x, y, z'
loop_
 _atom_site_type_symbol
 _atom_site_label
 _atom_site_symmetry_multiplicity
 _atom_site_fract_x
 _atom_site_fract_y
 _atom_site_fract_z
 _atom_site_occupancy
  Ca  Ca0  1  0.804633  0.195367  0.195367  1
  Ca  Ca1  1  0.195367  0.804633  0.195367  1
  Ca  Ca2  1  0.804633  0.804633  0.195367  1
  Ca  Ca3  1  0.195367  0.804633  0.804633  1
  Ca  Ca4  1  0.804633  0.195367  0.804633  1
  Ca  Ca5  1  0.195367  0.195367  0.804633  1
  Ca  Ca6  1  0.445367  0.054633  0.054633  1
  Ca  Ca7  1  0.054633  0.445367  0.054633  1
  Ca  Ca8  1  0.445367  0.445367  0.054633  1
  Ca  Ca9  1  0.054633  0.445367  0.445367  1
  Ca  Ca10  1  0.445367  0.054633  0.445367  1
  Ca  Ca11  1  0.054633  0.054633  0.445367  1
  Zn  Zn12  1  0.426835  0.426835  0.719495  1
  Zn  Zn13  1  0.426835  0.426835  0.426835  1
  Zn  Zn14  1  0.719495  0.426835  0.426835  1
  Zn  Zn15  1  0.426835  0.719495  0.426835  1
  Zn  Zn16  1  0.823165  0.823165  0.530505  1
  Zn  Zn17  1  0.823165  0.823165  0.823165  1
  Zn  Zn18  1  0.530505  0.823165  0.823165  1
  Zn  Zn19  1  0.823165  0.530505  0.823165  1
  Zn  Zn20  1  0.625000  0.625000  0.125000  1
  Zn  Zn21  1  0.625000  0.625000  0.625000  1
  Zn  Zn22  1  0.125000  0.625000  0.625000  1
  Zn  Zn23  1  0.625000  0.125000  0.625000  1
  N  N24  1  0.125000  0.125000  0.625000  1
  N  N25  1  0.125000  0.125000  0.125000  1
  N  N26  1  0.625000  0.125000  0.125000  1
  N  N27  1  0.125000  0.625000  0.125000  1
