# generated using pymatgen
data_TbYb2Tm(Ru2O7)2
_symmetry_space_group_name_H-M   'P 1'
_cell_length_a   7.22209798
_cell_length_b   7.21547732
_cell_length_c   7.21547677
_cell_angle_alpha   59.98461074
_cell_angle_beta   60.00860278
_cell_angle_gamma   60.00860629
_symmetry_Int_Tables_number   1
_chemical_formula_structural   TbYb2Tm(Ru2O7)2
_chemical_formula_sum   'Tb1 Yb2 Tm1 Ru4 O14'
_cell_volume   265.87922178
_cell_formula_units_Z   1
loop_
 _symmetry_equiv_pos_site_id
 _symmetry_equiv_pos_as_xyz
  1  'x, y, z'
loop_
 _atom_site_type_symbol
 _atom_site_label
 _atom_site_symmetry_multiplicity
 _atom_site_fract_x
 _atom_site_fract_y
 _atom_site_fract_z
 _atom_site_occupancy
  Tb  Tb0  1  0.125000  0.125000  0.125000  1
  Yb  Yb1  1  0.125000  0.125000  0.625000  1
  Yb  Yb2  1  0.125000  0.625000  0.125000  1
  Tm  Tm3  1  0.625000  0.125000  0.125000  1
  Ru  Ru4  1  0.625000  0.625000  0.625000  1
  Ru  Ru5  1  0.125000  0.625000  0.625000  1
  Ru  Ru6  1  0.625000  0.125000  0.625000  1
  Ru  Ru7  1  0.625000  0.625000  0.125000  1
  O  O8  1  0.549731  0.542990  0.954166  1
  O  O9  1  0.953513  0.545271  0.955059  1
  O  O10  1  0.296487  0.294941  0.704729  1
  O  O11  1  0.989974  0.005209  0.005209  1
  O  O12  1  0.301763  0.698287  0.698287  1
  O  O13  1  0.700269  0.707010  0.295834  1
  O  O14  1  0.706613  0.290282  0.290282  1
  O  O15  1  0.549731  0.954166  0.542990  1
  O  O16  1  0.700269  0.295834  0.707010  1
  O  O17  1  0.543387  0.959718  0.959718  1
  O  O18  1  0.953513  0.955059  0.545271  1
  O  O19  1  0.260026  0.244791  0.244791  1
  O  O20  1  0.296487  0.704729  0.294941  1
  O  O21  1  0.948237  0.551713  0.551713  1
