# generated using pymatgen
data_Ca7UP6
_symmetry_space_group_name_H-M   'P 1'
_cell_length_a   7.57780081
_cell_length_b   7.57779991
_cell_length_c   7.47732400
_cell_angle_alpha   109.20285312
_cell_angle_beta   109.20285075
_cell_angle_gamma   109.73824329
_symmetry_Int_Tables_number   1
_chemical_formula_structural   Ca7UP6
_chemical_formula_sum   'Ca7 U1 P6'
_cell_volume   331.61819964
_cell_formula_units_Z   1
loop_
 _symmetry_equiv_pos_site_id
 _symmetry_equiv_pos_as_xyz
  1  'x, y, z'
loop_
 _atom_site_type_symbol
 _atom_site_label
 _atom_site_symmetry_multiplicity
 _atom_site_fract_x
 _atom_site_fract_y
 _atom_site_fract_z
 _atom_site_occupancy
  Ca  Ca0  1  0.634567  0.635198  0.635058  1
  Ca  Ca1  1  0.009766  0.379587  0.508872  1
  Ca  Ca2  1  0.369820  0.490234  0.999106  1
  Ca  Ca3  1  0.000631  0.865433  0.500491  1
  Ca  Ca4  1  0.864802  0.499369  0.999860  1
  Ca  Ca5  1  0.500000  0.000000  0.863395  1
  Ca  Ca6  1  0.120413  0.130180  0.129285  1
  U  U7  1  0.500000  0.000000  0.357661  1
  P  P8  1  0.860475  0.119540  0.734291  1
  P  P9  1  0.380460  0.240935  0.614752  1
  P  P10  1  0.138030  0.759987  0.893811  1
  P  P11  1  0.740013  0.878044  0.133824  1
  P  P12  1  0.259065  0.639525  0.373815  1
  P  P13  1  0.621956  0.361970  0.255781  1
