# generated using pymatgen
data_PrScReB6
_symmetry_space_group_name_H-M   'P 1'
_cell_length_a   3.65888600
_cell_length_b   9.11070500
_cell_length_c   11.59578800
_cell_angle_alpha   90.00000000
_cell_angle_beta   90.00000000
_cell_angle_gamma   90.00000000
_symmetry_Int_Tables_number   1
_chemical_formula_structural   PrScReB6
_chemical_formula_sum   'Pr4 Sc4 Re4 B24'
_cell_volume   386.54595216
_cell_formula_units_Z   4
loop_
 _symmetry_equiv_pos_site_id
 _symmetry_equiv_pos_as_xyz
  1  'x, y, z'
loop_
 _atom_site_type_symbol
 _atom_site_label
 _atom_site_symmetry_multiplicity
 _atom_site_fract_x
 _atom_site_fract_y
 _atom_site_fract_z
 _atom_site_occupancy
  Pr  Pr0  1  0.000000  0.321387  0.414827  1
  Pr  Pr1  1  0.000000  0.678613  0.585173  1
  Pr  Pr2  1  0.000000  0.821387  0.085173  1
  Pr  Pr3  1  0.000000  0.178613  0.914827  1
  Sc  Sc4  1  0.000000  0.944028  0.369490  1
  Sc  Sc5  1  0.000000  0.055972  0.630510  1
  Sc  Sc6  1  0.000000  0.444028  0.130510  1
  Sc  Sc7  1  0.000000  0.555972  0.869490  1
  Re  Re8  1  0.000000  0.641918  0.316736  1
  Re  Re9  1  0.000000  0.358082  0.683264  1
  Re  Re10  1  0.000000  0.141918  0.183264  1
  Re  Re11  1  0.000000  0.858082  0.816736  1
  B  B12  1  0.500000  0.556663  0.429146  1
  B  B13  1  0.500000  0.443337  0.570854  1
  B  B14  1  0.500000  0.056663  0.070854  1
  B  B15  1  0.500000  0.943337  0.929146  1
  B  B16  1  0.500000  0.755081  0.415196  1
  B  B17  1  0.500000  0.244919  0.584804  1
  B  B18  1  0.500000  0.255081  0.084804  1
  B  B19  1  0.500000  0.744919  0.915196  1
  B  B20  1  0.500000  0.794804  0.265858  1
  B  B21  1  0.500000  0.205196  0.734142  1
  B  B22  1  0.500000  0.294804  0.234142  1
  B  B23  1  0.500000  0.705196  0.765858  1
  B  B24  1  0.500000  0.627860  0.183958  1
  B  B25  1  0.500000  0.372140  0.816042  1
  B  B26  1  0.500000  0.127860  0.316042  1
  B  B27  1  0.500000  0.872140  0.683958  1
  B  B28  1  0.500000  0.983118  0.215246  1
  B  B29  1  0.500000  0.016882  0.784754  1
  B  B30  1  0.500000  0.483118  0.284754  1
  B  B31  1  0.500000  0.516882  0.715246  1
  B  B32  1  0.500000  0.593103  0.025078  1
  B  B33  1  0.500000  0.406897  0.974922  1
  B  B34  1  0.500000  0.093103  0.474922  1
  B  B35  1  0.500000  0.906897  0.525078  1
