# generated using pymatgen
data_K2Ba(VS3)2
_symmetry_space_group_name_H-M   'P 1'
_cell_length_a   8.45061349
_cell_length_b   8.45061361
_cell_length_c   9.75158200
_cell_angle_alpha   88.75452450
_cell_angle_beta   88.75452448
_cell_angle_gamma   113.34721660
_symmetry_Int_Tables_number   1
_chemical_formula_structural   K2Ba(VS3)2
_chemical_formula_sum   'K4 Ba2 V4 S12'
_cell_volume   638.86767676
_cell_formula_units_Z   2
loop_
 _symmetry_equiv_pos_site_id
 _symmetry_equiv_pos_as_xyz
  1  'x, y, z'
loop_
 _atom_site_type_symbol
 _atom_site_label
 _atom_site_symmetry_multiplicity
 _atom_site_fract_x
 _atom_site_fract_y
 _atom_site_fract_z
 _atom_site_occupancy
  K  K0  1  0.262269  0.526046  0.525339  1
  K  K1  1  0.737731  0.473954  0.474661  1
  K  K2  1  0.473954  0.737731  0.974661  1
  K  K3  1  0.526046  0.262269  0.025339  1
  Ba  Ba4  1  0.965474  0.034526  0.250000  1
  Ba  Ba5  1  0.034526  0.965474  0.750000  1
  V  V6  1  0.984008  0.640162  0.054508  1
  V  V7  1  0.015992  0.359838  0.945492  1
  V  V8  1  0.359838  0.015992  0.445492  1
  V  V9  1  0.640162  0.984008  0.554508  1
  S  S10  1  0.638926  0.754979  0.658375  1
  S  S11  1  0.916423  0.540723  0.843109  1
  S  S12  1  0.245021  0.361074  0.841625  1
  S  S13  1  0.540723  0.916423  0.343109  1
  S  S14  1  0.361074  0.245021  0.341625  1
  S  S15  1  0.897898  0.185292  0.536712  1
  S  S16  1  0.814708  0.102102  0.963288  1
  S  S17  1  0.185292  0.897898  0.036712  1
  S  S18  1  0.083577  0.459277  0.156891  1
  S  S19  1  0.459277  0.083577  0.656891  1
  S  S20  1  0.102102  0.814708  0.463288  1
  S  S21  1  0.754979  0.638926  0.158375  1
