# generated using pymatgen
data_Zr9Rh13
_symmetry_space_group_name_H-M   'P 1'
_cell_length_a   7.13949892
_cell_length_b   7.13949976
_cell_length_c   9.60165776
_cell_angle_alpha   117.52284329
_cell_angle_beta   117.52284855
_cell_angle_gamma   77.07704019
_symmetry_Int_Tables_number   1
_chemical_formula_structural   Zr9Rh13
_chemical_formula_sum   'Zr9 Rh13'
_cell_volume   384.87825406
_cell_formula_units_Z   1
loop_
 _symmetry_equiv_pos_site_id
 _symmetry_equiv_pos_as_xyz
  1  'x, y, z'
loop_
 _atom_site_type_symbol
 _atom_site_label
 _atom_site_symmetry_multiplicity
 _atom_site_fract_x
 _atom_site_fract_y
 _atom_site_fract_z
 _atom_site_occupancy
  Zr  Zr0  1  0.176514  0.176514  0.110981  1
  Zr  Zr1  1  0.706261  0.706261  0.168842  1
  Zr  Zr2  1  0.840015  0.261298  0.310108  1
  Zr  Zr3  1  0.261298  0.840015  0.310108  1
  Zr  Zr4  1  0.500000  0.500000  0.500000  1
  Zr  Zr5  1  0.738701  0.159984  0.689891  1
  Zr  Zr6  1  0.159984  0.738701  0.689891  1
  Zr  Zr7  1  0.293738  0.293738  0.831158  1
  Zr  Zr8  1  0.823485  0.823485  0.889019  1
  Rh  Rh9  1  0.499999  0.000000  0.000000  1
  Rh  Rh10  1  0.744755  0.255245  0.000000  1
  Rh  Rh11  1  0.000000  0.499999  0.000000  1
  Rh  Rh12  1  0.255245  0.744755  0.000000  1
  Rh  Rh13  1  0.448418  0.448418  0.177197  1
  Rh  Rh14  1  0.556172  0.077629  0.341046  1
  Rh  Rh15  1  0.077629  0.556172  0.341046  1
  Rh  Rh16  1  0.742348  0.742348  0.489213  1
  Rh  Rh17  1  0.000000  0.000000  0.500000  1
  Rh  Rh18  1  0.257652  0.257652  0.510787  1
  Rh  Rh19  1  0.922372  0.443828  0.658954  1
  Rh  Rh20  1  0.443828  0.922372  0.658954  1
  Rh  Rh21  1  0.551582  0.551582  0.822803  1
