# generated using pymatgen
data_Er5TmCo16(P6W)2
_symmetry_space_group_name_H-M   'P 1'
_cell_length_a   3.70886700
_cell_length_b   10.53251025
_cell_length_c   12.20877229
_cell_angle_alpha   90.02487035
_cell_angle_beta   90.00000000
_cell_angle_gamma   90.00000000
_symmetry_Int_Tables_number   1
_chemical_formula_structural   Er5TmCo16(P6W)2
_chemical_formula_sum   'Er5 Tm1 Co16 P12 W2'
_cell_volume   476.91952507
_cell_formula_units_Z   1
loop_
 _symmetry_equiv_pos_site_id
 _symmetry_equiv_pos_as_xyz
  1  'x, y, z'
loop_
 _atom_site_type_symbol
 _atom_site_label
 _atom_site_symmetry_multiplicity
 _atom_site_fract_x
 _atom_site_fract_y
 _atom_site_fract_z
 _atom_site_occupancy
  Er  Er0  1  0.750000  0.249958  0.475202  1
  Er  Er1  1  0.250000  0.750038  0.524843  1
  Er  Er2  1  0.250000  0.569850  0.795247  1
  Er  Er3  1  0.750000  0.069579  0.205059  1
  Er  Er4  1  0.750000  0.430462  0.204689  1
  Tm  Tm5  1  0.250000  0.930338  0.794912  1
  Co  Co6  1  0.250000  0.249927  0.299243  1
  Co  Co7  1  0.750000  0.750316  0.700930  1
  Co  Co8  1  0.750000  0.249689  0.012973  1
  Co  Co9  1  0.250000  0.750320  0.986766  1
  Co  Co10  1  0.250000  0.417145  0.009985  1
  Co  Co11  1  0.250000  0.082581  0.009850  1
  Co  Co12  1  0.750000  0.582980  0.989881  1
  Co  Co13  1  0.750000  0.917275  0.989682  1
  Co  Co14  1  0.250000  0.454222  0.568461  1
  Co  Co15  1  0.250000  0.045761  0.568720  1
  Co  Co16  1  0.750000  0.545919  0.431574  1
  Co  Co17  1  0.750000  0.954105  0.431756  1
  Co  Co18  1  0.250000  0.872231  0.293060  1
  Co  Co19  1  0.250000  0.627820  0.292952  1
  Co  Co20  1  0.750000  0.127375  0.707221  1
  Co  Co21  1  0.750000  0.372144  0.707036  1
  P  P22  1  0.250000  0.249921  0.120265  1
  P  P23  1  0.750000  0.750315  0.879512  1
  P  P24  1  0.250000  0.250047  0.648574  1
  P  P25  1  0.750000  0.749992  0.351403  1
  P  P26  1  0.250000  0.437995  0.383849  1
  P  P27  1  0.250000  0.061909  0.384022  1
  P  P28  1  0.750000  0.562178  0.616190  1
  P  P29  1  0.750000  0.937937  0.616530  1
  P  P30  1  0.250000  0.906231  0.107971  1
  P  P31  1  0.250000  0.593804  0.107658  1
  P  P32  1  0.750000  0.093441  0.891785  1
  P  P33  1  0.750000  0.406264  0.892263  1
  W  W34  1  0.250000  0.249900  0.843197  1
  W  W35  1  0.750000  0.750030  0.156740  1
