# generated using pymatgen
data_Y6IrPd
_symmetry_space_group_name_H-M   'P 1'
_cell_length_a   6.48591954
_cell_length_b   7.18847777
_cell_length_c   9.51365200
_cell_angle_alpha   90.00000000
_cell_angle_beta   90.00000000
_cell_angle_gamma   90.04992483
_symmetry_Int_Tables_number   1
_chemical_formula_structural   Y6IrPd
_chemical_formula_sum   'Y12 Ir2 Pd2'
_cell_volume   443.56328109
_cell_formula_units_Z   2
loop_
 _symmetry_equiv_pos_site_id
 _symmetry_equiv_pos_as_xyz
  1  'x, y, z'
loop_
 _atom_site_type_symbol
 _atom_site_label
 _atom_site_symmetry_multiplicity
 _atom_site_fract_x
 _atom_site_fract_y
 _atom_site_fract_z
 _atom_site_occupancy
  Y  Y0  1  0.628396  0.037840  0.250000  1
  Y  Y1  1  0.371604  0.962160  0.750000  1
  Y  Y2  1  0.137367  0.475529  0.750000  1
  Y  Y3  1  0.862633  0.524471  0.250000  1
  Y  Y4  1  0.177139  0.183678  0.062892  1
  Y  Y5  1  0.822861  0.816322  0.937108  1
  Y  Y6  1  0.670503  0.322786  0.938999  1
  Y  Y7  1  0.822861  0.816322  0.562892  1
  Y  Y8  1  0.329497  0.677214  0.061001  1
  Y  Y9  1  0.177139  0.183678  0.437108  1
  Y  Y10  1  0.329497  0.677214  0.438999  1
  Y  Y11  1  0.670503  0.322786  0.561001  1
  Ir  Ir12  1  0.449888  0.386305  0.250000  1
  Ir  Ir13  1  0.550112  0.613695  0.750000  1
  Pd  Pd14  1  0.949681  0.113437  0.750000  1
  Pd  Pd15  1  0.050319  0.886563  0.250000  1
