# generated using pymatgen
data_Lu2PaMn3
_symmetry_space_group_name_H-M   'P 1'
_cell_length_a   5.54424406
_cell_length_b   5.54424395
_cell_length_c   5.16294581
_cell_angle_alpha   57.52534951
_cell_angle_beta   57.52533541
_cell_angle_gamma   60.00000239
_symmetry_Int_Tables_number   1
_chemical_formula_structural   Lu2PaMn3
_chemical_formula_sum   'Lu2 Pa1 Mn3'
_cell_volume   107.83676388
_cell_formula_units_Z   1
loop_
 _symmetry_equiv_pos_site_id
 _symmetry_equiv_pos_as_xyz
  1  'x, y, z'
loop_
 _atom_site_type_symbol
 _atom_site_label
 _atom_site_symmetry_multiplicity
 _atom_site_fract_x
 _atom_site_fract_y
 _atom_site_fract_z
 _atom_site_occupancy
  Lu  Lu0  1  0.749799  0.749799  0.750605  1
  Lu  Lu1  1  0.500201  0.500201  0.499395  1
  Pa  Pa2  1  0.125000  0.125000  0.625000  1
  Mn  Mn3  1  0.125000  0.625000  0.125000  1
  Mn  Mn4  1  0.625000  0.125000  0.125000  1
  Mn  Mn5  1  0.125000  0.125000  0.125000  1
