# generated using pymatgen
data_Ho2Tm3In2Sb
_symmetry_space_group_name_H-M   'P 1'
_cell_length_a   8.90183900
_cell_length_b   8.91396660
_cell_length_c   6.48283400
_cell_angle_alpha   90.00000000
_cell_angle_beta   90.00000000
_cell_angle_gamma   119.95500837
_symmetry_Int_Tables_number   1
_chemical_formula_structural   Ho2Tm3In2Sb
_chemical_formula_sum   'Ho4 Tm6 In4 Sb2'
_cell_volume   445.70036152
_cell_formula_units_Z   2
loop_
 _symmetry_equiv_pos_site_id
 _symmetry_equiv_pos_as_xyz
  1  'x, y, z'
loop_
 _atom_site_type_symbol
 _atom_site_label
 _atom_site_symmetry_multiplicity
 _atom_site_fract_x
 _atom_site_fract_y
 _atom_site_fract_z
 _atom_site_occupancy
  Ho  Ho0  1  0.236427  0.000000  0.250000  1
  Ho  Ho1  1  0.760886  0.000000  0.750000  1
  Ho  Ho2  1  0.239656  0.235876  0.750000  1
  Ho  Ho3  1  0.003779  0.764124  0.750000  1
  Tm  Tm4  1  0.331316  0.664881  0.003708  1
  Tm  Tm5  1  0.666436  0.335119  0.496292  1
  Tm  Tm6  1  0.666436  0.335119  0.003708  1
  Tm  Tm7  1  0.331316  0.664881  0.496292  1
  Tm  Tm8  1  0.999539  0.238227  0.250000  1
  Tm  Tm9  1  0.761313  0.761773  0.250000  1
  In  In10  1  0.602247  0.000000  0.250000  1
  In  In11  1  0.402370  0.000000  0.750000  1
  In  In12  1  0.998654  0.604405  0.250000  1
  In  In13  1  0.394249  0.395595  0.250000  1
  Sb  Sb14  1  0.605561  0.605745  0.750000  1
  Sb  Sb15  1  0.999816  0.394255  0.750000  1
