# generated using pymatgen
data_Mg2BRhO5
_symmetry_space_group_name_H-M   'P 1'
_cell_length_a   3.14471500
_cell_length_b   9.27821100
_cell_length_c   12.33738900
_cell_angle_alpha   90.00000000
_cell_angle_beta   90.00000000
_cell_angle_gamma   90.00000000
_symmetry_Int_Tables_number   1
_chemical_formula_structural   Mg2BRhO5
_chemical_formula_sum   'Mg8 B4 Rh4 O20'
_cell_volume   359.97206162
_cell_formula_units_Z   4
loop_
 _symmetry_equiv_pos_site_id
 _symmetry_equiv_pos_as_xyz
  1  'x, y, z'
loop_
 _atom_site_type_symbol
 _atom_site_label
 _atom_site_symmetry_multiplicity
 _atom_site_fract_x
 _atom_site_fract_y
 _atom_site_fract_z
 _atom_site_occupancy
  Mg  Mg0  1  0.500000  0.000000  0.500000  1
  Mg  Mg1  1  0.500000  0.500000  0.000000  1
  Mg  Mg2  1  0.500000  0.002456  0.218455  1
  Mg  Mg3  1  0.500000  0.997544  0.781545  1
  Mg  Mg4  1  0.500000  0.497544  0.718455  1
  Mg  Mg5  1  0.500000  0.502456  0.281545  1
  Mg  Mg6  1  0.000000  0.000000  0.000000  1
  Mg  Mg7  1  0.000000  0.500000  0.500000  1
  B  B8  1  0.000000  0.270400  0.139867  1
  B  B9  1  0.000000  0.729600  0.860133  1
  B  B10  1  0.000000  0.229600  0.639867  1
  B  B11  1  0.000000  0.770400  0.360133  1
  Rh  Rh12  1  0.000000  0.243445  0.388120  1
  Rh  Rh13  1  0.000000  0.756555  0.611880  1
  Rh  Rh14  1  0.000000  0.256555  0.888120  1
  Rh  Rh15  1  0.000000  0.743445  0.111880  1
  O  O16  1  0.000000  0.349592  0.236391  1
  O  O17  1  0.000000  0.650408  0.763609  1
  O  O18  1  0.000000  0.150408  0.736391  1
  O  O19  1  0.000000  0.849592  0.263609  1
  O  O20  1  0.500000  0.106514  0.358044  1
  O  O21  1  0.500000  0.893486  0.641956  1
  O  O22  1  0.500000  0.393486  0.858044  1
  O  O23  1  0.500000  0.606514  0.141956  1
  O  O24  1  0.000000  0.122583  0.141277  1
  O  O25  1  0.000000  0.877417  0.858723  1
  O  O26  1  0.000000  0.377417  0.641277  1
  O  O27  1  0.000000  0.622583  0.358723  1
  O  O28  1  0.000000  0.351733  0.043708  1
  O  O29  1  0.000000  0.648267  0.956292  1
  O  O30  1  0.000000  0.148267  0.543708  1
  O  O31  1  0.000000  0.851733  0.456292  1
  O  O32  1  0.500000  0.386200  0.422063  1
  O  O33  1  0.500000  0.613800  0.577937  1
  O  O34  1  0.500000  0.113800  0.922063  1
  O  O35  1  0.500000  0.886200  0.077937  1
