# generated using pymatgen
data_Ho2Er14In6CoOs
_symmetry_space_group_name_H-M   'P 1'
_cell_length_a   10.29251600
_cell_length_b   10.29251708
_cell_length_c   7.01981900
_cell_angle_alpha   90.00000000
_cell_angle_beta   90.00000000
_cell_angle_gamma   120.00000294
_symmetry_Int_Tables_number   1
_chemical_formula_structural   Ho2Er14In6CoOs
_chemical_formula_sum   'Ho2 Er14 In6 Co1 Os1'
_cell_volume   644.02048341
_cell_formula_units_Z   1
loop_
 _symmetry_equiv_pos_site_id
 _symmetry_equiv_pos_as_xyz
  1  'x, y, z'
loop_
 _atom_site_type_symbol
 _atom_site_label
 _atom_site_symmetry_multiplicity
 _atom_site_fract_x
 _atom_site_fract_y
 _atom_site_fract_z
 _atom_site_occupancy
  Ho  Ho0  1  0.000000  0.000000  0.495947  1
  Ho  Ho1  1  0.000000  0.000000  0.998310  1
  Er  Er2  1  0.466269  0.533731  0.481085  1
  Er  Er3  1  0.067463  0.533731  0.481085  1
  Er  Er4  1  0.466269  0.932537  0.481085  1
  Er  Er5  1  0.535590  0.464410  0.981762  1
  Er  Er6  1  0.928820  0.464410  0.981762  1
  Er  Er7  1  0.535590  0.071180  0.981762  1
  Er  Er8  1  0.821339  0.178661  0.275878  1
  Er  Er9  1  0.357321  0.178661  0.275878  1
  Er  Er10  1  0.821339  0.642679  0.275878  1
  Er  Er11  1  0.177073  0.822927  0.776779  1
  Er  Er12  1  0.645852  0.822927  0.776779  1
  Er  Er13  1  0.177073  0.354148  0.776779  1
  Er  Er14  1  0.333333  0.666667  0.101772  1
  Er  Er15  1  0.666667  0.333333  0.591844  1
  In  In16  1  0.162426  0.837574  0.233993  1
  In  In17  1  0.675151  0.837574  0.233993  1
  In  In18  1  0.162426  0.324849  0.233993  1
  In  In19  1  0.836082  0.163918  0.732038  1
  In  In20  1  0.327834  0.163918  0.732038  1
  In  In21  1  0.836082  0.672166  0.732038  1
  Co  Co22  1  0.666667  0.333333  0.207142  1
  Os  Os23  1  0.333333  0.666667  0.704934  1
