# generated using pymatgen
data_Y5Er6ScPb10
_symmetry_space_group_name_H-M   'P 1'
_cell_length_a   11.67161442
_cell_length_b   11.66863782
_cell_length_c   11.67757560
_cell_angle_alpha   146.88597647
_cell_angle_beta   132.50011025
_cell_angle_gamma   59.04586646
_symmetry_Int_Tables_number   1
_chemical_formula_structural   Y5Er6ScPb10
_chemical_formula_sum   'Y5 Er6 Sc1 Pb10'
_cell_volume   635.31532928
_cell_formula_units_Z   1
loop_
 _symmetry_equiv_pos_site_id
 _symmetry_equiv_pos_as_xyz
  1  'x, y, z'
loop_
 _atom_site_type_symbol
 _atom_site_label
 _atom_site_symmetry_multiplicity
 _atom_site_fract_x
 _atom_site_fract_y
 _atom_site_fract_z
 _atom_site_occupancy
  Y  Y0  1  0.696591  0.946685  0.250043  1
  Y  Y1  1  0.249998  0.635920  0.611046  1
  Y  Y2  1  0.681632  0.941211  0.739771  1
  Y  Y3  1  0.024877  0.138918  0.888942  1
  Y  Y4  1  0.974833  0.860828  0.112452  1
  Er  Er5  1  0.798783  0.559409  0.240435  1
  Er  Er6  1  0.201495  0.441826  0.760268  1
  Er  Er7  1  0.302738  0.052876  0.749956  1
  Er  Er8  1  0.318875  0.058285  0.259544  1
  Er  Er9  1  0.303945  0.553980  0.249871  1
  Er  Er10  1  0.748610  0.362582  0.387748  1
  Sc  Sc11  1  0.695654  0.445644  0.749974  1
  Pb  Pb12  1  0.483709  0.565335  0.897677  1
  Pb  Pb13  1  0.599004  0.784445  0.797335  1
  Pb  Pb14  1  0.667702  0.086507  0.602059  1
  Pb  Pb15  1  0.000649  0.749463  0.749646  1
  Pb  Pb16  1  0.987089  0.302007  0.702018  1
  Pb  Pb17  1  0.519433  0.423463  0.091518  1
  Pb  Pb18  1  0.007760  0.702049  0.297869  1
  Pb  Pb19  1  0.404278  0.209893  0.202192  1
  Pb  Pb20  1  0.332053  0.928009  0.408554  1
  Pb  Pb21  1  0.000291  0.250666  0.251083  1
