# generated using pymatgen
data_Tm16Sc4(Ir3Os)3
_symmetry_space_group_name_H-M   'P 1'
_cell_length_a   10.62788300
_cell_length_b   10.62788300
_cell_length_c   6.26797000
_cell_angle_alpha   90.00000000
_cell_angle_beta   90.00000000
_cell_angle_gamma   90.00000000
_symmetry_Int_Tables_number   1
_chemical_formula_structural   Tm16Sc4(Ir3Os)3
_chemical_formula_sum   'Tm16 Sc4 Ir9 Os3'
_cell_volume   707.97910223
_cell_formula_units_Z   1
loop_
 _symmetry_equiv_pos_site_id
 _symmetry_equiv_pos_as_xyz
  1  'x, y, z'
loop_
 _atom_site_type_symbol
 _atom_site_label
 _atom_site_symmetry_multiplicity
 _atom_site_fract_x
 _atom_site_fract_y
 _atom_site_fract_z
 _atom_site_occupancy
  Tm  Tm0  1  0.290799  0.084903  0.375131  1
  Tm  Tm1  1  0.290832  0.915282  0.875182  1
  Tm  Tm2  1  0.709168  0.084718  0.875182  1
  Tm  Tm3  1  0.709201  0.915097  0.375131  1
  Tm  Tm4  1  0.584718  0.790832  0.875182  1
  Tm  Tm5  1  0.584903  0.209201  0.375131  1
  Tm  Tm6  1  0.415097  0.790799  0.375131  1
  Tm  Tm7  1  0.415282  0.209168  0.875182  1
  Tm  Tm8  1  0.210837  0.414633  0.626404  1
  Tm  Tm9  1  0.210465  0.585411  0.122691  1
  Tm  Tm10  1  0.789535  0.414589  0.122691  1
  Tm  Tm11  1  0.789163  0.585367  0.626404  1
  Tm  Tm12  1  0.914589  0.710465  0.122691  1
  Tm  Tm13  1  0.914633  0.289163  0.626404  1
  Tm  Tm14  1  0.085367  0.710837  0.626404  1
  Tm  Tm15  1  0.085411  0.289535  0.122691  1
  Sc  Sc16  1  0.000000  0.000000  0.499719  1
  Sc  Sc17  1  0.000000  0.000000  0.999815  1
  Sc  Sc18  1  0.500000  0.500000  0.999815  1
  Sc  Sc19  1  0.500000  0.500000  0.499719  1
  Ir  Ir20  1  0.852576  0.148602  0.250270  1
  Ir  Ir21  1  0.852380  0.851612  0.749922  1
  Ir  Ir22  1  0.147620  0.148388  0.749922  1
  Ir  Ir23  1  0.147424  0.851398  0.250270  1
  Ir  Ir24  1  0.648388  0.352380  0.749922  1
  Ir  Ir25  1  0.648602  0.647424  0.250270  1
  Ir  Ir26  1  0.351398  0.352576  0.250270  1
  Ir  Ir27  1  0.351612  0.647620  0.749922  1
  Ir  Ir28  1  0.000000  0.500000  0.377267  1
  Os  Os29  1  0.500000  0.000000  0.124960  1
  Os  Os30  1  0.500000  0.000000  0.624494  1
  Os  Os31  1  0.000000  0.500000  0.875811  1
