# generated using pymatgen
data_Er8Sc2TiSi16W9
_symmetry_space_group_name_H-M   'P 1'
_cell_length_a   6.91671356
_cell_length_b   6.91671418
_cell_length_c   12.80204400
_cell_angle_alpha   89.96691064
_cell_angle_beta   90.03308997
_cell_angle_gamma   90.04576960
_symmetry_Int_Tables_number   1
_chemical_formula_structural   Er8Sc2TiSi16W9
_chemical_formula_sum   'Er8 Sc2 Ti1 Si16 W9'
_cell_volume   612.46130143
_cell_formula_units_Z   1
loop_
 _symmetry_equiv_pos_site_id
 _symmetry_equiv_pos_as_xyz
  1  'x, y, z'
loop_
 _atom_site_type_symbol
 _atom_site_label
 _atom_site_symmetry_multiplicity
 _atom_site_fract_x
 _atom_site_fract_y
 _atom_site_fract_z
 _atom_site_occupancy
  Er  Er0  1  0.339872  0.003136  0.469290  1
  Er  Er1  1  0.495995  0.837598  0.719402  1
  Er  Er2  1  0.500354  0.163168  0.217429  1
  Er  Er3  1  0.837598  0.495995  0.280598  1
  Er  Er4  1  0.163168  0.500354  0.782571  1
  Er  Er5  1  0.658523  0.999032  0.969515  1
  Er  Er6  1  0.003136  0.339872  0.530710  1
  Er  Er7  1  0.999032  0.658523  0.030485  1
  Sc  Sc8  1  0.169922  0.831179  0.249058  1
  Sc  Sc9  1  0.831179  0.169922  0.750942  1
  Ti  Ti10  1  0.669377  0.669377  0.500000  1
  Si  Si11  1  0.203602  0.129401  0.682321  1
  Si  Si12  1  0.372866  0.699672  0.932569  1
  Si  Si13  1  0.629280  0.299042  0.432841  1
  Si  Si14  1  0.699672  0.372866  0.067431  1
  Si  Si15  1  0.299042  0.629280  0.567159  1
  Si  Si16  1  0.794403  0.871784  0.182271  1
  Si  Si17  1  0.129401  0.203602  0.317679  1
  Si  Si18  1  0.871784  0.794403  0.817729  1
  Si  Si19  1  0.289362  0.964609  0.061041  1
  Si  Si20  1  0.543542  0.790760  0.313709  1
  Si  Si21  1  0.455832  0.210329  0.815062  1
  Si  Si22  1  0.790760  0.543542  0.686291  1
  Si  Si23  1  0.210329  0.455832  0.184938  1
  Si  Si24  1  0.708345  0.038999  0.562046  1
  Si  Si25  1  0.964609  0.289362  0.938959  1
  Si  Si26  1  0.038999  0.708345  0.437954  1
  W  W27  1  0.332316  0.332316  0.000000  1
  W  W28  1  0.160375  0.000585  0.873470  1
  W  W29  1  0.496043  0.663718  0.123049  1
  W  W30  1  0.503150  0.341176  0.623381  1
  W  W31  1  0.663718  0.496043  0.876951  1
  W  W32  1  0.341176  0.503150  0.376619  1
  W  W33  1  0.837990  0.994665  0.374890  1
  W  W34  1  0.000585  0.160375  0.126530  1
  W  W35  1  0.994665  0.837990  0.625110  1
