# generated using pymatgen
data_Dy17Ho3Ir11Au
_symmetry_space_group_name_H-M   'P 1'
_cell_length_a   10.94769376
_cell_length_b   10.94777425
_cell_length_c   6.34774004
_cell_angle_alpha   89.95951941
_cell_angle_beta   89.96083081
_cell_angle_gamma   89.63789036
_symmetry_Int_Tables_number   1
_chemical_formula_structural   Dy17Ho3Ir11Au
_chemical_formula_sum   'Dy17 Ho3 Ir11 Au1'
_cell_volume   760.77936531
_cell_formula_units_Z   1
loop_
 _symmetry_equiv_pos_site_id
 _symmetry_equiv_pos_as_xyz
  1  'x, y, z'
loop_
 _atom_site_type_symbol
 _atom_site_label
 _atom_site_symmetry_multiplicity
 _atom_site_fract_x
 _atom_site_fract_y
 _atom_site_fract_z
 _atom_site_occupancy
  Dy  Dy0  1  0.290413  0.088202  0.376840  1
  Dy  Dy1  1  0.292409  0.911210  0.876218  1
  Dy  Dy2  1  0.704297  0.084838  0.866678  1
  Dy  Dy3  1  0.705783  0.905202  0.380144  1
  Dy  Dy4  1  0.587933  0.790929  0.878764  1
  Dy  Dy5  1  0.580092  0.210038  0.378903  1
  Dy  Dy6  1  0.411132  0.791109  0.377714  1
  Dy  Dy7  1  0.410506  0.208629  0.877718  1
  Dy  Dy8  1  0.209069  0.412090  0.621216  1
  Dy  Dy9  1  0.208885  0.588891  0.122338  1
  Dy  Dy10  1  0.789952  0.419908  0.121145  1
  Dy  Dy11  1  0.791359  0.589483  0.622252  1
  Dy  Dy12  1  0.911822  0.709648  0.123101  1
  Dy  Dy13  1  0.915125  0.295752  0.633373  1
  Dy  Dy14  1  0.088821  0.707504  0.623842  1
  Dy  Dy15  1  0.094768  0.294175  0.119796  1
  Dy  Dy16  1  0.003678  0.996065  0.501639  1
  Ho  Ho17  1  0.003977  0.996299  0.998317  1
  Ho  Ho18  1  0.499263  0.499710  0.999060  1
  Ho  Ho19  1  0.500294  0.500730  0.500942  1
  Ir  Ir20  1  0.846577  0.847980  0.749724  1
  Ir  Ir21  1  0.152009  0.153442  0.750760  1
  Ir  Ir22  1  0.154821  0.845202  0.249768  1
  Ir  Ir23  1  0.654882  0.345126  0.750018  1
  Ir  Ir24  1  0.653539  0.652399  0.248867  1
  Ir  Ir25  1  0.347598  0.346447  0.251135  1
  Ir  Ir26  1  0.346584  0.653416  0.750010  1
  Ir  Ir27  1  0.500715  0.000224  0.124457  1
  Ir  Ir28  1  0.499994  0.000582  0.621273  1
  Ir  Ir29  1  0.999427  0.500002  0.878715  1
  Ir  Ir30  1  0.999779  0.499285  0.375535  1
  Au  Au31  1  0.844495  0.155483  0.249739  1
