# generated using pymatgen
data_PrNd2Co7(P3Rh)2
_symmetry_space_group_name_H-M   'P 1'
_cell_length_a   3.81083400
_cell_length_b   10.78151000
_cell_length_c   12.59511200
_cell_angle_alpha   90.00000000
_cell_angle_beta   90.00000000
_cell_angle_gamma   90.00000000
_symmetry_Int_Tables_number   1
_chemical_formula_structural   PrNd2Co7(P3Rh)2
_chemical_formula_sum   'Pr2 Nd4 Co14 P12 Rh4'
_cell_volume   517.48963445
_cell_formula_units_Z   2
loop_
 _symmetry_equiv_pos_site_id
 _symmetry_equiv_pos_as_xyz
  1  'x, y, z'
loop_
 _atom_site_type_symbol
 _atom_site_label
 _atom_site_symmetry_multiplicity
 _atom_site_fract_x
 _atom_site_fract_y
 _atom_site_fract_z
 _atom_site_occupancy
  Pr  Pr0  1  0.000000  0.500000  0.520590  1
  Pr  Pr1  1  0.500000  0.000000  0.479410  1
  Nd  Nd2  1  0.500000  0.814254  0.206193  1
  Nd  Nd3  1  0.500000  0.185746  0.206193  1
  Nd  Nd4  1  0.000000  0.685746  0.793807  1
  Nd  Nd5  1  0.000000  0.314254  0.793807  1
  Co  Co6  1  0.000000  0.500000  0.989179  1
  Co  Co7  1  0.500000  0.000000  0.010821  1
  Co  Co8  1  0.500000  0.332307  0.994847  1
  Co  Co9  1  0.500000  0.667693  0.994847  1
  Co  Co10  1  0.000000  0.167693  0.005153  1
  Co  Co11  1  0.000000  0.832307  0.005153  1
  Co  Co12  1  0.500000  0.300388  0.428638  1
  Co  Co13  1  0.500000  0.699612  0.428638  1
  Co  Co14  1  0.000000  0.199612  0.571362  1
  Co  Co15  1  0.000000  0.800388  0.571362  1
  Co  Co16  1  0.500000  0.883012  0.711637  1
  Co  Co17  1  0.500000  0.116988  0.711637  1
  Co  Co18  1  0.000000  0.616988  0.288363  1
  Co  Co19  1  0.000000  0.383012  0.288363  1
  P  P20  1  0.500000  0.500000  0.893421  1
  P  P21  1  0.000000  0.000000  0.106579  1
  P  P22  1  0.500000  0.500000  0.344746  1
  P  P23  1  0.000000  0.000000  0.655254  1
  P  P24  1  0.500000  0.297540  0.611510  1
  P  P25  1  0.500000  0.702460  0.611510  1
  P  P26  1  0.000000  0.202460  0.388490  1
  P  P27  1  0.000000  0.797540  0.388490  1
  P  P28  1  0.500000  0.845722  0.897391  1
  P  P29  1  0.500000  0.154278  0.897391  1
  P  P30  1  0.000000  0.654278  0.102609  1
  P  P31  1  0.000000  0.345722  0.102609  1
  Rh  Rh32  1  0.500000  0.500000  0.158120  1
  Rh  Rh33  1  0.000000  0.000000  0.841880  1
  Rh  Rh34  1  0.500000  0.500000  0.705143  1
  Rh  Rh35  1  0.000000  0.000000  0.294857  1
