# generated using pymatgen
data_Er10Os3Rh
_symmetry_space_group_name_H-M   'P 1'
_cell_length_a   6.30917721
_cell_length_b   7.32568507
_cell_length_c   8.35604571
_cell_angle_alpha   96.91256186
_cell_angle_beta   112.10134092
_cell_angle_gamma   89.95911378
_symmetry_Int_Tables_number   1
_chemical_formula_structural   Er10Os3Rh
_chemical_formula_sum   'Er10 Os3 Rh1'
_cell_volume   354.81143376
_cell_formula_units_Z   1
loop_
 _symmetry_equiv_pos_site_id
 _symmetry_equiv_pos_as_xyz
  1  'x, y, z'
loop_
 _atom_site_type_symbol
 _atom_site_label
 _atom_site_symmetry_multiplicity
 _atom_site_fract_x
 _atom_site_fract_y
 _atom_site_fract_z
 _atom_site_occupancy
  Er  Er0  1  0.793124  0.582011  0.817189  1
  Er  Er1  1  0.978466  0.915718  0.187252  1
  Er  Er2  1  0.208315  0.416348  0.183805  1
  Er  Er3  1  0.025779  0.085744  0.817191  1
  Er  Er4  1  0.201380  0.681580  0.562203  1
  Er  Er5  1  0.642251  0.815582  0.433358  1
  Er  Er6  1  0.794558  0.316433  0.435908  1
  Er  Er7  1  0.357771  0.185277  0.562697  1
  Er  Er8  1  0.419925  0.748871  0.001189  1
  Er  Er9  1  0.579249  0.252245  0.001385  1
  Os  Os10  1  0.822168  0.577949  0.218422  1
  Os  Os11  1  0.396382  0.076330  0.219553  1
  Os  Os12  1  0.178281  0.422814  0.780569  1
  Rh  Rh13  1  0.602351  0.923098  0.779278  1
