# generated using pymatgen
data_Ba5Nd4Ho4Mn4O21
_symmetry_space_group_name_H-M   'P 1'
_cell_length_a   5.86734766
_cell_length_b   10.46530146
_cell_length_c   10.46530007
_cell_angle_alpha   85.49296752
_cell_angle_beta   73.72046737
_cell_angle_gamma   73.72046075
_symmetry_Int_Tables_number   1
_chemical_formula_structural   Ba5Nd4Ho4Mn4O21
_chemical_formula_sum   'Ba5 Nd4 Ho4 Mn4 O21'
_cell_volume   592.10971746
_cell_formula_units_Z   1
loop_
 _symmetry_equiv_pos_site_id
 _symmetry_equiv_pos_as_xyz
  1  'x, y, z'
loop_
 _atom_site_type_symbol
 _atom_site_label
 _atom_site_symmetry_multiplicity
 _atom_site_fract_x
 _atom_site_fract_y
 _atom_site_fract_z
 _atom_site_occupancy
  Ba  Ba0  1  0.528556  0.332464  0.610424  1
  Ba  Ba1  1  0.861019  0.610424  0.667536  1
  Ba  Ba2  1  0.138981  0.389576  0.332464  1
  Ba  Ba3  1  0.471444  0.667536  0.389576  1
  Ba  Ba4  1  0.000000  0.000000  0.000000  1
  Nd  Nd5  1  0.247393  0.584017  0.921197  1
  Nd  Nd6  1  0.831409  0.921197  0.415983  1
  Nd  Nd7  1  0.168591  0.078803  0.584017  1
  Nd  Nd8  1  0.752607  0.415983  0.078803  1
  Ho  Ho9  1  0.412457  0.226434  0.948651  1
  Ho  Ho10  1  0.638891  0.948651  0.773566  1
  Ho  Ho11  1  0.361109  0.051349  0.226434  1
  Ho  Ho12  1  0.587543  0.773566  0.051349  1
  Mn  Mn13  1  0.040349  0.711640  0.207661  1
  Mn  Mn14  1  0.751990  0.207661  0.288360  1
  Mn  Mn15  1  0.248010  0.792339  0.711640  1
  Mn  Mn16  1  0.959651  0.288360  0.792339  1
  O  O17  1  0.890986  0.600753  0.108555  1
  O  O18  1  0.491739  0.108555  0.399247  1
  O  O19  1  0.999541  0.891445  0.600753  1
  O  O20  1  0.600295  0.399247  0.891445  1
  O  O21  1  0.109014  0.399247  0.891445  1
  O  O22  1  0.508261  0.891445  0.600753  1
  O  O23  1  0.000459  0.108555  0.399247  1
  O  O24  1  0.399705  0.600753  0.108555  1
  O  O25  1  0.080677  0.220145  0.129521  1
  O  O26  1  0.300822  0.129521  0.779855  1
  O  O27  1  0.210197  0.870479  0.220145  1
  O  O28  1  0.430343  0.779855  0.870479  1
  O  O29  1  0.919323  0.779855  0.870479  1
  O  O30  1  0.699178  0.870479  0.220145  1
  O  O31  1  0.789803  0.129521  0.779855  1
  O  O32  1  0.569657  0.220145  0.129521  1
  O  O33  1  0.625352  0.408128  0.341166  1
  O  O34  1  0.500000  0.000000  0.000000  1
  O  O35  1  0.374648  0.591872  0.658834  1
  O  O36  1  0.966520  0.658834  0.408128  1
  O  O37  1  0.033480  0.341166  0.591872  1
