# generated using pymatgen
data_Cs12GeMo3Se16
_symmetry_space_group_name_H-M   'P 1'
_cell_length_a   10.34421845
_cell_length_b   10.44364125
_cell_length_c   12.14403900
_cell_angle_alpha   90.00000000
_cell_angle_beta   90.00000000
_cell_angle_gamma   89.83537616
_symmetry_Int_Tables_number   1
_chemical_formula_structural   Cs12GeMo3Se16
_chemical_formula_sum   'Cs12 Ge1 Mo3 Se16'
_cell_volume   1311.93098379
_cell_formula_units_Z   1
loop_
 _symmetry_equiv_pos_site_id
 _symmetry_equiv_pos_as_xyz
  1  'x, y, z'
loop_
 _atom_site_type_symbol
 _atom_site_label
 _atom_site_symmetry_multiplicity
 _atom_site_fract_x
 _atom_site_fract_y
 _atom_site_fract_z
 _atom_site_occupancy
  Cs  Cs0  1  0.543291  0.709003  0.037561  1
  Cs  Cs1  1  0.051180  0.799081  0.463893  1
  Cs  Cs2  1  0.445959  0.288255  0.545854  1
  Cs  Cs3  1  0.963121  0.196948  0.949519  1
  Cs  Cs4  1  0.445959  0.288255  0.954146  1
  Cs  Cs5  1  0.963121  0.196948  0.550481  1
  Cs  Cs6  1  0.543291  0.709003  0.462439  1
  Cs  Cs7  1  0.051180  0.799081  0.036107  1
  Cs  Cs8  1  0.349655  0.086366  0.250000  1
  Cs  Cs9  1  0.853648  0.410397  0.250000  1
  Cs  Cs10  1  0.639640  0.917727  0.750000  1
  Cs  Cs11  1  0.149805  0.591713  0.750000  1
  Ge  Ge12  1  0.225356  0.020049  0.750000  1
  Mo  Mo13  1  0.275644  0.518076  0.250000  1
  Mo  Mo14  1  0.775205  0.980714  0.250000  1
  Mo  Mo15  1  0.725565  0.481702  0.750000  1
  Se  Se16  1  0.292870  0.744180  0.250000  1
  Se  Se17  1  0.790953  0.754384  0.250000  1
  Se  Se18  1  0.707323  0.256545  0.750000  1
  Se  Se19  1  0.205997  0.250567  0.750000  1
  Se  Se20  1  0.486635  0.427531  0.250000  1
  Se  Se21  1  0.986166  0.069731  0.250000  1
  Se  Se22  1  0.515351  0.571682  0.750000  1
  Se  Se23  1  0.012072  0.927201  0.750000  1
  Se  Se24  1  0.164454  0.455113  0.088917  1
  Se  Se25  1  0.664558  0.046427  0.410100  1
  Se  Se26  1  0.835273  0.544287  0.588322  1
  Se  Se27  1  0.336220  0.956603  0.914761  1
  Se  Se28  1  0.835273  0.544287  0.911678  1
  Se  Se29  1  0.336220  0.956603  0.585239  1
  Se  Se30  1  0.164454  0.455113  0.411083  1
  Se  Se31  1  0.664558  0.046427  0.089900  1
