# generated using pymatgen
data_Y9ErSi16Pt
_symmetry_space_group_name_H-M   'P 1'
_cell_length_a   11.11524200
_cell_length_b   11.12539903
_cell_length_c   11.11415800
_cell_angle_alpha   144.77467877
_cell_angle_beta   136.31071670
_cell_angle_gamma   57.29012124
_symmetry_Int_Tables_number   1
_chemical_formula_structural   Y9ErSi16Pt
_chemical_formula_sum   'Y9 Er1 Si16 Pt1'
_cell_volume   543.20135121
_cell_formula_units_Z   1
loop_
 _symmetry_equiv_pos_site_id
 _symmetry_equiv_pos_as_xyz
  1  'x, y, z'
loop_
 _atom_site_type_symbol
 _atom_site_label
 _atom_site_symmetry_multiplicity
 _atom_site_fract_x
 _atom_site_fract_y
 _atom_site_fract_z
 _atom_site_occupancy
  Y  Y0  1  0.051673  0.563116  0.015133  1
  Y  Y1  1  0.352704  0.371998  0.522674  1
  Y  Y2  1  0.151578  0.166547  0.520910  1
  Y  Y3  1  0.451777  0.962582  0.014338  1
  Y  Y4  1  0.645467  0.166166  0.014544  1
  Y  Y5  1  0.948538  0.962907  0.511344  1
  Y  Y6  1  0.849390  0.372210  0.019908  1
  Y  Y7  1  0.547991  0.562930  0.511558  1
  Y  Y8  1  0.248695  0.763150  0.010255  1
  Er  Er9  1  0.752135  0.762605  0.513925  1
  Si  Si10  1  0.117219  0.076031  0.958411  1
  Si  Si11  1  0.798229  0.188281  0.390112  1
  Si  Si12  1  0.300352  0.898868  0.598592  1
  Si  Si13  1  0.400536  0.501202  0.101611  1
  Si  Si14  1  0.886579  0.846785  0.960017  1
  Si  Si15  1  0.103088  0.708795  0.604061  1
  Si  Si16  1  0.200249  0.587613  0.387151  1
  Si  Si17  1  0.697667  0.292693  0.595588  1
  Si  Si18  1  0.999336  0.433019  0.432042  1
  Si  Si19  1  0.712829  0.663950  0.951676  1
  Si  Si20  1  0.601019  0.702949  0.103598  1
  Si  Si21  1  0.999884  0.087215  0.084649  1
  Si  Si22  1  0.501345  0.394680  0.894255  1
  Si  Si23  1  0.286860  0.240696  0.954266  1
  Si  Si24  1  0.584087  0.040148  0.458604  1
  Si  Si25  1  0.415317  0.868848  0.455189  1
  Pt  Pt26  1  0.895457  0.502937  0.604504  1
