# generated using pymatgen
data_Lu4FeCo5Ru2
_symmetry_space_group_name_H-M   'P 1'
_cell_length_a   4.96581962
_cell_length_b   5.03327614
_cell_length_c   8.59932100
_cell_angle_alpha   90.00000000
_cell_angle_beta   90.00000000
_cell_angle_gamma   120.45037719
_symmetry_Int_Tables_number   1
_chemical_formula_structural   Lu4FeCo5Ru2
_chemical_formula_sum   'Lu4 Fe1 Co5 Ru2'
_cell_volume   185.28812571
_cell_formula_units_Z   1
loop_
 _symmetry_equiv_pos_site_id
 _symmetry_equiv_pos_as_xyz
  1  'x, y, z'
loop_
 _atom_site_type_symbol
 _atom_site_label
 _atom_site_symmetry_multiplicity
 _atom_site_fract_x
 _atom_site_fract_y
 _atom_site_fract_z
 _atom_site_occupancy
  Lu  Lu0  1  0.330987  0.665494  0.431795  1
  Lu  Lu1  1  0.662242  0.331121  0.566214  1
  Lu  Lu2  1  0.662242  0.331121  0.933786  1
  Lu  Lu3  1  0.330987  0.665494  0.068205  1
  Fe  Fe4  1  0.671262  0.835631  0.750000  1
  Co  Co5  1  0.829240  0.170061  0.250000  1
  Co  Co6  1  0.829240  0.659178  0.250000  1
  Co  Co7  1  0.343888  0.171944  0.250000  1
  Co  Co8  1  0.177095  0.828676  0.750000  1
  Co  Co9  1  0.177095  0.348420  0.750000  1
  Ru  Ru10  1  0.992860  0.996430  0.498710  1
  Ru  Ru11  1  0.992860  0.996430  0.001290  1
