# generated using pymatgen
data_Tb5Sm2FeI12
_symmetry_space_group_name_H-M   'P 1'
_cell_length_a   9.83401712
_cell_length_b   9.73903447
_cell_length_c   9.82532842
_cell_angle_alpha   106.56522212
_cell_angle_beta   106.86504695
_cell_angle_gamma   106.94979587
_symmetry_Int_Tables_number   1
_chemical_formula_structural   Tb5Sm2FeI12
_chemical_formula_sum   'Tb5 Sm2 Fe1 I12'
_cell_volume   788.04991018
_cell_formula_units_Z   1
loop_
 _symmetry_equiv_pos_site_id
 _symmetry_equiv_pos_as_xyz
  1  'x, y, z'
loop_
 _atom_site_type_symbol
 _atom_site_label
 _atom_site_symmetry_multiplicity
 _atom_site_fract_x
 _atom_site_fract_y
 _atom_site_fract_z
 _atom_site_occupancy
  Tb  Tb0  1  0.022029  0.092032  0.292038  1
  Tb  Tb1  1  0.292465  0.021593  0.093222  1
  Tb  Tb2  1  0.911239  0.720539  0.978818  1
  Tb  Tb3  1  0.977420  0.906302  0.707290  1
  Tb  Tb4  1  0.706801  0.977793  0.906639  1
  Sm  Sm5  1  0.500059  0.499874  0.500218  1
  Sm  Sm6  1  0.089794  0.282866  0.021205  1
  Fe  Fe7  1  0.999824  0.000534  0.999520  1
  I  I8  1  0.463542  0.384198  0.157530  1
  I  I9  1  0.156780  0.461931  0.385752  1
  I  I10  1  0.383610  0.154589  0.461597  1
  I  I11  1  0.540536  0.616105  0.844563  1
  I  I12  1  0.843855  0.538580  0.618073  1
  I  I13  1  0.616315  0.845004  0.538213  1
  I  I14  1  0.771941  0.318861  0.927058  1
  I  I15  1  0.926954  0.772735  0.318024  1
  I  I16  1  0.320240  0.927779  0.774789  1
  I  I17  1  0.224330  0.681679  0.072111  1
  I  I18  1  0.072378  0.224798  0.677794  1
  I  I19  1  0.679889  0.072206  0.225548  1
