# generated using pymatgen
data_Er2ZnGa8Pd3
_symmetry_space_group_name_H-M   'P 1'
_cell_length_a   7.60852009
_cell_length_b   7.60852049
_cell_length_c   9.54886500
_cell_angle_alpha   90.00000000
_cell_angle_beta   90.00000000
_cell_angle_gamma   119.16069173
_symmetry_Int_Tables_number   1
_chemical_formula_structural   Er2ZnGa8Pd3
_chemical_formula_sum   'Er4 Zn2 Ga16 Pd6'
_cell_volume   482.71858802
_cell_formula_units_Z   2
loop_
 _symmetry_equiv_pos_site_id
 _symmetry_equiv_pos_as_xyz
  1  'x, y, z'
loop_
 _atom_site_type_symbol
 _atom_site_label
 _atom_site_symmetry_multiplicity
 _atom_site_fract_x
 _atom_site_fract_y
 _atom_site_fract_z
 _atom_site_occupancy
  Er  Er0  1  0.996745  0.669992  0.250000  1
  Er  Er1  1  0.003255  0.330008  0.750000  1
  Er  Er2  1  0.669992  0.996745  0.250000  1
  Er  Er3  1  0.330008  0.003255  0.750000  1
  Zn  Zn4  1  0.133683  0.133683  0.250000  1
  Zn  Zn5  1  0.866317  0.866317  0.750000  1
  Ga  Ga6  1  0.000489  0.332810  0.083019  1
  Ga  Ga7  1  0.999511  0.667190  0.916981  1
  Ga  Ga8  1  0.999511  0.667190  0.583019  1
  Ga  Ga9  1  0.332810  0.000489  0.416981  1
  Ga  Ga10  1  0.000489  0.332810  0.416981  1
  Ga  Ga11  1  0.667190  0.999511  0.583019  1
  Ga  Ga12  1  0.667190  0.999511  0.916981  1
  Ga  Ga13  1  0.332810  0.000489  0.083019  1
  Ga  Ga14  1  0.330543  0.330543  0.564964  1
  Ga  Ga15  1  0.669457  0.669457  0.435036  1
  Ga  Ga16  1  0.669457  0.669457  0.064964  1
  Ga  Ga17  1  0.330543  0.330543  0.935036  1
  Ga  Ga18  1  0.339984  0.544275  0.250000  1
  Ga  Ga19  1  0.660016  0.455725  0.750000  1
  Ga  Ga20  1  0.544275  0.339984  0.250000  1
  Ga  Ga21  1  0.455725  0.660016  0.750000  1
  Pd  Pd22  1  0.671617  0.328383  0.000000  1
  Pd  Pd23  1  0.328383  0.671617  0.000000  1
  Pd  Pd24  1  0.328383  0.671617  0.500000  1
  Pd  Pd25  1  0.671617  0.328383  0.500000  1
  Pd  Pd26  1  0.000000  0.000000  0.000000  1
  Pd  Pd27  1  0.000000  0.000000  0.500000  1
