# generated using pymatgen
data_Tb3YbEr2Al19Si5Os8
_symmetry_space_group_name_H-M   'P 1'
_cell_length_a   8.69654200
_cell_length_b   8.67262187
_cell_length_c   9.60532900
_cell_angle_alpha   90.00000000
_cell_angle_beta   90.00000000
_cell_angle_gamma   120.09127989
_symmetry_Int_Tables_number   1
_chemical_formula_structural   Tb3YbEr2Al19Si5Os8
_chemical_formula_sum   'Tb3 Yb1 Er2 Al19 Si5 Os8'
_cell_volume   626.81544427
_cell_formula_units_Z   1
loop_
 _symmetry_equiv_pos_site_id
 _symmetry_equiv_pos_as_xyz
  1  'x, y, z'
loop_
 _atom_site_type_symbol
 _atom_site_label
 _atom_site_symmetry_multiplicity
 _atom_site_fract_x
 _atom_site_fract_y
 _atom_site_fract_z
 _atom_site_occupancy
  Tb  Tb0  1  0.805968  0.611937  0.750000  1
  Tb  Tb1  1  0.389050  0.194978  0.750000  1
  Tb  Tb2  1  0.805928  0.194978  0.750000  1
  Yb  Yb3  1  0.194841  0.389685  0.250000  1
  Er  Er4  1  0.607516  0.806066  0.250000  1
  Er  Er5  1  0.198550  0.806066  0.250000  1
  Al  Al6  1  0.165306  0.330611  0.575747  1
  Al  Al7  1  0.834593  0.669186  0.421111  1
  Al  Al8  1  0.668719  0.835143  0.575226  1
  Al  Al9  1  0.834593  0.669186  0.078889  1
  Al  Al10  1  0.329153  0.165555  0.421595  1
  Al  Al11  1  0.165306  0.330611  0.924253  1
  Al  Al12  1  0.166424  0.835143  0.575226  1
  Al  Al13  1  0.329153  0.165555  0.078405  1
  Al  Al14  1  0.836402  0.165555  0.421595  1
  Al  Al15  1  0.668719  0.835143  0.924774  1
  Al  Al16  1  0.836402  0.165555  0.078405  1
  Al  Al17  1  0.166424  0.835143  0.924774  1
  Al  Al18  1  0.436716  0.873431  0.750000  1
  Al  Al19  1  0.873834  0.433167  0.250000  1
  Al  Al20  1  0.128536  0.564967  0.750000  1
  Al  Al21  1  0.559332  0.433167  0.250000  1
  Al  Al22  1  0.436430  0.564967  0.750000  1
  Al  Al23  1  0.999751  0.999502  0.250000  1
  Al  Al24  1  0.000747  0.001495  0.750000  1
  Si  Si25  1  0.332264  0.664527  0.039903  1
  Si  Si26  1  0.667197  0.334391  0.961821  1
  Si  Si27  1  0.667197  0.334391  0.538179  1
  Si  Si28  1  0.332264  0.664527  0.460097  1
  Si  Si29  1  0.563761  0.127521  0.250000  1
  Os  Os30  1  0.500594  0.001187  0.006610  1
  Os  Os31  1  0.998608  0.499774  0.999913  1
  Os  Os32  1  0.500594  0.001187  0.493390  1
  Os  Os33  1  0.501166  0.499774  0.999913  1
  Os  Os34  1  0.998608  0.499774  0.500087  1
  Os  Os35  1  0.501166  0.499774  0.500087  1
  Os  Os36  1  0.999095  0.998189  0.999992  1
  Os  Os37  1  0.999095  0.998189  0.500008  1
