# generated using pymatgen
data_Tb2NdCo8P6W
_symmetry_space_group_name_H-M   'P 1'
_cell_length_a   3.74506600
_cell_length_b   10.60352900
_cell_length_c   12.31805100
_cell_angle_alpha   90.00000000
_cell_angle_beta   90.00000000
_cell_angle_gamma   90.00000000
_symmetry_Int_Tables_number   1
_chemical_formula_structural   Tb2NdCo8P6W
_chemical_formula_sum   'Tb4 Nd2 Co16 P12 W2'
_cell_volume   489.16108778
_cell_formula_units_Z   2
loop_
 _symmetry_equiv_pos_site_id
 _symmetry_equiv_pos_as_xyz
  1  'x, y, z'
loop_
 _atom_site_type_symbol
 _atom_site_label
 _atom_site_symmetry_multiplicity
 _atom_site_fract_x
 _atom_site_fract_y
 _atom_site_fract_z
 _atom_site_occupancy
  Tb  Tb0  1  0.500000  0.819013  0.204094  1
  Tb  Tb1  1  0.500000  0.180987  0.204094  1
  Tb  Tb2  1  0.000000  0.680987  0.795906  1
  Tb  Tb3  1  0.000000  0.319013  0.795906  1
  Nd  Nd4  1  0.000000  0.500000  0.524768  1
  Nd  Nd5  1  0.500000  0.000000  0.475232  1
  Co  Co6  1  0.500000  0.500000  0.704276  1
  Co  Co7  1  0.000000  0.000000  0.295724  1
  Co  Co8  1  0.000000  0.500000  0.987440  1
  Co  Co9  1  0.500000  0.000000  0.012560  1
  Co  Co10  1  0.500000  0.332489  0.990703  1
  Co  Co11  1  0.500000  0.667511  0.990703  1
  Co  Co12  1  0.000000  0.167511  0.009297  1
  Co  Co13  1  0.000000  0.832489  0.009297  1
  Co  Co14  1  0.500000  0.295221  0.430088  1
  Co  Co15  1  0.500000  0.704779  0.430088  1
  Co  Co16  1  0.000000  0.204779  0.569912  1
  Co  Co17  1  0.000000  0.795221  0.569912  1
  Co  Co18  1  0.500000  0.879191  0.709794  1
  Co  Co19  1  0.500000  0.120809  0.709794  1
  Co  Co20  1  0.000000  0.620809  0.290206  1
  Co  Co21  1  0.000000  0.379191  0.290206  1
  P  P22  1  0.500000  0.500000  0.882419  1
  P  P23  1  0.000000  0.000000  0.117581  1
  P  P24  1  0.500000  0.500000  0.346073  1
  P  P25  1  0.000000  0.000000  0.653927  1
  P  P26  1  0.500000  0.307716  0.616867  1
  P  P27  1  0.500000  0.692284  0.616867  1
  P  P28  1  0.000000  0.192284  0.383133  1
  P  P29  1  0.000000  0.807716  0.383133  1
  P  P30  1  0.500000  0.844584  0.893756  1
  P  P31  1  0.500000  0.155416  0.893756  1
  P  P32  1  0.000000  0.655416  0.106244  1
  P  P33  1  0.000000  0.344584  0.106244  1
  W  W34  1  0.500000  0.500000  0.154098  1
  W  W35  1  0.000000  0.000000  0.845902  1
