# generated using pymatgen
data_Tm3Al2GaSi2Rh
_symmetry_space_group_name_H-M   'P 1'
_cell_length_a   6.85564200
_cell_length_b   6.80889153
_cell_length_c   4.19122500
_cell_angle_alpha   90.00000000
_cell_angle_beta   90.00000000
_cell_angle_gamma   120.22737985
_symmetry_Int_Tables_number   1
_chemical_formula_structural   Tm3Al2GaSi2Rh
_chemical_formula_sum   'Tm3 Al2 Ga1 Si2 Rh1'
_cell_volume   169.04273798
_cell_formula_units_Z   1
loop_
 _symmetry_equiv_pos_site_id
 _symmetry_equiv_pos_as_xyz
  1  'x, y, z'
loop_
 _atom_site_type_symbol
 _atom_site_label
 _atom_site_symmetry_multiplicity
 _atom_site_fract_x
 _atom_site_fract_y
 _atom_site_fract_z
 _atom_site_occupancy
  Tm  Tm0  1  0.416190  0.000000  0.000000  1
  Tm  Tm1  1  0.999229  0.414806  0.000000  1
  Tm  Tm2  1  0.584424  0.585194  0.000000  1
  Al  Al3  1  0.235858  0.234768  0.500000  1
  Al  Al4  1  0.001091  0.765233  0.500000  1
  Ga  Ga5  1  0.760374  0.000000  0.500000  1
  Si  Si6  1  0.666133  0.335237  0.500000  1
  Si  Si7  1  0.330896  0.664763  0.500000  1
  Rh  Rh8  1  0.005804  0.000000  0.000000  1
