# generated using pymatgen
data_Y3MnFe7CoP6
_symmetry_space_group_name_H-M   'P 1'
_cell_length_a   3.73131200
_cell_length_b   10.47993100
_cell_length_c   12.21192400
_cell_angle_alpha   90.00000000
_cell_angle_beta   90.00000000
_cell_angle_gamma   90.00000000
_symmetry_Int_Tables_number   1
_chemical_formula_structural   Y3MnFe7CoP6
_chemical_formula_sum   'Y6 Mn2 Fe14 Co2 P12'
_cell_volume   477.53376087
_cell_formula_units_Z   2
loop_
 _symmetry_equiv_pos_site_id
 _symmetry_equiv_pos_as_xyz
  1  'x, y, z'
loop_
 _atom_site_type_symbol
 _atom_site_label
 _atom_site_symmetry_multiplicity
 _atom_site_fract_x
 _atom_site_fract_y
 _atom_site_fract_z
 _atom_site_occupancy
  Y  Y0  1  0.000000  0.500000  0.525297  1
  Y  Y1  1  0.500000  0.000000  0.474703  1
  Y  Y2  1  0.500000  0.820031  0.207140  1
  Y  Y3  1  0.500000  0.179969  0.207140  1
  Y  Y4  1  0.000000  0.679969  0.792860  1
  Y  Y5  1  0.000000  0.320031  0.792860  1
  Mn  Mn6  1  0.500000  0.500000  0.150579  1
  Mn  Mn7  1  0.000000  0.000000  0.849421  1
  Fe  Fe8  1  0.000000  0.500000  0.987907  1
  Fe  Fe9  1  0.500000  0.000000  0.012093  1
  Fe  Fe10  1  0.500000  0.326325  0.996674  1
  Fe  Fe11  1  0.500000  0.673675  0.996674  1
  Fe  Fe12  1  0.000000  0.173675  0.003326  1
  Fe  Fe13  1  0.000000  0.826325  0.003326  1
  Fe  Fe14  1  0.500000  0.298838  0.429751  1
  Fe  Fe15  1  0.500000  0.701162  0.429751  1
  Fe  Fe16  1  0.000000  0.201162  0.570249  1
  Fe  Fe17  1  0.000000  0.798838  0.570249  1
  Fe  Fe18  1  0.500000  0.882564  0.708085  1
  Fe  Fe19  1  0.500000  0.117436  0.708085  1
  Fe  Fe20  1  0.000000  0.617436  0.291915  1
  Fe  Fe21  1  0.000000  0.382564  0.291915  1
  Co  Co22  1  0.500000  0.500000  0.699377  1
  Co  Co23  1  0.000000  0.000000  0.300623  1
  P  P24  1  0.500000  0.500000  0.884907  1
  P  P25  1  0.000000  0.000000  0.115093  1
  P  P26  1  0.500000  0.500000  0.341278  1
  P  P27  1  0.000000  0.000000  0.658722  1
  P  P28  1  0.500000  0.305443  0.613521  1
  P  P29  1  0.500000  0.694557  0.613521  1
  P  P30  1  0.000000  0.194557  0.386479  1
  P  P31  1  0.000000  0.805443  0.386479  1
  P  P32  1  0.500000  0.850529  0.888797  1
  P  P33  1  0.500000  0.149471  0.888797  1
  P  P34  1  0.000000  0.649471  0.111203  1
  P  P35  1  0.000000  0.350529  0.111203  1
