# generated using pymatgen
data_Ca2Yb2B15C
_symmetry_space_group_name_H-M   'P 1'
_cell_length_a   7.03073373
_cell_length_b   7.03073429
_cell_length_c   4.10095200
_cell_angle_alpha   90.00000000
_cell_angle_beta   90.00000000
_cell_angle_gamma   90.59311755
_symmetry_Int_Tables_number   1
_chemical_formula_structural   Ca2Yb2B15C
_chemical_formula_sum   'Ca2 Yb2 B15 C1'
_cell_volume   202.70420197
_cell_formula_units_Z   1
loop_
 _symmetry_equiv_pos_site_id
 _symmetry_equiv_pos_as_xyz
  1  'x, y, z'
loop_
 _atom_site_type_symbol
 _atom_site_label
 _atom_site_symmetry_multiplicity
 _atom_site_fract_x
 _atom_site_fract_y
 _atom_site_fract_z
 _atom_site_occupancy
  Ca  Ca0  1  0.318247  0.181753  0.000000  1
  Ca  Ca1  1  0.676348  0.823652  0.000000  1
  Yb  Yb2  1  0.815419  0.313836  0.000000  1
  Yb  Yb3  1  0.186164  0.684581  0.000000  1
  B  B4  1  0.505000  0.502871  0.795114  1
  B  B5  1  0.997129  0.995000  0.795114  1
  B  B6  1  0.505000  0.502871  0.204886  1
  B  B7  1  0.997129  0.995000  0.204886  1
  B  B8  1  0.077623  0.422377  0.500000  1
  B  B9  1  0.412986  0.915383  0.500000  1
  B  B10  1  0.584617  0.087014  0.500000  1
  B  B11  1  0.685807  0.539510  0.500000  1
  B  B12  1  0.326526  0.468752  0.500000  1
  B  B13  1  0.173793  0.959505  0.500000  1
  B  B14  1  0.820929  0.031147  0.500000  1
  B  B15  1  0.468853  0.679071  0.500000  1
  B  B16  1  0.540495  0.326207  0.500000  1
  B  B17  1  0.031248  0.173474  0.500000  1
  B  B18  1  0.960490  0.814193  0.500000  1
  C  C19  1  0.916197  0.583803  0.500000  1
