# generated using pymatgen
data_Li2Tb8Sc10Si15Sn
_symmetry_space_group_name_H-M   'P 1'
_cell_length_a   7.04955718
_cell_length_b   7.45571192
_cell_length_c   14.08161121
_cell_angle_alpha   90.00910228
_cell_angle_beta   89.67004829
_cell_angle_gamma   90.08121061
_symmetry_Int_Tables_number   1
_chemical_formula_structural   Li2Tb8Sc10Si15Sn
_chemical_formula_sum   'Li2 Tb8 Sc10 Si15 Sn1'
_cell_volume   740.10896182
_cell_formula_units_Z   1
loop_
 _symmetry_equiv_pos_site_id
 _symmetry_equiv_pos_as_xyz
  1  'x, y, z'
loop_
 _atom_site_type_symbol
 _atom_site_label
 _atom_site_symmetry_multiplicity
 _atom_site_fract_x
 _atom_site_fract_y
 _atom_site_fract_z
 _atom_site_occupancy
  Li  Li0  1  0.160130  0.503101  0.753371  1
  Li  Li1  1  0.839582  0.496814  0.248832  1
  Tb  Tb2  1  0.010469  0.183881  0.098601  1
  Tb  Tb3  1  0.989556  0.816815  0.902175  1
  Tb  Tb4  1  0.484035  0.674273  0.902706  1
  Tb  Tb5  1  0.989190  0.824465  0.599579  1
  Tb  Tb6  1  0.515257  0.325426  0.098024  1
  Tb  Tb7  1  0.005423  0.177116  0.397522  1
  Tb  Tb8  1  0.518616  0.322607  0.397895  1
  Tb  Tb9  1  0.496532  0.683918  0.601086  1
  Sc  Sc10  1  0.339269  0.001901  0.249284  1
  Sc  Sc11  1  0.662576  0.997533  0.752151  1
  Sc  Sc12  1  0.338794  0.168070  0.631103  1
  Sc  Sc13  1  0.669085  0.818829  0.371947  1
  Sc  Sc14  1  0.160884  0.679905  0.368542  1
  Sc  Sc15  1  0.672140  0.817260  0.124683  1
  Sc  Sc16  1  0.823524  0.324383  0.627324  1
  Sc  Sc17  1  0.325856  0.181597  0.875353  1
  Sc  Sc18  1  0.834518  0.325751  0.874283  1
  Sc  Sc19  1  0.166206  0.674155  0.125965  1
  Si  Si20  1  0.031730  0.106884  0.751779  1
  Si  Si21  1  0.967924  0.895367  0.246838  1
  Si  Si22  1  0.461996  0.615161  0.248561  1
  Si  Si23  1  0.535472  0.386401  0.752303  1
  Si  Si24  1  0.288482  0.881947  0.752008  1
  Si  Si25  1  0.709451  0.114764  0.247772  1
  Si  Si26  1  0.219327  0.375244  0.249317  1
  Si  Si27  1  0.782538  0.624777  0.751539  1
  Si  Si28  1  0.831035  0.542583  0.464672  1
  Si  Si29  1  0.341866  0.965624  0.460751  1
  Si  Si30  1  0.841936  0.537925  0.033825  1
  Si  Si31  1  0.658027  0.035811  0.536181  1
  Si  Si32  1  0.157774  0.461829  0.966693  1
  Si  Si33  1  0.654974  0.033296  0.961383  1
  Si  Si34  1  0.344663  0.966871  0.039198  1
  Sn  Sn35  1  0.171164  0.457717  0.536754  1
