# generated using pymatgen
data_Lu12TcOs2Rh
_symmetry_space_group_name_H-M   'P 1'
_cell_length_a   7.29967306
_cell_length_b   8.86316200
_cell_length_c   6.15521105
_cell_angle_alpha   90.00000000
_cell_angle_beta   90.01427590
_cell_angle_gamma   90.00000000
_symmetry_Int_Tables_number   1
_chemical_formula_structural   Lu12TcOs2Rh
_chemical_formula_sum   'Lu12 Tc1 Os2 Rh1'
_cell_volume   398.23096979
_cell_formula_units_Z   1
loop_
 _symmetry_equiv_pos_site_id
 _symmetry_equiv_pos_as_xyz
  1  'x, y, z'
loop_
 _atom_site_type_symbol
 _atom_site_label
 _atom_site_symmetry_multiplicity
 _atom_site_fract_x
 _atom_site_fract_y
 _atom_site_fract_z
 _atom_site_occupancy
  Lu  Lu0  1  0.673540  0.060091  0.337892  1
  Lu  Lu1  1  0.177212  0.439605  0.163959  1
  Lu  Lu2  1  0.325155  0.562116  0.665132  1
  Lu  Lu3  1  0.823437  0.935012  0.831635  1
  Lu  Lu4  1  0.325155  0.937884  0.665132  1
  Lu  Lu5  1  0.823437  0.564988  0.831635  1
  Lu  Lu6  1  0.673540  0.439909  0.337892  1
  Lu  Lu7  1  0.177212  0.060395  0.163959  1
  Lu  Lu8  1  0.538355  0.250000  0.875171  1
  Lu  Lu9  1  0.040165  0.250000  0.627018  1
  Lu  Lu10  1  0.461002  0.750000  0.128434  1
  Lu  Lu11  1  0.960560  0.750000  0.371239  1
  Tc  Tc12  1  0.383394  0.250000  0.461394  1
  Os  Os13  1  0.116095  0.750000  0.961639  1
  Os  Os14  1  0.618047  0.750000  0.539274  1
  Rh  Rh15  1  0.883688  0.250000  0.038595  1
