# generated using pymatgen
data_Ta12Si7Os5C4
_symmetry_space_group_name_H-M   'P 1'
_cell_length_a   8.22250298
_cell_length_b   8.22250328
_cell_length_c   8.22225700
_cell_angle_alpha   60.32782871
_cell_angle_beta   60.32782753
_cell_angle_gamma   60.32303740
_symmetry_Int_Tables_number   1
_chemical_formula_structural   Ta12Si7Os5C4
_chemical_formula_sum   'Ta12 Si7 Os5 C4'
_cell_volume   395.98428014
_cell_formula_units_Z   1
loop_
 _symmetry_equiv_pos_site_id
 _symmetry_equiv_pos_as_xyz
  1  'x, y, z'
loop_
 _atom_site_type_symbol
 _atom_site_label
 _atom_site_symmetry_multiplicity
 _atom_site_fract_x
 _atom_site_fract_y
 _atom_site_fract_z
 _atom_site_occupancy
  Ta  Ta0  1  0.809816  0.809823  0.193942  1
  Ta  Ta1  1  0.190262  0.190270  0.809663  1
  Ta  Ta2  1  0.809790  0.193977  0.809795  1
  Ta  Ta3  1  0.190299  0.809632  0.190295  1
  Ta  Ta4  1  0.193966  0.809804  0.809801  1
  Ta  Ta5  1  0.809641  0.190297  0.190285  1
  Ta  Ta6  1  0.437847  0.437853  0.060409  1
  Ta  Ta7  1  0.059609  0.059597  0.442555  1
  Ta  Ta8  1  0.437834  0.060428  0.437834  1
  Ta  Ta9  1  0.059634  0.442531  0.059622  1
  Ta  Ta10  1  0.060435  0.437833  0.437828  1
  Ta  Ta11  1  0.442533  0.059623  0.059622  1
  Si  Si12  1  0.756484  0.413188  0.413191  1
  Si  Si13  1  0.413187  0.756472  0.413194  1
  Si  Si14  1  0.413187  0.413192  0.756475  1
  Si  Si15  1  0.412783  0.412779  0.412777  1
  Si  Si16  1  0.498164  0.835576  0.835575  1
  Si  Si17  1  0.835575  0.498174  0.835568  1
  Si  Si18  1  0.835576  0.835572  0.498157  1
  Os  Os19  1  0.130992  0.617987  0.618010  1
  Os  Os20  1  0.617990  0.130993  0.618007  1
  Os  Os21  1  0.618008  0.618001  0.131007  1
  Os  Os22  1  0.624346  0.624344  0.624325  1
  Os  Os23  1  0.840325  0.840316  0.840331  1
  C  C24  1  0.626098  0.125316  0.125297  1
  C  C25  1  0.125305  0.626108  0.125296  1
  C  C26  1  0.125289  0.125299  0.626101  1
  C  C27  1  0.125020  0.125011  0.125034  1
