# generated using pymatgen
data_GdSb3Pb4O13
_symmetry_space_group_name_H-M   'P 1'
_cell_length_a   7.71376192
_cell_length_b   7.71376335
_cell_length_c   7.71376345
_cell_angle_alpha   59.54617552
_cell_angle_beta   59.54616966
_cell_angle_gamma   59.54617339
_symmetry_Int_Tables_number   1
_chemical_formula_structural   GdSb3Pb4O13
_chemical_formula_sum   'Gd1 Sb3 Pb4 O13'
_cell_volume   321.20284090
_cell_formula_units_Z   1
loop_
 _symmetry_equiv_pos_site_id
 _symmetry_equiv_pos_as_xyz
  1  'x, y, z'
loop_
 _atom_site_type_symbol
 _atom_site_label
 _atom_site_symmetry_multiplicity
 _atom_site_fract_x
 _atom_site_fract_y
 _atom_site_fract_z
 _atom_site_occupancy
  Gd  Gd0  1  0.500077  0.500078  0.500078  1
  Sb  Sb1  1  0.001127  0.500007  0.500007  1
  Sb  Sb2  1  0.500007  0.500007  0.001127  1
  Sb  Sb3  1  0.500007  0.001127  0.500007  1
  Pb  Pb4  1  0.999020  0.999020  0.999020  1
  Pb  Pb5  1  0.497493  0.003279  0.003279  1
  Pb  Pb6  1  0.003278  0.003280  0.497494  1
  Pb  Pb7  1  0.003278  0.497494  0.003279  1
  O  O8  1  0.861243  0.413562  0.413562  1
  O  O9  1  0.417833  0.813715  0.813715  1
  O  O10  1  0.413563  0.413563  0.861243  1
  O  O11  1  0.813715  0.813715  0.417833  1
  O  O12  1  0.813715  0.417832  0.813715  1
  O  O13  1  0.413563  0.861243  0.413562  1
  O  O14  1  0.144740  0.582787  0.582787  1
  O  O15  1  0.582010  0.186717  0.186717  1
  O  O16  1  0.582787  0.582787  0.144741  1
  O  O17  1  0.186718  0.186717  0.582010  1
  O  O18  1  0.186718  0.582009  0.186718  1
  O  O19  1  0.582787  0.144741  0.582787  1
  O  O20  1  0.121321  0.121321  0.121321  1
