# generated using pymatgen
data_Pr20Ga4Si7Tc
_symmetry_space_group_name_H-M   'P 1'
_cell_length_a   7.88408013
_cell_length_b   7.88407925
_cell_length_c   14.45910179
_cell_angle_alpha   89.69699340
_cell_angle_beta   90.30300876
_cell_angle_gamma   89.64381512
_symmetry_Int_Tables_number   1
_chemical_formula_structural   Pr20Ga4Si7Tc
_chemical_formula_sum   'Pr20 Ga4 Si7 Tc1'
_cell_volume   898.71649246
_cell_formula_units_Z   1
loop_
 _symmetry_equiv_pos_site_id
 _symmetry_equiv_pos_as_xyz
  1  'x, y, z'
loop_
 _atom_site_type_symbol
 _atom_site_label
 _atom_site_symmetry_multiplicity
 _atom_site_fract_x
 _atom_site_fract_y
 _atom_site_fract_z
 _atom_site_occupancy
  Pr  Pr0  1  0.814890  0.833165  0.607132  1
  Pr  Pr1  1  0.180092  0.840982  0.111237  1
  Pr  Pr2  1  0.163245  0.821146  0.389225  1
  Pr  Pr3  1  0.999660  0.498628  0.724334  1
  Pr  Pr4  1  0.840982  0.180092  0.388763  1
  Pr  Pr5  1  0.683162  0.666636  0.394743  1
  Pr  Pr6  1  0.663878  0.313939  0.606287  1
  Pr  Pr7  1  0.331751  0.686294  0.606512  1
  Pr  Pr8  1  0.005657  0.495414  0.224614  1
  Pr  Pr9  1  0.666636  0.683162  0.105257  1
  Pr  Pr10  1  0.686294  0.331751  0.893488  1
  Pr  Pr11  1  0.833165  0.814890  0.892868  1
  Pr  Pr12  1  0.309572  0.333745  0.390435  1
  Pr  Pr13  1  0.185278  0.168372  0.609510  1
  Pr  Pr14  1  0.821146  0.163245  0.110775  1
  Pr  Pr15  1  0.313939  0.663878  0.893713  1
  Pr  Pr16  1  0.333745  0.309572  0.109565  1
  Pr  Pr17  1  0.495414  0.005657  0.275386  1
  Pr  Pr18  1  0.168372  0.185278  0.890490  1
  Pr  Pr19  1  0.498628  0.999660  0.775666  1
  Ga  Ga20  1  0.997690  0.500057  0.504895  1
  Ga  Ga21  1  0.501051  0.999725  0.497167  1
  Ga  Ga22  1  0.500057  0.997690  0.995105  1
  Ga  Ga23  1  0.999725  0.501051  0.002833  1
  Si  Si24  1  0.617144  0.389909  0.250988  1
  Si  Si25  1  0.113845  0.885350  0.750268  1
  Si  Si26  1  0.385785  0.385785  0.750000  1
  Si  Si27  1  0.389909  0.617144  0.249012  1
  Si  Si28  1  0.881454  0.881454  0.250000  1
  Si  Si29  1  0.613672  0.613672  0.750000  1
  Si  Si30  1  0.885350  0.113845  0.749732  1
  Tc  Tc31  1  0.118812  0.118812  0.250000  1
