# generated using pymatgen
data_Tb2Dy2NiB16Ir3
_symmetry_space_group_name_H-M   'P 1'
_cell_length_a   6.97632196
_cell_length_b   6.97632157
_cell_length_c   6.97632123
_cell_angle_alpha   111.32682277
_cell_angle_beta   112.29662734
_cell_angle_gamma   104.88684835
_symmetry_Int_Tables_number   1
_chemical_formula_structural   Tb2Dy2NiB16Ir3
_chemical_formula_sum   'Tb2 Dy2 Ni1 B16 Ir3'
_cell_volume   260.10905319
_cell_formula_units_Z   1
loop_
 _symmetry_equiv_pos_site_id
 _symmetry_equiv_pos_as_xyz
  1  'x, y, z'
loop_
 _atom_site_type_symbol
 _atom_site_label
 _atom_site_symmetry_multiplicity
 _atom_site_fract_x
 _atom_site_fract_y
 _atom_site_fract_z
 _atom_site_occupancy
  Tb  Tb0  1  0.787407  0.790399  0.002991  1
  Tb  Tb1  1  0.212593  0.215585  0.002991  1
  Dy  Dy2  1  0.751555  0.252283  0.500729  1
  Dy  Dy3  1  0.248445  0.749175  0.500729  1
  Ni  Ni4  1  0.500000  0.255504  0.755504  1
  B  B5  1  0.270105  0.108654  0.378758  1
  B  B6  1  0.735354  0.893926  0.629280  1
  B  B7  1  0.264646  0.893926  0.158572  1
  B  B8  1  0.729895  0.108654  0.838549  1
  B  B9  1  0.108150  0.731671  0.839821  1
  B  B10  1  0.891034  0.264827  0.155861  1
  B  B11  1  0.108966  0.264827  0.373793  1
  B  B12  1  0.891850  0.731671  0.623519  1
  B  B13  1  0.117926  0.112818  0.531654  1
  B  B14  1  0.584700  0.584312  0.474790  1
  B  B15  1  0.109524  0.584312  0.999613  1
  B  B16  1  0.581163  0.112818  0.994892  1
  B  B17  1  0.890476  0.890089  0.474790  1
  B  B18  1  0.418837  0.413729  0.531654  1
  B  B19  1  0.882074  0.413729  0.994892  1
  B  B20  1  0.415300  0.890089  0.999613  1
  Ir  Ir21  1  0.266720  0.496815  0.763535  1
  Ir  Ir22  1  0.733280  0.496815  0.230095  1
  Ir  Ir23  1  0.500000  0.743375  0.243375  1
