# generated using pymatgen
data_Ce2Tm3Mn2
_symmetry_space_group_name_H-M   'P 1'
_cell_length_a   6.32090582
_cell_length_b   6.79374039
_cell_length_c   8.65815465
_cell_angle_alpha   95.42837534
_cell_angle_beta   111.40920195
_cell_angle_gamma   89.99999983
_symmetry_Int_Tables_number   1
_chemical_formula_structural   Ce2Tm3Mn2
_chemical_formula_sum   'Ce4 Tm6 Mn4'
_cell_volume   344.35646462
_cell_formula_units_Z   2
loop_
 _symmetry_equiv_pos_site_id
 _symmetry_equiv_pos_as_xyz
  1  'x, y, z'
loop_
 _atom_site_type_symbol
 _atom_site_label
 _atom_site_symmetry_multiplicity
 _atom_site_fract_x
 _atom_site_fract_y
 _atom_site_fract_z
 _atom_site_occupancy
  Ce  Ce0  1  0.780678  0.111658  0.808538  1
  Ce  Ce1  1  0.972140  0.388342  0.191462  1
  Ce  Ce2  1  0.219322  0.888342  0.191462  1
  Ce  Ce3  1  0.027860  0.611658  0.808538  1
  Tm  Tm4  1  0.209214  0.186999  0.569554  1
  Tm  Tm5  1  0.639660  0.313001  0.430446  1
  Tm  Tm6  1  0.790786  0.813001  0.430446  1
  Tm  Tm7  1  0.360340  0.686999  0.569554  1
  Tm  Tm8  1  0.423027  0.250000  0.000000  1
  Tm  Tm9  1  0.576973  0.750000  0.000000  1
  Mn  Mn10  1  0.640368  0.395074  0.779238  1
  Mn  Mn11  1  0.861129  0.104926  0.220762  1
  Mn  Mn12  1  0.359632  0.604926  0.220762  1
  Mn  Mn13  1  0.138871  0.895074  0.779238  1
