# generated using pymatgen
data_Dy3Y(ReB6)2
_symmetry_space_group_name_H-M   'P 1'
_cell_length_a   3.68767100
_cell_length_b   9.18440803
_cell_length_c   11.57051201
_cell_angle_alpha   89.99387452
_cell_angle_beta   90.00000000
_cell_angle_gamma   90.00000000
_symmetry_Int_Tables_number   1
_chemical_formula_structural   Dy3Y(ReB6)2
_chemical_formula_sum   'Dy6 Y2 Re4 B24'
_cell_volume   391.88253817
_cell_formula_units_Z   2
loop_
 _symmetry_equiv_pos_site_id
 _symmetry_equiv_pos_as_xyz
  1  'x, y, z'
loop_
 _atom_site_type_symbol
 _atom_site_label
 _atom_site_symmetry_multiplicity
 _atom_site_fract_x
 _atom_site_fract_y
 _atom_site_fract_z
 _atom_site_occupancy
  Dy  Dy0  1  0.000000  0.823351  0.086084  1
  Dy  Dy1  1  0.000000  0.176649  0.913916  1
  Dy  Dy2  1  0.000000  0.942551  0.369981  1
  Dy  Dy3  1  0.000000  0.057449  0.630019  1
  Dy  Dy4  1  0.000000  0.442551  0.129956  1
  Dy  Dy5  1  0.000000  0.557449  0.870044  1
  Y  Y6  1  0.000000  0.323129  0.413965  1
  Y  Y7  1  0.000000  0.676871  0.586035  1
  Re  Re8  1  0.000000  0.638029  0.320751  1
  Re  Re9  1  0.000000  0.361971  0.679249  1
  Re  Re10  1  0.000000  0.137819  0.178956  1
  Re  Re11  1  0.000000  0.862181  0.821044  1
  B  B12  1  0.500000  0.552972  0.432737  1
  B  B13  1  0.500000  0.447028  0.567263  1
  B  B14  1  0.500000  0.052902  0.067087  1
  B  B15  1  0.500000  0.947098  0.932913  1
  B  B16  1  0.500000  0.748450  0.418166  1
  B  B17  1  0.500000  0.251550  0.581834  1
  B  B18  1  0.500000  0.248348  0.081524  1
  B  B19  1  0.500000  0.751652  0.918476  1
  B  B20  1  0.500000  0.791271  0.265367  1
  B  B21  1  0.500000  0.208729  0.734633  1
  B  B22  1  0.500000  0.291179  0.234312  1
  B  B23  1  0.500000  0.708821  0.765688  1
  B  B24  1  0.500000  0.630369  0.185705  1
  B  B25  1  0.500000  0.369631  0.814295  1
  B  B26  1  0.500000  0.130155  0.314069  1
  B  B27  1  0.500000  0.869845  0.685931  1
  B  B28  1  0.500000  0.981818  0.211730  1
  B  B29  1  0.500000  0.018182  0.788270  1
  B  B30  1  0.500000  0.481960  0.288015  1
  B  B31  1  0.500000  0.518040  0.711985  1
  B  B32  1  0.500000  0.600079  0.028110  1
  B  B33  1  0.500000  0.399921  0.971890  1
  B  B34  1  0.500000  0.099875  0.471921  1
  B  B35  1  0.500000  0.900125  0.528079  1
