# generated using pymatgen
data_Ho20Cd6PdRh
_symmetry_space_group_name_H-M   'P 1'
_cell_length_a   9.56776100
_cell_length_b   9.56776118
_cell_length_c   9.85036900
_cell_angle_alpha   90.00000000
_cell_angle_beta   90.00000000
_cell_angle_gamma   120.00000284
_symmetry_Int_Tables_number   1
_chemical_formula_structural   Ho20Cd6PdRh
_chemical_formula_sum   'Ho20 Cd6 Pd1 Rh1'
_cell_volume   780.91499737
_cell_formula_units_Z   1
loop_
 _symmetry_equiv_pos_site_id
 _symmetry_equiv_pos_as_xyz
  1  'x, y, z'
loop_
 _atom_site_type_symbol
 _atom_site_label
 _atom_site_symmetry_multiplicity
 _atom_site_fract_x
 _atom_site_fract_y
 _atom_site_fract_z
 _atom_site_occupancy
  Ho  Ho0  1  0.209695  0.790305  0.941255  1
  Ho  Ho1  1  0.209695  0.419390  0.941255  1
  Ho  Ho2  1  0.580610  0.790305  0.941255  1
  Ho  Ho3  1  0.791542  0.208458  0.056367  1
  Ho  Ho4  1  0.791542  0.583083  0.056367  1
  Ho  Ho5  1  0.416917  0.208458  0.056367  1
  Ho  Ho6  1  0.791542  0.208458  0.443633  1
  Ho  Ho7  1  0.791542  0.583083  0.443633  1
  Ho  Ho8  1  0.416917  0.208458  0.443633  1
  Ho  Ho9  1  0.209695  0.790305  0.558745  1
  Ho  Ho10  1  0.209695  0.419390  0.558745  1
  Ho  Ho11  1  0.580610  0.790305  0.558745  1
  Ho  Ho12  1  0.541911  0.458089  0.750000  1
  Ho  Ho13  1  0.541911  0.083822  0.750000  1
  Ho  Ho14  1  0.916178  0.458089  0.750000  1
  Ho  Ho15  1  0.457223  0.542777  0.250000  1
  Ho  Ho16  1  0.457223  0.914446  0.250000  1
  Ho  Ho17  1  0.085554  0.542777  0.250000  1
  Ho  Ho18  1  0.000000  0.000000  0.000470  1
  Ho  Ho19  1  0.000000  0.000000  0.499530  1
  Cd  Cd20  1  0.885406  0.114594  0.750000  1
  Cd  Cd21  1  0.885406  0.770813  0.750000  1
  Cd  Cd22  1  0.229187  0.114594  0.750000  1
  Cd  Cd23  1  0.114714  0.885286  0.250000  1
  Cd  Cd24  1  0.114714  0.229428  0.250000  1
  Cd  Cd25  1  0.770572  0.885286  0.250000  1
  Pd  Pd26  1  0.666667  0.333333  0.250000  1
  Rh  Rh27  1  0.333333  0.666667  0.750000  1
