# generated using pymatgen
data_BaLi2SmSi4
_symmetry_space_group_name_H-M   'P 1'
_cell_length_a   3.90705100
_cell_length_b   8.09685778
_cell_length_c   10.97673778
_cell_angle_alpha   89.96607235
_cell_angle_beta   90.00000000
_cell_angle_gamma   90.00000000
_symmetry_Int_Tables_number   1
_chemical_formula_structural   BaLi2SmSi4
_chemical_formula_sum   'Ba2 Li4 Sm2 Si8'
_cell_volume   347.24724185
_cell_formula_units_Z   2
loop_
 _symmetry_equiv_pos_site_id
 _symmetry_equiv_pos_as_xyz
  1  'x, y, z'
loop_
 _atom_site_type_symbol
 _atom_site_label
 _atom_site_symmetry_multiplicity
 _atom_site_fract_x
 _atom_site_fract_y
 _atom_site_fract_z
 _atom_site_occupancy
  Ba  Ba0  1  0.250000  0.638222  0.633424  1
  Ba  Ba1  1  0.750000  0.361778  0.366576  1
  Li  Li2  1  0.250000  0.006325  0.384521  1
  Li  Li3  1  0.750000  0.993675  0.615479  1
  Li  Li4  1  0.250000  0.493244  0.104678  1
  Li  Li5  1  0.750000  0.506756  0.895322  1
  Sm  Sm6  1  0.250000  0.122415  0.869510  1
  Sm  Sm7  1  0.750000  0.877585  0.130490  1
  Si  Si8  1  0.750000  0.261014  0.059221  1
  Si  Si9  1  0.250000  0.738986  0.940779  1
  Si  Si10  1  0.750000  0.790405  0.410645  1
  Si  Si11  1  0.250000  0.209595  0.589355  1
  Si  Si12  1  0.750000  0.839915  0.837630  1
  Si  Si13  1  0.250000  0.160085  0.162370  1
  Si  Si14  1  0.750000  0.310996  0.692724  1
  Si  Si15  1  0.250000  0.689004  0.307276  1
