# generated using pymatgen
data_Tb15Ce(CdOs)4
_symmetry_space_group_name_H-M   'P 1'
_cell_length_a   9.72386430
_cell_length_b   9.72386447
_cell_length_c   9.72386483
_cell_angle_alpha   59.38031259
_cell_angle_beta   59.38031162
_cell_angle_gamma   59.38031084
_symmetry_Int_Tables_number   1
_chemical_formula_structural   Tb15Ce(CdOs)4
_chemical_formula_sum   'Tb15 Ce1 Cd4 Os4'
_cell_volume   640.96305563
_cell_formula_units_Z   1
loop_
 _symmetry_equiv_pos_site_id
 _symmetry_equiv_pos_as_xyz
  1  'x, y, z'
loop_
 _atom_site_type_symbol
 _atom_site_label
 _atom_site_symmetry_multiplicity
 _atom_site_fract_x
 _atom_site_fract_y
 _atom_site_fract_z
 _atom_site_occupancy
  Tb  Tb0  1  0.560392  0.560392  0.940085  1
  Tb  Tb1  1  0.939934  0.559656  0.939934  1
  Tb  Tb2  1  0.559656  0.939934  0.939934  1
  Tb  Tb3  1  0.939934  0.939934  0.559656  1
  Tb  Tb4  1  0.560392  0.940085  0.560392  1
  Tb  Tb5  1  0.940085  0.560392  0.560392  1
  Tb  Tb6  1  0.190180  0.190180  0.811186  1
  Tb  Tb7  1  0.810352  0.189020  0.810352  1
  Tb  Tb8  1  0.189019  0.810353  0.810352  1
  Tb  Tb9  1  0.810352  0.810353  0.189020  1
  Tb  Tb10  1  0.190179  0.811186  0.190179  1
  Tb  Tb11  1  0.811186  0.190180  0.190180  1
  Tb  Tb12  1  0.346264  0.346264  0.959013  1
  Tb  Tb13  1  0.346264  0.959013  0.346264  1
  Tb  Tb14  1  0.959013  0.346264  0.346264  1
  Ce  Ce15  1  0.342560  0.342560  0.342560  1
  Cd  Cd16  1  0.579574  0.579574  0.258611  1
  Cd  Cd17  1  0.579574  0.258611  0.579574  1
  Cd  Cd18  1  0.258611  0.579574  0.579574  1
  Cd  Cd19  1  0.579726  0.579726  0.579726  1
  Os  Os20  1  0.144480  0.144480  0.578566  1
  Os  Os21  1  0.144480  0.578566  0.144480  1
  Os  Os22  1  0.578566  0.144480  0.144480  1
  Os  Os23  1  0.139227  0.139227  0.139227  1
