# generated using pymatgen
data_Ho8Er12(Ir3Os)3
_symmetry_space_group_name_H-M   'P 1'
_cell_length_a   10.78078400
_cell_length_b   10.78078400
_cell_length_c   6.36234800
_cell_angle_alpha   90.00000000
_cell_angle_beta   90.00000000
_cell_angle_gamma   90.00000000
_symmetry_Int_Tables_number   1
_chemical_formula_structural   Ho8Er12(Ir3Os)3
_chemical_formula_sum   'Ho8 Er12 Ir9 Os3'
_cell_volume   739.46582826
_cell_formula_units_Z   1
loop_
 _symmetry_equiv_pos_site_id
 _symmetry_equiv_pos_as_xyz
  1  'x, y, z'
loop_
 _atom_site_type_symbol
 _atom_site_label
 _atom_site_symmetry_multiplicity
 _atom_site_fract_x
 _atom_site_fract_y
 _atom_site_fract_z
 _atom_site_occupancy
  Ho  Ho0  1  0.293331  0.086355  0.376676  1
  Ho  Ho1  1  0.293349  0.913931  0.876852  1
  Ho  Ho2  1  0.706651  0.086069  0.876852  1
  Ho  Ho3  1  0.706669  0.913645  0.376676  1
  Ho  Ho4  1  0.586069  0.793349  0.876852  1
  Ho  Ho5  1  0.586355  0.206669  0.376676  1
  Ho  Ho6  1  0.413645  0.793331  0.376676  1
  Ho  Ho7  1  0.413931  0.206651  0.876852  1
  Er  Er8  1  0.207859  0.413401  0.624800  1
  Er  Er9  1  0.207460  0.586783  0.120804  1
  Er  Er10  1  0.792540  0.413217  0.120804  1
  Er  Er11  1  0.792141  0.586599  0.624800  1
  Er  Er12  1  0.913217  0.707460  0.120804  1
  Er  Er13  1  0.913401  0.292141  0.624800  1
  Er  Er14  1  0.086599  0.707859  0.624800  1
  Er  Er15  1  0.086783  0.292540  0.120804  1
  Er  Er16  1  0.000000  0.000000  0.499692  1
  Er  Er17  1  0.000000  0.000000  0.999848  1
  Er  Er18  1  0.500000  0.500000  0.999848  1
  Er  Er19  1  0.500000  0.500000  0.499692  1
  Ir  Ir20  1  0.848503  0.153434  0.250437  1
  Ir  Ir21  1  0.848269  0.846813  0.749877  1
  Ir  Ir22  1  0.151731  0.153187  0.749877  1
  Ir  Ir23  1  0.151497  0.846566  0.250437  1
  Ir  Ir24  1  0.653187  0.348269  0.749877  1
  Ir  Ir25  1  0.653434  0.651497  0.250437  1
  Ir  Ir26  1  0.346566  0.348503  0.250437  1
  Ir  Ir27  1  0.346813  0.651731  0.749877  1
  Ir  Ir28  1  0.000000  0.500000  0.378917  1
  Os  Os29  1  0.500000  0.000000  0.123454  1
  Os  Os30  1  0.500000  0.000000  0.623250  1
  Os  Os31  1  0.000000  0.500000  0.877518  1
