# generated using pymatgen
data_Y3ThCdRu
_symmetry_space_group_name_H-M   'P 1'
_cell_length_a   9.73721341
_cell_length_b   9.73721307
_cell_length_c   9.73721300
_cell_angle_alpha   59.99999684
_cell_angle_beta   59.99999798
_cell_angle_gamma   59.99999948
_symmetry_Int_Tables_number   1
_chemical_formula_structural   Y3ThCdRu
_chemical_formula_sum   'Y12 Th4 Cd4 Ru4'
_cell_volume   652.81333244
_cell_formula_units_Z   4
loop_
 _symmetry_equiv_pos_site_id
 _symmetry_equiv_pos_as_xyz
  1  'x, y, z'
loop_
 _atom_site_type_symbol
 _atom_site_label
 _atom_site_symmetry_multiplicity
 _atom_site_fract_x
 _atom_site_fract_y
 _atom_site_fract_z
 _atom_site_occupancy
  Y  Y0  1  0.811850  0.188150  0.188150  1
  Y  Y1  1  0.188150  0.811850  0.811850  1
  Y  Y2  1  0.188150  0.811850  0.188150  1
  Y  Y3  1  0.811850  0.188150  0.811850  1
  Y  Y4  1  0.188150  0.188150  0.811850  1
  Y  Y5  1  0.811850  0.811850  0.188150  1
  Y  Y6  1  0.936195  0.563805  0.563805  1
  Y  Y7  1  0.563805  0.936195  0.936195  1
  Y  Y8  1  0.563805  0.936195  0.563805  1
  Y  Y9  1  0.936195  0.563805  0.936195  1
  Y  Y10  1  0.563805  0.563805  0.936195  1
  Y  Y11  1  0.936195  0.936195  0.563805  1
  Th  Th12  1  0.346937  0.346937  0.346937  1
  Th  Th13  1  0.346937  0.346937  0.959187  1
  Th  Th14  1  0.346937  0.959187  0.346937  1
  Th  Th15  1  0.959187  0.346937  0.346937  1
  Cd  Cd16  1  0.580607  0.580607  0.580607  1
  Cd  Cd17  1  0.580607  0.580607  0.258181  1
  Cd  Cd18  1  0.580607  0.258181  0.580607  1
  Cd  Cd19  1  0.258181  0.580607  0.580607  1
  Ru  Ru20  1  0.144132  0.144132  0.144132  1
  Ru  Ru21  1  0.144132  0.144132  0.567605  1
  Ru  Ru22  1  0.144132  0.567605  0.144132  1
  Ru  Ru23  1  0.567605  0.144132  0.144132  1
