# generated using pymatgen
data_Yb12Dy7ErSi16
_symmetry_space_group_name_H-M   'P 1'
_cell_length_a   7.40912215
_cell_length_b   7.80125607
_cell_length_c   15.11498417
_cell_angle_alpha   90.00249074
_cell_angle_beta   89.98313652
_cell_angle_gamma   89.98435243
_symmetry_Int_Tables_number   1
_chemical_formula_structural   Yb12Dy7ErSi16
_chemical_formula_sum   'Yb12 Dy7 Er1 Si16'
_cell_volume   873.65295403
_cell_formula_units_Z   1
loop_
 _symmetry_equiv_pos_site_id
 _symmetry_equiv_pos_as_xyz
  1  'x, y, z'
loop_
 _atom_site_type_symbol
 _atom_site_label
 _atom_site_symmetry_multiplicity
 _atom_site_fract_x
 _atom_site_fract_y
 _atom_site_fract_z
 _atom_site_occupancy
  Yb  Yb0  1  0.971946  0.816039  0.403482  1
  Yb  Yb1  1  0.471994  0.683995  0.096464  1
  Yb  Yb2  1  0.528062  0.316043  0.596533  1
  Yb  Yb3  1  0.027957  0.183901  0.903467  1
  Yb  Yb4  1  0.028028  0.183931  0.596540  1
  Yb  Yb5  1  0.528161  0.316002  0.903476  1
  Yb  Yb6  1  0.471922  0.683976  0.403481  1
  Yb  Yb7  1  0.971871  0.816075  0.096473  1
  Yb  Yb8  1  0.353764  0.019365  0.750042  1
  Yb  Yb9  1  0.853625  0.480682  0.750057  1
  Yb  Yb10  1  0.146323  0.519422  0.250004  1
  Yb  Yb11  1  0.646335  0.980576  0.249985  1
  Dy  Dy12  1  0.314231  0.176678  0.120963  1
  Dy  Dy13  1  0.814148  0.323291  0.378962  1
  Dy  Dy14  1  0.185827  0.676879  0.878922  1
  Dy  Dy15  1  0.685802  0.823233  0.621124  1
  Dy  Dy16  1  0.314153  0.176716  0.378960  1
  Dy  Dy17  1  0.814159  0.323290  0.121012  1
  Dy  Dy18  1  0.185882  0.676760  0.621069  1
  Er  Er19  1  0.685874  0.823371  0.879068  1
  Si  Si20  1  0.857985  0.533338  0.538386  1
  Si  Si21  1  0.358439  0.966409  0.961455  1
  Si  Si22  1  0.642011  0.033362  0.461613  1
  Si  Si23  1  0.141945  0.466745  0.038359  1
  Si  Si24  1  0.142027  0.466653  0.461609  1
  Si  Si25  1  0.642243  0.033067  0.038135  1
  Si  Si26  1  0.357942  0.966632  0.538374  1
  Si  Si27  1  0.857505  0.533670  0.961452  1
  Si  Si28  1  0.977501  0.883059  0.750215  1
  Si  Si29  1  0.478128  0.617114  0.750108  1
  Si  Si30  1  0.522187  0.383237  0.249988  1
  Si  Si31  1  0.022200  0.116763  0.249991  1
  Si  Si32  1  0.249406  0.394845  0.750037  1
  Si  Si33  1  0.749107  0.104899  0.750216  1
  Si  Si34  1  0.250666  0.894795  0.249989  1
  Si  Si35  1  0.750646  0.605187  0.249988  1
