# generated using pymatgen
data_Y4Sc4B24Ir3W
_symmetry_space_group_name_H-M   'P 1'
_cell_length_a   3.56016900
_cell_length_b   9.02814729
_cell_length_c   11.42977065
_cell_angle_alpha   90.12381604
_cell_angle_beta   90.00000000
_cell_angle_gamma   90.00000000
_symmetry_Int_Tables_number   1
_chemical_formula_structural   Y4Sc4B24Ir3W
_chemical_formula_sum   'Y4 Sc4 B24 Ir3 W1'
_cell_volume   367.37174554
_cell_formula_units_Z   1
loop_
 _symmetry_equiv_pos_site_id
 _symmetry_equiv_pos_as_xyz
  1  'x, y, z'
loop_
 _atom_site_type_symbol
 _atom_site_label
 _atom_site_symmetry_multiplicity
 _atom_site_fract_x
 _atom_site_fract_y
 _atom_site_fract_z
 _atom_site_occupancy
  Y  Y0  1  0.500000  0.318066  0.411822  1
  Y  Y1  1  0.500000  0.680399  0.585367  1
  Y  Y2  1  0.500000  0.180337  0.915823  1
  Y  Y3  1  0.500000  0.820984  0.086490  1
  Sc  Sc4  1  0.500000  0.444279  0.123793  1
  Sc  Sc5  1  0.500000  0.555348  0.875509  1
  Sc  Sc6  1  0.500000  0.054629  0.625331  1
  Sc  Sc7  1  0.500000  0.947498  0.375058  1
  B  B8  1  0.000000  0.099446  0.474829  1
  B  B9  1  0.000000  0.899658  0.527801  1
  B  B10  1  0.000000  0.401813  0.971706  1
  B  B11  1  0.000000  0.600424  0.026361  1
  B  B12  1  0.000000  0.129472  0.319221  1
  B  B13  1  0.000000  0.869902  0.681421  1
  B  B14  1  0.000000  0.370619  0.818468  1
  B  B15  1  0.000000  0.629478  0.182155  1
  B  B16  1  0.000000  0.052665  0.064553  1
  B  B17  1  0.000000  0.944816  0.932621  1
  B  B18  1  0.000000  0.444748  0.566314  1
  B  B19  1  0.000000  0.554670  0.433468  1
  B  B20  1  0.000000  0.482616  0.285822  1
  B  B21  1  0.000000  0.517992  0.715136  1
  B  B22  1  0.000000  0.018135  0.784666  1
  B  B23  1  0.000000  0.978398  0.215664  1
  B  B24  1  0.000000  0.256040  0.079467  1
  B  B25  1  0.000000  0.745943  0.919269  1
  B  B26  1  0.000000  0.245621  0.580579  1
  B  B27  1  0.000000  0.754389  0.419454  1
  B  B28  1  0.000000  0.298129  0.235525  1
  B  B29  1  0.000000  0.704665  0.764801  1
  B  B30  1  0.000000  0.205455  0.735583  1
  B  B31  1  0.000000  0.794022  0.266255  1
  Ir  Ir32  1  0.500000  0.858627  0.818381  1
  Ir  Ir33  1  0.500000  0.359670  0.680973  1
  Ir  Ir34  1  0.500000  0.640987  0.319104  1
  W  W35  1  0.500000  0.140061  0.181212  1
