# generated using pymatgen
data_Dy2Er9Lu9(CoSb2)4
_symmetry_space_group_name_H-M   'P 1'
_cell_length_a   7.74413564
_cell_length_b   8.75094400
_cell_length_c   12.09436099
_cell_angle_alpha   90.00000000
_cell_angle_beta   90.04652209
_cell_angle_gamma   90.00000000
_symmetry_Int_Tables_number   1
_chemical_formula_structural   Dy2Er9Lu9(CoSb2)4
_chemical_formula_sum   'Dy2 Er9 Lu9 Co4 Sb8'
_cell_volume   819.61640035
_cell_formula_units_Z   1
loop_
 _symmetry_equiv_pos_site_id
 _symmetry_equiv_pos_as_xyz
  1  'x, y, z'
loop_
 _atom_site_type_symbol
 _atom_site_label
 _atom_site_symmetry_multiplicity
 _atom_site_fract_x
 _atom_site_fract_y
 _atom_site_fract_z
 _atom_site_occupancy
  Dy  Dy0  1  0.374962  0.250000  0.690816  1
  Dy  Dy1  1  0.125469  0.250000  0.190531  1
  Er  Er2  1  0.154451  0.750000  0.203818  1
  Er  Er3  1  0.345769  0.750000  0.702971  1
  Er  Er4  1  0.844622  0.250000  0.795379  1
  Er  Er5  1  0.654564  0.250000  0.297550  1
  Er  Er6  1  0.449432  0.750000  0.997798  1
  Er  Er7  1  0.049727  0.750000  0.497096  1
  Er  Er8  1  0.550528  0.250000  0.002651  1
  Er  Er9  1  0.624957  0.750000  0.310022  1
  Er  Er10  1  0.876292  0.750000  0.810118  1
  Lu  Lu11  1  0.948263  0.250000  0.502816  1
  Lu  Lu12  1  0.825859  0.536146  0.065457  1
  Lu  Lu13  1  0.674557  0.964740  0.565008  1
  Lu  Lu14  1  0.173498  0.034942  0.933844  1
  Lu  Lu15  1  0.325934  0.464602  0.434301  1
  Lu  Lu16  1  0.173498  0.465058  0.933844  1
  Lu  Lu17  1  0.325934  0.035398  0.434301  1
  Lu  Lu18  1  0.825859  0.963854  0.065457  1
  Lu  Lu19  1  0.674557  0.535260  0.565008  1
  Co  Co20  1  0.435965  0.750000  0.491648  1
  Co  Co21  1  0.064231  0.750000  0.992736  1
  Co  Co22  1  0.564337  0.250000  0.508750  1
  Co  Co23  1  0.936091  0.250000  0.006723  1
  Sb  Sb24  1  0.932387  0.506549  0.328679  1
  Sb  Sb25  1  0.568119  0.992141  0.828106  1
  Sb  Sb26  1  0.065844  0.007074  0.671322  1
  Sb  Sb27  1  0.433971  0.493377  0.172570  1
  Sb  Sb28  1  0.065844  0.492926  0.671322  1
  Sb  Sb29  1  0.433971  0.006623  0.172570  1
  Sb  Sb30  1  0.932387  0.993451  0.328679  1
  Sb  Sb31  1  0.568119  0.507859  0.828106  1
