# generated using pymatgen
data_Mn5Nb12Fe3(SiN)4
_symmetry_space_group_name_H-M   'P 1'
_cell_length_a   8.02635447
_cell_length_b   8.02811526
_cell_length_c   8.02812401
_cell_angle_alpha   59.99991527
_cell_angle_beta   59.99238686
_cell_angle_gamma   59.99243885
_symmetry_Int_Tables_number   1
_chemical_formula_structural   Mn5Nb12Fe3(SiN)4
_chemical_formula_sum   'Mn5 Nb12 Fe3 Si4 N4'
_cell_volume   365.74712148
_cell_formula_units_Z   1
loop_
 _symmetry_equiv_pos_site_id
 _symmetry_equiv_pos_as_xyz
  1  'x, y, z'
loop_
 _atom_site_type_symbol
 _atom_site_label
 _atom_site_symmetry_multiplicity
 _atom_site_fract_x
 _atom_site_fract_y
 _atom_site_fract_z
 _atom_site_occupancy
  Mn  Mn0  1  0.735650  0.421441  0.421466  1
  Mn  Mn1  1  0.420742  0.735341  0.421966  1
  Mn  Mn2  1  0.420704  0.421966  0.735389  1
  Mn  Mn3  1  0.420737  0.421970  0.421973  1
  Mn  Mn4  1  0.514412  0.828529  0.828524  1
  Nb  Nb5  1  0.799112  0.799883  0.200501  1
  Nb  Nb6  1  0.201389  0.198278  0.800165  1
  Nb  Nb7  1  0.799109  0.200507  0.799877  1
  Nb  Nb8  1  0.201389  0.800164  0.198276  1
  Nb  Nb9  1  0.201391  0.800163  0.800169  1
  Nb  Nb10  1  0.799113  0.200500  0.200499  1
  Nb  Nb11  1  0.449994  0.450867  0.049570  1
  Nb  Nb12  1  0.049537  0.048729  0.450862  1
  Nb  Nb13  1  0.450002  0.049565  0.450866  1
  Nb  Nb14  1  0.049534  0.450865  0.048734  1
  Nb  Nb15  1  0.049535  0.450871  0.450861  1
  Nb  Nb16  1  0.449992  0.049569  0.049571  1
  Fe  Fe17  1  0.829727  0.511563  0.829346  1
  Fe  Fe18  1  0.829732  0.829358  0.511547  1
  Fe  Fe19  1  0.829726  0.829363  0.829348  1
  Si  Si20  1  0.119423  0.626859  0.626856  1
  Si  Si21  1  0.626651  0.120904  0.626224  1
  Si  Si22  1  0.626668  0.626218  0.120888  1
  Si  Si23  1  0.626664  0.626219  0.626224  1
  N  N24  1  0.622784  0.125739  0.125735  1
  N  N25  1  0.125425  0.621611  0.126480  1
  N  N26  1  0.125428  0.126480  0.621609  1
  N  N27  1  0.125425  0.126478  0.126478  1
