# generated using pymatgen
data_Ce2Tm10Tc3Os
_symmetry_space_group_name_H-M   'P 1'
_cell_length_a   7.29941009
_cell_length_b   9.16182000
_cell_length_c   6.27344571
_cell_angle_alpha   90.00000000
_cell_angle_beta   87.89140308
_cell_angle_gamma   90.00000000
_symmetry_Int_Tables_number   1
_chemical_formula_structural   Ce2Tm10Tc3Os
_chemical_formula_sum   'Ce2 Tm10 Tc3 Os1'
_cell_volume   419.25813229
_cell_formula_units_Z   1
loop_
 _symmetry_equiv_pos_site_id
 _symmetry_equiv_pos_as_xyz
  1  'x, y, z'
loop_
 _atom_site_type_symbol
 _atom_site_label
 _atom_site_symmetry_multiplicity
 _atom_site_fract_x
 _atom_site_fract_y
 _atom_site_fract_z
 _atom_site_occupancy
  Ce  Ce0  1  0.062724  0.250000  0.637673  1
  Ce  Ce1  1  0.940551  0.750000  0.355999  1
  Tm  Tm2  1  0.462893  0.750000  0.125676  1
  Tm  Tm3  1  0.538068  0.250000  0.873437  1
  Tm  Tm4  1  0.172978  0.062362  0.164035  1
  Tm  Tm5  1  0.825842  0.938759  0.833373  1
  Tm  Tm6  1  0.325342  0.933248  0.663878  1
  Tm  Tm7  1  0.825842  0.561241  0.833373  1
  Tm  Tm8  1  0.677599  0.066875  0.332438  1
  Tm  Tm9  1  0.172978  0.437638  0.164035  1
  Tm  Tm10  1  0.677599  0.433125  0.332438  1
  Tm  Tm11  1  0.325342  0.566752  0.663878  1
  Tc  Tc12  1  0.358397  0.250000  0.477286  1
  Tc  Tc13  1  0.639104  0.750000  0.520699  1
  Tc  Tc14  1  0.111619  0.750000  0.997639  1
  Os  Os15  1  0.883122  0.250000  0.024142  1
