# generated using pymatgen
data_Hf10CuSn5BiSb
_symmetry_space_group_name_H-M   'P 1'
_cell_length_a   5.89412110
_cell_length_b   8.71513647
_cell_length_c   8.70153260
_cell_angle_alpha   120.05173514
_cell_angle_beta   90.01146084
_cell_angle_gamma   89.97709436
_symmetry_Int_Tables_number   1
_chemical_formula_structural   Hf10CuSn5BiSb
_chemical_formula_sum   'Hf10 Cu1 Sn5 Bi1 Sb1'
_cell_volume   386.89485439
_cell_formula_units_Z   1
loop_
 _symmetry_equiv_pos_site_id
 _symmetry_equiv_pos_as_xyz
  1  'x, y, z'
loop_
 _atom_site_type_symbol
 _atom_site_label
 _atom_site_symmetry_multiplicity
 _atom_site_fract_x
 _atom_site_fract_y
 _atom_site_fract_z
 _atom_site_occupancy
  Hf  Hf0  1  0.498449  0.330421  0.663002  1
  Hf  Hf1  1  0.498449  0.667419  0.336998  1
  Hf  Hf2  1  0.001558  0.667277  0.336964  1
  Hf  Hf3  1  0.001558  0.330313  0.663036  1
  Hf  Hf4  1  0.731432  0.268189  0.000000  1
  Hf  Hf5  1  0.732169  0.730978  0.724507  1
  Hf  Hf6  1  0.732169  0.006471  0.275493  1
  Hf  Hf7  1  0.266725  0.728520  0.000000  1
  Hf  Hf8  1  0.268233  0.272081  0.272915  1
  Hf  Hf9  1  0.268233  0.999166  0.727085  1
  Cu  Cu10  1  0.497727  0.000200  0.000000  1
  Sn  Sn11  1  0.754853  0.388661  0.388005  1
  Sn  Sn12  1  0.754853  0.000656  0.611995  1
  Sn  Sn13  1  0.246013  0.386475  0.000000  1
  Sn  Sn14  1  0.245665  0.612170  0.613253  1
  Sn  Sn15  1  0.245665  0.998917  0.386747  1
  Bi  Bi16  1  0.754974  0.612436  0.000000  1
  Sb  Sb17  1  0.001276  0.999648  0.000000  1
