# generated using pymatgen
data_TbDy2Ta3(B2Ru5)2
_symmetry_space_group_name_H-M   'P 1'
_cell_length_a   9.61006927
_cell_length_b   9.61000076
_cell_length_c   3.12213500
_cell_angle_alpha   90.00000000
_cell_angle_beta   90.00000000
_cell_angle_gamma   90.43362813
_symmetry_Int_Tables_number   1
_chemical_formula_structural   TbDy2Ta3(B2Ru5)2
_chemical_formula_sum   'Tb1 Dy2 Ta3 B4 Ru10'
_cell_volume   288.32956728
_cell_formula_units_Z   1
loop_
 _symmetry_equiv_pos_site_id
 _symmetry_equiv_pos_as_xyz
  1  'x, y, z'
loop_
 _atom_site_type_symbol
 _atom_site_label
 _atom_site_symmetry_multiplicity
 _atom_site_fract_x
 _atom_site_fract_y
 _atom_site_fract_z
 _atom_site_occupancy
  Tb  Tb0  1  0.823980  0.674828  0.000000  1
  Dy  Dy1  1  0.174984  0.323920  0.000000  1
  Dy  Dy2  1  0.325748  0.825769  0.000000  1
  Ta  Ta3  1  0.675921  0.175888  0.000000  1
  Ta  Ta4  1  0.497977  0.502643  0.000000  1
  Ta  Ta5  1  0.002797  0.998305  0.000000  1
  B  B6  1  0.623405  0.881843  0.000000  1
  B  B7  1  0.381581  0.123614  0.000000  1
  B  B8  1  0.119077  0.618829  0.000000  1
  B  B9  1  0.875755  0.375542  0.000000  1
  Ru  Ru10  1  0.570662  0.722295  0.500000  1
  Ru  Ru11  1  0.441026  0.280473  0.500000  1
  Ru  Ru12  1  0.069680  0.780644  0.500000  1
  Ru  Ru13  1  0.915411  0.213031  0.500000  1
  Ru  Ru14  1  0.280591  0.569323  0.500000  1
  Ru  Ru15  1  0.712952  0.415144  0.500000  1
  Ru  Ru16  1  0.222134  0.071110  0.500000  1
  Ru  Ru17  1  0.780406  0.941394  0.500000  1
  Ru  Ru18  1  0.509869  0.010012  0.500000  1
  Ru  Ru19  1  0.996042  0.495392  0.500000  1
