# generated using pymatgen
data_Nd16CdHg3PdRu3
_symmetry_space_group_name_H-M   'P 1'
_cell_length_a   9.91228251
_cell_length_b   9.95048092
_cell_length_c   9.94310236
_cell_angle_alpha   60.05494522
_cell_angle_beta   59.91201764
_cell_angle_gamma   59.92414669
_symmetry_Int_Tables_number   1
_chemical_formula_structural   Nd16CdHg3PdRu3
_chemical_formula_sum   'Nd16 Cd1 Hg3 Pd1 Ru3'
_cell_volume   692.89170621
_cell_formula_units_Z   1
loop_
 _symmetry_equiv_pos_site_id
 _symmetry_equiv_pos_as_xyz
  1  'x, y, z'
loop_
 _atom_site_type_symbol
 _atom_site_label
 _atom_site_symmetry_multiplicity
 _atom_site_fract_x
 _atom_site_fract_y
 _atom_site_fract_z
 _atom_site_occupancy
  Nd  Nd0  1  0.344709  0.352081  0.352167  1
  Nd  Nd1  1  0.344682  0.352064  0.951071  1
  Nd  Nd2  1  0.344615  0.951110  0.352128  1
  Nd  Nd3  1  0.956205  0.347841  0.347949  1
  Nd  Nd4  1  0.815579  0.191341  0.191371  1
  Nd  Nd5  1  0.189401  0.810717  0.810738  1
  Nd  Nd6  1  0.189396  0.810737  0.189131  1
  Nd  Nd7  1  0.815559  0.191357  0.801691  1
  Nd  Nd8  1  0.189387  0.189137  0.810711  1
  Nd  Nd9  1  0.815556  0.801704  0.191368  1
  Nd  Nd10  1  0.935402  0.562791  0.562826  1
  Nd  Nd11  1  0.557400  0.938703  0.938731  1
  Nd  Nd12  1  0.557383  0.938718  0.565153  1
  Nd  Nd13  1  0.935372  0.562808  0.938975  1
  Nd  Nd14  1  0.557381  0.565128  0.938742  1
  Nd  Nd15  1  0.935370  0.938964  0.562830  1
  Cd  Cd16  1  0.261235  0.579585  0.579590  1
  Hg  Hg17  1  0.582722  0.584060  0.584091  1
  Hg  Hg18  1  0.582724  0.584066  0.249114  1
  Hg  Hg19  1  0.582726  0.249078  0.584098  1
  Pd  Pd20  1  0.575321  0.141470  0.141577  1
  Ru  Ru21  1  0.143923  0.138101  0.138180  1
  Ru  Ru22  1  0.144017  0.137989  0.579955  1
  Ru  Ru23  1  0.143937  0.580450  0.137812  1
