# generated using pymatgen
data_MnCr3(AgSe4)2
_symmetry_space_group_name_H-M   'P 1'
_cell_length_a   7.58258178
_cell_length_b   7.58442926
_cell_length_c   7.58432065
_cell_angle_alpha   59.98763098
_cell_angle_beta   59.97680938
_cell_angle_gamma   59.97765590
_symmetry_Int_Tables_number   1
_chemical_formula_structural   MnCr3(AgSe4)2
_chemical_formula_sum   'Mn1 Cr3 Ag2 Se8'
_cell_volume   308.28441580
_cell_formula_units_Z   1
loop_
 _symmetry_equiv_pos_site_id
 _symmetry_equiv_pos_as_xyz
  1  'x, y, z'
loop_
 _atom_site_type_symbol
 _atom_site_label
 _atom_site_symmetry_multiplicity
 _atom_site_fract_x
 _atom_site_fract_y
 _atom_site_fract_z
 _atom_site_occupancy
  Mn  Mn0  1  0.499974  0.500056  0.499952  1
  Cr  Cr1  1  0.500018  0.499992  0.000013  1
  Cr  Cr2  1  0.000004  0.500006  0.499996  1
  Cr  Cr3  1  0.499994  0.999955  0.500041  1
  Ag  Ag4  1  0.874795  0.874875  0.874701  1
  Ag  Ag5  1  0.125182  0.125170  0.125291  1
  Se  Se6  1  0.735678  0.735610  0.735730  1
  Se  Se7  1  0.264893  0.264974  0.706099  1
  Se  Se8  1  0.264942  0.706090  0.265002  1
  Se  Se9  1  0.706061  0.264928  0.265023  1
  Se  Se10  1  0.735034  0.293970  0.734925  1
  Se  Se11  1  0.293921  0.735004  0.735052  1
  Se  Se12  1  0.264383  0.264326  0.264299  1
  Se  Se13  1  0.735126  0.735042  0.293880  1
