# generated using pymatgen
data_Lu8Hf12Si15As
_symmetry_space_group_name_H-M   'P 1'
_cell_length_a   7.23155169
_cell_length_b   7.22105514
_cell_length_c   13.24789321
_cell_angle_alpha   90.04949013
_cell_angle_beta   89.76465214
_cell_angle_gamma   90.04097916
_symmetry_Int_Tables_number   1
_chemical_formula_structural   Lu8Hf12Si15As
_chemical_formula_sum   'Lu8 Hf12 Si15 As1'
_cell_volume   691.79120854
_cell_formula_units_Z   1
loop_
 _symmetry_equiv_pos_site_id
 _symmetry_equiv_pos_as_xyz
  1  'x, y, z'
loop_
 _atom_site_type_symbol
 _atom_site_label
 _atom_site_symmetry_multiplicity
 _atom_site_fract_x
 _atom_site_fract_y
 _atom_site_fract_z
 _atom_site_occupancy
  Lu  Lu0  1  0.495456  0.153360  0.534758  1
  Lu  Lu1  1  0.503758  0.846380  0.034076  1
  Lu  Lu2  1  0.652268  0.004004  0.285849  1
  Lu  Lu3  1  0.345350  0.993683  0.783884  1
  Lu  Lu4  1  0.847185  0.505709  0.964819  1
  Lu  Lu5  1  0.153695  0.495279  0.465526  1
  Lu  Lu6  1  0.004490  0.653625  0.715202  1
  Lu  Lu7  1  0.998446  0.349093  0.216947  1
  Hf  Hf8  1  0.676411  0.324265  0.750182  1
  Hf  Hf9  1  0.324404  0.674971  0.250106  1
  Hf  Hf10  1  0.824274  0.824027  0.500059  1
  Hf  Hf11  1  0.178974  0.175963  0.999714  1
  Hf  Hf12  1  0.496118  0.353532  0.124170  1
  Hf  Hf13  1  0.502643  0.646540  0.625400  1
  Hf  Hf14  1  0.851853  0.003504  0.875332  1
  Hf  Hf15  1  0.147168  0.997632  0.375338  1
  Hf  Hf16  1  0.647206  0.502212  0.374746  1
  Hf  Hf17  1  0.352091  0.498973  0.874357  1
  Hf  Hf18  1  0.004861  0.849758  0.125590  1
  Hf  Hf19  1  0.997591  0.146471  0.624832  1
  Si  Si20  1  0.204949  0.858188  0.568213  1
  Si  Si21  1  0.642629  0.704733  0.818352  1
  Si  Si22  1  0.358613  0.296220  0.317982  1
  Si  Si23  1  0.857790  0.204252  0.431426  1
  Si  Si24  1  0.140768  0.796653  0.931898  1
  Si  Si25  1  0.704085  0.642007  0.181328  1
  Si  Si26  1  0.295091  0.358211  0.681087  1
  Si  Si27  1  0.541190  0.202968  0.930678  1
  Si  Si28  1  0.450411  0.796814  0.435887  1
  Si  Si29  1  0.702585  0.950306  0.685770  1
  Si  Si30  1  0.297698  0.049075  0.185908  1
  Si  Si31  1  0.797409  0.450338  0.564081  1
  Si  Si32  1  0.202427  0.548816  0.064542  1
  Si  Si33  1  0.950522  0.703094  0.314782  1
  Si  Si34  1  0.049012  0.297612  0.814396  1
  As  As35  1  0.800577  0.141733  0.072782  1
