# generated using pymatgen
data_TbY5IrPt
_symmetry_space_group_name_H-M   'P 1'
_cell_length_a   6.47263870
_cell_length_b   7.17759434
_cell_length_c   9.51684214
_cell_angle_alpha   89.94511457
_cell_angle_beta   89.98850146
_cell_angle_gamma   90.17808638
_symmetry_Int_Tables_number   1
_chemical_formula_structural   TbY5IrPt
_chemical_formula_sum   'Tb2 Y10 Ir2 Pt2'
_cell_volume   442.13086534
_cell_formula_units_Z   2
loop_
 _symmetry_equiv_pos_site_id
 _symmetry_equiv_pos_as_xyz
  1  'x, y, z'
loop_
 _atom_site_type_symbol
 _atom_site_label
 _atom_site_symmetry_multiplicity
 _atom_site_fract_x
 _atom_site_fract_y
 _atom_site_fract_z
 _atom_site_occupancy
  Tb  Tb0  1  0.172370  0.177366  0.061768  1
  Tb  Tb1  1  0.827630  0.822634  0.938232  1
  Y  Y2  1  0.634545  0.029146  0.250043  1
  Y  Y3  1  0.365455  0.970854  0.749957  1
  Y  Y4  1  0.130332  0.463651  0.749975  1
  Y  Y5  1  0.869668  0.536349  0.250025  1
  Y  Y6  1  0.676586  0.318978  0.936618  1
  Y  Y7  1  0.827638  0.822541  0.561337  1
  Y  Y8  1  0.323414  0.681022  0.063382  1
  Y  Y9  1  0.172362  0.177459  0.438663  1
  Y  Y10  1  0.323173  0.681017  0.436694  1
  Y  Y11  1  0.676827  0.318983  0.563306  1
  Ir  Ir12  1  0.951653  0.113791  0.750175  1
  Ir  Ir13  1  0.048347  0.886209  0.249825  1
  Pt  Pt14  1  0.452638  0.385584  0.249908  1
  Pt  Pt15  1  0.547362  0.614416  0.750092  1
