# generated using pymatgen
data_Dy20Si3Bi5Ir4
_symmetry_space_group_name_H-M   'P 1'
_cell_length_a   7.86980487
_cell_length_b   8.90288029
_cell_length_c   12.20825703
_cell_angle_alpha   90.20223908
_cell_angle_beta   89.96363363
_cell_angle_gamma   90.09024427
_symmetry_Int_Tables_number   1
_chemical_formula_structural   Dy20Si3Bi5Ir4
_chemical_formula_sum   'Dy20 Si3 Bi5 Ir4'
_cell_volume   855.35191501
_cell_formula_units_Z   1
loop_
 _symmetry_equiv_pos_site_id
 _symmetry_equiv_pos_as_xyz
  1  'x, y, z'
loop_
 _atom_site_type_symbol
 _atom_site_label
 _atom_site_symmetry_multiplicity
 _atom_site_fract_x
 _atom_site_fract_y
 _atom_site_fract_z
 _atom_site_occupancy
  Dy  Dy0  1  0.835215  0.724956  0.788329  1
  Dy  Dy1  1  0.170321  0.263043  0.206820  1
  Dy  Dy2  1  0.336798  0.274196  0.716507  1
  Dy  Dy3  1  0.652323  0.739297  0.286375  1
  Dy  Dy4  1  0.367852  0.727327  0.700112  1
  Dy  Dy5  1  0.617558  0.262169  0.298489  1
  Dy  Dy6  1  0.867448  0.271757  0.800498  1
  Dy  Dy7  1  0.140771  0.737691  0.193472  1
  Dy  Dy8  1  0.954168  0.739994  0.508703  1
  Dy  Dy9  1  0.053399  0.261032  0.506276  1
  Dy  Dy10  1  0.455548  0.271220  0.997191  1
  Dy  Dy11  1  0.545177  0.728939  0.000563  1
  Dy  Dy12  1  0.677713  0.039882  0.567415  1
  Dy  Dy13  1  0.319499  0.960980  0.434536  1
  Dy  Dy14  1  0.180101  0.962702  0.932648  1
  Dy  Dy15  1  0.326425  0.541796  0.428174  1
  Dy  Dy16  1  0.821429  0.037895  0.065817  1
  Dy  Dy17  1  0.681163  0.458027  0.578405  1
  Dy  Dy18  1  0.814660  0.457191  0.064748  1
  Dy  Dy19  1  0.181817  0.542714  0.926094  1
  Si  Si20  1  0.565386  0.493361  0.829909  1
  Si  Si21  1  0.435235  0.506562  0.170403  1
  Si  Si22  1  0.064745  0.506405  0.669835  1
  Bi  Bi23  1  0.429704  0.992108  0.168232  1
  Bi  Bi24  1  0.929652  0.490504  0.327843  1
  Bi  Bi25  1  0.572007  0.007274  0.828632  1
  Bi  Bi26  1  0.929455  0.008533  0.328349  1
  Bi  Bi27  1  0.071761  0.992203  0.675611  1
  Ir  Ir28  1  0.572941  0.747711  0.511356  1
  Ir  Ir29  1  0.427567  0.251858  0.491438  1
  Ir  Ir30  1  0.071731  0.252708  0.987512  1
  Ir  Ir31  1  0.930429  0.747964  0.009706  1
