# generated using pymatgen
data_Y3Ho7ZnIn8Co2Pd
_symmetry_space_group_name_H-M   'P 1'
_cell_length_a   3.60018800
_cell_length_b   8.08005247
_cell_length_c   18.09719000
_cell_angle_alpha   90.10844297
_cell_angle_beta   90.00000000
_cell_angle_gamma   90.00000000
_symmetry_Int_Tables_number   1
_chemical_formula_structural   Y3Ho7ZnIn8Co2Pd
_chemical_formula_sum   'Y3 Ho7 Zn1 In8 Co2 Pd1'
_cell_volume   526.44102890
_cell_formula_units_Z   1
loop_
 _symmetry_equiv_pos_site_id
 _symmetry_equiv_pos_as_xyz
  1  'x, y, z'
loop_
 _atom_site_type_symbol
 _atom_site_label
 _atom_site_symmetry_multiplicity
 _atom_site_fract_x
 _atom_site_fract_y
 _atom_site_fract_z
 _atom_site_occupancy
  Y  Y0  1  0.500000  0.618136  0.916179  1
  Y  Y1  1  0.500000  0.001650  0.000439  1
  Y  Y2  1  0.500000  0.500254  0.500018  1
  Ho  Ho3  1  0.500000  0.226621  0.775224  1
  Ho  Ho4  1  0.500000  0.784547  0.225121  1
  Ho  Ho5  1  0.500000  0.234649  0.283126  1
  Ho  Ho6  1  0.500000  0.760409  0.718251  1
  Ho  Ho7  1  0.500000  0.113721  0.589212  1
  Ho  Ho8  1  0.500000  0.886606  0.411415  1
  Ho  Ho9  1  0.500000  0.375922  0.081313  1
  Zn  Zn10  1  0.000000  0.478583  0.200091  1
  In  In11  1  0.000000  0.076390  0.151518  1
  In  In12  1  0.000000  0.925745  0.847763  1
  In  In13  1  0.000000  0.423510  0.649627  1
  In  In14  1  0.000000  0.578555  0.349648  1
  In  In15  1  0.000000  0.204322  0.431896  1
  In  In16  1  0.000000  0.795915  0.568599  1
  In  In17  1  0.000000  0.290007  0.929662  1
  In  In18  1  0.000000  0.705492  0.069598  1
  Co  Co19  1  0.000000  0.018516  0.694094  1
  Co  Co20  1  0.000000  0.980070  0.305082  1
  Pd  Pd21  1  0.000000  0.520380  0.802123  1
