# generated using pymatgen
data_CrH8
_symmetry_space_group_name_H-M   'P 1'
_cell_length_a   2.67518370
_cell_length_b   2.67120546
_cell_length_c   12.66037526
_cell_angle_alpha   83.15579128
_cell_angle_beta   98.28930176
_cell_angle_gamma   119.84091885
_symmetry_Int_Tables_number   1
_chemical_formula_structural   CrH8
_chemical_formula_sum   'Cr1 H8'
_cell_volume   77.53662951
_cell_formula_units_Z   1
loop_
 _symmetry_equiv_pos_site_id
 _symmetry_equiv_pos_as_xyz
  1  'x, y, z'
loop_
 _atom_site_type_symbol
 _atom_site_label
 _atom_site_symmetry_multiplicity
 _atom_site_fract_x
 _atom_site_fract_y
 _atom_site_fract_z
 _atom_site_occupancy
  Cr  Cr0  1  0.783031  0.917566  0.883670  1
  H  H1  1  0.886293  0.508430  0.400771  1
  H  H2  1  0.534346  0.849668  0.561960  1
  H  H3  1  0.659133  0.972533  0.140421  1
  H  H4  1  0.156138  0.558597  0.957955  1
  H  H5  1  0.832155  0.891149  0.183542  1
  H  H6  1  0.807249  0.331721  0.353530  1
  H  H7  1  0.481471  0.978281  0.605612  1
  H  H8  1  0.409646  0.272513  0.808506  1
