# generated using pymatgen
data_DyEr3Zr4(NiP)12
_symmetry_space_group_name_H-M   'P 1'
_cell_length_a   3.72779800
_cell_length_b   10.14939600
_cell_length_c   12.34431100
_cell_angle_alpha   89.99949896
_cell_angle_beta   90.00000000
_cell_angle_gamma   90.00000000
_symmetry_Int_Tables_number   1
_chemical_formula_structural   DyEr3Zr4(NiP)12
_chemical_formula_sum   'Dy1 Er3 Zr4 Ni12 P12'
_cell_volume   467.04574891
_cell_formula_units_Z   1
loop_
 _symmetry_equiv_pos_site_id
 _symmetry_equiv_pos_as_xyz
  1  'x, y, z'
loop_
 _atom_site_type_symbol
 _atom_site_label
 _atom_site_symmetry_multiplicity
 _atom_site_fract_x
 _atom_site_fract_y
 _atom_site_fract_z
 _atom_site_occupancy
  Dy  Dy0  1  0.250000  0.428735  0.707337  1
  Er  Er1  1  0.250000  0.071451  0.207317  1
  Er  Er2  1  0.750000  0.928576  0.792676  1
  Er  Er3  1  0.750000  0.571281  0.292643  1
  Zr  Zr4  1  0.250000  0.159328  0.497157  1
  Zr  Zr5  1  0.750000  0.840616  0.502722  1
  Zr  Zr6  1  0.750000  0.659462  0.002712  1
  Zr  Zr7  1  0.250000  0.340490  0.997532  1
  Ni  Ni8  1  0.250000  0.728062  0.664132  1
  Ni  Ni9  1  0.750000  0.272173  0.335714  1
  Ni  Ni10  1  0.750000  0.227629  0.835945  1
  Ni  Ni11  1  0.250000  0.772199  0.164230  1
  Ni  Ni12  1  0.250000  0.365771  0.219718  1
  Ni  Ni13  1  0.750000  0.634848  0.780607  1
  Ni  Ni14  1  0.750000  0.865722  0.280334  1
  Ni  Ni15  1  0.250000  0.133871  0.719673  1
  Ni  Ni16  1  0.250000  0.597927  0.482735  1
  Ni  Ni17  1  0.750000  0.402155  0.516598  1
  Ni  Ni18  1  0.750000  0.097789  0.017151  1
  Ni  Ni19  1  0.250000  0.902196  0.982870  1
  P  P20  1  0.250000  0.945169  0.624693  1
  P  P21  1  0.750000  0.054778  0.375222  1
  P  P22  1  0.750000  0.445183  0.876028  1
  P  P23  1  0.250000  0.554825  0.124753  1
  P  P24  1  0.250000  0.394783  0.401932  1
  P  P25  1  0.750000  0.605755  0.597843  1
  P  P26  1  0.750000  0.894711  0.098170  1
  P  P27  1  0.250000  0.105292  0.901805  1
  P  P28  1  0.250000  0.769847  0.353930  1
  P  P29  1  0.750000  0.229352  0.645791  1
  P  P30  1  0.750000  0.269732  0.146099  1
  P  P31  1  0.250000  0.730292  0.853929  1
