# generated using pymatgen
data_YbHo7(ReC2)4
_symmetry_space_group_name_H-M   'P 1'
_cell_length_a   5.09083200
_cell_length_b   6.55360179
_cell_length_c   9.88451463
_cell_angle_alpha   89.36750022
_cell_angle_beta   90.00000000
_cell_angle_gamma   90.00000000
_symmetry_Int_Tables_number   1
_chemical_formula_structural   YbHo7(ReC2)4
_chemical_formula_sum   'Yb1 Ho7 Re4 C8'
_cell_volume   329.75979180
_cell_formula_units_Z   1
loop_
 _symmetry_equiv_pos_site_id
 _symmetry_equiv_pos_as_xyz
  1  'x, y, z'
loop_
 _atom_site_type_symbol
 _atom_site_label
 _atom_site_symmetry_multiplicity
 _atom_site_fract_x
 _atom_site_fract_y
 _atom_site_fract_z
 _atom_site_occupancy
  Yb  Yb0  1  0.250000  0.034735  0.281539  1
  Ho  Ho1  1  0.250000  0.682305  0.554802  1
  Ho  Ho2  1  0.750000  0.316970  0.443455  1
  Ho  Ho3  1  0.750000  0.819745  0.056654  1
  Ho  Ho4  1  0.250000  0.178551  0.944913  1
  Ho  Ho5  1  0.250000  0.532875  0.219692  1
  Ho  Ho6  1  0.750000  0.466012  0.781811  1
  Ho  Ho7  1  0.750000  0.965221  0.717630  1
  Re  Re8  1  0.250000  0.719653  0.863840  1
  Re  Re9  1  0.750000  0.280312  0.134506  1
  Re  Re10  1  0.750000  0.778491  0.365389  1
  Re  Re11  1  0.250000  0.223460  0.635105  1
  C  C12  1  0.250000  0.453394  0.759880  1
  C  C13  1  0.750000  0.546630  0.240847  1
  C  C14  1  0.750000  0.045921  0.259008  1
  C  C15  1  0.250000  0.955065  0.739534  1
  C  C16  1  0.250000  0.814844  0.045993  1
  C  C17  1  0.750000  0.176763  0.951780  1
  C  C18  1  0.750000  0.680671  0.550459  1
  C  C19  1  0.250000  0.328383  0.453162  1
