# generated using pymatgen
data_Hf3Al3GaNi2
_symmetry_space_group_name_H-M   'P 1'
_cell_length_a   6.52223200
_cell_length_b   6.52223185
_cell_length_c   3.96250600
_cell_angle_alpha   90.00000000
_cell_angle_beta   90.00000000
_cell_angle_gamma   119.99999064
_symmetry_Int_Tables_number   1
_chemical_formula_structural   Hf3Al3GaNi2
_chemical_formula_sum   'Hf3 Al3 Ga1 Ni2'
_cell_volume   145.97990643
_cell_formula_units_Z   1
loop_
 _symmetry_equiv_pos_site_id
 _symmetry_equiv_pos_as_xyz
  1  'x, y, z'
loop_
 _atom_site_type_symbol
 _atom_site_label
 _atom_site_symmetry_multiplicity
 _atom_site_fract_x
 _atom_site_fract_y
 _atom_site_fract_z
 _atom_site_occupancy
  Hf  Hf0  1  0.408030  0.423579  0.500000  1
  Hf  Hf1  1  0.576421  0.984451  0.500000  1
  Hf  Hf2  1  0.015549  0.591970  0.500000  1
  Al  Al3  1  0.751571  0.764579  0.000000  1
  Al  Al4  1  0.235421  0.986992  0.000000  1
  Al  Al5  1  0.013008  0.248429  0.000000  1
  Ga  Ga6  1  0.666667  0.333333  0.000000  1
  Ni  Ni7  1  0.333333  0.666667  0.000000  1
  Ni  Ni8  1  0.000000  0.000000  0.500000  1
