# generated using pymatgen
data_Er4Cu(AuO4)3
_symmetry_space_group_name_H-M   'P 1'
_cell_length_a   3.77685150
_cell_length_b   12.74479436
_cell_length_c   5.49514400
_cell_angle_alpha   90.00000000
_cell_angle_beta   90.00000000
_cell_angle_gamma   90.82647227
_symmetry_Int_Tables_number   1
_chemical_formula_structural   Er4Cu(AuO4)3
_chemical_formula_sum   'Er4 Cu1 Au3 O12'
_cell_volume   264.48231410
_cell_formula_units_Z   1
loop_
 _symmetry_equiv_pos_site_id
 _symmetry_equiv_pos_as_xyz
  1  'x, y, z'
loop_
 _atom_site_type_symbol
 _atom_site_label
 _atom_site_symmetry_multiplicity
 _atom_site_fract_x
 _atom_site_fract_y
 _atom_site_fract_z
 _atom_site_occupancy
  Er  Er0  1  0.743644  0.078285  0.249999  1
  Er  Er1  1  0.253593  0.567236  0.249999  1
  Er  Er2  1  0.728500  0.418965  0.749999  1
  Er  Er3  1  0.259273  0.926264  0.749999  1
  Cu  Cu4  1  0.062299  0.330550  0.249999  1
  Au  Au5  1  0.942039  0.831808  0.249999  1
  Au  Au6  1  0.068762  0.175901  0.749999  1
  Au  Au7  1  0.940824  0.667430  0.749999  1
  O  O8  1  0.810101  0.255625  0.013135  1
  O  O9  1  0.214159  0.751407  0.998413  1
  O  O10  1  0.259642  0.078003  0.001732  1
  O  O11  1  0.736488  0.569669  0.001819  1
  O  O12  1  0.259642  0.078003  0.498268  1
  O  O13  1  0.736488  0.569669  0.498181  1
  O  O14  1  0.810101  0.255625  0.486865  1
  O  O15  1  0.214159  0.751407  0.501587  1
  O  O16  1  0.238863  0.418767  0.491235  1
  O  O17  1  0.741288  0.928312  0.502409  1
  O  O18  1  0.238863  0.418767  0.008764  1
  O  O19  1  0.741288  0.928312  0.997590  1
