# generated using pymatgen
data_Y7(HoIn4)5
_symmetry_space_group_name_H-M   'P 1'
_cell_length_a   6.50997613
_cell_length_b   10.44952791
_cell_length_c   12.29041607
_cell_angle_alpha   90.04493297
_cell_angle_beta   89.98386518
_cell_angle_gamma   90.01671393
_symmetry_Int_Tables_number   1
_chemical_formula_structural   Y7(HoIn4)5
_chemical_formula_sum   'Y7 Ho5 In20'
_cell_volume   836.06969705
_cell_formula_units_Z   1
loop_
 _symmetry_equiv_pos_site_id
 _symmetry_equiv_pos_as_xyz
  1  'x, y, z'
loop_
 _atom_site_type_symbol
 _atom_site_label
 _atom_site_symmetry_multiplicity
 _atom_site_fract_x
 _atom_site_fract_y
 _atom_site_fract_z
 _atom_site_occupancy
  Y  Y0  1  0.609696  0.006313  0.642316  1
  Y  Y1  1  0.109731  0.993584  0.857798  1
  Y  Y2  1  0.390352  0.506394  0.357798  1
  Y  Y3  1  0.109561  0.506349  0.858188  1
  Y  Y4  1  0.390295  0.993599  0.357627  1
  Y  Y5  1  0.890134  0.006472  0.142340  1
  Y  Y6  1  0.609720  0.493613  0.642222  1
  Ho  Ho7  1  0.349579  0.750101  0.056346  1
  Ho  Ho8  1  0.149750  0.750042  0.556273  1
  Ho  Ho9  1  0.649944  0.250182  0.943764  1
  Ho  Ho10  1  0.849999  0.249804  0.443722  1
  Ho  Ho11  1  0.890757  0.493580  0.141745  1
  In  In12  1  0.616272  0.749879  0.504796  1
  In  In13  1  0.883284  0.749420  0.005420  1
  In  In14  1  0.383648  0.250042  0.495096  1
  In  In15  1  0.115984  0.250140  0.995335  1
  In  In16  1  0.650725  0.749370  0.245753  1
  In  In17  1  0.849563  0.749925  0.746128  1
  In  In18  1  0.349527  0.250054  0.753996  1
  In  In19  1  0.150242  0.250512  0.253866  1
  In  In20  1  0.125712  0.749809  0.285013  1
  In  In21  1  0.374335  0.749900  0.785090  1
  In  In22  1  0.874239  0.250066  0.714887  1
  In  In23  1  0.626867  0.250818  0.214640  1
  In  In24  1  0.875716  0.543716  0.400851  1
  In  In25  1  0.624724  0.955991  0.901686  1
  In  In26  1  0.124548  0.043991  0.598436  1
  In  In27  1  0.375362  0.456253  0.098668  1
  In  In28  1  0.124428  0.456083  0.598459  1
  In  In29  1  0.375419  0.044101  0.098495  1
  In  In30  1  0.875413  0.955952  0.401485  1
  In  In31  1  0.624478  0.543944  0.901764  1
