# generated using pymatgen
data_Ho4TlSe3
_symmetry_space_group_name_H-M   'P 1'
_cell_length_a   7.16087991
_cell_length_b   7.16087990
_cell_length_c   7.16088000
_cell_angle_alpha   131.76862464
_cell_angle_beta   131.76862457
_cell_angle_gamma   70.59470360
_symmetry_Int_Tables_number   1
_chemical_formula_structural   Ho4TlSe3
_chemical_formula_sum   'Ho4 Tl1 Se3'
_cell_volume   200.12059170
_cell_formula_units_Z   1
loop_
 _symmetry_equiv_pos_site_id
 _symmetry_equiv_pos_as_xyz
  1  'x, y, z'
loop_
 _atom_site_type_symbol
 _atom_site_label
 _atom_site_symmetry_multiplicity
 _atom_site_fract_x
 _atom_site_fract_y
 _atom_site_fract_z
 _atom_site_occupancy
  Ho  Ho0  1  0.245692  0.245692  0.000000  1
  Ho  Ho1  1  0.754307  0.754307  0.000000  1
  Ho  Ho2  1  0.500000  0.000000  0.500000  1
  Ho  Ho3  1  0.000000  0.500000  0.500000  1
  Tl  Tl4  1  0.500000  0.500000  0.000000  1
  Se  Se5  1  0.000000  0.000000  0.000000  1
  Se  Se6  1  0.749999  0.250000  0.500000  1
  Se  Se7  1  0.250000  0.749999  0.500000  1
