# generated using pymatgen
data_Pa6Si2Tc
_symmetry_space_group_name_H-M   'P 1'
_cell_length_a   8.05212700
_cell_length_b   8.05212679
_cell_length_c   3.54691300
_cell_angle_alpha   90.00000000
_cell_angle_beta   90.00000000
_cell_angle_gamma   120.00000499
_symmetry_Int_Tables_number   1
_chemical_formula_structural   Pa6Si2Tc
_chemical_formula_sum   'Pa6 Si2 Tc1'
_cell_volume   199.16011413
_cell_formula_units_Z   1
loop_
 _symmetry_equiv_pos_site_id
 _symmetry_equiv_pos_as_xyz
  1  'x, y, z'
loop_
 _atom_site_type_symbol
 _atom_site_label
 _atom_site_symmetry_multiplicity
 _atom_site_fract_x
 _atom_site_fract_y
 _atom_site_fract_z
 _atom_site_occupancy
  Pa  Pa0  1  0.266569  0.000000  0.500000  1
  Pa  Pa1  1  0.000000  0.266569  0.500000  1
  Pa  Pa2  1  0.733431  0.733431  0.500000  1
  Pa  Pa3  1  0.578388  0.000000  0.000000  1
  Pa  Pa4  1  0.000000  0.578388  0.000000  1
  Pa  Pa5  1  0.421612  0.421612  0.000000  1
  Si  Si6  1  0.333333  0.666667  0.500000  1
  Si  Si7  1  0.666667  0.333333  0.500000  1
  Tc  Tc8  1  0.000000  0.000000  0.000000  1
