# generated using pymatgen
data_Dy5Hf5Co4(Si5Ir)4
_symmetry_space_group_name_H-M   'P 1'
_cell_length_a   12.33671867
_cell_length_b   12.30498767
_cell_length_c   4.08725200
_cell_angle_alpha   90.00000000
_cell_angle_beta   90.00000000
_cell_angle_gamma   89.96229525
_symmetry_Int_Tables_number   1
_chemical_formula_structural   Dy5Hf5Co4(Si5Ir)4
_chemical_formula_sum   'Dy5 Hf5 Co4 Si20 Ir4'
_cell_volume   620.45768012
_cell_formula_units_Z   1
loop_
 _symmetry_equiv_pos_site_id
 _symmetry_equiv_pos_as_xyz
  1  'x, y, z'
loop_
 _atom_site_type_symbol
 _atom_site_label
 _atom_site_symmetry_multiplicity
 _atom_site_fract_x
 _atom_site_fract_y
 _atom_site_fract_z
 _atom_site_occupancy
  Dy  Dy0  1  0.000000  0.000000  0.000000  1
  Dy  Dy1  1  0.884063  0.385451  0.500000  1
  Dy  Dy2  1  0.115937  0.614549  0.500000  1
  Dy  Dy3  1  0.385743  0.115246  0.500000  1
  Dy  Dy4  1  0.614257  0.884754  0.500000  1
  Hf  Hf5  1  0.500000  0.500000  0.000000  1
  Hf  Hf6  1  0.675799  0.174804  0.500000  1
  Hf  Hf7  1  0.324201  0.825196  0.500000  1
  Hf  Hf8  1  0.177718  0.326702  0.500000  1
  Hf  Hf9  1  0.822282  0.673298  0.500000  1
  Co  Co10  1  0.739970  0.523559  0.000000  1
  Co  Co11  1  0.260030  0.476441  0.000000  1
  Co  Co12  1  0.245012  0.975706  0.000000  1
  Co  Co13  1  0.754988  0.024294  0.000000  1
  Si  Si14  1  0.571940  0.064482  0.000000  1
  Si  Si15  1  0.428060  0.935518  0.000000  1
  Si  Si16  1  0.073953  0.437500  0.000000  1
  Si  Si17  1  0.926047  0.562500  0.000000  1
  Si  Si18  1  0.665019  0.696150  0.000000  1
  Si  Si19  1  0.334981  0.303850  0.000000  1
  Si  Si20  1  0.164596  0.804529  0.000000  1
  Si  Si21  1  0.835404  0.195471  0.000000  1
  Si  Si22  1  0.297965  0.657231  0.000000  1
  Si  Si23  1  0.702035  0.342769  0.000000  1
  Si  Si24  1  0.201753  0.156479  0.000000  1
  Si  Si25  1  0.798247  0.843521  0.000000  1
  Si  Si26  1  0.660148  0.508135  0.500000  1
  Si  Si27  1  0.339852  0.491865  0.500000  1
  Si  Si28  1  0.165784  0.992564  0.500000  1
  Si  Si29  1  0.834216  0.007436  0.500000  1
  Si  Si30  1  0.493022  0.652106  0.500000  1
  Si  Si31  1  0.506978  0.347894  0.500000  1
  Si  Si32  1  0.006941  0.157930  0.500000  1
  Si  Si33  1  0.993059  0.842070  0.500000  1
  Ir  Ir34  1  0.476261  0.743168  0.000000  1
  Ir  Ir35  1  0.523739  0.256832  0.000000  1
  Ir  Ir36  1  0.024224  0.247639  0.000000  1
  Ir  Ir37  1  0.975776  0.752361  0.000000  1
