# generated using pymatgen
data_ReTc11(BW)12
_symmetry_space_group_name_H-M   'P 1'
_cell_length_a   3.07091200
_cell_length_b   8.99650244
_cell_length_c   15.61134069
_cell_angle_alpha   89.97520997
_cell_angle_beta   90.00000000
_cell_angle_gamma   90.00000000
_symmetry_Int_Tables_number   1
_chemical_formula_structural   ReTc11(BW)12
_chemical_formula_sum   'Re1 Tc11 B12 W12'
_cell_volume   431.30176412
_cell_formula_units_Z   1
loop_
 _symmetry_equiv_pos_site_id
 _symmetry_equiv_pos_as_xyz
  1  'x, y, z'
loop_
 _atom_site_type_symbol
 _atom_site_label
 _atom_site_symmetry_multiplicity
 _atom_site_fract_x
 _atom_site_fract_y
 _atom_site_fract_z
 _atom_site_occupancy
  Re  Re0  1  0.500000  0.938630  0.233214  1
  Tc  Tc1  1  0.500000  0.713250  0.354712  1
  Tc  Tc2  1  0.500000  0.286814  0.645562  1
  Tc  Tc3  1  0.500000  0.213324  0.145265  1
  Tc  Tc4  1  0.500000  0.786574  0.854539  1
  Tc  Tc5  1  0.500000  0.514521  0.090481  1
  Tc  Tc6  1  0.500000  0.485202  0.909331  1
  Tc  Tc7  1  0.500000  0.015360  0.409966  1
  Tc  Tc8  1  0.500000  0.984990  0.590739  1
  Tc  Tc9  1  0.500000  0.561724  0.733016  1
  Tc  Tc10  1  0.500000  0.438260  0.267017  1
  Tc  Tc11  1  0.500000  0.061732  0.766895  1
  B  B12  1  0.500000  0.606590  0.494884  1
  B  B13  1  0.500000  0.393570  0.505178  1
  B  B14  1  0.500000  0.106653  0.004699  1
  B  B15  1  0.500000  0.893226  0.994240  1
  B  B16  1  0.000000  0.610310  0.833306  1
  B  B17  1  0.000000  0.389408  0.166628  1
  B  B18  1  0.000000  0.110271  0.666643  1
  B  B19  1  0.000000  0.890365  0.334010  1
  B  B20  1  0.500000  0.718839  0.601808  1
  B  B21  1  0.500000  0.281550  0.398548  1
  B  B22  1  0.500000  0.218912  0.898296  1
  B  B23  1  0.500000  0.781232  0.101684  1
  W  W24  1  0.000000  0.796013  0.496857  1
  W  W25  1  0.000000  0.204225  0.503554  1
  W  W26  1  0.000000  0.295676  0.003071  1
  W  W27  1  0.000000  0.703794  0.996772  1
  W  W28  1  0.000000  0.520266  0.592597  1
  W  W29  1  0.000000  0.479927  0.407512  1
  W  W30  1  0.000000  0.020217  0.907170  1
  W  W31  1  0.000000  0.979448  0.091842  1
  W  W32  1  0.000000  0.685030  0.199985  1
  W  W33  1  0.000000  0.314290  0.799794  1
  W  W34  1  0.000000  0.185411  0.299755  1
  W  W35  1  0.000000  0.814396  0.700430  1
