# generated using pymatgen
data_Tb6Nd2Cd2OsPd
_symmetry_space_group_name_H-M   'P 1'
_cell_length_a   9.76563480
_cell_length_b   9.76071510
_cell_length_c   9.83388527
_cell_angle_alpha   59.78362331
_cell_angle_beta   59.73390583
_cell_angle_gamma   59.64489032
_symmetry_Int_Tables_number   1
_chemical_formula_structural   Tb6Nd2Cd2OsPd
_chemical_formula_sum   'Tb12 Nd4 Cd4 Os2 Pd2'
_cell_volume   658.60995514
_cell_formula_units_Z   2
loop_
 _symmetry_equiv_pos_site_id
 _symmetry_equiv_pos_as_xyz
  1  'x, y, z'
loop_
 _atom_site_type_symbol
 _atom_site_label
 _atom_site_symmetry_multiplicity
 _atom_site_fract_x
 _atom_site_fract_y
 _atom_site_fract_z
 _atom_site_occupancy
  Tb  Tb0  1  0.349474  0.349140  0.353366  1
  Tb  Tb1  1  0.349174  0.349547  0.947985  1
  Tb  Tb2  1  0.343959  0.955978  0.350717  1
  Tb  Tb3  1  0.955988  0.343980  0.349443  1
  Tb  Tb4  1  0.818760  0.185239  0.189429  1
  Tb  Tb5  1  0.185243  0.818820  0.806508  1
  Tb  Tb6  1  0.186631  0.816700  0.190132  1
  Tb  Tb7  1  0.816758  0.186639  0.806474  1
  Tb  Tb8  1  0.187611  0.187605  0.812329  1
  Tb  Tb9  1  0.809281  0.809276  0.190746  1
  Tb  Tb10  1  0.942208  0.550069  0.563739  1
  Tb  Tb11  1  0.550099  0.942180  0.943981  1
  Nd  Nd12  1  0.556378  0.937839  0.566553  1
  Nd  Nd13  1  0.937831  0.556374  0.939203  1
  Nd  Nd14  1  0.564008  0.564018  0.935953  1
  Nd  Nd15  1  0.939460  0.939466  0.560517  1
  Cd  Cd16  1  0.581738  0.578508  0.579547  1
  Cd  Cd17  1  0.578521  0.581711  0.260225  1
  Cd  Cd18  1  0.579866  0.257681  0.582337  1
  Cd  Cd19  1  0.257702  0.579872  0.580100  1
  Os  Os20  1  0.148737  0.142812  0.134999  1
  Os  Os21  1  0.142793  0.148734  0.573470  1
  Pd  Pd22  1  0.144533  0.573269  0.142539  1
  Pd  Pd23  1  0.573249  0.144541  0.139707  1
