# generated using pymatgen
data_Mn2Pb(SeO3)4
_symmetry_space_group_name_H-M   'P 1'
_cell_length_a   6.98053383
_cell_length_b   9.47971366
_cell_length_c   9.33066330
_cell_angle_alpha   69.56764304
_cell_angle_beta   93.77896256
_cell_angle_gamma   91.84629084
_symmetry_Int_Tables_number   1
_chemical_formula_structural   Mn2Pb(SeO3)4
_chemical_formula_sum   'Mn4 Pb2 Se8 O24'
_cell_volume   577.30987731
_cell_formula_units_Z   2
loop_
 _symmetry_equiv_pos_site_id
 _symmetry_equiv_pos_as_xyz
  1  'x, y, z'
loop_
 _atom_site_type_symbol
 _atom_site_label
 _atom_site_symmetry_multiplicity
 _atom_site_fract_x
 _atom_site_fract_y
 _atom_site_fract_z
 _atom_site_occupancy
  Mn  Mn0  1  0.999552  0.751295  0.750325  1
  Mn  Mn1  1  0.499929  0.750164  0.249413  1
  Mn  Mn2  1  0.999695  0.251500  0.250313  1
  Mn  Mn3  1  0.500308  0.250167  0.749015  1
  Pb  Pb4  1  0.008288  0.518809  0.488952  1
  Pb  Pb5  1  0.008297  0.018807  0.988967  1
  Se  Se6  1  0.562365  0.119639  0.138861  1
  Se  Se7  1  0.562350  0.619646  0.638884  1
  Se  Se8  1  0.438140  0.880921  0.861102  1
  Se  Se9  1  0.438170  0.380915  0.361081  1
  Se  Se10  1  0.793197  0.103177  0.577090  1
  Se  Se11  1  0.793130  0.603239  0.077148  1
  Se  Se12  1  0.206281  0.899540  0.420853  1
  Se  Se13  1  0.206345  0.399481  0.920796  1
  O  O14  1  0.722586  0.712915  0.725291  1
  O  O15  1  0.722578  0.212886  0.225329  1
  O  O16  1  0.277766  0.287267  0.275042  1
  O  O17  1  0.277766  0.787299  0.775004  1
  O  O18  1  0.985667  0.195828  0.471890  1
  O  O19  1  0.985636  0.695830  0.971768  1
  O  O20  1  0.015710  0.803067  0.527665  1
  O  O21  1  0.015721  0.303072  0.027785  1
  O  O22  1  0.667242  0.613936  0.479068  1
  O  O23  1  0.667312  0.113923  0.979069  1
  O  O24  1  0.332936  0.386979  0.520617  1
  O  O25  1  0.332846  0.886981  0.020621  1
  O  O26  1  0.916530  0.983223  0.735833  1
  O  O27  1  0.916510  0.483219  0.235833  1
  O  O28  1  0.083016  0.017507  0.262327  1
  O  O29  1  0.083042  0.517498  0.762318  1
  O  O30  1  0.587329  0.937391  0.273864  1
  O  O31  1  0.587366  0.437368  0.773798  1
  O  O32  1  0.409014  0.063152  0.726587  1
  O  O33  1  0.408963  0.563178  0.226646  1
  O  O34  1  0.738461  0.249032  0.643185  1
  O  O35  1  0.738161  0.748998  0.143293  1
  O  O36  1  0.261658  0.750670  0.358126  1
  O  O37  1  0.261938  0.250679  0.858041  1
