# generated using pymatgen
data_La2Yb9Er9Sn16
_symmetry_space_group_name_H-M   'P 1'
_cell_length_a   7.85476425
_cell_length_b   8.42925727
_cell_length_c   15.91721800
_cell_angle_alpha   90.03038371
_cell_angle_beta   90.01447209
_cell_angle_gamma   89.80849302
_symmetry_Int_Tables_number   1
_chemical_formula_structural   La2Yb9Er9Sn16
_chemical_formula_sum   'La2 Yb9 Er9 Sn16'
_cell_volume   1053.87020795
_cell_formula_units_Z   1
loop_
 _symmetry_equiv_pos_site_id
 _symmetry_equiv_pos_as_xyz
  1  'x, y, z'
loop_
 _atom_site_type_symbol
 _atom_site_label
 _atom_site_symmetry_multiplicity
 _atom_site_fract_x
 _atom_site_fract_y
 _atom_site_fract_z
 _atom_site_occupancy
  La  La0  1  0.505141  0.685898  0.594416  1
  La  La1  1  0.005088  0.818236  0.908138  1
  Yb  Yb2  1  0.494746  0.311975  0.092600  1
  Yb  Yb3  1  0.996207  0.186766  0.407876  1
  Yb  Yb4  1  0.494086  0.312421  0.407258  1
  Yb  Yb5  1  0.995520  0.186434  0.092303  1
  Yb  Yb6  1  0.503934  0.686780  0.905808  1
  Yb  Yb7  1  0.004310  0.816310  0.591947  1
  Yb  Yb8  1  0.336420  0.991503  0.749770  1
  Yb  Yb9  1  0.163718  0.488290  0.250003  1
  Yb  Yb10  1  0.663357  0.009610  0.249984  1
  Er  Er11  1  0.673949  0.164448  0.622886  1
  Er  Er12  1  0.174727  0.333148  0.876296  1
  Er  Er13  1  0.325790  0.832831  0.122433  1
  Er  Er14  1  0.826250  0.664532  0.377864  1
  Er  Er15  1  0.325251  0.833046  0.377253  1
  Er  Er16  1  0.825528  0.664194  0.122497  1
  Er  Er17  1  0.674187  0.164609  0.876947  1
  Er  Er18  1  0.174697  0.333748  0.623783  1
  Er  Er19  1  0.837076  0.508570  0.750285  1
  Sn  Sn20  1  0.672499  0.962480  0.459833  1
  Sn  Sn21  1  0.172523  0.536816  0.039533  1
  Sn  Sn22  1  0.329840  0.037722  0.959639  1
  Sn  Sn23  1  0.829879  0.464618  0.543649  1
  Sn  Sn24  1  0.328539  0.036855  0.540665  1
  Sn  Sn25  1  0.828107  0.466124  0.956078  1
  Sn  Sn26  1  0.673110  0.961990  0.040280  1
  Sn  Sn27  1  0.172862  0.537532  0.460362  1
  Sn  Sn28  1  0.475946  0.380289  0.750113  1
  Sn  Sn29  1  0.972041  0.134154  0.749961  1
  Sn  Sn30  1  0.527511  0.624378  0.249984  1
  Sn  Sn31  1  0.026940  0.872924  0.249984  1
  Sn  Sn32  1  0.719125  0.862091  0.749812  1
  Sn  Sn33  1  0.208089  0.631715  0.749840  1
  Sn  Sn34  1  0.280958  0.126683  0.249860  1
  Sn  Sn35  1  0.782046  0.370281  0.250062  1
