# generated using pymatgen
data_Tm12Ni4BiRu
_symmetry_space_group_name_H-M   'P 1'
_cell_length_a   8.22698381
_cell_length_b   8.22772054
_cell_length_c   8.22691358
_cell_angle_alpha   106.57690957
_cell_angle_beta   110.40259350
_cell_angle_gamma   111.47349598
_symmetry_Int_Tables_number   1
_chemical_formula_structural   Tm12Ni4BiRu
_chemical_formula_sum   'Tm12 Ni4 Bi1 Ru1'
_cell_volume   427.83152546
_cell_formula_units_Z   1
loop_
 _symmetry_equiv_pos_site_id
 _symmetry_equiv_pos_as_xyz
  1  'x, y, z'
loop_
 _atom_site_type_symbol
 _atom_site_label
 _atom_site_symmetry_multiplicity
 _atom_site_fract_x
 _atom_site_fract_y
 _atom_site_fract_z
 _atom_site_occupancy
  Tm  Tm0  1  0.692461  0.284071  0.976523  1
  Tm  Tm1  1  0.307550  0.715802  0.023394  1
  Tm  Tm2  1  0.692335  0.715915  0.408276  1
  Tm  Tm3  1  0.307622  0.284126  0.591754  1
  Tm  Tm4  1  0.808955  0.127156  0.318231  1
  Tm  Tm5  1  0.808882  0.490659  0.681737  1
  Tm  Tm6  1  0.191071  0.872947  0.681850  1
  Tm  Tm7  1  0.191158  0.509363  0.318250  1
  Tm  Tm8  1  0.605570  0.784670  0.820852  1
  Tm  Tm9  1  0.963866  0.784677  0.179183  1
  Tm  Tm10  1  0.036135  0.215238  0.820861  1
  Tm  Tm11  1  0.394441  0.215268  0.179180  1
  Ni  Ni12  1  0.859456  0.500135  0.359429  1
  Ni  Ni13  1  0.140494  0.500123  0.640324  1
  Ni  Ni14  1  0.999789  0.121677  0.121407  1
  Ni  Ni15  1  0.000181  0.878281  0.878699  1
  Bi  Bi16  1  0.500053  0.000008  0.500029  1
  Ru  Ru17  1  0.499978  0.499885  0.000019  1
