# generated using pymatgen
data_HoCrNi4As3
_symmetry_space_group_name_H-M   'P 1'
_cell_length_a   3.83455500
_cell_length_b   10.89555900
_cell_length_c   12.39370300
_cell_angle_alpha   90.00000000
_cell_angle_beta   90.00000000
_cell_angle_gamma   90.00000000
_symmetry_Int_Tables_number   1
_chemical_formula_structural   HoCrNi4As3
_chemical_formula_sum   'Ho4 Cr4 Ni16 As12'
_cell_volume   517.80420472
_cell_formula_units_Z   4
loop_
 _symmetry_equiv_pos_site_id
 _symmetry_equiv_pos_as_xyz
  1  'x, y, z'
loop_
 _atom_site_type_symbol
 _atom_site_label
 _atom_site_symmetry_multiplicity
 _atom_site_fract_x
 _atom_site_fract_y
 _atom_site_fract_z
 _atom_site_occupancy
  Ho  Ho0  1  0.250000  0.581729  0.704786  1
  Ho  Ho1  1  0.250000  0.918271  0.204786  1
  Ho  Ho2  1  0.750000  0.418271  0.295214  1
  Ho  Ho3  1  0.750000  0.081729  0.795214  1
  Cr  Cr4  1  0.250000  0.704776  0.989135  1
  Cr  Cr5  1  0.250000  0.795224  0.489135  1
  Cr  Cr6  1  0.750000  0.295224  0.010865  1
  Cr  Cr7  1  0.750000  0.204776  0.510865  1
  Ni  Ni8  1  0.250000  0.406501  0.488883  1
  Ni  Ni9  1  0.250000  0.093499  0.988883  1
  Ni  Ni10  1  0.750000  0.593499  0.511117  1
  Ni  Ni11  1  0.750000  0.906501  0.011117  1
  Ni  Ni12  1  0.250000  0.216751  0.177129  1
  Ni  Ni13  1  0.250000  0.283249  0.677129  1
  Ni  Ni14  1  0.750000  0.783249  0.822871  1
  Ni  Ni15  1  0.750000  0.716751  0.322871  1
  Ni  Ni16  1  0.250000  0.883997  0.700697  1
  Ni  Ni17  1  0.250000  0.616003  0.200697  1
  Ni  Ni18  1  0.750000  0.116003  0.299303  1
  Ni  Ni19  1  0.750000  0.383997  0.799303  1
  Ni  Ni20  1  0.250000  0.467267  0.930222  1
  Ni  Ni21  1  0.250000  0.032733  0.430222  1
  Ni  Ni22  1  0.750000  0.532733  0.069778  1
  Ni  Ni23  1  0.750000  0.967267  0.569778  1
  As  As24  1  0.250000  0.416577  0.114838  1
  As  As25  1  0.250000  0.083423  0.614838  1
  As  As26  1  0.750000  0.583423  0.885162  1
  As  As27  1  0.750000  0.916577  0.385162  1
  As  As28  1  0.250000  0.266283  0.869337  1
  As  As29  1  0.250000  0.233717  0.369337  1
  As  As30  1  0.750000  0.733717  0.130663  1
  As  As31  1  0.750000  0.766283  0.630663  1
  As  As32  1  0.250000  0.597549  0.391241  1
  As  As33  1  0.250000  0.902451  0.891241  1
  As  As34  1  0.750000  0.402451  0.608759  1
  As  As35  1  0.750000  0.097549  0.108759  1
