# generated using pymatgen
data_Tb3Pa3CrCo17P12
_symmetry_space_group_name_H-M   'P 1'
_cell_length_a   3.72197600
_cell_length_b   10.48749394
_cell_length_c   12.18726416
_cell_angle_alpha   90.05775347
_cell_angle_beta   90.00000000
_cell_angle_gamma   90.00000000
_symmetry_Int_Tables_number   1
_chemical_formula_structural   Tb3Pa3CrCo17P12
_chemical_formula_sum   'Tb3 Pa3 Cr1 Co17 P12'
_cell_volume   475.71987434
_cell_formula_units_Z   1
loop_
 _symmetry_equiv_pos_site_id
 _symmetry_equiv_pos_as_xyz
  1  'x, y, z'
loop_
 _atom_site_type_symbol
 _atom_site_label
 _atom_site_symmetry_multiplicity
 _atom_site_fract_x
 _atom_site_fract_y
 _atom_site_fract_z
 _atom_site_occupancy
  Tb  Tb0  1  0.500000  0.185882  0.204448  1
  Tb  Tb1  1  0.000000  0.685604  0.794407  1
  Tb  Tb2  1  0.000000  0.314783  0.793167  1
  Pa  Pa3  1  0.000000  0.499240  0.528198  1
  Pa  Pa4  1  0.500000  0.000431  0.474274  1
  Pa  Pa5  1  0.500000  0.818460  0.207131  1
  Cr  Cr6  1  0.000000  0.999733  0.846917  1
  Co  Co7  1  0.500000  0.500190  0.160014  1
  Co  Co8  1  0.500000  0.499327  0.694744  1
  Co  Co9  1  0.000000  0.994025  0.300664  1
  Co  Co10  1  0.000000  0.500025  0.981262  1
  Co  Co11  1  0.500000  0.000035  0.014115  1
  Co  Co12  1  0.500000  0.334880  0.991964  1
  Co  Co13  1  0.500000  0.666909  0.993888  1
  Co  Co14  1  0.000000  0.167825  0.007019  1
  Co  Co15  1  0.000000  0.834532  0.009392  1
  Co  Co16  1  0.500000  0.299707  0.432083  1
  Co  Co17  1  0.500000  0.697193  0.430542  1
  Co  Co18  1  0.000000  0.196280  0.567592  1
  Co  Co19  1  0.000000  0.802626  0.570900  1
  Co  Co20  1  0.500000  0.881163  0.711385  1
  Co  Co21  1  0.500000  0.118792  0.710686  1
  Co  Co22  1  0.000000  0.622607  0.286645  1
  Co  Co23  1  0.000000  0.381105  0.289266  1
  P  P24  1  0.500000  0.500303  0.877382  1
  P  P25  1  0.000000  0.003327  0.119132  1
  P  P26  1  0.500000  0.498680  0.343583  1
  P  P27  1  0.000000  0.999244  0.659962  1
  P  P28  1  0.500000  0.306011  0.616067  1
  P  P29  1  0.500000  0.692897  0.616831  1
  P  P30  1  0.000000  0.190387  0.381863  1
  P  P31  1  0.000000  0.806334  0.388287  1
  P  P32  1  0.500000  0.847927  0.893716  1
  P  P33  1  0.500000  0.153436  0.893703  1
  P  P34  1  0.000000  0.649481  0.103459  1
  P  P35  1  0.000000  0.350618  0.105310  1
