# generated using pymatgen
data_CaHoTh2(Al3Ir)6
_symmetry_space_group_name_H-M   'P 1'
_cell_length_a   7.61207628
_cell_length_b   7.61522765
_cell_length_c   9.51410300
_cell_angle_alpha   90.00000000
_cell_angle_beta   90.00000000
_cell_angle_gamma   119.42307386
_symmetry_Int_Tables_number   1
_chemical_formula_structural   CaHoTh2(Al3Ir)6
_chemical_formula_sum   'Ca1 Ho1 Th2 Al18 Ir6'
_cell_volume   480.37458961
_cell_formula_units_Z   1
loop_
 _symmetry_equiv_pos_site_id
 _symmetry_equiv_pos_as_xyz
  1  'x, y, z'
loop_
 _atom_site_type_symbol
 _atom_site_label
 _atom_site_symmetry_multiplicity
 _atom_site_fract_x
 _atom_site_fract_y
 _atom_site_fract_z
 _atom_site_occupancy
  Ca  Ca0  1  0.004148  0.327257  0.750000  1
  Ho  Ho1  1  0.326761  0.004270  0.750000  1
  Th  Th2  1  0.995171  0.670861  0.250000  1
  Th  Th3  1  0.672544  0.995952  0.250000  1
  Al  Al4  1  0.135204  0.134821  0.250000  1
  Al  Al5  1  0.873990  0.872824  0.750000  1
  Al  Al6  1  0.005993  0.335623  0.068420  1
  Al  Al7  1  0.000298  0.663953  0.918240  1
  Al  Al8  1  0.000298  0.663953  0.581760  1
  Al  Al9  1  0.335690  0.005504  0.430676  1
  Al  Al10  1  0.005993  0.335623  0.431580  1
  Al  Al11  1  0.664255  0.000582  0.581729  1
  Al  Al12  1  0.664255  0.000582  0.918271  1
  Al  Al13  1  0.335690  0.005504  0.069324  1
  Al  Al14  1  0.331943  0.332259  0.556002  1
  Al  Al15  1  0.663147  0.663182  0.458173  1
  Al  Al16  1  0.663147  0.663182  0.041827  1
  Al  Al17  1  0.331943  0.332259  0.943998  1
  Al  Al18  1  0.340471  0.543084  0.250000  1
  Al  Al19  1  0.656547  0.447468  0.750000  1
  Al  Al20  1  0.543108  0.339355  0.250000  1
  Al  Al21  1  0.448744  0.661801  0.750000  1
  Ir  Ir22  1  0.671830  0.328470  0.001869  1
  Ir  Ir23  1  0.329567  0.674037  0.001799  1
  Ir  Ir24  1  0.329567  0.674037  0.498201  1
  Ir  Ir25  1  0.671830  0.328470  0.498131  1
  Ir  Ir26  1  0.998935  0.997543  0.002023  1
  Ir  Ir27  1  0.998935  0.997543  0.497977  1
