# generated using pymatgen
data_Cs4PrPaTe6
_symmetry_space_group_name_H-M   'P 1'
_cell_length_a   8.48335592
_cell_length_b   8.48335641
_cell_length_c   9.36483406
_cell_angle_alpha   81.12532613
_cell_angle_beta   81.12532273
_cell_angle_gamma   119.89794469
_symmetry_Int_Tables_number   1
_chemical_formula_structural   Cs4PrPaTe6
_chemical_formula_sum   'Cs4 Pr1 Pa1 Te6'
_cell_volume   555.85056774
_cell_formula_units_Z   1
loop_
 _symmetry_equiv_pos_site_id
 _symmetry_equiv_pos_as_xyz
  1  'x, y, z'
loop_
 _atom_site_type_symbol
 _atom_site_label
 _atom_site_symmetry_multiplicity
 _atom_site_fract_x
 _atom_site_fract_y
 _atom_site_fract_z
 _atom_site_occupancy
  Cs  Cs0  1  0.499931  0.500069  0.000000  1
  Cs  Cs1  1  0.652453  0.347547  0.500000  1
  Cs  Cs2  1  0.346493  0.653507  0.500000  1
  Cs  Cs3  1  0.001064  0.998936  0.500000  1
  Pr  Pr4  1  0.168066  0.831934  0.000000  1
  Pa  Pa5  1  0.832086  0.167914  0.000000  1
  Te  Te6  1  0.809908  0.827367  0.193124  1
  Te  Te7  1  0.172633  0.190092  0.806876  1
  Te  Te8  1  0.450508  0.056292  0.198044  1
  Te  Te9  1  0.585764  0.962613  0.802180  1
  Te  Te10  1  0.943708  0.549492  0.801956  1
  Te  Te11  1  0.037387  0.414236  0.197820  1
