# generated using pymatgen
data_Ho2Al2IrPt
_symmetry_space_group_name_H-M   'P 1'
_cell_length_a   4.34964800
_cell_length_b   6.78304600
_cell_length_c   7.86730800
_cell_angle_alpha   90.00000000
_cell_angle_beta   90.00000000
_cell_angle_gamma   90.00000000
_symmetry_Int_Tables_number   1
_chemical_formula_structural   Ho2Al2IrPt
_chemical_formula_sum   'Ho4 Al4 Ir2 Pt2'
_cell_volume   232.11597322
_cell_formula_units_Z   2
loop_
 _symmetry_equiv_pos_site_id
 _symmetry_equiv_pos_as_xyz
  1  'x, y, z'
loop_
 _atom_site_type_symbol
 _atom_site_label
 _atom_site_symmetry_multiplicity
 _atom_site_fract_x
 _atom_site_fract_y
 _atom_site_fract_z
 _atom_site_occupancy
  Ho  Ho0  1  0.250000  0.033230  0.678899  1
  Ho  Ho1  1  0.250000  0.533230  0.821101  1
  Ho  Ho2  1  0.750000  0.971504  0.318575  1
  Ho  Ho3  1  0.750000  0.471504  0.181425  1
  Al  Al4  1  0.250000  0.139584  0.064079  1
  Al  Al5  1  0.250000  0.639584  0.435921  1
  Al  Al6  1  0.750000  0.857406  0.940805  1
  Al  Al7  1  0.750000  0.357406  0.559195  1
  Ir  Ir8  1  0.250000  0.265897  0.381301  1
  Ir  Ir9  1  0.250000  0.765897  0.118699  1
  Pt  Pt10  1  0.750000  0.732379  0.620579  1
  Pt  Pt11  1  0.750000  0.232379  0.879421  1
