# generated using pymatgen
data_TiNb11Al8(IrC)4
_symmetry_space_group_name_H-M   'P 1'
_cell_length_a   8.33793989
_cell_length_b   8.32799409
_cell_length_c   8.33794071
_cell_angle_alpha   60.03945410
_cell_angle_beta   59.98602269
_cell_angle_gamma   60.03945139
_symmetry_Int_Tables_number   1
_chemical_formula_structural   TiNb11Al8(IrC)4
_chemical_formula_sum   'Ti1 Nb11 Al8 Ir4 C4'
_cell_volume   409.59603721
_cell_formula_units_Z   1
loop_
 _symmetry_equiv_pos_site_id
 _symmetry_equiv_pos_as_xyz
  1  'x, y, z'
loop_
 _atom_site_type_symbol
 _atom_site_label
 _atom_site_symmetry_multiplicity
 _atom_site_fract_x
 _atom_site_fract_y
 _atom_site_fract_z
 _atom_site_occupancy
  Ti  Ti0  1  0.687259  0.312741  0.687259  1
  Nb  Nb1  1  0.936562  0.561541  0.562987  1
  Nb  Nb2  1  0.562987  0.938910  0.936562  1
  Nb  Nb3  1  0.938430  0.561570  0.938430  1
  Nb  Nb4  1  0.562987  0.561541  0.936562  1
  Nb  Nb5  1  0.936562  0.938910  0.562987  1
  Nb  Nb6  1  0.686572  0.689358  0.312953  1
  Nb  Nb7  1  0.312953  0.689358  0.686572  1
  Nb  Nb8  1  0.686572  0.311117  0.312953  1
  Nb  Nb9  1  0.312953  0.311117  0.686572  1
  Nb  Nb10  1  0.562439  0.937561  0.562439  1
  Nb  Nb11  1  0.312411  0.687589  0.312411  1
  Al  Al12  1  0.333304  0.333745  0.333304  1
  Al  Al13  1  0.251306  0.916207  0.916276  1
  Al  Al14  1  0.916300  0.250260  0.916300  1
  Al  Al15  1  0.916276  0.916207  0.251306  1
  Al  Al16  1  0.333304  0.999648  0.333304  1
  Al  Al17  1  0.335327  0.333504  0.997667  1
  Al  Al18  1  0.997667  0.333504  0.335327  1
  Al  Al19  1  0.916300  0.917136  0.916300  1
  Ir  Ir20  1  0.124950  0.125452  0.124950  1
  Ir  Ir21  1  0.625099  0.125467  0.123967  1
  Ir  Ir22  1  0.124950  0.624649  0.124950  1
  Ir  Ir23  1  0.123967  0.125467  0.625099  1
  C  C24  1  0.626104  0.619552  0.626104  1
  C  C25  1  0.124883  0.624823  0.625469  1
  C  C26  1  0.626104  0.128240  0.626104  1
  C  C27  1  0.625469  0.624823  0.124883  1
