# generated using pymatgen
data_BaRhAu12
_symmetry_space_group_name_H-M   'P 1'
_cell_length_a   9.31502897
_cell_length_b   9.31502922
_cell_length_c   9.31503000
_cell_angle_alpha   60.00000435
_cell_angle_beta   60.00000343
_cell_angle_gamma   60.00000526
_symmetry_Int_Tables_number   1
_chemical_formula_structural   BaRhAu12
_chemical_formula_sum   'Ba2 Rh2 Au24'
_cell_volume   571.52829267
_cell_formula_units_Z   2
loop_
 _symmetry_equiv_pos_site_id
 _symmetry_equiv_pos_as_xyz
  1  'x, y, z'
loop_
 _atom_site_type_symbol
 _atom_site_label
 _atom_site_symmetry_multiplicity
 _atom_site_fract_x
 _atom_site_fract_y
 _atom_site_fract_z
 _atom_site_occupancy
  Ba  Ba0  1  0.250000  0.250000  0.250000  1
  Ba  Ba1  1  0.750000  0.750000  0.750000  1
  Rh  Rh2  1  0.000000  0.000000  0.000000  1
  Rh  Rh3  1  0.500000  0.500000  0.500000  1
  Au  Au4  1  0.938775  0.701607  0.298393  1
  Au  Au5  1  0.438775  0.201607  0.561225  1
  Au  Au6  1  0.201607  0.438775  0.798393  1
  Au  Au7  1  0.798393  0.201607  0.438775  1
  Au  Au8  1  0.438775  0.561225  0.798393  1
  Au  Au9  1  0.201607  0.561225  0.438775  1
  Au  Au10  1  0.798393  0.438775  0.561225  1
  Au  Au11  1  0.298393  0.938775  0.701607  1
  Au  Au12  1  0.701607  0.298393  0.938775  1
  Au  Au13  1  0.938775  0.061225  0.701607  1
  Au  Au14  1  0.938775  0.298393  0.061225  1
  Au  Au15  1  0.701607  0.061225  0.298393  1
  Au  Au16  1  0.061225  0.938775  0.298393  1
  Au  Au17  1  0.061225  0.701607  0.938775  1
  Au  Au18  1  0.298393  0.701607  0.061225  1
  Au  Au19  1  0.561225  0.438775  0.201607  1
  Au  Au20  1  0.561225  0.798393  0.438775  1
  Au  Au21  1  0.438775  0.798393  0.201607  1
  Au  Au22  1  0.561225  0.201607  0.798393  1
  Au  Au23  1  0.798393  0.561225  0.201607  1
  Au  Au24  1  0.201607  0.798393  0.561225  1
  Au  Au25  1  0.701607  0.938775  0.061225  1
  Au  Au26  1  0.298393  0.061225  0.938775  1
  Au  Au27  1  0.061225  0.298393  0.701607  1
