# generated using pymatgen
data_Dy5Si6P6Ir16Rh3
_symmetry_space_group_name_H-M   'P 1'
_cell_length_a   12.80783400
_cell_length_b   12.80783434
_cell_length_c   3.94930300
_cell_angle_alpha   90.00000000
_cell_angle_beta   90.00000000
_cell_angle_gamma   119.99999913
_symmetry_Int_Tables_number   1
_chemical_formula_structural   Dy5Si6P6Ir16Rh3
_chemical_formula_sum   'Dy5 Si6 P6 Ir16 Rh3'
_cell_volume   561.05118284
_cell_formula_units_Z   1
loop_
 _symmetry_equiv_pos_site_id
 _symmetry_equiv_pos_as_xyz
  1  'x, y, z'
loop_
 _atom_site_type_symbol
 _atom_site_label
 _atom_site_symmetry_multiplicity
 _atom_site_fract_x
 _atom_site_fract_y
 _atom_site_fract_z
 _atom_site_occupancy
  Dy  Dy0  1  0.333333  0.666667  0.500000  1
  Dy  Dy1  1  0.666667  0.333333  0.500000  1
  Dy  Dy2  1  0.001702  0.816126  0.000000  1
  Dy  Dy3  1  0.183874  0.185576  0.000000  1
  Dy  Dy4  1  0.814424  0.998298  0.000000  1
  Si  Si5  1  0.000859  0.634504  0.500000  1
  Si  Si6  1  0.365496  0.366356  0.500000  1
  Si  Si7  1  0.633644  0.999141  0.500000  1
  Si  Si8  1  0.519590  0.682267  0.000000  1
  Si  Si9  1  0.317733  0.837323  0.000000  1
  Si  Si10  1  0.162677  0.480410  0.000000  1
  P  P11  1  0.483747  0.176962  0.000000  1
  P  P12  1  0.693215  0.516253  0.000000  1
  P  P13  1  0.823038  0.306785  0.000000  1
  P  P14  1  0.996234  0.177453  0.500000  1
  P  P15  1  0.822547  0.818781  0.500000  1
  P  P16  1  0.181219  0.003766  0.500000  1
  Ir  Ir17  1  0.516131  0.869766  0.000000  1
  Ir  Ir18  1  0.130234  0.646366  0.000000  1
  Ir  Ir19  1  0.353634  0.483869  0.000000  1
  Ir  Ir20  1  0.493792  0.367544  0.000000  1
  Ir  Ir21  1  0.873752  0.506208  0.000000  1
  Ir  Ir22  1  0.632456  0.126248  0.000000  1
  Ir  Ir23  1  0.993560  0.276647  0.000000  1
  Ir  Ir24  1  0.723353  0.716912  0.000000  1
  Ir  Ir25  1  0.283088  0.006440  0.000000  1
  Ir  Ir26  1  0.632365  0.808638  0.500000  1
  Ir  Ir27  1  0.191362  0.823727  0.500000  1
  Ir  Ir28  1  0.176273  0.367635  0.500000  1
  Ir  Ir29  1  0.381267  0.183043  0.500000  1
  Ir  Ir30  1  0.801776  0.618733  0.500000  1
  Ir  Ir31  1  0.816957  0.198224  0.500000  1
  Ir  Ir32  1  0.000000  0.000000  0.500000  1
  Rh  Rh33  1  0.013957  0.457180  0.500000  1
  Rh  Rh34  1  0.542820  0.556777  0.500000  1
  Rh  Rh35  1  0.443223  0.986043  0.500000  1
