# generated using pymatgen
data_Ba(Ca2Cu3)2
_symmetry_space_group_name_H-M   'P 1'
_cell_length_a   15.93765000
_cell_length_b   15.93764956
_cell_length_c   4.27496800
_cell_angle_alpha   90.00000000
_cell_angle_beta   90.00000000
_cell_angle_gamma   165.20555505
_symmetry_Int_Tables_number   1
_chemical_formula_structural   Ba(Ca2Cu3)2
_chemical_formula_sum   'Ba1 Ca4 Cu6'
_cell_volume   277.28139062
_cell_formula_units_Z   1
loop_
 _symmetry_equiv_pos_site_id
 _symmetry_equiv_pos_as_xyz
  1  'x, y, z'
loop_
 _atom_site_type_symbol
 _atom_site_label
 _atom_site_symmetry_multiplicity
 _atom_site_fract_x
 _atom_site_fract_y
 _atom_site_fract_z
 _atom_site_occupancy
  Ba  Ba0  1  0.616726  0.383272  0.000000  1
  Ca  Ca1  1  0.994554  0.005446  0.000000  1
  Ca  Ca2  1  0.385734  0.614264  0.000000  1
  Ca  Ca3  1  0.807773  0.192225  0.500001  1
  Ca  Ca4  1  0.209789  0.790209  0.500001  1
  Cu  Cu5  1  0.735264  0.264734  0.000000  1
  Cu  Cu6  1  0.280301  0.719697  0.000000  1
  Cu  Cu7  1  0.913909  0.086090  0.500001  1
  Cu  Cu8  1  0.531315  0.468683  0.500001  1
  Cu  Cu9  1  0.454042  0.545956  0.500001  1
  Cu  Cu10  1  0.070583  0.929416  0.500001  1
