# generated using pymatgen
data_KRb3Zr6GaI18
_symmetry_space_group_name_H-M   'P 1'
_cell_length_a   11.42793928
_cell_length_b   11.63563227
_cell_length_c   11.75710063
_cell_angle_alpha   118.68153558
_cell_angle_beta   100.30800127
_cell_angle_gamma   103.98014089
_symmetry_Int_Tables_number   1
_chemical_formula_structural   KRb3Zr6GaI18
_chemical_formula_sum   'K1 Rb3 Zr6 Ga1 I18'
_cell_volume   1248.51345379
_cell_formula_units_Z   1
loop_
 _symmetry_equiv_pos_site_id
 _symmetry_equiv_pos_as_xyz
  1  'x, y, z'
loop_
 _atom_site_type_symbol
 _atom_site_label
 _atom_site_symmetry_multiplicity
 _atom_site_fract_x
 _atom_site_fract_y
 _atom_site_fract_z
 _atom_site_occupancy
  K  K0  1  0.315844  0.774348  0.435366  1
  Rb  Rb1  1  0.652983  0.537648  0.228423  1
  Rb  Rb2  1  0.346385  0.463042  0.771873  1
  Rb  Rb3  1  0.689598  0.226342  0.565634  1
  Zr  Zr4  1  0.149734  0.052500  0.230719  1
  Zr  Zr5  1  0.849742  0.946196  0.768855  1
  Zr  Zr6  1  0.862476  0.128128  0.134195  1
  Zr  Zr7  1  0.138422  0.872741  0.864775  1
  Zr  Zr8  1  0.144868  0.240203  0.044269  1
  Zr  Zr9  1  0.855643  0.760818  0.957129  1
  Ga  Ga10  1  0.000331  0.999946  0.999716  1
  I  I11  1  0.009357  0.408305  0.197645  1
  I  I12  1  0.992266  0.592670  0.803326  1
  I  I13  1  0.327543  0.328281  0.308232  1
  I  I14  1  0.672760  0.670829  0.692867  1
  I  I15  1  0.317970  0.524832  0.105677  1
  I  I16  1  0.681122  0.480544  0.901479  1
  I  I17  1  0.004171  0.794736  0.208871  1
  I  I18  1  0.996065  0.204745  0.790684  1
  I  I19  1  0.704187  0.272950  0.285482  1
  I  I20  1  0.295126  0.728871  0.707032  1
  I  I21  1  0.316031  0.128228  0.904917  1
  I  I22  1  0.684419  0.873653  0.095854  1
  I  I23  1  0.016845  0.204340  0.407036  1
  I  I24  1  0.982767  0.795977  0.592790  1
  I  I25  1  0.320382  0.923772  0.107942  1
  I  I26  1  0.679846  0.075750  0.890793  1
  I  I27  1  0.329548  0.111049  0.497358  1
  I  I28  1  0.663565  0.878556  0.501061  1
