# generated using pymatgen
data_La2Cr2TeWO12
_symmetry_space_group_name_H-M   'P 1'
_cell_length_a   5.24346700
_cell_length_b   5.24342170
_cell_length_c   10.40034700
_cell_angle_alpha   90.00013585
_cell_angle_beta   89.99992929
_cell_angle_gamma   119.99971362
_symmetry_Int_Tables_number   1
_chemical_formula_structural   La2Cr2TeWO12
_chemical_formula_sum   'La2 Cr2 Te1 W1 O12'
_cell_volume   247.63557824
_cell_formula_units_Z   1
loop_
 _symmetry_equiv_pos_site_id
 _symmetry_equiv_pos_as_xyz
  1  'x, y, z'
loop_
 _atom_site_type_symbol
 _atom_site_label
 _atom_site_symmetry_multiplicity
 _atom_site_fract_x
 _atom_site_fract_y
 _atom_site_fract_z
 _atom_site_occupancy
  La  La0  1  0.000014  0.000012  0.000563  1
  La  La1  1  0.000015  0.000003  0.499437  1
  Cr  Cr2  1  0.333337  0.666668  0.250000  1
  Cr  Cr3  1  0.666318  0.333158  0.750000  1
  Te  Te4  1  0.333373  0.666687  0.750000  1
  W  W5  1  0.666642  0.333321  0.250000  1
  O  O6  1  0.634792  0.625064  0.144621  1
  O  O7  1  0.990288  0.365219  0.144615  1
  O  O8  1  0.374956  0.009735  0.144617  1
  O  O9  1  0.990289  0.625072  0.355386  1
  O  O10  1  0.374958  0.365221  0.355384  1
  O  O11  1  0.634792  0.009728  0.355379  1
  O  O12  1  0.365431  0.990398  0.644339  1
  O  O13  1  0.625009  0.634626  0.644336  1
  O  O14  1  0.009674  0.375038  0.644336  1
  O  O15  1  0.625010  0.990385  0.855664  1
  O  O16  1  0.009675  0.634635  0.855664  1
  O  O17  1  0.365431  0.375034  0.855661  1
