# generated using pymatgen
data_YbDy7Y12(Cd3Ru)2
_symmetry_space_group_name_H-M   'P 1'
_cell_length_a   9.64035139
_cell_length_b   9.64034994
_cell_length_c   9.83847184
_cell_angle_alpha   89.93932213
_cell_angle_beta   90.06067998
_cell_angle_gamma   119.90898296
_symmetry_Int_Tables_number   1
_chemical_formula_structural   YbDy7Y12(Cd3Ru)2
_chemical_formula_sum   'Yb1 Dy7 Y12 Cd6 Ru2'
_cell_volume   792.57651399
_cell_formula_units_Z   1
loop_
 _symmetry_equiv_pos_site_id
 _symmetry_equiv_pos_as_xyz
  1  'x, y, z'
loop_
 _atom_site_type_symbol
 _atom_site_label
 _atom_site_symmetry_multiplicity
 _atom_site_fract_x
 _atom_site_fract_y
 _atom_site_fract_z
 _atom_site_occupancy
  Yb  Yb0  1  0.999977  0.000023  0.499984  1
  Dy  Dy1  1  0.210840  0.789160  0.439404  1
  Dy  Dy2  1  0.210890  0.421856  0.439506  1
  Dy  Dy3  1  0.578144  0.789110  0.439506  1
  Dy  Dy4  1  0.789253  0.210747  0.560606  1
  Dy  Dy5  1  0.789043  0.578188  0.560415  1
  Dy  Dy6  1  0.421812  0.210957  0.560415  1
  Dy  Dy7  1  0.789525  0.210475  0.939886  1
  Y  Y8  1  0.999837  0.000163  0.999856  1
  Y  Y9  1  0.789921  0.579768  0.940532  1
  Y  Y10  1  0.420232  0.210079  0.940532  1
  Y  Y11  1  0.210132  0.789868  0.059556  1
  Y  Y12  1  0.209997  0.420240  0.059560  1
  Y  Y13  1  0.579760  0.790003  0.059560  1
  Y  Y14  1  0.541560  0.458440  0.251449  1
  Y  Y15  1  0.541596  0.083192  0.251395  1
  Y  Y16  1  0.916808  0.458404  0.251395  1
  Y  Y17  1  0.458393  0.541607  0.748542  1
  Y  Y18  1  0.458595  0.917023  0.748588  1
  Y  Y19  1  0.082977  0.541405  0.748588  1
  Cd  Cd20  1  0.884938  0.115062  0.250176  1
  Cd  Cd21  1  0.884912  0.769808  0.250125  1
  Cd  Cd22  1  0.230192  0.115088  0.250125  1
  Cd  Cd23  1  0.115078  0.884922  0.749928  1
  Cd  Cd24  1  0.115130  0.230189  0.749851  1
  Cd  Cd25  1  0.769811  0.884870  0.749851  1
  Ru  Ru26  1  0.333350  0.666650  0.252290  1
  Ru  Ru27  1  0.667295  0.332705  0.748377  1
