# generated using pymatgen
data_AlSe23
_symmetry_space_group_name_H-M   'P 1'
_cell_length_a   5.48466520
_cell_length_b   10.08254414
_cell_length_c   15.64949600
_cell_angle_alpha   98.94882388
_cell_angle_beta   86.30809311
_cell_angle_gamma   94.29197879
_symmetry_Int_Tables_number   1
_chemical_formula_structural   AlSe23
_chemical_formula_sum   'Al1 Se23'
_cell_volume   851.25283311
_cell_formula_units_Z   1
loop_
 _symmetry_equiv_pos_site_id
 _symmetry_equiv_pos_as_xyz
  1  'x, y, z'
loop_
 _atom_site_type_symbol
 _atom_site_label
 _atom_site_symmetry_multiplicity
 _atom_site_fract_x
 _atom_site_fract_y
 _atom_site_fract_z
 _atom_site_occupancy
  Al  Al0  1  0.446139  0.193076  0.317076  1
  Se  Se1  1  0.552109  0.832079  0.404458  1
  Se  Se2  1  0.849958  0.352364  0.139814  1
  Se  Se3  1  0.727134  0.191471  0.427871  1
  Se  Se4  1  0.299692  0.785532  0.526444  1
  Se  Se5  1  0.161309  0.280762  0.031452  1
  Se  Se6  1  0.790466  0.723694  0.029393  1
  Se  Se7  1  0.189290  0.378624  0.346574  1
  Se  Se8  1  0.737255  0.630440  0.351303  1
  Se  Se9  1  0.715443  0.142802  0.184836  1
  Se  Se10  1  0.312157  0.905971  0.156188  1
  Se  Se11  1  0.767811  0.616416  0.629052  1
  Se  Se12  1  0.256686  0.355637  0.604781  1
  Se  Se13  1  0.223986  0.869658  0.869358  1
  Se  Se14  1  0.755745  0.122040  0.850109  1
  Se  Se15  1  0.089785  0.693479  0.125466  1
  Se  Se16  1  0.577528  0.821445  0.638407  1
  Se  Se17  1  0.432763  0.155172  0.544041  1
  Se  Se18  1  0.987568  0.670775  0.890236  1
  Se  Se19  1  0.998590  0.317770  0.901942  1
  Se  Se20  1  0.447632  0.508662  0.258416  1
  Se  Se21  1  0.131714  0.001739  0.293076  1
  Se  Se22  1  0.516578  0.475012  0.710065  1
  Se  Se23  1  0.032661  0.975382  0.769646  1
