# generated using pymatgen
data_Er3Tm2B4P8Ir19
_symmetry_space_group_name_H-M   'P 1'
_cell_length_a   12.41354116
_cell_length_b   12.38492218
_cell_length_c   3.95308100
_cell_angle_alpha   90.00000000
_cell_angle_beta   90.00000000
_cell_angle_gamma   119.69458002
_symmetry_Int_Tables_number   1
_chemical_formula_structural   Er3Tm2B4P8Ir19
_chemical_formula_sum   'Er3 Tm2 B4 P8 Ir19'
_cell_volume   527.93894039
_cell_formula_units_Z   1
loop_
 _symmetry_equiv_pos_site_id
 _symmetry_equiv_pos_as_xyz
  1  'x, y, z'
loop_
 _atom_site_type_symbol
 _atom_site_label
 _atom_site_symmetry_multiplicity
 _atom_site_fract_x
 _atom_site_fract_y
 _atom_site_fract_z
 _atom_site_occupancy
  Er  Er0  1  0.182069  0.187475  0.000000  1
  Er  Er1  1  0.814963  0.002589  0.000000  1
  Er  Er2  1  0.002137  0.816272  0.000000  1
  Tm  Tm3  1  0.332739  0.666545  0.500000  1
  Tm  Tm4  1  0.675221  0.331211  0.500000  1
  B  B5  1  0.305407  0.815712  0.000000  1
  B  B6  1  0.178379  0.487405  0.000000  1
  B  B7  1  0.510177  0.692258  0.000000  1
  B  B8  1  0.823896  0.303729  0.000000  1
  P  P9  1  0.486817  0.173670  0.000000  1
  P  P10  1  0.692432  0.513696  0.000000  1
  P  P11  1  0.358504  0.364052  0.500000  1
  P  P12  1  0.640038  0.000839  0.500000  1
  P  P13  1  0.005917  0.639842  0.500000  1
  P  P14  1  0.816723  0.820242  0.500000  1
  P  P15  1  0.180082  0.998282  0.500000  1
  P  P16  1  0.002130  0.185803  0.500000  1
  Ir  Ir17  1  0.199525  0.817883  0.500000  1
  Ir  Ir18  1  0.181869  0.382297  0.500000  1
  Ir  Ir19  1  0.619273  0.803695  0.500000  1
  Ir  Ir20  1  0.821749  0.200840  0.500000  1
  Ir  Ir21  1  0.375423  0.181233  0.500000  1
  Ir  Ir22  1  0.807299  0.623922  0.500000  1
  Ir  Ir23  1  0.135667  0.637510  0.000000  1
  Ir  Ir24  1  0.359781  0.500994  0.000000  1
  Ir  Ir25  1  0.496942  0.858779  0.000000  1
  Ir  Ir26  1  0.643221  0.130628  0.000000  1
  Ir  Ir27  1  0.491147  0.363240  0.000000  1
  Ir  Ir28  1  0.868861  0.497502  0.000000  1
  Ir  Ir29  1  0.539352  0.548801  0.500000  1
  Ir  Ir30  1  0.453941  0.994980  0.500000  1
  Ir  Ir31  1  0.003137  0.455734  0.500000  1
  Ir  Ir32  1  0.701431  0.707147  0.000000  1
  Ir  Ir33  1  0.292519  0.994128  0.000000  1
  Ir  Ir34  1  0.001969  0.300137  0.000000  1
  Ir  Ir35  1  0.999261  0.000932  0.500000  1
