# generated using pymatgen
data_La2Si(GeRh2)3
_symmetry_space_group_name_H-M   'P 1'
_cell_length_a   5.73022264
_cell_length_b   6.82867110
_cell_length_c   6.82867153
_cell_angle_alpha   65.72361199
_cell_angle_beta   65.24610299
_cell_angle_gamma   65.24610315
_symmetry_Int_Tables_number   1
_chemical_formula_structural   La2Si(GeRh2)3
_chemical_formula_sum   'La2 Si1 Ge3 Rh6'
_cell_volume   211.15546924
_cell_formula_units_Z   1
loop_
 _symmetry_equiv_pos_site_id
 _symmetry_equiv_pos_as_xyz
  1  'x, y, z'
loop_
 _atom_site_type_symbol
 _atom_site_label
 _atom_site_symmetry_multiplicity
 _atom_site_fract_x
 _atom_site_fract_y
 _atom_site_fract_z
 _atom_site_occupancy
  La  La0  1  0.540143  0.750886  0.750886  1
  La  La1  1  0.454588  0.249264  0.249264  1
  Si  Si2  1  0.874306  0.923240  0.923240  1
  Ge  Ge3  1  0.225998  0.574512  0.574512  1
  Ge  Ge4  1  0.783898  0.416384  0.416384  1
  Ge  Ge5  1  0.114372  0.084707  0.084707  1
  Rh  Rh6  1  0.503308  0.210659  0.787961  1
  Rh  Rh7  1  0.998069  0.721875  0.277183  1
  Rh  Rh8  1  0.503308  0.787961  0.210659  1
  Rh  Rh9  1  0.998069  0.277183  0.721875  1
  Rh  Rh10  1  0.001971  0.514607  0.988722  1
  Rh  Rh11  1  0.001971  0.988722  0.514607  1
