# generated using pymatgen
data_DyY3Mn2(Co2Si5)2
_symmetry_space_group_name_H-M   'P 1'
_cell_length_a   5.46134107
_cell_length_b   7.98084931
_cell_length_c   7.98075647
_cell_angle_alpha   73.13854072
_cell_angle_beta   69.99166208
_cell_angle_gamma   69.99191081
_symmetry_Int_Tables_number   1
_chemical_formula_structural   DyY3Mn2(Co2Si5)2
_chemical_formula_sum   'Dy1 Y3 Mn2 Co4 Si10'
_cell_volume   301.17503780
_cell_formula_units_Z   1
loop_
 _symmetry_equiv_pos_site_id
 _symmetry_equiv_pos_as_xyz
  1  'x, y, z'
loop_
 _atom_site_type_symbol
 _atom_site_label
 _atom_site_symmetry_multiplicity
 _atom_site_fract_x
 _atom_site_fract_y
 _atom_site_fract_z
 _atom_site_occupancy
  Dy  Dy0  1  0.634810  0.598186  0.132192  1
  Y  Y1  1  0.865268  0.867897  0.401569  1
  Y  Y2  1  0.134718  0.132144  0.598417  1
  Y  Y3  1  0.365295  0.401573  0.867838  1
  Mn  Mn4  1  0.250114  0.999890  0.000017  1
  Mn  Mn5  1  0.749979  0.999890  0.000017  1
  Co  Co6  1  0.640686  0.260341  0.458286  1
  Co  Co7  1  0.359287  0.739815  0.541613  1
  Co  Co8  1  0.140695  0.458539  0.260069  1
  Co  Co9  1  0.859219  0.541587  0.739977  1
  Si  Si10  1  0.250208  0.500077  0.499847  1
  Si  Si11  1  0.749869  0.500077  0.499847  1
  Si  Si12  1  0.030400  0.219509  0.219343  1
  Si  Si13  1  0.469429  0.780544  0.780768  1
  Si  Si14  1  0.969259  0.780544  0.780768  1
  Si  Si15  1  0.530748  0.219509  0.219343  1
  Si  Si16  1  0.599691  0.067219  0.733400  1
  Si  Si17  1  0.400447  0.932604  0.266501  1
  Si  Si18  1  0.099680  0.733384  0.067258  1
  Si  Si19  1  0.900198  0.266674  0.932929  1
