# generated using pymatgen
data_LiSc4Co19P12
_symmetry_space_group_name_H-M   'P 1'
_cell_length_a   3.59104300
_cell_length_b   10.12915081
_cell_length_c   11.66323222
_cell_angle_alpha   89.91471947
_cell_angle_beta   90.00000000
_cell_angle_gamma   90.00000000
_symmetry_Int_Tables_number   1
_chemical_formula_structural   LiSc4Co19P12
_chemical_formula_sum   'Li1 Sc4 Co19 P12'
_cell_volume   424.24045955
_cell_formula_units_Z   1
loop_
 _symmetry_equiv_pos_site_id
 _symmetry_equiv_pos_as_xyz
  1  'x, y, z'
loop_
 _atom_site_type_symbol
 _atom_site_label
 _atom_site_symmetry_multiplicity
 _atom_site_fract_x
 _atom_site_fract_y
 _atom_site_fract_z
 _atom_site_occupancy
  Li  Li0  1  0.250000  0.707245  0.990624  1
  Sc  Sc1  1  0.250000  0.581043  0.702469  1
  Sc  Sc2  1  0.250000  0.919011  0.204047  1
  Sc  Sc3  1  0.750000  0.418338  0.297875  1
  Sc  Sc4  1  0.750000  0.080408  0.796971  1
  Co  Co5  1  0.250000  0.782303  0.492552  1
  Co  Co6  1  0.750000  0.286298  0.009323  1
  Co  Co7  1  0.750000  0.218026  0.507052  1
  Co  Co8  1  0.250000  0.407593  0.485822  1
  Co  Co9  1  0.250000  0.094026  0.985223  1
  Co  Co10  1  0.750000  0.592217  0.515624  1
  Co  Co11  1  0.750000  0.908251  0.015542  1
  Co  Co12  1  0.250000  0.222813  0.176414  1
  Co  Co13  1  0.250000  0.278307  0.676279  1
  Co  Co14  1  0.750000  0.780143  0.821171  1
  Co  Co15  1  0.750000  0.720211  0.326851  1
  Co  Co16  1  0.250000  0.884313  0.698304  1
  Co  Co17  1  0.250000  0.618726  0.200906  1
  Co  Co18  1  0.750000  0.117198  0.299242  1
  Co  Co19  1  0.750000  0.381047  0.799851  1
  Co  Co20  1  0.250000  0.464446  0.931318  1
  Co  Co21  1  0.250000  0.034065  0.430558  1
  Co  Co22  1  0.750000  0.534585  0.068047  1
  Co  Co23  1  0.750000  0.967043  0.567833  1
  P  P24  1  0.250000  0.421238  0.115166  1
  P  P25  1  0.250000  0.081142  0.614137  1
  P  P26  1  0.750000  0.579114  0.881595  1
  P  P27  1  0.750000  0.919124  0.385283  1
  P  P28  1  0.250000  0.264569  0.867352  1
  P  P29  1  0.250000  0.234769  0.367989  1
  P  P30  1  0.750000  0.735530  0.137453  1
  P  P31  1  0.750000  0.766382  0.631624  1
  P  P32  1  0.250000  0.598057  0.390820  1
  P  P33  1  0.250000  0.902346  0.888870  1
  P  P34  1  0.750000  0.401139  0.610382  1
  P  P35  1  0.750000  0.098937  0.109430  1
