# generated using pymatgen
data_K6LuAgF12
_symmetry_space_group_name_H-M   'P 1'
_cell_length_a   6.53040045
_cell_length_b   6.30567047
_cell_length_c   10.98116700
_cell_angle_alpha   55.21608416
_cell_angle_beta   89.92600259
_cell_angle_gamma   90.01880989
_symmetry_Int_Tables_number   1
_chemical_formula_structural   K6LuAgF12
_chemical_formula_sum   'K6 Lu1 Ag1 F12'
_cell_volume   371.38609574
_cell_formula_units_Z   1
loop_
 _symmetry_equiv_pos_site_id
 _symmetry_equiv_pos_as_xyz
  1  'x, y, z'
loop_
 _atom_site_type_symbol
 _atom_site_label
 _atom_site_symmetry_multiplicity
 _atom_site_fract_x
 _atom_site_fract_y
 _atom_site_fract_z
 _atom_site_occupancy
  K  K0  1  0.500000  0.500000  0.000000  1
  K  K1  1  0.000000  0.500000  0.500000  1
  K  K2  1  0.052551  0.737130  0.750425  1
  K  K3  1  0.947449  0.262870  0.249575  1
  K  K4  1  0.550917  0.272237  0.743261  1
  K  K5  1  0.449083  0.727763  0.256739  1
  Lu  Lu6  1  0.000000  0.000000  0.000000  1
  Ag  Ag7  1  0.500000  0.000000  0.500000  1
  F  F8  1  0.769060  0.767219  0.564016  1
  F  F9  1  0.230940  0.232781  0.435984  1
  F  F10  1  0.269751  0.231737  0.933869  1
  F  F11  1  0.730249  0.768263  0.066131  1
  F  F12  1  0.448838  0.884884  0.721359  1
  F  F13  1  0.551162  0.115116  0.278641  1
  F  F14  1  0.949815  0.116941  0.778272  1
  F  F15  1  0.050185  0.883059  0.221728  1
  F  F16  1  0.323601  0.677918  0.547271  1
  F  F17  1  0.676399  0.322082  0.452729  1
  F  F18  1  0.826474  0.323727  0.952441  1
  F  F19  1  0.173526  0.676273  0.047559  1
