# generated using pymatgen
data_TbNd2Y(B6Ru)2
_symmetry_space_group_name_H-M   'P 1'
_cell_length_a   3.72656400
_cell_length_b   9.24239204
_cell_length_c   11.65463305
_cell_angle_alpha   90.01077522
_cell_angle_beta   90.00000000
_cell_angle_gamma   90.00000000
_symmetry_Int_Tables_number   1
_chemical_formula_structural   TbNd2Y(B6Ru)2
_chemical_formula_sum   'Tb2 Nd4 Y2 B24 Ru4'
_cell_volume   401.41312369
_cell_formula_units_Z   2
loop_
 _symmetry_equiv_pos_site_id
 _symmetry_equiv_pos_as_xyz
  1  'x, y, z'
loop_
 _atom_site_type_symbol
 _atom_site_label
 _atom_site_symmetry_multiplicity
 _atom_site_fract_x
 _atom_site_fract_y
 _atom_site_fract_z
 _atom_site_occupancy
  Tb  Tb0  1  0.000000  0.943815  0.371490  1
  Tb  Tb1  1  0.000000  0.056185  0.628510  1
  Nd  Nd2  1  0.000000  0.323362  0.414201  1
  Nd  Nd3  1  0.000000  0.676638  0.585799  1
  Nd  Nd4  1  0.000000  0.823289  0.085782  1
  Nd  Nd5  1  0.000000  0.176711  0.914218  1
  Y  Y6  1  0.000000  0.443961  0.128131  1
  Y  Y7  1  0.000000  0.556039  0.871869  1
  B  B8  1  0.500000  0.556132  0.430494  1
  B  B9  1  0.500000  0.443868  0.569506  1
  B  B10  1  0.500000  0.056191  0.069482  1
  B  B11  1  0.500000  0.943809  0.930518  1
  B  B12  1  0.500000  0.748720  0.417521  1
  B  B13  1  0.500000  0.251280  0.582479  1
  B  B14  1  0.500000  0.248940  0.082438  1
  B  B15  1  0.500000  0.751060  0.917562  1
  B  B16  1  0.500000  0.789740  0.266911  1
  B  B17  1  0.500000  0.210260  0.733089  1
  B  B18  1  0.500000  0.290089  0.233088  1
  B  B19  1  0.500000  0.709911  0.766912  1
  B  B20  1  0.500000  0.631133  0.185427  1
  B  B21  1  0.500000  0.368867  0.814573  1
  B  B22  1  0.500000  0.131294  0.314469  1
  B  B23  1  0.500000  0.868706  0.685531  1
  B  B24  1  0.500000  0.986455  0.213515  1
  B  B25  1  0.500000  0.013545  0.786485  1
  B  B26  1  0.500000  0.486183  0.286358  1
  B  B27  1  0.500000  0.513817  0.713642  1
  B  B28  1  0.500000  0.604310  0.028602  1
  B  B29  1  0.500000  0.395690  0.971398  1
  B  B30  1  0.500000  0.104682  0.471288  1
  B  B31  1  0.500000  0.895318  0.528712  1
  Ru  Ru32  1  0.000000  0.639058  0.319830  1
  Ru  Ru33  1  0.000000  0.360942  0.680170  1
  Ru  Ru34  1  0.000000  0.139359  0.180026  1
  Ru  Ru35  1  0.000000  0.860641  0.819974  1
