# generated using pymatgen
data_YbTmPt2O7
_symmetry_space_group_name_H-M   'P 1'
_cell_length_a   7.23206102
_cell_length_b   7.20885806
_cell_length_c   7.23206040
_cell_angle_alpha   60.10607474
_cell_angle_beta   60.06695634
_cell_angle_gamma   60.10607604
_symmetry_Int_Tables_number   1
_chemical_formula_structural   YbTmPt2O7
_chemical_formula_sum   'Yb2 Tm2 Pt4 O14'
_cell_volume   267.17144910
_cell_formula_units_Z   2
loop_
 _symmetry_equiv_pos_site_id
 _symmetry_equiv_pos_as_xyz
  1  'x, y, z'
loop_
 _atom_site_type_symbol
 _atom_site_label
 _atom_site_symmetry_multiplicity
 _atom_site_fract_x
 _atom_site_fract_y
 _atom_site_fract_z
 _atom_site_occupancy
  Yb  Yb0  1  0.625000  0.625000  0.125000  1
  Yb  Yb1  1  0.125000  0.625000  0.625000  1
  Tm  Tm2  1  0.625000  0.625000  0.625000  1
  Tm  Tm3  1  0.625000  0.125000  0.625000  1
  Pt  Pt4  1  0.125000  0.125000  0.125000  1
  Pt  Pt5  1  0.625000  0.125000  0.125000  1
  Pt  Pt6  1  0.125000  0.625000  0.125000  1
  Pt  Pt7  1  0.125000  0.125000  0.625000  1
  O  O8  1  0.031910  0.461288  0.462041  1
  O  O9  1  0.787959  0.788712  0.218090  1
  O  O10  1  0.787959  0.205239  0.218090  1
  O  O11  1  0.464220  0.035780  0.464220  1
  O  O12  1  0.031910  0.044761  0.462041  1
  O  O13  1  0.040981  0.459019  0.040981  1
  O  O14  1  0.742502  0.757498  0.742502  1
  O  O15  1  0.507498  0.492502  0.507498  1
  O  O16  1  0.785780  0.214220  0.785780  1
  O  O17  1  0.209019  0.790981  0.209019  1
  O  O18  1  0.218090  0.205239  0.787959  1
  O  O19  1  0.462041  0.044761  0.031910  1
  O  O20  1  0.462041  0.461288  0.031910  1
  O  O21  1  0.218090  0.788712  0.787959  1
