# generated using pymatgen
data_Ta9Nb3Cr4(Ga2C)4
_symmetry_space_group_name_H-M   'P 1'
_cell_length_a   8.27715427
_cell_length_b   8.28154572
_cell_length_c   8.27271264
_cell_angle_alpha   60.00016683
_cell_angle_beta   59.94655750
_cell_angle_gamma   59.94697239
_symmetry_Int_Tables_number   1
_chemical_formula_structural   Ta9Nb3Cr4(Ga2C)4
_chemical_formula_sum   'Ta9 Nb3 Cr4 Ga8 C4'
_cell_volume   400.66002900
_cell_formula_units_Z   1
loop_
 _symmetry_equiv_pos_site_id
 _symmetry_equiv_pos_as_xyz
  1  'x, y, z'
loop_
 _atom_site_type_symbol
 _atom_site_label
 _atom_site_symmetry_multiplicity
 _atom_site_fract_x
 _atom_site_fract_y
 _atom_site_fract_z
 _atom_site_occupancy
  Ta  Ta0  1  0.303691  0.696309  0.303691  1
  Ta  Ta1  1  0.696280  0.695835  0.304002  1
  Ta  Ta2  1  0.304002  0.303882  0.696280  1
  Ta  Ta3  1  0.554432  0.554259  0.945584  1
  Ta  Ta4  1  0.946389  0.553445  0.553597  1
  Ta  Ta5  1  0.553597  0.946570  0.946389  1
  Ta  Ta6  1  0.945584  0.945725  0.554432  1
  Ta  Ta7  1  0.696602  0.303398  0.696602  1
  Ta  Ta8  1  0.945371  0.554629  0.945371  1
  Nb  Nb9  1  0.553868  0.946132  0.553868  1
  Nb  Nb10  1  0.303809  0.696066  0.696470  1
  Nb  Nb11  1  0.696470  0.303654  0.303809  1
  Cr  Cr12  1  0.125939  0.124669  0.124530  1
  Cr  Cr13  1  0.625147  0.124984  0.123397  1
  Cr  Cr14  1  0.124530  0.624861  0.125939  1
  Cr  Cr15  1  0.123397  0.126472  0.625147  1
  Ga  Ga16  1  0.913649  0.912894  0.913344  1
  Ga  Ga17  1  0.990052  0.336623  0.336284  1
  Ga  Ga18  1  0.336575  0.989845  0.336962  1
  Ga  Ga19  1  0.336284  0.337040  0.990052  1
  Ga  Ga20  1  0.913344  0.260114  0.913649  1
  Ga  Ga21  1  0.913265  0.913494  0.260033  1
  Ga  Ga22  1  0.260033  0.913210  0.913265  1
  Ga  Ga23  1  0.336962  0.336617  0.336575  1
  C  C24  1  0.626968  0.622973  0.625011  1
  C  C25  1  0.124064  0.624605  0.624686  1
  C  C26  1  0.625011  0.125048  0.626968  1
  C  C27  1  0.624686  0.626646  0.124064  1
