# generated using pymatgen
data_Nd4Dy2Si3Ag
_symmetry_space_group_name_H-M   'P 1'
_cell_length_a   7.72388222
_cell_length_b   7.72388222
_cell_length_c   4.39931700
_cell_angle_alpha   90.00000000
_cell_angle_beta   90.00000000
_cell_angle_gamma   87.70409324
_symmetry_Int_Tables_number   1
_chemical_formula_structural   Nd4Dy2Si3Ag
_chemical_formula_sum   'Nd4 Dy2 Si3 Ag1'
_cell_volume   262.24533835
_cell_formula_units_Z   1
loop_
 _symmetry_equiv_pos_site_id
 _symmetry_equiv_pos_as_xyz
  1  'x, y, z'
loop_
 _atom_site_type_symbol
 _atom_site_label
 _atom_site_symmetry_multiplicity
 _atom_site_fract_x
 _atom_site_fract_y
 _atom_site_fract_z
 _atom_site_occupancy
  Nd  Nd0  1  0.674302  0.174302  0.500000  1
  Nd  Nd1  1  0.339445  0.839445  0.500000  1
  Nd  Nd2  1  0.172715  0.313626  0.500000  1
  Nd  Nd3  1  0.813626  0.672715  0.500000  1
  Dy  Dy4  1  0.502185  0.507983  0.000000  1
  Dy  Dy5  1  0.007983  0.002185  0.000000  1
  Si  Si6  1  0.869348  0.369348  0.000000  1
  Si  Si7  1  0.619298  0.886533  0.000000  1
  Si  Si8  1  0.386533  0.119298  0.000000  1
  Ag  Ag9  1  0.114567  0.614567  0.000000  1
