# generated using pymatgen
data_Y4Ho16Cd6IrRu
_symmetry_space_group_name_H-M   'P 1'
_cell_length_a   9.59362502
_cell_length_b   9.59265172
_cell_length_c   9.80925200
_cell_angle_alpha   90.00000000
_cell_angle_beta   90.00000000
_cell_angle_gamma   119.99665051
_symmetry_Int_Tables_number   1
_chemical_formula_structural   Y4Ho16Cd6IrRu
_chemical_formula_sum   'Y4 Ho16 Cd6 Ir1 Ru1'
_cell_volume   781.81247646
_cell_formula_units_Z   1
loop_
 _symmetry_equiv_pos_site_id
 _symmetry_equiv_pos_as_xyz
  1  'x, y, z'
loop_
 _atom_site_type_symbol
 _atom_site_label
 _atom_site_symmetry_multiplicity
 _atom_site_fract_x
 _atom_site_fract_y
 _atom_site_fract_z
 _atom_site_occupancy
  Y  Y0  1  0.541191  0.458855  0.250000  1
  Y  Y1  1  0.541191  0.082336  0.250000  1
  Y  Y2  1  0.917668  0.458834  0.250000  1
  Y  Y3  1  0.082707  0.541354  0.750000  1
  Ho  Ho4  1  0.999969  0.999984  0.499573  1
  Ho  Ho5  1  0.999969  0.999984  0.000427  1
  Ho  Ho6  1  0.209688  0.790563  0.440455  1
  Ho  Ho7  1  0.209688  0.419125  0.440455  1
  Ho  Ho8  1  0.580805  0.790402  0.440589  1
  Ho  Ho9  1  0.790053  0.209574  0.560294  1
  Ho  Ho10  1  0.790053  0.580476  0.560294  1
  Ho  Ho11  1  0.419509  0.209754  0.560384  1
  Ho  Ho12  1  0.790053  0.209574  0.939706  1
  Ho  Ho13  1  0.790053  0.580476  0.939706  1
  Ho  Ho14  1  0.419509  0.209754  0.939616  1
  Ho  Ho15  1  0.209688  0.790563  0.059545  1
  Ho  Ho16  1  0.209688  0.419125  0.059545  1
  Ho  Ho17  1  0.580805  0.790402  0.059411  1
  Ho  Ho18  1  0.458926  0.541207  0.750000  1
  Ho  Ho19  1  0.458926  0.917719  0.750000  1
  Cd  Cd20  1  0.885511  0.114473  0.250000  1
  Cd  Cd21  1  0.885511  0.771038  0.250000  1
  Cd  Cd22  1  0.228960  0.114480  0.250000  1
  Cd  Cd23  1  0.114746  0.885549  0.750000  1
  Cd  Cd24  1  0.114746  0.229195  0.750000  1
  Cd  Cd25  1  0.770564  0.885281  0.750000  1
  Ir  Ir26  1  0.333316  0.666659  0.250000  1
  Ru  Ru27  1  0.666513  0.333256  0.750000  1
