# generated using pymatgen
data_Tb3GeSe2
_symmetry_space_group_name_H-M   'P 1'
_cell_length_a   7.18546914
_cell_length_b   7.18546895
_cell_length_c   7.18546880
_cell_angle_alpha   146.46432167
_cell_angle_beta   132.30979771
_cell_angle_gamma   59.55699073
_symmetry_Int_Tables_number   1
_chemical_formula_structural   Tb3GeSe2
_chemical_formula_sum   'Tb3 Ge1 Se2'
_cell_volume   150.21903284
_cell_formula_units_Z   1
loop_
 _symmetry_equiv_pos_site_id
 _symmetry_equiv_pos_as_xyz
  1  'x, y, z'
loop_
 _atom_site_type_symbol
 _atom_site_label
 _atom_site_symmetry_multiplicity
 _atom_site_fract_x
 _atom_site_fract_y
 _atom_site_fract_z
 _atom_site_occupancy
  Tb  Tb0  1  0.341416  0.341416  0.000000  1
  Tb  Tb1  1  0.000000  0.000000  0.000000  1
  Tb  Tb2  1  0.658584  0.658584  0.000000  1
  Ge  Ge3  1  0.500000  0.000000  0.500000  1
  Se  Se4  1  0.168097  0.668097  0.500000  1
  Se  Se5  1  0.831903  0.331903  0.500000  1
