# generated using pymatgen
data_La8Pr2B2Br15
_symmetry_space_group_name_H-M   'P 1'
_cell_length_a   9.54887861
_cell_length_b   10.44572745
_cell_length_c   11.26905299
_cell_angle_alpha   91.08865991
_cell_angle_beta   114.45222896
_cell_angle_gamma   110.89075023
_symmetry_Int_Tables_number   1
_chemical_formula_structural   La8Pr2B2Br15
_chemical_formula_sum   'La8 Pr2 B2 Br15'
_cell_volume   937.42751464
_cell_formula_units_Z   1
loop_
 _symmetry_equiv_pos_site_id
 _symmetry_equiv_pos_as_xyz
  1  'x, y, z'
loop_
 _atom_site_type_symbol
 _atom_site_label
 _atom_site_symmetry_multiplicity
 _atom_site_fract_x
 _atom_site_fract_y
 _atom_site_fract_z
 _atom_site_occupancy
  La  La0  1  0.805877  0.411384  0.276651  1
  La  La1  1  0.194123  0.588616  0.723349  1
  La  La2  1  0.679640  0.747131  0.820523  1
  La  La3  1  0.320360  0.252869  0.179477  1
  La  La4  1  0.526327  0.705636  0.097722  1
  La  La5  1  0.473673  0.294364  0.902278  1
  La  La6  1  0.588400  0.037475  0.327010  1
  La  La7  1  0.411600  0.962525  0.672990  1
  Pr  Pr8  1  0.721384  0.072987  0.046817  1
  Pr  Pr9  1  0.278616  0.927013  0.953183  1
  B  B10  1  0.465579  0.814448  0.872485  1
  B  B11  1  0.534421  0.185552  0.127515  1
  Br  Br12  1  0.000000  0.000000  0.000000  1
  Br  Br13  1  0.635589  0.882972  0.583042  1
  Br  Br14  1  0.364411  0.117028  0.416958  1
  Br  Br15  1  0.883389  0.299506  0.527419  1
  Br  Br16  1  0.116611  0.700494  0.472581  1
  Br  Br17  1  0.286374  0.764399  0.176324  1
  Br  Br18  1  0.713626  0.235601  0.823676  1
  Br  Br19  1  0.051680  0.337276  0.222280  1
  Br  Br20  1  0.161107  0.054455  0.706640  1
  Br  Br21  1  0.838893  0.945545  0.293360  1
  Br  Br22  1  0.232675  0.410731  0.944582  1
  Br  Br23  1  0.767325  0.589269  0.055418  1
  Br  Br24  1  0.408735  0.464914  0.662332  1
  Br  Br25  1  0.591265  0.535086  0.337668  1
  Br  Br26  1  0.948320  0.662724  0.777720  1
