# generated using pymatgen
data_Ca2In2AgHg
_symmetry_space_group_name_H-M   'P 1'
_cell_length_a   6.17461675
_cell_length_b   6.17461652
_cell_length_c   7.56256925
_cell_angle_alpha   52.73546476
_cell_angle_beta   52.73546319
_cell_angle_gamma   46.60550666
_symmetry_Int_Tables_number   1
_chemical_formula_structural   Ca2In2AgHg
_chemical_formula_sum   'Ca2 In2 Ag1 Hg1'
_cell_volume   157.53259559
_cell_formula_units_Z   1
loop_
 _symmetry_equiv_pos_site_id
 _symmetry_equiv_pos_as_xyz
  1  'x, y, z'
loop_
 _atom_site_type_symbol
 _atom_site_label
 _atom_site_symmetry_multiplicity
 _atom_site_fract_x
 _atom_site_fract_y
 _atom_site_fract_z
 _atom_site_occupancy
  Ca  Ca0  1  0.538756  0.538756  0.713600  1
  Ca  Ca1  1  0.461904  0.461904  0.286744  1
  In  In2  1  0.844146  0.844146  0.701878  1
  In  In3  1  0.827551  0.827551  0.124508  1
  Ag  Ag4  1  0.166404  0.166404  0.296345  1
  Hg  Hg5  1  0.161241  0.161241  0.876928  1
