# generated using pymatgen
data_Ho5GeSe4
_symmetry_space_group_name_H-M   'P 1'
_cell_length_a   7.08003100
_cell_length_b   7.08001142
_cell_length_c   7.07998751
_cell_angle_alpha   99.60294233
_cell_angle_beta   99.60224336
_cell_angle_gamma   131.78785570
_symmetry_Int_Tables_number   1
_chemical_formula_structural   Ho5GeSe4
_chemical_formula_sum   'Ho5 Ge1 Se4'
_cell_volume   241.53971807
_cell_formula_units_Z   1
loop_
 _symmetry_equiv_pos_site_id
 _symmetry_equiv_pos_as_xyz
  1  'x, y, z'
loop_
 _atom_site_type_symbol
 _atom_site_label
 _atom_site_symmetry_multiplicity
 _atom_site_fract_x
 _atom_site_fract_y
 _atom_site_fract_z
 _atom_site_occupancy
  Ho  Ho0  1  0.404168  0.790731  0.194898  1
  Ho  Ho1  1  0.000000  0.000000  0.000000  1
  Ho  Ho2  1  0.595832  0.209269  0.805102  1
  Ho  Ho3  1  0.209271  0.404167  0.613438  1
  Ho  Ho4  1  0.790729  0.595833  0.386562  1
  Ge  Ge5  1  0.500000  0.500000  0.000000  1
  Se  Se6  1  0.097398  0.698446  0.795841  1
  Se  Se7  1  0.698444  0.902600  0.601047  1
  Se  Se8  1  0.301556  0.097400  0.398953  1
  Se  Se9  1  0.902602  0.301554  0.204159  1
