# generated using pymatgen
data_DyTh2(ZnPt)3
_symmetry_space_group_name_H-M   'P 1'
_cell_length_a   7.49225817
_cell_length_b   7.54436828
_cell_length_c   3.85125400
_cell_angle_alpha   90.00000000
_cell_angle_beta   90.00000000
_cell_angle_gamma   120.23034366
_symmetry_Int_Tables_number   1
_chemical_formula_structural   DyTh2(ZnPt)3
_chemical_formula_sum   'Dy1 Th2 Zn3 Pt3'
_cell_volume   188.08565870
_cell_formula_units_Z   1
loop_
 _symmetry_equiv_pos_site_id
 _symmetry_equiv_pos_as_xyz
  1  'x, y, z'
loop_
 _atom_site_type_symbol
 _atom_site_label
 _atom_site_symmetry_multiplicity
 _atom_site_fract_x
 _atom_site_fract_y
 _atom_site_fract_z
 _atom_site_occupancy
  Dy  Dy0  1  0.000000  0.598603  0.500000  1
  Th  Th1  1  0.406828  0.405843  0.500000  1
  Th  Th2  1  0.593172  0.999014  0.500000  1
  Zn  Zn3  1  0.759726  0.749557  0.000000  1
  Zn  Zn4  1  0.240274  0.989831  0.000000  1
  Zn  Zn5  1  0.000000  0.257748  0.000000  1
  Pt  Pt6  1  0.662385  0.329348  0.000000  1
  Pt  Pt7  1  0.337615  0.666964  0.000000  1
  Pt  Pt8  1  0.000000  0.003093  0.500000  1
