# generated using pymatgen
data_NdPu(SnPt)2
_symmetry_space_group_name_H-M   'P 1'
_cell_length_a   4.65647600
_cell_length_b   7.38296100
_cell_length_c   8.12151600
_cell_angle_alpha   90.00000000
_cell_angle_beta   90.00000000
_cell_angle_gamma   90.00000000
_symmetry_Int_Tables_number   1
_chemical_formula_structural   NdPu(SnPt)2
_chemical_formula_sum   'Nd2 Pu2 Sn4 Pt4'
_cell_volume   279.20619326
_cell_formula_units_Z   2
loop_
 _symmetry_equiv_pos_site_id
 _symmetry_equiv_pos_as_xyz
  1  'x, y, z'
loop_
 _atom_site_type_symbol
 _atom_site_label
 _atom_site_symmetry_multiplicity
 _atom_site_fract_x
 _atom_site_fract_y
 _atom_site_fract_z
 _atom_site_occupancy
  Nd  Nd0  1  0.750000  0.986469  0.693158  1
  Nd  Nd1  1  0.250000  0.513531  0.193158  1
  Pu  Pu2  1  0.750000  0.486806  0.806294  1
  Pu  Pu3  1  0.250000  0.013194  0.306294  1
  Sn  Sn4  1  0.250000  0.674756  0.583289  1
  Sn  Sn5  1  0.250000  0.176172  0.917216  1
  Sn  Sn6  1  0.750000  0.323828  0.417216  1
  Sn  Sn7  1  0.750000  0.825244  0.083289  1
  Pt  Pt8  1  0.250000  0.784998  0.907995  1
  Pt  Pt9  1  0.250000  0.285390  0.592048  1
  Pt  Pt10  1  0.750000  0.715002  0.407995  1
  Pt  Pt11  1  0.750000  0.214610  0.092048  1
