# generated using pymatgen
data_SrPr20Fe8Bi7C12
_symmetry_space_group_name_H-M   'P 1'
_cell_length_a   11.54310101
_cell_length_b   11.54310220
_cell_length_c   11.54310200
_cell_angle_alpha   60.00000629
_cell_angle_beta   60.00000288
_cell_angle_gamma   60.00000202
_symmetry_Int_Tables_number   1
_chemical_formula_structural   SrPr20Fe8Bi7C12
_chemical_formula_sum   'Sr1 Pr20 Fe8 Bi7 C12'
_cell_volume   1087.55845425
_cell_formula_units_Z   1
loop_
 _symmetry_equiv_pos_site_id
 _symmetry_equiv_pos_as_xyz
  1  'x, y, z'
loop_
 _atom_site_type_symbol
 _atom_site_label
 _atom_site_symmetry_multiplicity
 _atom_site_fract_x
 _atom_site_fract_y
 _atom_site_fract_z
 _atom_site_occupancy
  Sr  Sr0  1  0.500000  0.500000  0.500000  1
  Pr  Pr1  1  0.362730  0.911811  0.362730  1
  Pr  Pr2  1  0.000000  0.658276  0.341724  1
  Pr  Pr3  1  0.362730  0.362730  0.362730  1
  Pr  Pr4  1  0.637270  0.088189  0.637270  1
  Pr  Pr5  1  0.911811  0.362730  0.362730  1
  Pr  Pr6  1  0.658276  0.341724  0.000000  1
  Pr  Pr7  1  0.000000  0.341724  0.000000  1
  Pr  Pr8  1  0.637270  0.637270  0.637270  1
  Pr  Pr9  1  0.000000  0.000000  0.341724  1
  Pr  Pr10  1  0.637270  0.637270  0.088189  1
  Pr  Pr11  1  0.362730  0.362730  0.911811  1
  Pr  Pr12  1  0.658276  0.000000  0.000000  1
  Pr  Pr13  1  0.000000  0.000000  0.658276  1
  Pr  Pr14  1  0.658276  0.000000  0.341724  1
  Pr  Pr15  1  0.088189  0.637270  0.637270  1
  Pr  Pr16  1  0.341724  0.000000  0.000000  1
  Pr  Pr17  1  0.000000  0.341724  0.658276  1
  Pr  Pr18  1  0.341724  0.000000  0.658276  1
  Pr  Pr19  1  0.341724  0.658276  0.000000  1
  Pr  Pr20  1  0.000000  0.658276  0.000000  1
  Fe  Fe21  1  0.195526  0.413420  0.195526  1
  Fe  Fe22  1  0.195526  0.195526  0.413420  1
  Fe  Fe23  1  0.586580  0.804474  0.804474  1
  Fe  Fe24  1  0.195526  0.195526  0.195526  1
  Fe  Fe25  1  0.413420  0.195526  0.195526  1
  Fe  Fe26  1  0.804474  0.804474  0.804474  1
  Fe  Fe27  1  0.804474  0.804474  0.586580  1
  Fe  Fe28  1  0.804474  0.586580  0.804474  1
  Bi  Bi29  1  0.287389  0.712611  0.712611  1
  Bi  Bi30  1  0.712611  0.712611  0.287389  1
  Bi  Bi31  1  0.712611  0.287389  0.287389  1
  Bi  Bi32  1  0.712611  0.287389  0.712611  1
  Bi  Bi33  1  0.287389  0.712611  0.287389  1
  Bi  Bi34  1  0.000000  0.000000  0.000000  1
  Bi  Bi35  1  0.287389  0.287389  0.712611  1
  C  C36  1  0.108610  0.108610  0.391390  1
  C  C37  1  0.891390  0.891390  0.608610  1
  C  C38  1  0.108610  0.391390  0.391390  1
  C  C39  1  0.108610  0.391390  0.108610  1
  C  C40  1  0.608610  0.608610  0.891390  1
  C  C41  1  0.891390  0.608610  0.891390  1
  C  C42  1  0.391390  0.391390  0.108610  1
  C  C43  1  0.391390  0.108610  0.391390  1
  C  C44  1  0.891390  0.608610  0.608610  1
  C  C45  1  0.608610  0.891390  0.608610  1
  C  C46  1  0.391390  0.108610  0.108610  1
  C  C47  1  0.608610  0.891390  0.891390  1
