# generated using pymatgen
data_Ce3DyTm4(ReB6)4
_symmetry_space_group_name_H-M   'P 1'
_cell_length_a   3.69872500
_cell_length_b   9.15254162
_cell_length_c   11.54518604
_cell_angle_alpha   90.06817270
_cell_angle_beta   90.00000000
_cell_angle_gamma   90.00000000
_symmetry_Int_Tables_number   1
_chemical_formula_structural   Ce3DyTm4(ReB6)4
_chemical_formula_sum   'Ce3 Dy1 Tm4 Re4 B24'
_cell_volume   390.83584124
_cell_formula_units_Z   1
loop_
 _symmetry_equiv_pos_site_id
 _symmetry_equiv_pos_as_xyz
  1  'x, y, z'
loop_
 _atom_site_type_symbol
 _atom_site_label
 _atom_site_symmetry_multiplicity
 _atom_site_fract_x
 _atom_site_fract_y
 _atom_site_fract_z
 _atom_site_occupancy
  Ce  Ce0  1  0.000000  0.321291  0.414596  1
  Ce  Ce1  1  0.000000  0.678443  0.586101  1
  Ce  Ce2  1  0.000000  0.823198  0.085416  1
  Dy  Dy3  1  0.000000  0.177931  0.914054  1
  Tm  Tm4  1  0.000000  0.944484  0.372349  1
  Tm  Tm5  1  0.000000  0.056260  0.628435  1
  Tm  Tm6  1  0.000000  0.442942  0.127798  1
  Tm  Tm7  1  0.000000  0.555857  0.871725  1
  Re  Re8  1  0.000000  0.638930  0.320256  1
  Re  Re9  1  0.000000  0.362102  0.678974  1
  Re  Re10  1  0.000000  0.138816  0.179963  1
  Re  Re11  1  0.000000  0.860423  0.820460  1
  B  B12  1  0.500000  0.554965  0.431418  1
  B  B13  1  0.500000  0.445114  0.568639  1
  B  B14  1  0.500000  0.054669  0.067609  1
  B  B15  1  0.500000  0.945781  0.932106  1
  B  B16  1  0.500000  0.750167  0.418007  1
  B  B17  1  0.500000  0.249437  0.582478  1
  B  B18  1  0.500000  0.249875  0.081142  1
  B  B19  1  0.500000  0.750547  0.917910  1
  B  B20  1  0.500000  0.791759  0.265576  1
  B  B21  1  0.500000  0.207619  0.734832  1
  B  B22  1  0.500000  0.291558  0.233754  1
  B  B23  1  0.500000  0.708428  0.765812  1
  B  B24  1  0.500000  0.630427  0.185295  1
  B  B25  1  0.500000  0.369042  0.815231  1
  B  B26  1  0.500000  0.130543  0.314386  1
  B  B27  1  0.500000  0.870010  0.685763  1
  B  B28  1  0.500000  0.983511  0.212531  1
  B  B29  1  0.500000  0.017869  0.787207  1
  B  B30  1  0.500000  0.483119  0.286753  1
  B  B31  1  0.500000  0.516562  0.713449  1
  B  B32  1  0.500000  0.600622  0.027927  1
  B  B33  1  0.500000  0.397756  0.971482  1
  B  B34  1  0.500000  0.102802  0.471887  1
  B  B35  1  0.500000  0.897141  0.528680  1
