# generated using pymatgen
data_La3(PtAu2)2
_symmetry_space_group_name_H-M   'P 1'
_cell_length_a   7.82149700
_cell_length_b   7.82149890
_cell_length_c   3.99267500
_cell_angle_alpha   90.00000000
_cell_angle_beta   90.00000000
_cell_angle_gamma   119.99999620
_symmetry_Int_Tables_number   1
_chemical_formula_structural   La3(PtAu2)2
_chemical_formula_sum   'La3 Pt2 Au4'
_cell_volume   211.53122296
_cell_formula_units_Z   1
loop_
 _symmetry_equiv_pos_site_id
 _symmetry_equiv_pos_as_xyz
  1  'x, y, z'
loop_
 _atom_site_type_symbol
 _atom_site_label
 _atom_site_symmetry_multiplicity
 _atom_site_fract_x
 _atom_site_fract_y
 _atom_site_fract_z
 _atom_site_occupancy
  La  La0  1  0.402798  0.000000  0.000000  1
  La  La1  1  0.597202  0.597202  0.000000  1
  La  La2  1  0.000000  0.402798  0.000000  1
  Pt  Pt3  1  0.666667  0.333333  0.500000  1
  Pt  Pt4  1  0.333333  0.666667  0.500000  1
  Au  Au5  1  0.735971  0.000000  0.500000  1
  Au  Au6  1  0.264029  0.264029  0.500000  1
  Au  Au7  1  0.000000  0.735971  0.500000  1
  Au  Au8  1  0.000000  0.000000  0.000000  1
