# generated using pymatgen
data_Tb16MgHg3Pd4
_symmetry_space_group_name_H-M   'P 1'
_cell_length_a   9.72163059
_cell_length_b   9.74574510
_cell_length_c   9.74574500
_cell_angle_alpha   60.00000374
_cell_angle_beta   59.91791547
_cell_angle_gamma   59.91791382
_symmetry_Int_Tables_number   1
_chemical_formula_structural   Tb16MgHg3Pd4
_chemical_formula_sum   'Tb16 Mg1 Hg3 Pd4'
_cell_volume   652.10010101
_cell_formula_units_Z   1
loop_
 _symmetry_equiv_pos_site_id
 _symmetry_equiv_pos_as_xyz
  1  'x, y, z'
loop_
 _atom_site_type_symbol
 _atom_site_label
 _atom_site_symmetry_multiplicity
 _atom_site_fract_x
 _atom_site_fract_y
 _atom_site_fract_z
 _atom_site_occupancy
  Tb  Tb0  1  0.356248  0.352249  0.352249  1
  Tb  Tb1  1  0.356248  0.352249  0.939255  1
  Tb  Tb2  1  0.356248  0.939255  0.352249  1
  Tb  Tb3  1  0.927608  0.357464  0.357464  1
  Tb  Tb4  1  0.808908  0.190456  0.190456  1
  Tb  Tb5  1  0.186354  0.812365  0.812365  1
  Tb  Tb6  1  0.186354  0.812365  0.188916  1
  Tb  Tb7  1  0.808908  0.190456  0.810180  1
  Tb  Tb8  1  0.186354  0.188916  0.812365  1
  Tb  Tb9  1  0.808908  0.810180  0.190456  1
  Tb  Tb10  1  0.933461  0.565949  0.565949  1
  Tb  Tb11  1  0.564472  0.935009  0.935009  1
  Tb  Tb12  1  0.564472  0.935009  0.565510  1
  Tb  Tb13  1  0.933461  0.565949  0.934642  1
  Tb  Tb14  1  0.564472  0.565510  0.935009  1
  Tb  Tb15  1  0.933461  0.934642  0.565949  1
  Mg  Mg16  1  0.279823  0.573392  0.573392  1
  Hg  Hg17  1  0.583119  0.589497  0.589497  1
  Hg  Hg18  1  0.583119  0.589497  0.237885  1
  Hg  Hg19  1  0.583119  0.237885  0.589497  1
  Pd  Pd20  1  0.142549  0.146045  0.146045  1
  Pd  Pd21  1  0.142549  0.146045  0.565362  1
  Pd  Pd22  1  0.142549  0.565362  0.146045  1
  Pd  Pd23  1  0.567232  0.144256  0.144256  1
