# generated using pymatgen
data_PrMgB6Os
_symmetry_space_group_name_H-M   'P 1'
_cell_length_a   3.65110500
_cell_length_b   9.01224700
_cell_length_c   11.49827800
_cell_angle_alpha   90.00000000
_cell_angle_beta   90.00000000
_cell_angle_gamma   90.00000000
_symmetry_Int_Tables_number   1
_chemical_formula_structural   PrMgB6Os
_chemical_formula_sum   'Pr4 Mg4 B24 Os4'
_cell_volume   378.34692913
_cell_formula_units_Z   4
loop_
 _symmetry_equiv_pos_site_id
 _symmetry_equiv_pos_as_xyz
  1  'x, y, z'
loop_
 _atom_site_type_symbol
 _atom_site_label
 _atom_site_symmetry_multiplicity
 _atom_site_fract_x
 _atom_site_fract_y
 _atom_site_fract_z
 _atom_site_occupancy
  Pr  Pr0  1  0.000000  0.321827  0.414824  1
  Pr  Pr1  1  0.000000  0.678173  0.585176  1
  Pr  Pr2  1  0.000000  0.821827  0.085176  1
  Pr  Pr3  1  0.000000  0.178173  0.914824  1
  Mg  Mg4  1  0.000000  0.943571  0.370133  1
  Mg  Mg5  1  0.000000  0.056429  0.629868  1
  Mg  Mg6  1  0.000000  0.443571  0.129867  1
  Mg  Mg7  1  0.000000  0.556429  0.870132  1
  B  B8  1  0.500000  0.558033  0.428599  1
  B  B9  1  0.500000  0.441967  0.571401  1
  B  B10  1  0.500000  0.058033  0.071401  1
  B  B11  1  0.500000  0.941967  0.928599  1
  B  B12  1  0.500000  0.755562  0.414709  1
  B  B13  1  0.500000  0.244438  0.585291  1
  B  B14  1  0.500000  0.255562  0.085291  1
  B  B15  1  0.500000  0.744438  0.914709  1
  B  B16  1  0.500000  0.792816  0.263946  1
  B  B17  1  0.500000  0.207184  0.736054  1
  B  B18  1  0.500000  0.292815  0.236054  1
  B  B19  1  0.500000  0.707184  0.763946  1
  B  B20  1  0.500000  0.626571  0.183394  1
  B  B21  1  0.500000  0.373429  0.816606  1
  B  B22  1  0.500000  0.126571  0.316606  1
  B  B23  1  0.500000  0.873429  0.683394  1
  B  B24  1  0.500000  0.982588  0.214418  1
  B  B25  1  0.500000  0.017412  0.785582  1
  B  B26  1  0.500000  0.482588  0.285582  1
  B  B27  1  0.500000  0.517412  0.714418  1
  B  B28  1  0.500000  0.590688  0.024278  1
  B  B29  1  0.500000  0.409312  0.975722  1
  B  B30  1  0.500000  0.090688  0.475722  1
  B  B31  1  0.500000  0.909312  0.524278  1
  Os  Os32  1  0.000000  0.641644  0.316406  1
  Os  Os33  1  0.000000  0.358356  0.683594  1
  Os  Os34  1  0.000000  0.141644  0.183594  1
  Os  Os35  1  0.000000  0.858356  0.816406  1
