# generated using pymatgen
data_Tb16Y4Si15Rh
_symmetry_space_group_name_H-M   'P 1'
_cell_length_a   7.48600240
_cell_length_b   7.72538422
_cell_length_c   14.73018500
_cell_angle_alpha   90.15109035
_cell_angle_beta   90.50640744
_cell_angle_gamma   90.17684080
_symmetry_Int_Tables_number   1
_chemical_formula_structural   Tb16Y4Si15Rh
_chemical_formula_sum   'Tb16 Y4 Si15 Rh1'
_cell_volume   851.83930972
_cell_formula_units_Z   1
loop_
 _symmetry_equiv_pos_site_id
 _symmetry_equiv_pos_as_xyz
  1  'x, y, z'
loop_
 _atom_site_type_symbol
 _atom_site_label
 _atom_site_symmetry_multiplicity
 _atom_site_fract_x
 _atom_site_fract_y
 _atom_site_fract_z
 _atom_site_occupancy
  Tb  Tb0  1  0.682610  0.165953  0.617922  1
  Tb  Tb1  1  0.184421  0.321995  0.876777  1
  Tb  Tb2  1  0.319590  0.818909  0.121345  1
  Tb  Tb3  1  0.816566  0.688766  0.382479  1
  Tb  Tb4  1  0.324562  0.825154  0.378863  1
  Tb  Tb5  1  0.816518  0.681002  0.122035  1
  Tb  Tb6  1  0.681871  0.180125  0.877861  1
  Tb  Tb7  1  0.179105  0.320759  0.623177  1
  Tb  Tb8  1  0.525709  0.683523  0.598516  1
  Tb  Tb9  1  0.029532  0.816645  0.901043  1
  Tb  Tb10  1  0.469520  0.315654  0.099739  1
  Tb  Tb11  1  0.971112  0.178491  0.400133  1
  Tb  Tb12  1  0.472520  0.314279  0.401628  1
  Tb  Tb13  1  0.969022  0.182722  0.099233  1
  Tb  Tb14  1  0.531260  0.683288  0.900076  1
  Tb  Tb15  1  0.026215  0.817443  0.599716  1
  Y  Y16  1  0.851132  0.506903  0.748928  1
  Y  Y17  1  0.351665  0.989555  0.748061  1
  Y  Y18  1  0.148116  0.490126  0.251947  1
  Y  Y19  1  0.652031  0.011958  0.256307  1
  Si  Si20  1  0.143958  0.527631  0.040054  1
  Si  Si21  1  0.354422  0.029065  0.959806  1
  Si  Si22  1  0.853744  0.472172  0.541374  1
  Si  Si23  1  0.345110  0.027357  0.541522  1
  Si  Si24  1  0.857247  0.471945  0.959421  1
  Si  Si25  1  0.643858  0.971686  0.039098  1
  Si  Si26  1  0.146510  0.530674  0.461250  1
  Si  Si27  1  0.479597  0.393658  0.749161  1
  Si  Si28  1  0.977124  0.102949  0.751846  1
  Si  Si29  1  0.523567  0.603304  0.248392  1
  Si  Si30  1  0.027405  0.894640  0.246648  1
  Si  Si31  1  0.735544  0.871101  0.751857  1
  Si  Si32  1  0.234528  0.627061  0.750930  1
  Si  Si33  1  0.264585  0.126701  0.246568  1
  Si  Si34  1  0.766414  0.376845  0.248518  1
  Rh  Rh35  1  0.643313  0.979960  0.457768  1
