# generated using pymatgen
data_Er4Ga18Ir5Au
_symmetry_space_group_name_H-M   'P 1'
_cell_length_a   7.61934559
_cell_length_b   7.61934622
_cell_length_c   9.48525608
_cell_angle_alpha   89.99245588
_cell_angle_beta   89.99245437
_cell_angle_gamma   119.80734793
_symmetry_Int_Tables_number   1
_chemical_formula_structural   Er4Ga18Ir5Au
_chemical_formula_sum   'Er4 Ga18 Ir5 Au1'
_cell_volume   477.80960935
_cell_formula_units_Z   1
loop_
 _symmetry_equiv_pos_site_id
 _symmetry_equiv_pos_as_xyz
  1  'x, y, z'
loop_
 _atom_site_type_symbol
 _atom_site_label
 _atom_site_symmetry_multiplicity
 _atom_site_fract_x
 _atom_site_fract_y
 _atom_site_fract_z
 _atom_site_occupancy
  Er  Er0  1  0.996684  0.673978  0.751074  1
  Er  Er1  1  0.003316  0.326022  0.248926  1
  Er  Er2  1  0.673978  0.996684  0.751074  1
  Er  Er3  1  0.326022  0.003316  0.248926  1
  Ga  Ga4  1  0.136571  0.136571  0.755414  1
  Ga  Ga5  1  0.863429  0.863429  0.244586  1
  Ga  Ga6  1  0.998775  0.343979  0.585311  1
  Ga  Ga7  1  0.001225  0.656021  0.414689  1
  Ga  Ga8  1  0.002540  0.664374  0.079505  1
  Ga  Ga9  1  0.335626  0.997460  0.920495  1
  Ga  Ga10  1  0.997460  0.335626  0.920495  1
  Ga  Ga11  1  0.664374  0.002540  0.079505  1
  Ga  Ga12  1  0.656021  0.001225  0.414689  1
  Ga  Ga13  1  0.343979  0.998775  0.585311  1
  Ga  Ga14  1  0.331551  0.331551  0.066752  1
  Ga  Ga15  1  0.668449  0.668449  0.933248  1
  Ga  Ga16  1  0.658537  0.658537  0.573614  1
  Ga  Ga17  1  0.341463  0.341463  0.426386  1
  Ga  Ga18  1  0.336615  0.549084  0.751114  1
  Ga  Ga19  1  0.663385  0.450916  0.248886  1
  Ga  Ga20  1  0.549084  0.336615  0.751114  1
  Ga  Ga21  1  0.450916  0.663385  0.248886  1
  Ir  Ir22  1  0.671297  0.328703  0.500000  1
  Ir  Ir23  1  0.328703  0.671297  0.500000  1
  Ir  Ir24  1  0.328724  0.671276  0.000000  1
  Ir  Ir25  1  0.671276  0.328724  0.000000  1
  Ir  Ir26  1  0.000000  0.000000  0.000000  1
  Au  Au27  1  0.000000  0.000000  0.500000  1
