# generated using pymatgen
data_Y19Tm(NiAg3)2
_symmetry_space_group_name_H-M   'P 1'
_cell_length_a   9.54138000
_cell_length_b   9.54138046
_cell_length_c   9.63204000
_cell_angle_alpha   90.00000000
_cell_angle_beta   90.00000000
_cell_angle_gamma   119.99999840
_symmetry_Int_Tables_number   1
_chemical_formula_structural   Y19Tm(NiAg3)2
_chemical_formula_sum   'Y19 Tm1 Ni2 Ag6'
_cell_volume   759.40127581
_cell_formula_units_Z   1
loop_
 _symmetry_equiv_pos_site_id
 _symmetry_equiv_pos_as_xyz
  1  'x, y, z'
loop_
 _atom_site_type_symbol
 _atom_site_label
 _atom_site_symmetry_multiplicity
 _atom_site_fract_x
 _atom_site_fract_y
 _atom_site_fract_z
 _atom_site_occupancy
  Y  Y0  1  0.000000  0.000000  0.000000  1
  Y  Y1  1  0.543758  0.456242  0.250060  1
  Y  Y2  1  0.543758  0.087517  0.250060  1
  Y  Y3  1  0.912483  0.456242  0.250060  1
  Y  Y4  1  0.456242  0.543758  0.749940  1
  Y  Y5  1  0.456242  0.912483  0.749940  1
  Y  Y6  1  0.087517  0.543758  0.749940  1
  Y  Y7  1  0.209395  0.790605  0.439431  1
  Y  Y8  1  0.209395  0.418791  0.439431  1
  Y  Y9  1  0.581209  0.790605  0.439431  1
  Y  Y10  1  0.790605  0.209395  0.560569  1
  Y  Y11  1  0.790605  0.581209  0.560569  1
  Y  Y12  1  0.418791  0.209395  0.560569  1
  Y  Y13  1  0.790125  0.209875  0.939709  1
  Y  Y14  1  0.790125  0.580249  0.939709  1
  Y  Y15  1  0.419751  0.209875  0.939709  1
  Y  Y16  1  0.209875  0.790125  0.060291  1
  Y  Y17  1  0.209875  0.419751  0.060291  1
  Y  Y18  1  0.580249  0.790125  0.060291  1
  Tm  Tm19  1  0.000000  0.000000  0.500000  1
  Ni  Ni20  1  0.333333  0.666667  0.250098  1
  Ni  Ni21  1  0.666667  0.333333  0.749902  1
  Ag  Ag22  1  0.883888  0.116112  0.251188  1
  Ag  Ag23  1  0.883888  0.767774  0.251188  1
  Ag  Ag24  1  0.232226  0.116112  0.251188  1
  Ag  Ag25  1  0.116112  0.883888  0.748812  1
  Ag  Ag26  1  0.116112  0.232226  0.748812  1
  Ag  Ag27  1  0.767774  0.883888  0.748812  1
