# generated using pymatgen
data_Cs12Li8Hf4As11P
_symmetry_space_group_name_H-M   'P 1'
_cell_length_a   10.57427164
_cell_length_b   10.57427191
_cell_length_c   17.13531613
_cell_angle_alpha   90.01963682
_cell_angle_beta   90.01963893
_cell_angle_gamma   142.98134702
_symmetry_Int_Tables_number   1
_chemical_formula_structural   Cs12Li8Hf4As11P
_chemical_formula_sum   'Cs12 Li8 Hf4 As11 P1'
_cell_volume   1153.56851229
_cell_formula_units_Z   1
loop_
 _symmetry_equiv_pos_site_id
 _symmetry_equiv_pos_as_xyz
  1  'x, y, z'
loop_
 _atom_site_type_symbol
 _atom_site_label
 _atom_site_symmetry_multiplicity
 _atom_site_fract_x
 _atom_site_fract_y
 _atom_site_fract_z
 _atom_site_occupancy
  Cs  Cs0  1  0.947721  0.602952  0.829662  1
  Cs  Cs1  1  0.551256  0.894893  0.330223  1
  Cs  Cs2  1  0.397142  0.052135  0.170415  1
  Cs  Cs3  1  0.052135  0.397142  0.170415  1
  Cs  Cs4  1  0.894893  0.551256  0.330223  1
  Cs  Cs5  1  0.447280  0.102906  0.668974  1
  Cs  Cs6  1  0.602952  0.947721  0.829662  1
  Cs  Cs7  1  0.295545  0.295545  0.322074  1
  Cs  Cs8  1  0.792103  0.792103  0.180159  1
  Cs  Cs9  1  0.209338  0.209338  0.820527  1
  Cs  Cs10  1  0.709904  0.709904  0.678965  1
  Cs  Cs11  1  0.102906  0.447280  0.668974  1
  Li  Li12  1  0.916562  0.083268  0.000214  1
  Li  Li13  1  0.583977  0.419329  0.499554  1
  Li  Li14  1  0.083268  0.916562  0.000214  1
  Li  Li15  1  0.419329  0.583977  0.499554  1
  Li  Li16  1  0.749828  0.250895  0.000053  1
  Li  Li17  1  0.750379  0.248812  0.499354  1
  Li  Li18  1  0.250895  0.749828  0.000053  1
  Li  Li19  1  0.248812  0.750379  0.499354  1
  Hf  Hf20  1  0.586476  0.413489  0.000223  1
  Hf  Hf21  1  0.911562  0.082718  0.498931  1
  Hf  Hf22  1  0.413489  0.586476  0.000223  1
  Hf  Hf23  1  0.082718  0.911562  0.498931  1
  As  As24  1  0.894793  0.572618  0.081936  1
  As  As25  1  0.427678  0.105297  0.918468  1
  As  As26  1  0.604727  0.926778  0.580725  1
  As  As27  1  0.926778  0.604727  0.580725  1
  As  As28  1  0.105297  0.427678  0.918468  1
  As  As29  1  0.572618  0.894793  0.081936  1
  As  As30  1  0.391898  0.070831  0.417247  1
  As  As31  1  0.222565  0.222565  0.579896  1
  As  As32  1  0.721756  0.721756  0.919774  1
  As  As33  1  0.278585  0.278585  0.080906  1
  As  As34  1  0.070831  0.391898  0.417247  1
  P  P35  1  0.782005  0.782005  0.425742  1
