# generated using pymatgen
data_Sr7Ti7O20
_symmetry_space_group_name_H-M   'P 1'
_cell_length_a   3.94220100
_cell_length_b   8.84176586
_cell_length_c   12.52901597
_cell_angle_alpha   81.76505960
_cell_angle_beta   90.00000000
_cell_angle_gamma   90.00000000
_symmetry_Int_Tables_number   1
_chemical_formula_structural   Sr7Ti7O20
_chemical_formula_sum   'Sr7 Ti7 O20'
_cell_volume   432.20870492
_cell_formula_units_Z   1
loop_
 _symmetry_equiv_pos_site_id
 _symmetry_equiv_pos_as_xyz
  1  'x, y, z'
loop_
 _atom_site_type_symbol
 _atom_site_label
 _atom_site_symmetry_multiplicity
 _atom_site_fract_x
 _atom_site_fract_y
 _atom_site_fract_z
 _atom_site_occupancy
  Sr  Sr0  1  0.500000  0.576293  0.637975  1
  Sr  Sr1  1  0.500000  0.423707  0.362025  1
  Sr  Sr2  1  0.500000  0.136466  0.782884  1
  Sr  Sr3  1  0.500000  0.863534  0.217116  1
  Sr  Sr4  1  0.500000  0.000000  0.500000  1
  Sr  Sr5  1  0.500000  0.731572  0.923139  1
  Sr  Sr6  1  0.500000  0.268428  0.076861  1
  Ti  Ti7  1  0.000000  0.284253  0.564974  1
  Ti  Ti8  1  0.000000  0.715747  0.435026  1
  Ti  Ti9  1  0.000000  0.861093  0.714529  1
  Ti  Ti10  1  0.000000  0.138907  0.285471  1
  Ti  Ti11  1  0.000000  0.425170  0.849629  1
  Ti  Ti12  1  0.000000  0.574830  0.150371  1
  Ti  Ti13  1  0.000000  0.000000  0.000000  1
  O  O14  1  0.500000  0.287177  0.572890  1
  O  O15  1  0.500000  0.712823  0.427110  1
  O  O16  1  0.000000  0.069336  0.636297  1
  O  O17  1  0.000000  0.930664  0.363703  1
  O  O18  1  0.000000  0.949522  0.852559  1
  O  O19  1  0.000000  0.050478  0.147441  1
  O  O20  1  0.000000  0.643959  0.804662  1
  O  O21  1  0.000000  0.356041  0.195338  1
  O  O22  1  0.000000  0.359248  0.719972  1
  O  O23  1  0.000000  0.640752  0.280028  1
  O  O24  1  0.500000  0.857211  0.715727  1
  O  O25  1  0.500000  0.142789  0.284273  1
  O  O26  1  0.000000  0.774531  0.577474  1
  O  O27  1  0.000000  0.225469  0.422526  1
  O  O28  1  0.000000  0.229558  0.942884  1
  O  O29  1  0.000000  0.770442  0.057116  1
  O  O30  1  0.500000  0.000000  0.000000  1
  O  O31  1  0.500000  0.439693  0.879393  1
  O  O32  1  0.500000  0.560307  0.120607  1
  O  O33  1  0.000000  0.500000  0.500000  1
