# generated using pymatgen
data_NpURh2F24
_symmetry_space_group_name_H-M   'P 1'
_cell_length_a   5.36148743
_cell_length_b   9.66939500
_cell_length_c   10.43486500
_cell_angle_alpha   90.00000000
_cell_angle_beta   87.47550210
_cell_angle_gamma   90.00000000
_symmetry_Int_Tables_number   1
_chemical_formula_structural   NpURh2F24
_chemical_formula_sum   'Np1 U1 Rh2 F24'
_cell_volume   540.44279655
_cell_formula_units_Z   1
loop_
 _symmetry_equiv_pos_site_id
 _symmetry_equiv_pos_as_xyz
  1  'x, y, z'
loop_
 _atom_site_type_symbol
 _atom_site_label
 _atom_site_symmetry_multiplicity
 _atom_site_fract_x
 _atom_site_fract_y
 _atom_site_fract_z
 _atom_site_occupancy
  Np  Np0  1  0.083216  0.250000  0.370093  1
  U  U1  1  0.916404  0.750000  0.630291  1
  Rh  Rh2  1  0.418836  0.250000  0.870008  1
  Rh  Rh3  1  0.581000  0.750000  0.129804  1
  F  F4  1  0.230421  0.750000  0.514863  1
  F  F5  1  0.773896  0.250000  0.485002  1
  F  F6  1  0.695440  0.250000  0.973675  1
  F  F7  1  0.303951  0.750000  0.026660  1
  F  F8  1  0.601481  0.750000  0.744861  1
  F  F9  1  0.393297  0.250000  0.255592  1
  F  F10  1  0.142311  0.250000  0.765868  1
  F  F11  1  0.857986  0.750000  0.233665  1
  F  F12  1  0.769410  0.601323  0.519439  1
  F  F13  1  0.232427  0.396119  0.478735  1
  F  F14  1  0.267615  0.386763  0.974139  1
  F  F15  1  0.232427  0.103881  0.478735  1
  F  F16  1  0.732084  0.613010  0.025890  1
  F  F17  1  0.769410  0.898677  0.519439  1
  F  F18  1  0.732084  0.886990  0.025890  1
  F  F19  1  0.267615  0.113237  0.974139  1
  F  F20  1  0.064094  0.601578  0.740145  1
  F  F21  1  0.934839  0.396021  0.261610  1
  F  F22  1  0.569779  0.387054  0.765911  1
  F  F23  1  0.934839  0.103979  0.261610  1
  F  F24  1  0.430631  0.612612  0.233940  1
  F  F25  1  0.064094  0.898422  0.740145  1
  F  F26  1  0.430631  0.887388  0.233940  1
  F  F27  1  0.569779  0.112946  0.765911  1
