# generated using pymatgen
data_Dy6In(P3Rh5)4
_symmetry_space_group_name_H-M   'P 1'
_cell_length_a   13.49336700
_cell_length_b   13.49336623
_cell_length_c   3.89900500
_cell_angle_alpha   90.00000000
_cell_angle_beta   90.00000000
_cell_angle_gamma   119.99999944
_symmetry_Int_Tables_number   1
_chemical_formula_structural   Dy6In(P3Rh5)4
_chemical_formula_sum   'Dy6 In1 P12 Rh20'
_cell_volume   614.78755380
_cell_formula_units_Z   1
loop_
 _symmetry_equiv_pos_site_id
 _symmetry_equiv_pos_as_xyz
  1  'x, y, z'
loop_
 _atom_site_type_symbol
 _atom_site_label
 _atom_site_symmetry_multiplicity
 _atom_site_fract_x
 _atom_site_fract_y
 _atom_site_fract_z
 _atom_site_occupancy
  Dy  Dy0  1  0.530228  0.716893  0.253541  1
  Dy  Dy1  1  0.283107  0.813334  0.253541  1
  Dy  Dy2  1  0.186666  0.469772  0.253541  1
  Dy  Dy3  1  0.469772  0.283107  0.746459  1
  Dy  Dy4  1  0.716893  0.186666  0.746459  1
  Dy  Dy5  1  0.813334  0.530228  0.746459  1
  In  In6  1  0.000000  0.000000  0.000000  1
  P  P7  1  0.527594  0.138464  0.248865  1
  P  P8  1  0.861536  0.389131  0.248865  1
  P  P9  1  0.610869  0.472406  0.248865  1
  P  P10  1  0.949189  0.717416  0.242727  1
  P  P11  1  0.282584  0.231773  0.242727  1
  P  P12  1  0.768227  0.050811  0.242727  1
  P  P13  1  0.389131  0.527594  0.751135  1
  P  P14  1  0.472406  0.861536  0.751135  1
  P  P15  1  0.138464  0.610869  0.751135  1
  P  P16  1  0.717416  0.768227  0.757273  1
  P  P17  1  0.231773  0.949189  0.757273  1
  P  P18  1  0.050811  0.282584  0.757273  1
  Rh  Rh19  1  0.333333  0.666667  0.752836  1
  Rh  Rh20  1  0.917844  0.253181  0.241692  1
  Rh  Rh21  1  0.746819  0.664662  0.241692  1
  Rh  Rh22  1  0.335338  0.082156  0.241692  1
  Rh  Rh23  1  0.443303  0.026871  0.748000  1
  Rh  Rh24  1  0.973129  0.416433  0.748000  1
  Rh  Rh25  1  0.583567  0.556697  0.748000  1
  Rh  Rh26  1  0.666667  0.333333  0.247164  1
  Rh  Rh27  1  0.098520  0.209171  0.266476  1
  Rh  Rh28  1  0.790829  0.889349  0.266476  1
  Rh  Rh29  1  0.110651  0.901480  0.266476  1
  Rh  Rh30  1  0.026871  0.583567  0.252000  1
  Rh  Rh31  1  0.416433  0.443303  0.252000  1
  Rh  Rh32  1  0.556697  0.973129  0.252000  1
  Rh  Rh33  1  0.664662  0.917844  0.758308  1
  Rh  Rh34  1  0.082156  0.746819  0.758308  1
  Rh  Rh35  1  0.253181  0.335338  0.758308  1
  Rh  Rh36  1  0.901480  0.790829  0.733524  1
  Rh  Rh37  1  0.209171  0.110651  0.733524  1
  Rh  Rh38  1  0.889349  0.098520  0.733524  1
