# generated using pymatgen
data_Ho10ErScPb10
_symmetry_space_group_name_H-M   'P 1'
_cell_length_a   11.69567812
_cell_length_b   11.69567791
_cell_length_c   11.70521589
_cell_angle_alpha   147.43609104
_cell_angle_beta   132.63392733
_cell_angle_gamma   58.57760699
_symmetry_Int_Tables_number   1
_chemical_formula_structural   Ho10ErScPb10
_chemical_formula_sum   'Ho10 Er1 Sc1 Pb10'
_cell_volume   629.05138853
_cell_formula_units_Z   1
loop_
 _symmetry_equiv_pos_site_id
 _symmetry_equiv_pos_as_xyz
  1  'x, y, z'
loop_
 _atom_site_type_symbol
 _atom_site_label
 _atom_site_symmetry_multiplicity
 _atom_site_fract_x
 _atom_site_fract_y
 _atom_site_fract_z
 _atom_site_occupancy
  Ho  Ho0  1  0.252000  0.639882  0.611048  1
  Ho  Ho1  1  0.674775  0.940932  0.733267  1
  Ho  Ho2  1  0.028834  0.140950  0.888952  1
  Ho  Ho3  1  0.970413  0.858091  0.110931  1
  Ho  Ho4  1  0.792507  0.559862  0.233381  1
  Ho  Ho5  1  0.207665  0.441507  0.766733  1
  Ho  Ho6  1  0.303724  0.053724  0.750000  1
  Ho  Ho7  1  0.326480  0.059126  0.266619  1
  Ho  Ho8  1  0.304102  0.554102  0.250000  1
  Ho  Ho9  1  0.747159  0.359482  0.389069  1
  Er  Er10  1  0.696163  0.946163  0.250000  1
  Sc  Sc11  1  0.694695  0.444695  0.750000  1
  Pb  Pb12  1  0.479463  0.570398  0.895924  1
  Pb  Pb13  1  0.598959  0.787409  0.800278  1
  Pb  Pb14  1  0.674474  0.083540  0.604076  1
  Pb  Pb15  1  0.000256  0.750256  0.750000  1
  Pb  Pb16  1  0.987131  0.298681  0.699722  1
  Pb  Pb17  1  0.523899  0.424456  0.098913  1
  Pb  Pb18  1  0.006563  0.702595  0.297437  1
  Pb  Pb19  1  0.405158  0.209127  0.202563  1
  Pb  Pb20  1  0.325544  0.924986  0.401087  1
  Pb  Pb21  1  0.000035  0.250035  0.250000  1
