# generated using pymatgen
data_Er8TmMg(Ni2Sb)2
_symmetry_space_group_name_H-M   'P 1'
_cell_length_a   8.54328798
_cell_length_b   8.54328809
_cell_length_c   8.54328730
_cell_angle_alpha   128.36202688
_cell_angle_beta   128.36202831
_cell_angle_gamma   76.03929415
_symmetry_Int_Tables_number   1
_chemical_formula_structural   Er8TmMg(Ni2Sb)2
_chemical_formula_sum   'Er8 Tm1 Mg1 Ni4 Sb2'
_cell_volume   372.72269555
_cell_formula_units_Z   1
loop_
 _symmetry_equiv_pos_site_id
 _symmetry_equiv_pos_as_xyz
  1  'x, y, z'
loop_
 _atom_site_type_symbol
 _atom_site_label
 _atom_site_symmetry_multiplicity
 _atom_site_fract_x
 _atom_site_fract_y
 _atom_site_fract_z
 _atom_site_occupancy
  Er  Er0  1  0.802051  0.286237  0.823537  1
  Er  Er1  1  0.197949  0.713763  0.176463  1
  Er  Er2  1  0.462699  0.978513  0.176463  1
  Er  Er3  1  0.286237  0.462699  0.484185  1
  Er  Er4  1  0.021487  0.197949  0.484185  1
  Er  Er5  1  0.537301  0.021487  0.823537  1
  Er  Er6  1  0.713763  0.537301  0.515815  1
  Er  Er7  1  0.978513  0.802051  0.515815  1
  Tm  Tm8  1  0.500000  0.500000  0.000000  1
  Mg  Mg9  1  0.000000  0.000000  0.000000  1
  Ni  Ni10  1  0.132401  0.623831  0.756232  1
  Ni  Ni11  1  0.867599  0.376169  0.243768  1
  Ni  Ni12  1  0.623831  0.867599  0.491431  1
  Ni  Ni13  1  0.376169  0.132401  0.508569  1
  Sb  Sb14  1  0.257571  0.257571  0.000000  1
  Sb  Sb15  1  0.742429  0.742429  0.000000  1
