# generated using pymatgen
data_Ag4Te2IrRhO14
_symmetry_space_group_name_H-M   'P 1'
_cell_length_a   7.27092486
_cell_length_b   7.25071352
_cell_length_c   7.25071420
_cell_angle_alpha   119.04076038
_cell_angle_beta   119.77032214
_cell_angle_gamma   90.95192393
_symmetry_Int_Tables_number   1
_chemical_formula_structural   Ag4Te2IrRhO14
_chemical_formula_sum   'Ag4 Te2 Ir1 Rh1 O14'
_cell_volume   272.85892887
_cell_formula_units_Z   1
loop_
 _symmetry_equiv_pos_site_id
 _symmetry_equiv_pos_as_xyz
  1  'x, y, z'
loop_
 _atom_site_type_symbol
 _atom_site_label
 _atom_site_symmetry_multiplicity
 _atom_site_fract_x
 _atom_site_fract_y
 _atom_site_fract_z
 _atom_site_occupancy
  Ag  Ag0  1  0.000000  0.500000  0.500000  1
  Ag  Ag1  1  0.500000  0.000000  0.500000  1
  Ag  Ag2  1  0.000000  0.500000  0.000000  1
  Ag  Ag3  1  0.000000  0.000000  0.500000  1
  Te  Te4  1  0.500000  0.500000  0.500000  1
  Te  Te5  1  0.500000  0.000000  0.000000  1
  Ir  Ir6  1  0.000000  0.000000  0.000000  1
  Rh  Rh7  1  0.500000  0.500000  0.000000  1
  O  O8  1  0.560494  0.406080  0.727722  1
  O  O9  1  0.439506  0.167228  0.845586  1
  O  O10  1  0.821053  0.099276  0.147158  1
  O  O11  1  0.178947  0.326105  0.278223  1
  O  O12  1  0.439506  0.593920  0.272278  1
  O  O13  1  0.560494  0.832772  0.154414  1
  O  O14  1  0.178947  0.900724  0.852842  1
  O  O15  1  0.821053  0.673895  0.721777  1
  O  O16  1  0.592323  0.252365  0.339957  1
  O  O17  1  0.407677  0.747635  0.660043  1
  O  O18  1  0.166662  0.402978  0.763684  1
  O  O19  1  0.833338  0.597022  0.236316  1
  O  O20  1  0.864817  0.092125  0.772693  1
  O  O21  1  0.135183  0.907875  0.227307  1
