# generated using pymatgen
data_La2Tb2As7Ir8
_symmetry_space_group_name_H-M   'P 1'
_cell_length_a   4.11487800
_cell_length_b   13.23710287
_cell_length_c   13.62525808
_cell_angle_alpha   81.98056464
_cell_angle_beta   90.00000000
_cell_angle_gamma   90.00000000
_symmetry_Int_Tables_number   1
_chemical_formula_structural   La2Tb2As7Ir8
_chemical_formula_sum   'La4 Tb4 As14 Ir16'
_cell_volume   734.89736531
_cell_formula_units_Z   2
loop_
 _symmetry_equiv_pos_site_id
 _symmetry_equiv_pos_as_xyz
  1  'x, y, z'
loop_
 _atom_site_type_symbol
 _atom_site_label
 _atom_site_symmetry_multiplicity
 _atom_site_fract_x
 _atom_site_fract_y
 _atom_site_fract_z
 _atom_site_occupancy
  La  La0  1  0.250000  0.101801  0.789811  1
  La  La1  1  0.750000  0.898199  0.210189  1
  La  La2  1  0.250000  0.286470  0.103771  1
  La  La3  1  0.750000  0.713530  0.896229  1
  Tb  Tb4  1  0.250000  0.520919  0.294305  1
  Tb  Tb5  1  0.750000  0.479081  0.705695  1
  Tb  Tb6  1  0.250000  0.206632  0.441188  1
  Tb  Tb7  1  0.750000  0.793368  0.558812  1
  As  As8  1  0.250000  0.057487  0.101075  1
  As  As9  1  0.750000  0.942513  0.898925  1
  As  As10  1  0.250000  0.314806  0.685689  1
  As  As11  1  0.750000  0.685194  0.314311  1
  As  As12  1  0.250000  0.606822  0.569206  1
  As  As13  1  0.750000  0.393178  0.430794  1
  As  As14  1  0.250000  0.845191  0.717084  1
  As  As15  1  0.750000  0.154809  0.282916  1
  As  As16  1  0.750000  0.255940  0.917123  1
  As  As17  1  0.250000  0.744060  0.082877  1
  As  As18  1  0.750000  0.097002  0.585704  1
  As  As19  1  0.250000  0.902998  0.414296  1
  As  As20  1  0.750000  0.472072  0.129457  1
  As  As21  1  0.250000  0.527928  0.870543  1
  Ir  Ir22  1  0.250000  0.989980  0.573578  1
  Ir  Ir23  1  0.750000  0.010020  0.426422  1
  Ir  Ir24  1  0.250000  0.662893  0.731704  1
  Ir  Ir25  1  0.750000  0.337107  0.268296  1
  Ir  Ir26  1  0.250000  0.554126  0.047556  1
  Ir  Ir27  1  0.750000  0.445874  0.952444  1
  Ir  Ir28  1  0.250000  0.056240  0.280421  1
  Ir  Ir29  1  0.750000  0.943760  0.719579  1
  Ir  Ir30  1  0.250000  0.425259  0.522160  1
  Ir  Ir31  1  0.750000  0.574741  0.477840  1
  Ir  Ir32  1  0.250000  0.919319  0.997310  1
  Ir  Ir33  1  0.750000  0.080681  0.002690  1
  Ir  Ir34  1  0.250000  0.720914  0.404136  1
  Ir  Ir35  1  0.750000  0.279086  0.595864  1
  Ir  Ir36  1  0.250000  0.344912  0.857682  1
  Ir  Ir37  1  0.750000  0.655088  0.142318  1
