# generated using pymatgen
data_La8Pr2Ir2I15
_symmetry_space_group_name_H-M   'P 1'
_cell_length_a   10.20386368
_cell_length_b   11.17197399
_cell_length_c   11.99951766
_cell_angle_alpha   92.33039088
_cell_angle_beta   114.02681295
_cell_angle_gamma   110.40181087
_symmetry_Int_Tables_number   1
_chemical_formula_structural   La8Pr2Ir2I15
_chemical_formula_sum   'La8 Pr2 Ir2 I15'
_cell_volume   1144.06732387
_cell_formula_units_Z   1
loop_
 _symmetry_equiv_pos_site_id
 _symmetry_equiv_pos_as_xyz
  1  'x, y, z'
loop_
 _atom_site_type_symbol
 _atom_site_label
 _atom_site_symmetry_multiplicity
 _atom_site_fract_x
 _atom_site_fract_y
 _atom_site_fract_z
 _atom_site_occupancy
  La  La0  1  0.299259  0.903190  0.273265  1
  La  La1  1  0.700741  0.096810  0.726735  1
  La  La2  1  0.088634  0.544249  0.331650  1
  La  La3  1  0.911366  0.455751  0.668350  1
  La  La4  1  0.831429  0.749584  0.176751  1
  La  La5  1  0.168571  0.250416  0.823249  1
  La  La6  1  0.973724  0.792745  0.901677  1
  La  La7  1  0.026276  0.207255  0.098323  1
  Pr  Pr8  1  0.222902  0.577192  0.049931  1
  Pr  Pr9  1  0.777098  0.422808  0.950069  1
  Ir  Ir10  1  0.032206  0.673885  0.120213  1
  Ir  Ir11  1  0.967794  0.326115  0.879787  1
  I  I12  1  0.341233  0.445353  0.300558  1
  I  I13  1  0.658767  0.554647  0.699442  1
  I  I14  1  0.213909  0.736696  0.818164  1
  I  I15  1  0.786091  0.263304  0.181836  1
  I  I16  1  0.144276  0.386712  0.582333  1
  I  I17  1  0.855724  0.613288  0.417667  1
  I  I18  1  0.389883  0.802589  0.533017  1
  I  I19  1  0.610117  0.197411  0.466983  1
  I  I20  1  0.264414  0.087552  0.055006  1
  I  I21  1  0.735586  0.912448  0.944994  1
  I  I22  1  0.563460  0.841387  0.225514  1
  I  I23  1  0.436540  0.158613  0.774486  1
  I  I24  1  0.092293  0.039402  0.336600  1
  I  I25  1  0.907707  0.960598  0.663400  1
  I  I26  1  0.500000  0.500000  0.000000  1
