# generated using pymatgen
data_FeCN7
_symmetry_space_group_name_H-M   'P 1'
_cell_length_a   6.45456606
_cell_length_b   4.98049106
_cell_length_c   6.91556397
_cell_angle_alpha   110.45036433
_cell_angle_beta   100.71833429
_cell_angle_gamma   112.24376703
_symmetry_Int_Tables_number   1
_chemical_formula_structural   FeCN7
_chemical_formula_sum   'Fe1 C1 N7'
_cell_volume   179.35081405
_cell_formula_units_Z   1
loop_
 _symmetry_equiv_pos_site_id
 _symmetry_equiv_pos_as_xyz
  1  'x, y, z'
loop_
 _atom_site_type_symbol
 _atom_site_label
 _atom_site_symmetry_multiplicity
 _atom_site_fract_x
 _atom_site_fract_y
 _atom_site_fract_z
 _atom_site_occupancy
  Fe  Fe0  1  0.992619  0.721108  0.662170  1
  C  C1  1  0.011641  0.362143  0.681435  1
  N  N2  1  0.231155  0.781185  0.546435  1
  N  N3  1  0.564310  0.298200  0.225091  1
  N  N4  1  0.015407  0.129803  0.685107  1
  N  N5  1  0.723444  0.453251  0.386006  1
  N  N6  1  0.713284  0.728931  0.957911  1
  N  N7  1  0.376478  0.820090  0.474490  1
  N  N8  1  0.819636  0.724501  0.845954  1
