# generated using pymatgen
data_Hf4Re3Mo5
_symmetry_space_group_name_H-M   'P 1'
_cell_length_a   5.32996700
_cell_length_b   5.33237810
_cell_length_c   8.71548300
_cell_angle_alpha   90.00000000
_cell_angle_beta   90.00000000
_cell_angle_gamma   119.98503752
_symmetry_Int_Tables_number   1
_chemical_formula_structural   Hf4Re3Mo5
_chemical_formula_sum   'Hf4 Re3 Mo5'
_cell_volume   214.55221757
_cell_formula_units_Z   1
loop_
 _symmetry_equiv_pos_site_id
 _symmetry_equiv_pos_as_xyz
  1  'x, y, z'
loop_
 _atom_site_type_symbol
 _atom_site_label
 _atom_site_symmetry_multiplicity
 _atom_site_fract_x
 _atom_site_fract_y
 _atom_site_fract_z
 _atom_site_occupancy
  Hf  Hf0  1  0.333165  0.666331  0.061302  1
  Hf  Hf1  1  0.666600  0.333199  0.558718  1
  Hf  Hf2  1  0.666600  0.333199  0.941282  1
  Hf  Hf3  1  0.333165  0.666331  0.438698  1
  Re  Re4  1  0.341517  0.169520  0.250000  1
  Re  Re5  1  0.828001  0.169520  0.250000  1
  Re  Re6  1  0.170143  0.340285  0.750000  1
  Mo  Mo7  1  0.001975  0.003950  0.001489  1
  Mo  Mo8  1  0.001975  0.003950  0.498511  1
  Mo  Mo9  1  0.828680  0.657360  0.250000  1
  Mo  Mo10  1  0.169585  0.828177  0.750000  1
  Mo  Mo11  1  0.658593  0.828177  0.750000  1
