# generated using pymatgen
data_TbSmEuY4NiI12
_symmetry_space_group_name_H-M   'P 1'
_cell_length_a   9.79277748
_cell_length_b   9.80039303
_cell_length_c   9.77723994
_cell_angle_alpha   106.35946043
_cell_angle_beta   106.35196931
_cell_angle_gamma   106.59277652
_symmetry_Int_Tables_number   1
_chemical_formula_structural   TbSmEuY4NiI12
_chemical_formula_sum   'Tb1 Sm1 Eu1 Y4 Ni1 I12'
_cell_volume   793.20642126
_cell_formula_units_Z   1
loop_
 _symmetry_equiv_pos_site_id
 _symmetry_equiv_pos_as_xyz
  1  'x, y, z'
loop_
 _atom_site_type_symbol
 _atom_site_label
 _atom_site_symmetry_multiplicity
 _atom_site_fract_x
 _atom_site_fract_y
 _atom_site_fract_z
 _atom_site_occupancy
  Tb  Tb0  1  0.021903  0.292393  0.093671  1
  Sm  Sm1  1  0.295941  0.094712  0.020707  1
  Eu  Eu2  1  0.499596  0.500022  0.500644  1
  Y  Y3  1  0.904454  0.977764  0.706226  1
  Y  Y4  1  0.708481  0.905888  0.978603  1
  Y  Y5  1  0.977960  0.707514  0.906094  1
  Y  Y6  1  0.093176  0.021430  0.292612  1
  Ni  Ni7  1  0.000378  0.001254  0.999889  1
  I  I8  1  0.926190  0.323623  0.776056  1
  I  I9  1  0.776400  0.926085  0.323444  1
  I  I10  1  0.322841  0.771561  0.924708  1
  I  I11  1  0.073366  0.677307  0.223125  1
  I  I12  1  0.219082  0.071751  0.670494  1
  I  I13  1  0.679672  0.223569  0.074809  1
  I  I14  1  0.548827  0.860635  0.629188  1
  I  I15  1  0.629244  0.548601  0.861630  1
  I  I16  1  0.859756  0.628255  0.548675  1
  I  I17  1  0.450987  0.139410  0.375482  1
  I  I18  1  0.372123  0.456557  0.142043  1
  I  I19  1  0.139625  0.371669  0.451900  1
