# generated using pymatgen
data_Eu4ThTa3O14
_symmetry_space_group_name_H-M   'P 1'
_cell_length_a   7.72512349
_cell_length_b   7.72512453
_cell_length_c   7.72512293
_cell_angle_alpha   59.47219102
_cell_angle_beta   59.47218979
_cell_angle_gamma   59.47219038
_symmetry_Int_Tables_number   1
_chemical_formula_structural   Eu4ThTa3O14
_chemical_formula_sum   'Eu4 Th1 Ta3 O14'
_cell_volume   322.07402687
_cell_formula_units_Z   1
loop_
 _symmetry_equiv_pos_site_id
 _symmetry_equiv_pos_as_xyz
  1  'x, y, z'
loop_
 _atom_site_type_symbol
 _atom_site_label
 _atom_site_symmetry_multiplicity
 _atom_site_fract_x
 _atom_site_fract_y
 _atom_site_fract_z
 _atom_site_occupancy
  Eu  Eu0  1  0.625000  0.125000  0.125000  1
  Eu  Eu1  1  0.125000  0.625000  0.125000  1
  Eu  Eu2  1  0.125000  0.125000  0.625000  1
  Eu  Eu3  1  0.125000  0.125000  0.125000  1
  Th  Th4  1  0.625000  0.625000  0.625000  1
  Ta  Ta5  1  0.125000  0.625000  0.625000  1
  Ta  Ta6  1  0.625000  0.125000  0.625000  1
  Ta  Ta7  1  0.625000  0.625000  0.125000  1
  O  O8  1  0.246270  0.246270  0.246270  1
  O  O9  1  0.003730  0.003730  0.003730  1
  O  O10  1  0.713310  0.713310  0.263179  1
  O  O11  1  0.321619  0.321619  0.699066  1
  O  O12  1  0.713310  0.263179  0.713310  1
  O  O13  1  0.321619  0.699066  0.321619  1
  O  O14  1  0.263179  0.713310  0.713310  1
  O  O15  1  0.699066  0.321619  0.321619  1
  O  O16  1  0.536690  0.536690  0.986821  1
  O  O17  1  0.928381  0.928381  0.550934  1
  O  O18  1  0.536690  0.986821  0.536690  1
  O  O19  1  0.928381  0.550934  0.928381  1
  O  O20  1  0.986821  0.536690  0.536690  1
  O  O21  1  0.550934  0.928381  0.928381  1
