# generated using pymatgen
data_SmHo(Co3Si2)2
_symmetry_space_group_name_H-M   'P 1'
_cell_length_a   6.26440822
_cell_length_b   6.26440785
_cell_length_c   6.26440938
_cell_angle_alpha   130.49196905
_cell_angle_beta   113.43218102
_cell_angle_gamma   87.30582807
_symmetry_Int_Tables_number   1
_chemical_formula_structural   SmHo(Co3Si2)2
_chemical_formula_sum   'Sm1 Ho1 Co6 Si4'
_cell_volume   163.49008688
_cell_formula_units_Z   1
loop_
 _symmetry_equiv_pos_site_id
 _symmetry_equiv_pos_as_xyz
  1  'x, y, z'
loop_
 _atom_site_type_symbol
 _atom_site_label
 _atom_site_symmetry_multiplicity
 _atom_site_fract_x
 _atom_site_fract_y
 _atom_site_fract_z
 _atom_site_occupancy
  Sm  Sm0  1  0.250000  0.528945  0.278945  1
  Ho  Ho1  1  0.750000  0.465878  0.715878  1
  Co  Co2  1  0.001498  0.001126  0.502625  1
  Co  Co3  1  0.498502  0.001126  0.999628  1
  Co  Co4  1  0.724411  0.002377  0.724329  1
  Co  Co5  1  0.221952  0.499918  0.724329  1
  Co  Co6  1  0.278048  0.002377  0.277967  1
  Co  Co7  1  0.775589  0.499918  0.277967  1
  Si  Si8  1  0.078337  0.871981  0.793644  1
  Si  Si9  1  0.916906  0.122428  0.205523  1
  Si  Si10  1  0.583094  0.788619  0.205523  1
  Si  Si11  1  0.421663  0.215305  0.793644  1
