# generated using pymatgen
data_Ce2Nd3(TcB3)2
_symmetry_space_group_name_H-M   'P 1'
_cell_length_a   5.57872912
_cell_length_b   5.57872907
_cell_length_c   8.52678352
_cell_angle_alpha   70.90534584
_cell_angle_beta   70.90535003
_cell_angle_gamma   59.99999646
_symmetry_Int_Tables_number   1
_chemical_formula_structural   Ce2Nd3(TcB3)2
_chemical_formula_sum   'Ce2 Nd3 Tc2 B6'
_cell_volume   212.79262944
_cell_formula_units_Z   1
loop_
 _symmetry_equiv_pos_site_id
 _symmetry_equiv_pos_as_xyz
  1  'x, y, z'
loop_
 _atom_site_type_symbol
 _atom_site_label
 _atom_site_symmetry_multiplicity
 _atom_site_fract_x
 _atom_site_fract_y
 _atom_site_fract_z
 _atom_site_occupancy
  Ce  Ce0  1  0.998479  0.998479  0.004562  1
  Ce  Ce1  1  0.416626  0.416626  0.750124  1
  Nd  Nd2  1  0.747869  0.747869  0.756393  1
  Nd  Nd3  1  0.251910  0.251910  0.244271  1
  Nd  Nd4  1  0.585081  0.585081  0.244756  1
  Tc  Tc5  1  0.890131  0.890131  0.329608  1
  Tc  Tc6  1  0.110403  0.110403  0.668791  1
  B  B7  1  0.500299  0.170182  0.500249  1
  B  B8  1  0.829270  0.500299  0.500249  1
  B  B9  1  0.170182  0.829270  0.500249  1
  B  B10  1  0.170182  0.500299  0.500249  1
  B  B11  1  0.829270  0.170182  0.500249  1
  B  B12  1  0.500299  0.829270  0.500249  1
