# generated using pymatgen
data_DyYEr2(NiP)4
_symmetry_space_group_name_H-M   'P 1'
_cell_length_a   3.88315900
_cell_length_b   3.88316032
_cell_length_c   15.35807200
_cell_angle_alpha   90.00000000
_cell_angle_beta   90.00000000
_cell_angle_gamma   120.00001430
_symmetry_Int_Tables_number   1
_chemical_formula_structural   DyYEr2(NiP)4
_chemical_formula_sum   'Dy1 Y1 Er2 Ni4 P4'
_cell_volume   200.55697160
_cell_formula_units_Z   1
loop_
 _symmetry_equiv_pos_site_id
 _symmetry_equiv_pos_as_xyz
  1  'x, y, z'
loop_
 _atom_site_type_symbol
 _atom_site_label
 _atom_site_symmetry_multiplicity
 _atom_site_fract_x
 _atom_site_fract_y
 _atom_site_fract_z
 _atom_site_occupancy
  Dy  Dy0  1  0.000000  0.000000  0.000000  1
  Y  Y1  1  0.000000  0.000000  0.500000  1
  Er  Er2  1  0.000000  0.000000  0.250098  1
  Er  Er3  1  0.000000  0.000000  0.749902  1
  Ni  Ni4  1  0.333333  0.666667  0.370131  1
  Ni  Ni5  1  0.666667  0.333333  0.629869  1
  Ni  Ni6  1  0.666667  0.333333  0.870465  1
  Ni  Ni7  1  0.333333  0.666667  0.129535  1
  P  P8  1  0.333333  0.666667  0.876508  1
  P  P9  1  0.666667  0.333333  0.123492  1
  P  P10  1  0.666667  0.333333  0.376345  1
  P  P11  1  0.333333  0.666667  0.623655  1
