# generated using pymatgen
data_ZrBe9Mo2
_symmetry_space_group_name_H-M   'P 1'
_cell_length_a   7.53849347
_cell_length_b   7.53849253
_cell_length_c   7.53849428
_cell_angle_alpha   34.69162335
_cell_angle_beta   34.69162330
_cell_angle_gamma   34.69162233
_symmetry_Int_Tables_number   1
_chemical_formula_structural   ZrBe9Mo2
_chemical_formula_sum   'Zr1 Be9 Mo2'
_cell_volume   123.84739855
_cell_formula_units_Z   1
loop_
 _symmetry_equiv_pos_site_id
 _symmetry_equiv_pos_as_xyz
  1  'x, y, z'
loop_
 _atom_site_type_symbol
 _atom_site_label
 _atom_site_symmetry_multiplicity
 _atom_site_fract_x
 _atom_site_fract_y
 _atom_site_fract_z
 _atom_site_occupancy
  Zr  Zr0  1  0.000000  0.000000  0.000000  1
  Be  Be1  1  0.500000  0.500000  0.500000  1
  Be  Be2  1  0.333802  0.333802  0.333803  1
  Be  Be3  1  0.666198  0.666198  0.666197  1
  Be  Be4  1  0.080363  0.586360  0.586360  1
  Be  Be5  1  0.586360  0.586360  0.080363  1
  Be  Be6  1  0.586360  0.080363  0.586360  1
  Be  Be7  1  0.413640  0.919637  0.413640  1
  Be  Be8  1  0.919637  0.413640  0.413640  1
  Be  Be9  1  0.413640  0.413640  0.919637  1
  Mo  Mo10  1  0.144262  0.144262  0.144262  1
  Mo  Mo11  1  0.855738  0.855738  0.855738  1
