# generated using pymatgen
data_Zr2AlPdRh4
_symmetry_space_group_name_H-M   'P 1'
_cell_length_a   5.57996595
_cell_length_b   5.57996612
_cell_length_c   8.25902300
_cell_angle_alpha   90.00027151
_cell_angle_beta   90.00027045
_cell_angle_gamma   98.87859068
_symmetry_Int_Tables_number   1
_chemical_formula_structural   Zr2AlPdRh4
_chemical_formula_sum   'Zr4 Al2 Pd2 Rh8'
_cell_volume   254.07180316
_cell_formula_units_Z   2
loop_
 _symmetry_equiv_pos_site_id
 _symmetry_equiv_pos_as_xyz
  1  'x, y, z'
loop_
 _atom_site_type_symbol
 _atom_site_label
 _atom_site_symmetry_multiplicity
 _atom_site_fract_x
 _atom_site_fract_y
 _atom_site_fract_z
 _atom_site_occupancy
  Zr  Zr0  1  0.774868  0.225132  0.500000  1
  Zr  Zr1  1  0.225133  0.774867  0.000000  1
  Zr  Zr2  1  0.225132  0.774868  0.500000  1
  Zr  Zr3  1  0.774867  0.225133  0.000000  1
  Al  Al4  1  0.500181  0.500181  0.749994  1
  Al  Al5  1  0.499819  0.499819  0.250006  1
  Pd  Pd6  1  0.000026  0.000026  0.250006  1
  Pd  Pd7  1  0.999974  0.999974  0.749994  1
  Rh  Rh8  1  0.717001  0.717001  0.000071  1
  Rh  Rh9  1  0.717006  0.717006  0.499927  1
  Rh  Rh10  1  0.282999  0.282999  0.999929  1
  Rh  Rh11  1  0.282994  0.282994  0.500073  1
  Rh  Rh12  1  0.499996  0.000024  0.749997  1
  Rh  Rh13  1  0.500004  0.999976  0.250003  1
  Rh  Rh14  1  0.000024  0.499996  0.749997  1
  Rh  Rh15  1  0.999976  0.500004  0.250003  1
