# generated using pymatgen
data_PrAl8(CuPd)2
_symmetry_space_group_name_H-M   'P 1'
_cell_length_a   6.84244437
_cell_length_b   6.83869380
_cell_length_c   6.83869456
_cell_angle_alpha   98.50913759
_cell_angle_beta   98.90622190
_cell_angle_gamma   134.16668640
_symmetry_Int_Tables_number   1
_chemical_formula_structural   PrAl8(CuPd)2
_chemical_formula_sum   'Pr1 Al8 Cu2 Pd2'
_cell_volume   211.48405866
_cell_formula_units_Z   1
loop_
 _symmetry_equiv_pos_site_id
 _symmetry_equiv_pos_as_xyz
  1  'x, y, z'
loop_
 _atom_site_type_symbol
 _atom_site_label
 _atom_site_symmetry_multiplicity
 _atom_site_fract_x
 _atom_site_fract_y
 _atom_site_fract_z
 _atom_site_occupancy
  Pr  Pr0  1  0.000000  0.000000  0.000000  1
  Al  Al1  1  0.718205  0.495465  0.222740  1
  Al  Al2  1  0.500000  0.277422  0.777422  1
  Al  Al3  1  0.351336  0.001838  0.349499  1
  Al  Al4  1  0.000000  0.650584  0.650584  1
  Al  Al5  1  0.648664  0.998162  0.650501  1
  Al  Al6  1  0.000000  0.349416  0.349416  1
  Al  Al7  1  0.281795  0.504535  0.777260  1
  Al  Al8  1  0.500000  0.722578  0.222578  1
  Cu  Cu9  1  0.500000  0.500000  0.500000  1
  Cu  Cu10  1  0.500000  0.000000  0.000000  1
  Pd  Pd11  1  0.000000  0.000000  0.500000  1
  Pd  Pd12  1  0.000000  0.500000  0.000000  1
