# generated using pymatgen
data_TbNd3Al18(Pd2Ru)2
_symmetry_space_group_name_H-M   'P 1'
_cell_length_a   7.66466428
_cell_length_b   7.67437552
_cell_length_c   9.58426500
_cell_angle_alpha   90.00000000
_cell_angle_beta   90.00000000
_cell_angle_gamma   119.53142376
_symmetry_Int_Tables_number   1
_chemical_formula_structural   TbNd3Al18(Pd2Ru)2
_chemical_formula_sum   'Tb1 Nd3 Al18 Pd4 Ru2'
_cell_volume   490.52023248
_cell_formula_units_Z   1
loop_
 _symmetry_equiv_pos_site_id
 _symmetry_equiv_pos_as_xyz
  1  'x, y, z'
loop_
 _atom_site_type_symbol
 _atom_site_label
 _atom_site_symmetry_multiplicity
 _atom_site_fract_x
 _atom_site_fract_y
 _atom_site_fract_z
 _atom_site_occupancy
  Tb  Tb0  1  0.331087  0.005501  0.750000  1
  Nd  Nd1  1  0.995217  0.667369  0.250000  1
  Nd  Nd2  1  0.005374  0.332230  0.750000  1
  Nd  Nd3  1  0.667403  0.994619  0.250000  1
  Al  Al4  1  0.125825  0.124814  0.250000  1
  Al  Al5  1  0.876006  0.875059  0.750000  1
  Al  Al6  1  0.002444  0.328327  0.074271  1
  Al  Al7  1  0.999833  0.673002  0.923607  1
  Al  Al8  1  0.999833  0.673002  0.576393  1
  Al  Al9  1  0.328524  0.001885  0.427917  1
  Al  Al10  1  0.002444  0.328327  0.425729  1
  Al  Al11  1  0.669517  0.997962  0.576356  1
  Al  Al12  1  0.669517  0.997962  0.923644  1
  Al  Al13  1  0.328524  0.001885  0.072083  1
  Al  Al14  1  0.329604  0.328337  0.552202  1
  Al  Al15  1  0.671159  0.671068  0.451576  1
  Al  Al16  1  0.671159  0.671068  0.048424  1
  Al  Al17  1  0.329604  0.328337  0.947798  1
  Al  Al18  1  0.342475  0.544241  0.250000  1
  Al  Al19  1  0.655105  0.453031  0.750000  1
  Al  Al20  1  0.543756  0.341325  0.250000  1
  Al  Al21  1  0.454960  0.659303  0.750000  1
  Pd  Pd22  1  0.671078  0.328145  0.999367  1
  Pd  Pd23  1  0.328613  0.671880  0.999404  1
  Pd  Pd24  1  0.328613  0.671880  0.500596  1
  Pd  Pd25  1  0.671078  0.328145  0.500633  1
  Ru  Ru26  1  0.000624  0.000648  0.998757  1
  Ru  Ru27  1  0.000624  0.000648  0.501243  1
