# generated using pymatgen
data_Sr3Ce(Si5Pt3)2
_symmetry_space_group_name_H-M   'P 1'
_cell_length_a   8.36408042
_cell_length_b   8.36305811
_cell_length_c   8.36305809
_cell_angle_alpha   137.58051600
_cell_angle_beta   105.01792279
_cell_angle_gamma   90.15016336
_symmetry_Int_Tables_number   1
_chemical_formula_structural   Sr3Ce(Si5Pt3)2
_chemical_formula_sum   'Sr3 Ce1 Si10 Pt6'
_cell_volume   363.85673389
_cell_formula_units_Z   1
loop_
 _symmetry_equiv_pos_site_id
 _symmetry_equiv_pos_as_xyz
  1  'x, y, z'
loop_
 _atom_site_type_symbol
 _atom_site_label
 _atom_site_symmetry_multiplicity
 _atom_site_fract_x
 _atom_site_fract_y
 _atom_site_fract_z
 _atom_site_occupancy
  Sr  Sr0  1  0.635991  0.370775  0.265216  1
  Sr  Sr1  1  0.363588  0.628545  0.735043  1
  Sr  Sr2  1  0.106792  0.872225  0.234568  1
  Ce  Ce3  1  0.897735  0.129078  0.768657  1
  Si  Si4  1  0.268666  0.518685  0.248221  1
  Si  Si5  1  0.729106  0.477496  0.748455  1
  Si  Si6  1  0.729106  0.980651  0.251611  1
  Si  Si7  1  0.268666  0.020445  0.749980  1
  Si  Si8  1  0.463674  0.112746  0.350928  1
  Si  Si9  1  0.539333  0.890257  0.649077  1
  Si  Si10  1  0.760047  0.611854  0.148194  1
  Si  Si11  1  0.237494  0.385350  0.852144  1
  Si  Si12  1  0.999417  0.251619  0.250171  1
  Si  Si13  1  0.999417  0.749247  0.747798  1
  Pt  Pt14  1  0.244753  0.134811  0.109941  1
  Pt  Pt15  1  0.753733  0.864985  0.888748  1
  Pt  Pt16  1  0.022240  0.636451  0.385789  1
  Pt  Pt17  1  0.976128  0.363669  0.612459  1
  Pt  Pt18  1  0.502056  0.249515  0.750459  1
  Pt  Pt19  1  0.502056  0.751597  0.252540  1
