# generated using pymatgen
data_Pr3Nd4SiI12
_symmetry_space_group_name_H-M   'P 1'
_cell_length_a   10.04968356
_cell_length_b   10.03379530
_cell_length_c   10.01679032
_cell_angle_alpha   107.51414059
_cell_angle_beta   108.08541698
_cell_angle_gamma   107.84829835
_symmetry_Int_Tables_number   1
_chemical_formula_structural   Pr3Nd4SiI12
_chemical_formula_sum   'Pr3 Nd4 Si1 I12'
_cell_volume   821.72797605
_cell_formula_units_Z   1
loop_
 _symmetry_equiv_pos_site_id
 _symmetry_equiv_pos_as_xyz
  1  'x, y, z'
loop_
 _atom_site_type_symbol
 _atom_site_label
 _atom_site_symmetry_multiplicity
 _atom_site_fract_x
 _atom_site_fract_y
 _atom_site_fract_z
 _atom_site_occupancy
  Pr  Pr0  1  0.468037  0.394506  0.187751  1
  Pr  Pr1  1  0.604428  0.812673  0.533727  1
  Pr  Pr2  1  0.395537  0.187426  0.466256  1
  Nd  Nd3  1  0.811345  0.533213  0.603364  1
  Nd  Nd4  1  0.531903  0.605218  0.811631  1
  Nd  Nd5  1  0.188709  0.466812  0.396916  1
  Nd  Nd6  1  0.000155  0.000143  0.000166  1
  Si  Si7  1  0.500231  0.500491  0.501313  1
  I  I8  1  0.730951  0.188291  0.576621  1
  I  I9  1  0.970493  0.889173  0.655779  1
  I  I10  1  0.576100  0.729769  0.185032  1
  I  I11  1  0.109885  0.345221  0.030497  1
  I  I12  1  0.656022  0.969794  0.890298  1
  I  I13  1  0.888103  0.654471  0.968860  1
  I  I14  1  0.029479  0.110784  0.344256  1
  I  I15  1  0.815891  0.424729  0.272220  1
  I  I16  1  0.343178  0.028141  0.109436  1
  I  I17  1  0.269085  0.811721  0.423426  1
  I  I18  1  0.185968  0.575480  0.728434  1
  I  I19  1  0.424502  0.271947  0.814017  1
