# generated using pymatgen
data_Cs2TbCl5
_symmetry_space_group_name_H-M   'P 1'
_cell_length_a   7.60851000
_cell_length_b   9.81693600
_cell_length_c   15.51445800
_cell_angle_alpha   90.00000000
_cell_angle_beta   90.00000000
_cell_angle_gamma   90.00000000
_symmetry_Int_Tables_number   1
_chemical_formula_structural   Cs2TbCl5
_chemical_formula_sum   'Cs8 Tb4 Cl20'
_cell_volume   1158.80986438
_cell_formula_units_Z   4
loop_
 _symmetry_equiv_pos_site_id
 _symmetry_equiv_pos_as_xyz
  1  'x, y, z'
loop_
 _atom_site_type_symbol
 _atom_site_label
 _atom_site_symmetry_multiplicity
 _atom_site_fract_x
 _atom_site_fract_y
 _atom_site_fract_z
 _atom_site_occupancy
  Cs  Cs0  1  0.250000  0.663654  0.916856  1
  Cs  Cs1  1  0.750000  0.336346  0.083144  1
  Cs  Cs2  1  0.750000  0.836346  0.416856  1
  Cs  Cs3  1  0.250000  0.163654  0.583144  1
  Cs  Cs4  1  0.250000  0.975160  0.212248  1
  Cs  Cs5  1  0.750000  0.024840  0.787752  1
  Cs  Cs6  1  0.750000  0.524840  0.712248  1
  Cs  Cs7  1  0.250000  0.475160  0.287752  1
  Tb  Tb8  1  0.250000  0.676783  0.564590  1
  Tb  Tb9  1  0.750000  0.323217  0.435410  1
  Tb  Tb10  1  0.750000  0.823217  0.064590  1
  Tb  Tb11  1  0.250000  0.176783  0.935410  1
  Cl  Cl12  1  0.250000  0.519440  0.700640  1
  Cl  Cl13  1  0.750000  0.480560  0.299360  1
  Cl  Cl14  1  0.750000  0.980560  0.200640  1
  Cl  Cl15  1  0.250000  0.019440  0.799360  1
  Cl  Cl16  1  0.503266  0.831519  0.617468  1
  Cl  Cl17  1  0.496734  0.168481  0.382532  1
  Cl  Cl18  1  0.496734  0.668481  0.117468  1
  Cl  Cl19  1  0.003266  0.168481  0.382532  1
  Cl  Cl20  1  0.503266  0.331519  0.882532  1
  Cl  Cl21  1  0.996734  0.831519  0.617468  1
  Cl  Cl22  1  0.996734  0.331519  0.882532  1
  Cl  Cl23  1  0.003266  0.668481  0.117468  1
  Cl  Cl24  1  0.250000  0.785932  0.406807  1
  Cl  Cl25  1  0.750000  0.214068  0.593193  1
  Cl  Cl26  1  0.750000  0.714068  0.906807  1
  Cl  Cl27  1  0.250000  0.285932  0.093193  1
  Cl  Cl28  1  0.000000  0.500000  0.500000  1
  Cl  Cl29  1  0.000000  0.000000  0.000000  1
  Cl  Cl30  1  0.500000  0.500000  0.500000  1
  Cl  Cl31  1  0.500000  0.000000  0.000000  1
