# generated using pymatgen
data_DyGaCoNi2B
_symmetry_space_group_name_H-M   'P 1'
_cell_length_a   5.15829227
_cell_length_b   5.15441486
_cell_length_c   6.75552200
_cell_angle_alpha   90.00000000
_cell_angle_beta   90.00000000
_cell_angle_gamma   120.33011068
_symmetry_Int_Tables_number   1
_chemical_formula_structural   DyGaCoNi2B
_chemical_formula_sum   'Dy2 Ga2 Co2 Ni4 B2'
_cell_volume   155.03172711
_cell_formula_units_Z   2
loop_
 _symmetry_equiv_pos_site_id
 _symmetry_equiv_pos_as_xyz
  1  'x, y, z'
loop_
 _atom_site_type_symbol
 _atom_site_label
 _atom_site_symmetry_multiplicity
 _atom_site_fract_x
 _atom_site_fract_y
 _atom_site_fract_z
 _atom_site_occupancy
  Dy  Dy0  1  0.999971  0.000043  0.000000  1
  Dy  Dy1  1  0.000128  0.999937  0.500000  1
  Ga  Ga2  1  0.335396  0.664141  0.000000  1
  Ga  Ga3  1  0.664566  0.335899  0.000000  1
  Co  Co4  1  0.499931  0.499990  0.299046  1
  Co  Co5  1  0.499931  0.499990  0.700954  1
  Ni  Ni6  1  0.500360  0.000222  0.294074  1
  Ni  Ni7  1  0.999637  0.499800  0.294274  1
  Ni  Ni8  1  0.500360  0.000222  0.705926  1
  Ni  Ni9  1  0.999637  0.499800  0.705726  1
  B  B10  1  0.336898  0.663497  0.500000  1
  B  B11  1  0.662984  0.336460  0.500000  1
