# generated using pymatgen
data_Er3ZnIn3CuRh
_symmetry_space_group_name_H-M   'P 1'
_cell_length_a   7.59361000
_cell_length_b   7.59361022
_cell_length_c   3.85448600
_cell_angle_alpha   90.00000000
_cell_angle_beta   90.00000000
_cell_angle_gamma   119.99999032
_symmetry_Int_Tables_number   1
_chemical_formula_structural   Er3ZnIn3CuRh
_chemical_formula_sum   'Er3 Zn1 In3 Cu1 Rh1'
_cell_volume   192.48360161
_cell_formula_units_Z   1
loop_
 _symmetry_equiv_pos_site_id
 _symmetry_equiv_pos_as_xyz
  1  'x, y, z'
loop_
 _atom_site_type_symbol
 _atom_site_label
 _atom_site_symmetry_multiplicity
 _atom_site_fract_x
 _atom_site_fract_y
 _atom_site_fract_z
 _atom_site_occupancy
  Er  Er0  1  0.022670  0.602622  0.500000  1
  Er  Er1  1  0.397378  0.420049  0.500000  1
  Er  Er2  1  0.579951  0.977330  0.500000  1
  Zn  Zn3  1  0.666667  0.333333  0.000000  1
  In  In4  1  0.748383  0.744300  0.000000  1
  In  In5  1  0.995916  0.251617  0.000000  1
  In  In6  1  0.255700  0.004084  0.000000  1
  Cu  Cu7  1  0.000000  0.000000  0.500000  1
  Rh  Rh8  1  0.333333  0.666667  0.000000  1
