# generated using pymatgen
data_Nd8Ho11Si16Au
_symmetry_space_group_name_H-M   'P 1'
_cell_length_a   7.79396104
_cell_length_b   7.79396113
_cell_length_c   14.30694200
_cell_angle_alpha   90.30584511
_cell_angle_beta   89.69415488
_cell_angle_gamma   90.07892312
_symmetry_Int_Tables_number   1
_chemical_formula_structural   Nd8Ho11Si16Au
_chemical_formula_sum   'Nd8 Ho11 Si16 Au1'
_cell_volume   869.06150385
_cell_formula_units_Z   1
loop_
 _symmetry_equiv_pos_site_id
 _symmetry_equiv_pos_as_xyz
  1  'x, y, z'
loop_
 _atom_site_type_symbol
 _atom_site_label
 _atom_site_symmetry_multiplicity
 _atom_site_fract_x
 _atom_site_fract_y
 _atom_site_fract_z
 _atom_site_occupancy
  Nd  Nd0  1  0.627792  0.000558  0.460264  1
  Nd  Nd1  1  0.363953  0.008798  0.956441  1
  Nd  Nd2  1  0.000558  0.627792  0.539736  1
  Nd  Nd3  1  0.489104  0.860417  0.211662  1
  Nd  Nd4  1  0.500763  0.136711  0.698498  1
  Nd  Nd5  1  0.860417  0.489104  0.788338  1
  Nd  Nd6  1  0.136711  0.500763  0.301502  1
  Nd  Nd7  1  0.008798  0.363953  0.043559  1
  Ho  Ho8  1  0.488385  0.368530  0.126120  1
  Ho  Ho9  1  0.004741  0.138217  0.620128  1
  Ho  Ho10  1  0.862336  0.009873  0.872252  1
  Ho  Ho11  1  0.138217  0.004741  0.379872  1
  Ho  Ho12  1  0.502855  0.627202  0.619023  1
  Ho  Ho13  1  0.368530  0.488385  0.873880  1
  Ho  Ho14  1  0.627202  0.502855  0.380977  1
  Ho  Ho15  1  0.009873  0.862336  0.127748  1
  Ho  Ho16  1  0.185954  0.812006  0.748488  1
  Ho  Ho17  1  0.812006  0.185954  0.251512  1
  Ho  Ho18  1  0.687545  0.687545  0.000000  1
  Si  Si19  1  0.283955  0.912620  0.562985  1
  Si  Si20  1  0.711350  0.068199  0.061907  1
  Si  Si21  1  0.912620  0.283955  0.437015  1
  Si  Si22  1  0.429666  0.212659  0.311917  1
  Si  Si23  1  0.569558  0.789780  0.807516  1
  Si  Si24  1  0.212659  0.429666  0.688083  1
  Si  Si25  1  0.789780  0.569558  0.192484  1
  Si  Si26  1  0.068199  0.711350  0.938093  1
  Si  Si27  1  0.795224  0.844896  0.685611  1
  Si  Si28  1  0.201192  0.156995  0.193055  1
  Si  Si29  1  0.844896  0.795224  0.314389  1
  Si  Si30  1  0.351920  0.721416  0.432613  1
  Si  Si31  1  0.657219  0.298895  0.941418  1
  Si  Si32  1  0.721416  0.351920  0.567387  1
  Si  Si33  1  0.298895  0.657219  0.058582  1
  Si  Si34  1  0.156995  0.201192  0.806945  1
  Au  Au35  1  0.318721  0.318721  0.500000  1
