# generated using pymatgen
data_Er4Hf3CrF28
_symmetry_space_group_name_H-M   'P 1'
_cell_length_a   5.65159346
_cell_length_b   8.95660746
_cell_length_c   11.98654100
_cell_angle_alpha   62.62504178
_cell_angle_beta   89.92804055
_cell_angle_gamma   90.03262256
_symmetry_Int_Tables_number   1
_chemical_formula_structural   Er4Hf3CrF28
_chemical_formula_sum   'Er4 Hf3 Cr1 F28'
_cell_volume   538.80129270
_cell_formula_units_Z   1
loop_
 _symmetry_equiv_pos_site_id
 _symmetry_equiv_pos_as_xyz
  1  'x, y, z'
loop_
 _atom_site_type_symbol
 _atom_site_label
 _atom_site_symmetry_multiplicity
 _atom_site_fract_x
 _atom_site_fract_y
 _atom_site_fract_z
 _atom_site_occupancy
  Er  Er0  1  0.757667  0.816077  0.765678  1
  Er  Er1  1  0.262116  0.186697  0.728023  1
  Er  Er2  1  0.239992  0.187199  0.240980  1
  Er  Er3  1  0.742812  0.815842  0.267055  1
  Hf  Hf4  1  0.757068  0.273712  0.955557  1
  Hf  Hf5  1  0.254873  0.725905  0.543404  1
  Hf  Hf6  1  0.245180  0.726185  0.045624  1
  Cr  Cr7  1  0.741852  0.273773  0.454419  1
  F  F8  1  0.465105  0.707695  0.921429  1
  F  F9  1  0.942286  0.288653  0.570500  1
  F  F10  1  0.535678  0.290069  0.080106  1
  F  F11  1  0.036755  0.708761  0.418643  1
  F  F12  1  0.465987  0.280663  0.545806  1
  F  F13  1  0.952627  0.721571  0.950198  1
  F  F14  1  0.549556  0.714810  0.452138  1
  F  F15  1  0.046762  0.278506  0.052399  1
  F  F16  1  0.773582  0.524975  0.857598  1
  F  F17  1  0.260219  0.474565  0.639204  1
  F  F18  1  0.229513  0.475249  0.144873  1
  F  F19  1  0.733373  0.504642  0.363334  1
  F  F20  1  0.756969  0.022642  0.057948  1
  F  F21  1  0.261749  0.976469  0.445604  1
  F  F22  1  0.244055  0.975902  0.941398  1
  F  F23  1  0.742336  0.042792  0.545172  1
  F  F24  1  0.977350  0.737070  0.644034  1
  F  F25  1  0.486630  0.268667  0.848276  1
  F  F26  1  0.006357  0.267512  0.358305  1
  F  F27  1  0.516806  0.729585  0.152368  1
  F  F28  1  0.033729  0.746663  0.173743  1
  F  F29  1  0.543659  0.256494  0.335211  1
  F  F30  1  0.968906  0.251731  0.826906  1
  F  F31  1  0.465615  0.747441  0.671885  1
  F  F32  1  0.427207  0.974814  0.238052  1
  F  F33  1  0.927028  0.026100  0.268613  1
  F  F34  1  0.574520  0.025674  0.766157  1
  F  F35  1  0.074077  0.974891  0.729360  1
