# generated using pymatgen
data_Ce3Dy(GaIr)4
_symmetry_space_group_name_H-M   'P 1'
_cell_length_a   4.37223700
_cell_length_b   6.85251903
_cell_length_c   7.89016715
_cell_angle_alpha   90.47421013
_cell_angle_beta   90.00000000
_cell_angle_gamma   90.00000000
_symmetry_Int_Tables_number   1
_chemical_formula_structural   Ce3Dy(GaIr)4
_chemical_formula_sum   'Ce3 Dy1 Ga4 Ir4'
_cell_volume   236.38791730
_cell_formula_units_Z   1
loop_
 _symmetry_equiv_pos_site_id
 _symmetry_equiv_pos_as_xyz
  1  'x, y, z'
loop_
 _atom_site_type_symbol
 _atom_site_label
 _atom_site_symmetry_multiplicity
 _atom_site_fract_x
 _atom_site_fract_y
 _atom_site_fract_z
 _atom_site_occupancy
  Ce  Ce0  1  0.750000  0.469563  0.815371  1
  Ce  Ce1  1  0.750000  0.968863  0.689541  1
  Ce  Ce2  1  0.250000  0.032302  0.310811  1
  Dy  Dy3  1  0.250000  0.531750  0.190311  1
  Ga  Ga4  1  0.250000  0.647954  0.563599  1
  Ga  Ga5  1  0.750000  0.354297  0.431064  1
  Ga  Ga6  1  0.750000  0.844988  0.069054  1
  Ga  Ga7  1  0.250000  0.152028  0.934567  1
  Ir  Ir8  1  0.250000  0.760591  0.883949  1
  Ir  Ir9  1  0.750000  0.235637  0.110502  1
  Ir  Ir10  1  0.750000  0.741335  0.389530  1
  Ir  Ir11  1  0.250000  0.260693  0.611702  1
