# generated using pymatgen
data_HoErCo9CuP6
_symmetry_space_group_name_H-M   'P 1'
_cell_length_a   3.66163500
_cell_length_b   10.23658100
_cell_length_c   11.78489900
_cell_angle_alpha   90.00000000
_cell_angle_beta   90.00000000
_cell_angle_gamma   90.00000000
_symmetry_Int_Tables_number   1
_chemical_formula_structural   HoErCo9CuP6
_chemical_formula_sum   'Ho2 Er2 Co18 Cu2 P12'
_cell_volume   441.72892949
_cell_formula_units_Z   2
loop_
 _symmetry_equiv_pos_site_id
 _symmetry_equiv_pos_as_xyz
  1  'x, y, z'
loop_
 _atom_site_type_symbol
 _atom_site_label
 _atom_site_symmetry_multiplicity
 _atom_site_fract_x
 _atom_site_fract_y
 _atom_site_fract_z
 _atom_site_occupancy
  Ho  Ho0  1  0.750000  0.418349  0.296770  1
  Ho  Ho1  1  0.750000  0.081651  0.796770  1
  Er  Er2  1  0.250000  0.579274  0.701884  1
  Er  Er3  1  0.250000  0.920726  0.201884  1
  Co  Co4  1  0.750000  0.287117  0.008615  1
  Co  Co5  1  0.750000  0.212883  0.508615  1
  Co  Co6  1  0.250000  0.405059  0.486895  1
  Co  Co7  1  0.250000  0.094941  0.986895  1
  Co  Co8  1  0.750000  0.592135  0.515477  1
  Co  Co9  1  0.750000  0.907865  0.015477  1
  Co  Co10  1  0.250000  0.222621  0.175314  1
  Co  Co11  1  0.250000  0.277379  0.675314  1
  Co  Co12  1  0.750000  0.778024  0.825920  1
  Co  Co13  1  0.750000  0.721976  0.325920  1
  Co  Co14  1  0.250000  0.882145  0.698815  1
  Co  Co15  1  0.250000  0.617855  0.198815  1
  Co  Co16  1  0.750000  0.120012  0.300029  1
  Co  Co17  1  0.750000  0.379988  0.800029  1
  Co  Co18  1  0.250000  0.465568  0.931355  1
  Co  Co19  1  0.250000  0.034432  0.431355  1
  Co  Co20  1  0.750000  0.534278  0.066516  1
  Co  Co21  1  0.750000  0.965722  0.566516  1
  Cu  Cu22  1  0.250000  0.712143  0.991362  1
  Cu  Cu23  1  0.250000  0.787857  0.491362  1
  P  P24  1  0.250000  0.419997  0.111888  1
  P  P25  1  0.250000  0.080003  0.611888  1
  P  P26  1  0.750000  0.576636  0.883632  1
  P  P27  1  0.750000  0.923364  0.383632  1
  P  P28  1  0.250000  0.268770  0.867870  1
  P  P29  1  0.250000  0.231230  0.367870  1
  P  P30  1  0.750000  0.730234  0.138690  1
  P  P31  1  0.750000  0.769766  0.638690  1
  P  P32  1  0.250000  0.598658  0.391233  1
  P  P33  1  0.250000  0.901342  0.891233  1
  P  P34  1  0.750000  0.396574  0.607736  1
  P  P35  1  0.750000  0.103426  0.107736  1
