# generated using pymatgen
data_Dy3ErAl4(PtRh)2
_symmetry_space_group_name_H-M   'P 1'
_cell_length_a   4.36136500
_cell_length_b   6.80593459
_cell_length_c   7.85399023
_cell_angle_alpha   90.22927993
_cell_angle_beta   90.00000000
_cell_angle_gamma   90.00000000
_symmetry_Int_Tables_number   1
_chemical_formula_structural   Dy3ErAl4(PtRh)2
_chemical_formula_sum   'Dy3 Er1 Al4 Pt2 Rh2'
_cell_volume   233.12942066
_cell_formula_units_Z   1
loop_
 _symmetry_equiv_pos_site_id
 _symmetry_equiv_pos_as_xyz
  1  'x, y, z'
loop_
 _atom_site_type_symbol
 _atom_site_label
 _atom_site_symmetry_multiplicity
 _atom_site_fract_x
 _atom_site_fract_y
 _atom_site_fract_z
 _atom_site_occupancy
  Dy  Dy0  1  0.250000  0.466645  0.183115  1
  Dy  Dy1  1  0.750000  0.533529  0.817334  1
  Dy  Dy2  1  0.750000  0.030571  0.677672  1
  Er  Er3  1  0.250000  0.968869  0.321795  1
  Al  Al4  1  0.250000  0.857559  0.938092  1
  Al  Al5  1  0.750000  0.142630  0.062955  1
  Al  Al6  1  0.750000  0.638568  0.437530  1
  Al  Al7  1  0.250000  0.361389  0.561907  1
  Pt  Pt8  1  0.750000  0.770293  0.120092  1
  Pt  Pt9  1  0.250000  0.230735  0.880664  1
  Rh  Rh10  1  0.250000  0.736022  0.615871  1
  Rh  Rh11  1  0.750000  0.263190  0.382974  1
