# generated using pymatgen
data_Pr4Al18(PtRh)3
_symmetry_space_group_name_H-M   'P 1'
_cell_length_a   7.68383257
_cell_length_b   7.68383333
_cell_length_c   9.61829538
_cell_angle_alpha   89.98383636
_cell_angle_beta   89.98383683
_cell_angle_gamma   119.60573215
_symmetry_Int_Tables_number   1
_chemical_formula_structural   Pr4Al18(PtRh)3
_chemical_formula_sum   'Pr4 Al18 Pt3 Rh3'
_cell_volume   493.73764346
_cell_formula_units_Z   1
loop_
 _symmetry_equiv_pos_site_id
 _symmetry_equiv_pos_as_xyz
  1  'x, y, z'
loop_
 _atom_site_type_symbol
 _atom_site_label
 _atom_site_symmetry_multiplicity
 _atom_site_fract_x
 _atom_site_fract_y
 _atom_site_fract_z
 _atom_site_occupancy
  Pr  Pr0  1  0.994397  0.670480  0.750220  1
  Pr  Pr1  1  0.004001  0.328172  0.249995  1
  Pr  Pr2  1  0.671828  0.995999  0.750005  1
  Pr  Pr3  1  0.329520  0.005603  0.249780  1
  Al  Al4  1  0.135065  0.134219  0.750449  1
  Al  Al5  1  0.865781  0.864935  0.249551  1
  Al  Al6  1  0.006014  0.338762  0.574471  1
  Al  Al7  1  0.002079  0.665507  0.425816  1
  Al  Al8  1  0.998730  0.661410  0.072593  1
  Al  Al9  1  0.338590  0.001270  0.927407  1
  Al  Al10  1  0.002085  0.338278  0.927046  1
  Al  Al11  1  0.661722  0.997915  0.072954  1
  Al  Al12  1  0.661238  0.993986  0.425529  1
  Al  Al13  1  0.334493  0.997921  0.574184  1
  Al  Al14  1  0.337303  0.337439  0.048201  1
  Al  Al15  1  0.662561  0.662697  0.951799  1
  Al  Al16  1  0.661509  0.665154  0.550577  1
  Al  Al17  1  0.334846  0.338491  0.449423  1
  Al  Al18  1  0.340439  0.548544  0.750550  1
  Al  Al19  1  0.659986  0.454439  0.246135  1
  Al  Al20  1  0.545561  0.340014  0.753865  1
  Al  Al21  1  0.451456  0.659561  0.249450  1
  Pt  Pt22  1  0.671061  0.328939  0.500000  1
  Pt  Pt23  1  0.999817  0.000183  0.500000  1
  Pt  Pt24  1  0.000156  0.999844  0.000000  1
  Rh  Rh25  1  0.329326  0.670674  0.500000  1
  Rh  Rh26  1  0.329328  0.670672  0.000000  1
  Rh  Rh27  1  0.671106  0.328894  0.000000  1
