# generated using pymatgen
data_Tb6Er4Si5Bi
_symmetry_space_group_name_H-M   'P 1'
_cell_length_a   8.55241300
_cell_length_b   8.59046892
_cell_length_c   6.35141900
_cell_angle_alpha   90.00000000
_cell_angle_beta   90.00000000
_cell_angle_gamma   119.85356027
_symmetry_Int_Tables_number   1
_chemical_formula_structural   Tb6Er4Si5Bi
_chemical_formula_sum   'Tb6 Er4 Si5 Bi1'
_cell_volume   404.71182800
_cell_formula_units_Z   1
loop_
 _symmetry_equiv_pos_site_id
 _symmetry_equiv_pos_as_xyz
  1  'x, y, z'
loop_
 _atom_site_type_symbol
 _atom_site_label
 _atom_site_symmetry_multiplicity
 _atom_site_fract_x
 _atom_site_fract_y
 _atom_site_fract_z
 _atom_site_occupancy
  Tb  Tb0  1  0.984922  0.743712  0.750000  1
  Tb  Tb1  1  0.998185  0.244380  0.250000  1
  Tb  Tb2  1  0.753804  0.755620  0.250000  1
  Tb  Tb3  1  0.766801  0.000000  0.750000  1
  Tb  Tb4  1  0.241210  0.256288  0.750000  1
  Tb  Tb5  1  0.241453  0.000000  0.250000  1
  Er  Er6  1  0.330651  0.653781  0.495176  1
  Er  Er7  1  0.676871  0.346219  0.004824  1
  Er  Er8  1  0.676871  0.346219  0.495176  1
  Er  Er9  1  0.330651  0.653781  0.004824  1
  Si  Si10  1  0.393370  0.390835  0.250000  1
  Si  Si11  1  0.002537  0.609165  0.250000  1
  Si  Si12  1  0.998419  0.394571  0.750000  1
  Si  Si13  1  0.603848  0.605429  0.750000  1
  Si  Si14  1  0.606680  0.000000  0.250000  1
  Bi  Bi15  1  0.393726  0.000000  0.750000  1
