# generated using pymatgen
data_Tb4Ho8InCo5
_symmetry_space_group_name_H-M   'P 1'
_cell_length_a   8.24097365
_cell_length_b   8.24109284
_cell_length_c   8.24097531
_cell_angle_alpha   110.61477598
_cell_angle_beta   110.93036103
_cell_angle_gamma   106.89835002
_symmetry_Int_Tables_number   1
_chemical_formula_structural   Tb4Ho8InCo5
_chemical_formula_sum   'Tb4 Ho8 In1 Co5'
_cell_volume   430.19578728
_cell_formula_units_Z   1
loop_
 _symmetry_equiv_pos_site_id
 _symmetry_equiv_pos_as_xyz
  1  'x, y, z'
loop_
 _atom_site_type_symbol
 _atom_site_label
 _atom_site_symmetry_multiplicity
 _atom_site_fract_x
 _atom_site_fract_y
 _atom_site_fract_z
 _atom_site_occupancy
  Tb  Tb0  1  0.813009  0.708408  0.521407  1
  Tb  Tb1  1  0.186991  0.291592  0.478593  1
  Tb  Tb2  1  0.187002  0.708408  0.895400  1
  Tb  Tb3  1  0.812998  0.291592  0.104600  1
  Ho  Ho4  1  0.685457  0.380141  0.694686  1
  Ho  Ho5  1  0.314543  0.619859  0.305314  1
  Ho  Ho6  1  0.685462  0.990782  0.305321  1
  Ho  Ho7  1  0.314538  0.009218  0.694679  1
  Ho  Ho8  1  0.599339  0.790974  0.808342  1
  Ho  Ho9  1  0.400661  0.209026  0.191658  1
  Ho  Ho10  1  0.982632  0.790974  0.191635  1
  Ho  Ho11  1  0.017368  0.209026  0.808365  1
  In  In12  1  0.500000  0.500000  0.000000  1
  Co  Co13  1  0.621677  0.000000  0.621677  1
  Co  Co14  1  0.378323  0.000000  0.378323  1
  Co  Co15  1  0.112962  0.612972  0.500010  1
  Co  Co16  1  0.887038  0.387028  0.499990  1
  Co  Co17  1  0.000000  0.000000  0.000000  1
