# generated using pymatgen
data_Dy7ErSc12(GaSi3)4
_symmetry_space_group_name_H-M   'P 1'
_cell_length_a   7.12682418
_cell_length_b   7.40908977
_cell_length_c   14.15368208
_cell_angle_alpha   89.97596111
_cell_angle_beta   89.82814101
_cell_angle_gamma   90.15533894
_symmetry_Int_Tables_number   1
_chemical_formula_structural   Dy7ErSc12(GaSi3)4
_chemical_formula_sum   'Dy7 Er1 Sc12 Ga4 Si12'
_cell_volume   747.35466285
_cell_formula_units_Z   1
loop_
 _symmetry_equiv_pos_site_id
 _symmetry_equiv_pos_as_xyz
  1  'x, y, z'
loop_
 _atom_site_type_symbol
 _atom_site_label
 _atom_site_symmetry_multiplicity
 _atom_site_fract_x
 _atom_site_fract_y
 _atom_site_fract_z
 _atom_site_occupancy
  Dy  Dy0  1  0.013021  0.174984  0.096626  1
  Dy  Dy1  1  0.988694  0.824921  0.902012  1
  Dy  Dy2  1  0.487476  0.677280  0.901831  1
  Dy  Dy3  1  0.988735  0.827566  0.600685  1
  Dy  Dy4  1  0.510288  0.320935  0.096866  1
  Dy  Dy5  1  0.008793  0.174746  0.400178  1
  Dy  Dy6  1  0.510238  0.324088  0.400232  1
  Er  Er7  1  0.491461  0.676295  0.601353  1
  Sc  Sc8  1  0.163608  0.500624  0.751678  1
  Sc  Sc9  1  0.835856  0.498923  0.249758  1
  Sc  Sc10  1  0.335278  0.001238  0.248111  1
  Sc  Sc11  1  0.664103  0.998886  0.750152  1
  Sc  Sc12  1  0.335074  0.174583  0.628531  1
  Sc  Sc13  1  0.667942  0.826768  0.373227  1
  Sc  Sc14  1  0.169273  0.672839  0.372460  1
  Sc  Sc15  1  0.668063  0.826643  0.125485  1
  Sc  Sc16  1  0.829569  0.325213  0.627181  1
  Sc  Sc17  1  0.331167  0.175552  0.874571  1
  Sc  Sc18  1  0.829636  0.323767  0.874437  1
  Sc  Sc19  1  0.172696  0.674692  0.124227  1
  Ga  Ga20  1  0.163071  0.460872  0.539750  1
  Ga  Ga21  1  0.838483  0.539212  0.461982  1
  Ga  Ga22  1  0.338275  0.960236  0.462377  1
  Ga  Ga23  1  0.838979  0.538789  0.038366  1
  Si  Si24  1  0.033875  0.116110  0.751646  1
  Si  Si25  1  0.966348  0.884155  0.248615  1
  Si  Si26  1  0.466696  0.613793  0.248032  1
  Si  Si27  1  0.534133  0.386466  0.751581  1
  Si  Si28  1  0.287093  0.871449  0.751333  1
  Si  Si29  1  0.713908  0.128269  0.248144  1
  Si  Si30  1  0.212972  0.371206  0.248191  1
  Si  Si31  1  0.787421  0.629300  0.751795  1
  Si  Si32  1  0.658564  0.036518  0.539118  1
  Si  Si33  1  0.158330  0.463357  0.960791  1
  Si  Si34  1  0.656962  0.036154  0.961259  1
  Si  Si35  1  0.343919  0.963569  0.037419  1
