# generated using pymatgen
data_Pr4In2Rh3
_symmetry_space_group_name_H-M   'P 1'
_cell_length_a   7.64987300
_cell_length_b   7.81926022
_cell_length_c   4.23346600
_cell_angle_alpha   90.00000000
_cell_angle_beta   90.00000000
_cell_angle_gamma   119.28594587
_symmetry_Int_Tables_number   1
_chemical_formula_structural   Pr4In2Rh3
_chemical_formula_sum   'Pr4 In2 Rh3'
_cell_volume   220.86490666
_cell_formula_units_Z   1
loop_
 _symmetry_equiv_pos_site_id
 _symmetry_equiv_pos_as_xyz
  1  'x, y, z'
loop_
 _atom_site_type_symbol
 _atom_site_label
 _atom_site_symmetry_multiplicity
 _atom_site_fract_x
 _atom_site_fract_y
 _atom_site_fract_z
 _atom_site_occupancy
  Pr  Pr0  1  0.246217  0.000000  0.000000  1
  Pr  Pr1  1  0.618490  0.000000  0.500000  1
  Pr  Pr2  1  0.414794  0.441269  0.500000  1
  Pr  Pr3  1  0.973525  0.558731  0.500000  1
  In  In4  1  0.749839  0.744105  0.000000  1
  In  In5  1  0.005733  0.255895  0.000000  1
  Rh  Rh6  1  0.987596  0.000000  0.500000  1
  Rh  Rh7  1  0.333757  0.663708  0.000000  1
  Rh  Rh8  1  0.670050  0.336292  0.000000  1
