# generated using pymatgen
data_Tm2Co12AsP6
_symmetry_space_group_name_H-M   'P 1'
_cell_length_a   9.04849400
_cell_length_b   9.04849429
_cell_length_c   3.55912000
_cell_angle_alpha   90.00000000
_cell_angle_beta   90.00000000
_cell_angle_gamma   119.99999896
_symmetry_Int_Tables_number   1
_chemical_formula_structural   Tm2Co12AsP6
_chemical_formula_sum   'Tm2 Co12 As1 P6'
_cell_volume   252.36311912
_cell_formula_units_Z   1
loop_
 _symmetry_equiv_pos_site_id
 _symmetry_equiv_pos_as_xyz
  1  'x, y, z'
loop_
 _atom_site_type_symbol
 _atom_site_label
 _atom_site_symmetry_multiplicity
 _atom_site_fract_x
 _atom_site_fract_y
 _atom_site_fract_z
 _atom_site_occupancy
  Tm  Tm0  1  0.666667  0.333333  0.000000  1
  Tm  Tm1  1  0.000000  0.000000  0.500000  1
  Co  Co2  1  0.770310  0.728283  0.000000  1
  Co  Co3  1  0.271717  0.042026  0.000000  1
  Co  Co4  1  0.957974  0.229690  0.000000  1
  Co  Co5  1  0.718685  0.105737  0.500000  1
  Co  Co6  1  0.894263  0.612947  0.500000  1
  Co  Co7  1  0.387053  0.281315  0.500000  1
  Co  Co8  1  0.493115  0.950347  0.000000  1
  Co  Co9  1  0.049653  0.542769  0.000000  1
  Co  Co10  1  0.457231  0.506885  0.000000  1
  Co  Co11  1  0.583631  0.776897  0.500000  1
  Co  Co12  1  0.223103  0.806734  0.500000  1
  Co  Co13  1  0.193266  0.416369  0.500000  1
  As  As14  1  0.333333  0.666667  0.000000  1
  P  P15  1  0.446919  0.072086  0.500000  1
  P  P16  1  0.927914  0.374833  0.500000  1
  P  P17  1  0.625167  0.553081  0.500000  1
  P  P18  1  0.741706  0.960782  0.000000  1
  P  P19  1  0.039218  0.780923  0.000000  1
  P  P20  1  0.219077  0.258294  0.000000  1
