# generated using pymatgen
data_ErTh2Al3Co2Ni
_symmetry_space_group_name_H-M   'P 1'
_cell_length_a   6.98793100
_cell_length_b   7.11108023
_cell_length_c   3.86124100
_cell_angle_alpha   90.00000000
_cell_angle_beta   90.00000000
_cell_angle_gamma   119.42874802
_symmetry_Int_Tables_number   1
_chemical_formula_structural   ErTh2Al3Co2Ni
_chemical_formula_sum   'Er1 Th2 Al3 Co2 Ni1'
_cell_volume   167.11406033
_cell_formula_units_Z   1
loop_
 _symmetry_equiv_pos_site_id
 _symmetry_equiv_pos_as_xyz
  1  'x, y, z'
loop_
 _atom_site_type_symbol
 _atom_site_label
 _atom_site_symmetry_multiplicity
 _atom_site_fract_x
 _atom_site_fract_y
 _atom_site_fract_z
 _atom_site_occupancy
  Er  Er0  1  0.583022  0.000000  0.000000  1
  Th  Th1  1  0.999836  0.573814  0.000000  1
  Th  Th2  1  0.426023  0.426186  0.000000  1
  Al  Al3  1  0.244530  0.000000  0.500000  1
  Al  Al4  1  0.990082  0.223006  0.500000  1
  Al  Al5  1  0.767076  0.776994  0.500000  1
  Co  Co6  1  0.314747  0.644961  0.500000  1
  Co  Co7  1  0.669787  0.355039  0.500000  1
  Ni  Ni8  1  0.004899  0.000000  0.000000  1
