# generated using pymatgen
data_Er7Tm9(HfIr3)4
_symmetry_space_group_name_H-M   'P 1'
_cell_length_a   10.74000102
_cell_length_b   10.73796702
_cell_length_c   6.20928301
_cell_angle_alpha   90.00579484
_cell_angle_beta   90.00430003
_cell_angle_gamma   89.99572097
_symmetry_Int_Tables_number   1
_chemical_formula_structural   Er7Tm9(HfIr3)4
_chemical_formula_sum   'Er7 Tm9 Hf4 Ir12'
_cell_volume   716.09037852
_cell_formula_units_Z   1
loop_
 _symmetry_equiv_pos_site_id
 _symmetry_equiv_pos_as_xyz
  1  'x, y, z'
loop_
 _atom_site_type_symbol
 _atom_site_label
 _atom_site_symmetry_multiplicity
 _atom_site_fract_x
 _atom_site_fract_y
 _atom_site_fract_z
 _atom_site_occupancy
  Er  Er0  1  0.289576  0.086414  0.373574  1
  Er  Er1  1  0.289555  0.913894  0.873546  1
  Er  Er2  1  0.710366  0.086350  0.873523  1
  Er  Er3  1  0.710464  0.913742  0.373542  1
  Er  Er4  1  0.586278  0.789505  0.873542  1
  Er  Er5  1  0.586185  0.210523  0.373587  1
  Er  Er6  1  0.413769  0.789496  0.373531  1
  Tm  Tm7  1  0.413848  0.210321  0.873784  1
  Tm  Tm8  1  0.210060  0.414090  0.626154  1
  Tm  Tm9  1  0.209966  0.585764  0.126090  1
  Tm  Tm10  1  0.790045  0.414234  0.126019  1
  Tm  Tm11  1  0.790031  0.585771  0.626049  1
  Tm  Tm12  1  0.914221  0.709953  0.126080  1
  Tm  Tm13  1  0.914229  0.290054  0.626078  1
  Tm  Tm14  1  0.085769  0.709949  0.626045  1
  Tm  Tm15  1  0.085788  0.290030  0.125998  1
  Hf  Hf16  1  0.000018  0.000040  0.500473  1
  Hf  Hf17  1  0.000000  0.000004  0.000418  1
  Hf  Hf18  1  0.499909  0.499798  0.000332  1
  Hf  Hf19  1  0.499958  0.499958  0.500445  1
  Ir  Ir20  1  0.855774  0.145122  0.250173  1
  Ir  Ir21  1  0.855772  0.854864  0.750153  1
  Ir  Ir22  1  0.144452  0.145186  0.750274  1
  Ir  Ir23  1  0.144243  0.854873  0.250170  1
  Ir  Ir24  1  0.644914  0.355629  0.750269  1
  Ir  Ir25  1  0.645126  0.644204  0.250189  1
  Ir  Ir26  1  0.354974  0.355580  0.249771  1
  Ir  Ir27  1  0.354882  0.644238  0.750136  1
  Ir  Ir28  1  0.499906  0.000200  0.121536  1
  Ir  Ir29  1  0.499908  0.000197  0.621943  1
  Ir  Ir30  1  0.000024  0.500006  0.878283  1
  Ir  Ir31  1  0.999991  0.500010  0.378292  1
