# generated using pymatgen
data_HoVF7
_symmetry_space_group_name_H-M   'P 1'
_cell_length_a   5.45446600
_cell_length_b   8.76517138
_cell_length_c   11.75087722
_cell_angle_alpha   63.36237389
_cell_angle_beta   90.00000000
_cell_angle_gamma   90.00000000
_symmetry_Int_Tables_number   1
_chemical_formula_structural   HoVF7
_chemical_formula_sum   'Ho4 V4 F28'
_cell_volume   502.17194156
_cell_formula_units_Z   4
loop_
 _symmetry_equiv_pos_site_id
 _symmetry_equiv_pos_as_xyz
  1  'x, y, z'
loop_
 _atom_site_type_symbol
 _atom_site_label
 _atom_site_symmetry_multiplicity
 _atom_site_fract_x
 _atom_site_fract_y
 _atom_site_fract_z
 _atom_site_occupancy
  Ho  Ho0  1  0.758095  0.808750  0.768861  1
  Ho  Ho1  1  0.258095  0.191250  0.731139  1
  Ho  Ho2  1  0.241905  0.191250  0.231139  1
  Ho  Ho3  1  0.741905  0.808750  0.268861  1
  V  V4  1  0.756333  0.273098  0.955986  1
  V  V5  1  0.256333  0.726902  0.544014  1
  V  V6  1  0.243667  0.726902  0.044014  1
  V  V7  1  0.743667  0.273098  0.455986  1
  F  F8  1  0.439312  0.705703  0.919313  1
  F  F9  1  0.939312  0.294297  0.580687  1
  F  F10  1  0.560688  0.294297  0.080687  1
  F  F11  1  0.060688  0.705703  0.419313  1
  F  F12  1  0.449798  0.277598  0.543687  1
  F  F13  1  0.949798  0.722402  0.956313  1
  F  F14  1  0.550202  0.722402  0.456313  1
  F  F15  1  0.050202  0.277598  0.043687  1
  F  F16  1  0.774538  0.507786  0.864229  1
  F  F17  1  0.274538  0.492214  0.635771  1
  F  F18  1  0.225462  0.492214  0.135771  1
  F  F19  1  0.725462  0.507786  0.364229  1
  F  F20  1  0.757115  0.040740  0.045845  1
  F  F21  1  0.257115  0.959260  0.454155  1
  F  F22  1  0.242885  0.959260  0.954155  1
  F  F23  1  0.742885  0.040740  0.545845  1
  F  F24  1  0.973436  0.728570  0.637554  1
  F  F25  1  0.473436  0.271430  0.862446  1
  F  F26  1  0.026564  0.271430  0.362446  1
  F  F27  1  0.526564  0.728570  0.137554  1
  F  F28  1  0.048625  0.746715  0.172008  1
  F  F29  1  0.548625  0.253285  0.327992  1
  F  F30  1  0.951375  0.253285  0.827992  1
  F  F31  1  0.451375  0.746715  0.672008  1
  F  F32  1  0.415994  0.971251  0.229763  1
  F  F33  1  0.915994  0.028749  0.270237  1
  F  F34  1  0.584006  0.028749  0.770237  1
  F  F35  1  0.084006  0.971251  0.729763  1
