# generated using pymatgen
data_Zr2Ta3AlSi3
_symmetry_space_group_name_H-M   'P 1'
_cell_length_a   6.93144315
_cell_length_b   6.93149173
_cell_length_c   12.82574890
_cell_angle_alpha   90.07719181
_cell_angle_beta   90.00559870
_cell_angle_gamma   90.02324223
_symmetry_Int_Tables_number   1
_chemical_formula_structural   Zr2Ta3AlSi3
_chemical_formula_sum   'Zr8 Ta12 Al4 Si12'
_cell_volume   616.21558233
_cell_formula_units_Z   4
loop_
 _symmetry_equiv_pos_site_id
 _symmetry_equiv_pos_as_xyz
  1  'x, y, z'
loop_
 _atom_site_type_symbol
 _atom_site_label
 _atom_site_symmetry_multiplicity
 _atom_site_fract_x
 _atom_site_fract_y
 _atom_site_fract_z
 _atom_site_occupancy
  Zr  Zr0  1  0.999994  0.666568  0.029193  1
  Zr  Zr1  1  0.000483  0.339925  0.531895  1
  Zr  Zr2  1  0.656268  0.998941  0.969589  1
  Zr  Zr3  1  0.161308  0.500742  0.779403  1
  Zr  Zr4  1  0.833931  0.499634  0.280055  1
  Zr  Zr5  1  0.501103  0.155809  0.218739  1
  Zr  Zr6  1  0.499453  0.838310  0.721380  1
  Zr  Zr7  1  0.339448  0.000681  0.468815  1
  Ta  Ta8  1  0.353427  0.503135  0.377864  1
  Ta  Ta9  1  0.844568  0.999344  0.369334  1
  Ta  Ta10  1  0.002671  0.147322  0.127599  1
  Ta  Ta11  1  0.999064  0.843676  0.631586  1
  Ta  Ta12  1  0.648633  0.497537  0.875161  1
  Ta  Ta13  1  0.502605  0.352050  0.625635  1
  Ta  Ta14  1  0.498747  0.655972  0.122010  1
  Ta  Ta15  1  0.156759  0.000860  0.872442  1
  Ta  Ta16  1  0.665341  0.664789  0.500190  1
  Ta  Ta17  1  0.830937  0.169639  0.750192  1
  Ta  Ta18  1  0.170983  0.836466  0.248691  1
  Ta  Ta19  1  0.336138  0.328915  0.998659  1
  Al  Al20  1  0.042071  0.701670  0.435667  1
  Al  Al21  1  0.958240  0.300903  0.936825  1
  Al  Al22  1  0.701448  0.041125  0.563633  1
  Al  Al23  1  0.198742  0.457868  0.185665  1
  Si  Si24  1  0.799009  0.543374  0.686191  1
  Si  Si25  1  0.457648  0.200443  0.813074  1
  Si  Si26  1  0.543296  0.797700  0.314065  1
  Si  Si27  1  0.297501  0.957222  0.063096  1
  Si  Si28  1  0.863758  0.793223  0.823640  1
  Si  Si29  1  0.135799  0.210476  0.322775  1
  Si  Si30  1  0.792962  0.861945  0.178087  1
  Si  Si31  1  0.292214  0.637233  0.571266  1
  Si  Si32  1  0.708405  0.364563  0.072553  1
  Si  Si33  1  0.636704  0.291224  0.429236  1
  Si  Si34  1  0.362607  0.705044  0.928571  1
  Si  Si35  1  0.207731  0.135671  0.677223  1
