# generated using pymatgen
data_Ac4DyIn3Cl
_symmetry_space_group_name_H-M   'P 1'
_cell_length_a   9.88300400
_cell_length_b   9.88300577
_cell_length_c   7.15686200
_cell_angle_alpha   90.00000000
_cell_angle_beta   90.00000000
_cell_angle_gamma   120.00000076
_symmetry_Int_Tables_number   1
_chemical_formula_structural   Ac4DyIn3Cl
_chemical_formula_sum   'Ac8 Dy2 In6 Cl2'
_cell_volume   605.38449226
_cell_formula_units_Z   2
loop_
 _symmetry_equiv_pos_site_id
 _symmetry_equiv_pos_as_xyz
  1  'x, y, z'
loop_
 _atom_site_type_symbol
 _atom_site_label
 _atom_site_symmetry_multiplicity
 _atom_site_fract_x
 _atom_site_fract_y
 _atom_site_fract_z
 _atom_site_occupancy
  Ac  Ac0  1  0.736853  0.736853  0.253549  1
  Ac  Ac1  1  0.000000  0.736853  0.746451  1
  Ac  Ac2  1  0.736853  0.000000  0.746451  1
  Ac  Ac3  1  0.263147  0.263147  0.746451  1
  Ac  Ac4  1  0.000000  0.263147  0.253549  1
  Ac  Ac5  1  0.263147  0.000000  0.253549  1
  Ac  Ac6  1  0.333333  0.666667  0.000000  1
  Ac  Ac7  1  0.666667  0.333333  0.000000  1
  Dy  Dy8  1  0.333333  0.666667  0.500000  1
  Dy  Dy9  1  0.666667  0.333333  0.500000  1
  In  In10  1  0.395679  0.000000  0.731992  1
  In  In11  1  0.000000  0.604321  0.268008  1
  In  In12  1  0.604321  0.000000  0.268008  1
  In  In13  1  0.000000  0.395679  0.731992  1
  In  In14  1  0.395679  0.395679  0.268008  1
  In  In15  1  0.604321  0.604321  0.731992  1
  Cl  Cl16  1  0.000000  0.000000  0.500000  1
  Cl  Cl17  1  0.000000  0.000000  0.000000  1
