# generated using pymatgen
data_TmLu5(Zn3C)2
_symmetry_space_group_name_H-M   'P 1'
_cell_length_a   8.97155205
_cell_length_b   8.97850594
_cell_length_c   8.96986794
_cell_angle_alpha   59.97959307
_cell_angle_beta   59.99378834
_cell_angle_gamma   60.02561820
_symmetry_Int_Tables_number   1
_chemical_formula_structural   TmLu5(Zn3C)2
_chemical_formula_sum   'Tm2 Lu10 Zn12 C4'
_cell_volume   510.90396876
_cell_formula_units_Z   2
loop_
 _symmetry_equiv_pos_site_id
 _symmetry_equiv_pos_as_xyz
  1  'x, y, z'
loop_
 _atom_site_type_symbol
 _atom_site_label
 _atom_site_symmetry_multiplicity
 _atom_site_fract_x
 _atom_site_fract_y
 _atom_site_fract_z
 _atom_site_occupancy
  Tm  Tm0  1  0.446485  0.446472  0.053614  1
  Tm  Tm1  1  0.053429  0.446472  0.053614  1
  Lu  Lu2  1  0.446136  0.053671  0.054057  1
  Lu  Lu3  1  0.054017  0.053845  0.446070  1
  Lu  Lu4  1  0.446068  0.053845  0.446070  1
  Lu  Lu5  1  0.053865  0.446124  0.446146  1
  Lu  Lu6  1  0.803761  0.804085  0.196172  1
  Lu  Lu7  1  0.195982  0.804085  0.196172  1
  Lu  Lu8  1  0.804123  0.195673  0.196082  1
  Lu  Lu9  1  0.196032  0.195815  0.803918  1
  Lu  Lu10  1  0.804235  0.195815  0.803918  1
  Lu  Lu11  1  0.195879  0.804461  0.803780  1
  Zn  Zn12  1  0.827886  0.827818  0.516411  1
  Zn  Zn13  1  0.827915  0.516487  0.827684  1
  Zn  Zn14  1  0.516449  0.827996  0.827819  1
  Zn  Zn15  1  0.827737  0.827996  0.827819  1
  Zn  Zn16  1  0.422307  0.422159  0.733227  1
  Zn  Zn17  1  0.422128  0.733580  0.422164  1
  Zn  Zn18  1  0.733401  0.422127  0.422314  1
  Zn  Zn19  1  0.422158  0.422127  0.422314  1
  Zn  Zn20  1  0.624874  0.625193  0.125060  1
  Zn  Zn21  1  0.625042  0.124908  0.625007  1
  Zn  Zn22  1  0.124990  0.625127  0.624789  1
  Zn  Zn23  1  0.625094  0.625127  0.624789  1
  C  C24  1  0.124972  0.124981  0.625074  1
  C  C25  1  0.124177  0.626165  0.125481  1
  C  C26  1  0.625626  0.123924  0.125218  1
  C  C27  1  0.125233  0.123924  0.125218  1
