# generated using pymatgen
data_Er4Ga20Tc5Rh
_symmetry_space_group_name_H-M   'P 1'
_cell_length_a   9.06681700
_cell_length_b   9.06681700
_cell_length_c   6.26596300
_cell_angle_alpha   90.00000000
_cell_angle_beta   90.00000000
_cell_angle_gamma   90.00000000
_symmetry_Int_Tables_number   1
_chemical_formula_structural   Er4Ga20Tc5Rh
_chemical_formula_sum   'Er4 Ga20 Tc5 Rh1'
_cell_volume   515.10708876
_cell_formula_units_Z   1
loop_
 _symmetry_equiv_pos_site_id
 _symmetry_equiv_pos_as_xyz
  1  'x, y, z'
loop_
 _atom_site_type_symbol
 _atom_site_label
 _atom_site_symmetry_multiplicity
 _atom_site_fract_x
 _atom_site_fract_y
 _atom_site_fract_z
 _atom_site_occupancy
  Er  Er0  1  0.680236  0.185150  0.000000  1
  Er  Er1  1  0.319764  0.814850  0.000000  1
  Er  Er2  1  0.814850  0.680236  0.000000  1
  Er  Er3  1  0.185150  0.319764  0.000000  1
  Ga  Ga4  1  0.939372  0.206754  0.290136  1
  Ga  Ga5  1  0.705473  0.440556  0.291969  1
  Ga  Ga6  1  0.500000  0.000000  0.286219  1
  Ga  Ga7  1  0.559444  0.705473  0.708031  1
  Ga  Ga8  1  0.294527  0.559444  0.708031  1
  Ga  Ga9  1  0.793246  0.939372  0.290136  1
  Ga  Ga10  1  0.939372  0.206754  0.709864  1
  Ga  Ga11  1  0.294527  0.559444  0.291969  1
  Ga  Ga12  1  0.060628  0.793246  0.290136  1
  Ga  Ga13  1  0.705473  0.440556  0.708031  1
  Ga  Ga14  1  0.440556  0.294527  0.708031  1
  Ga  Ga15  1  0.060628  0.793246  0.709864  1
  Ga  Ga16  1  0.206754  0.060628  0.709864  1
  Ga  Ga17  1  0.793246  0.939372  0.709864  1
  Ga  Ga18  1  0.206754  0.060628  0.290136  1
  Ga  Ga19  1  0.000000  0.500000  0.713781  1
  Ga  Ga20  1  0.000000  0.500000  0.286219  1
  Ga  Ga21  1  0.559444  0.705473  0.291969  1
  Ga  Ga22  1  0.440556  0.294527  0.291969  1
  Ga  Ga23  1  0.500000  0.000000  0.713781  1
  Tc  Tc24  1  0.681687  0.176643  0.500000  1
  Tc  Tc25  1  0.823357  0.681687  0.500000  1
  Tc  Tc26  1  0.176643  0.318313  0.500000  1
  Tc  Tc27  1  0.318313  0.823357  0.500000  1
  Tc  Tc28  1  0.500000  0.500000  0.000000  1
  Rh  Rh29  1  0.000000  0.000000  0.000000  1
