# generated using pymatgen
data_DyEr9(In2Cu)4
_symmetry_space_group_name_H-M   'P 1'
_cell_length_a   3.63579600
_cell_length_b   8.00381428
_cell_length_c   17.89475263
_cell_angle_alpha   90.03051948
_cell_angle_beta   90.00000000
_cell_angle_gamma   90.00000000
_symmetry_Int_Tables_number   1
_chemical_formula_structural   DyEr9(In2Cu)4
_chemical_formula_sum   'Dy1 Er9 In8 Cu4'
_cell_volume   520.74145020
_cell_formula_units_Z   1
loop_
 _symmetry_equiv_pos_site_id
 _symmetry_equiv_pos_as_xyz
  1  'x, y, z'
loop_
 _atom_site_type_symbol
 _atom_site_label
 _atom_site_symmetry_multiplicity
 _atom_site_fract_x
 _atom_site_fract_y
 _atom_site_fract_z
 _atom_site_occupancy
  Dy  Dy0  1  0.000000  0.500000  0.500000  1
  Er  Er1  1  0.000000  0.000000  0.000000  1
  Er  Er2  1  0.000000  0.738887  0.280128  1
  Er  Er3  1  0.000000  0.261113  0.719872  1
  Er  Er4  1  0.000000  0.761146  0.780122  1
  Er  Er5  1  0.000000  0.238854  0.219878  1
  Er  Er6  1  0.000000  0.618245  0.083243  1
  Er  Er7  1  0.000000  0.381755  0.916757  1
  Er  Er8  1  0.000000  0.881767  0.583331  1
  Er  Er9  1  0.000000  0.118233  0.416669  1
  In  In10  1  0.500000  0.707521  0.931121  1
  In  In11  1  0.500000  0.292479  0.068879  1
  In  In12  1  0.500000  0.793181  0.430927  1
  In  In13  1  0.500000  0.206819  0.569073  1
  In  In14  1  0.500000  0.578802  0.650391  1
  In  In15  1  0.500000  0.421198  0.349609  1
  In  In16  1  0.500000  0.921418  0.150113  1
  In  In17  1  0.500000  0.078582  0.849887  1
  Cu  Cu18  1  0.500000  0.524421  0.197248  1
  Cu  Cu19  1  0.500000  0.475579  0.802752  1
  Cu  Cu20  1  0.500000  0.975630  0.697279  1
  Cu  Cu21  1  0.500000  0.024370  0.302721  1
