# generated using pymatgen
data_Yb(TcO4)2
_symmetry_space_group_name_H-M   'P 1'
_cell_length_a   6.21355000
_cell_length_b   6.21355074
_cell_length_c   6.29591900
_cell_angle_alpha   90.00000000
_cell_angle_beta   90.00000000
_cell_angle_gamma   119.99999607
_symmetry_Int_Tables_number   1
_chemical_formula_structural   Yb(TcO4)2
_chemical_formula_sum   'Yb1 Tc2 O8'
_cell_volume   210.50839853
_cell_formula_units_Z   1
loop_
 _symmetry_equiv_pos_site_id
 _symmetry_equiv_pos_as_xyz
  1  'x, y, z'
loop_
 _atom_site_type_symbol
 _atom_site_label
 _atom_site_symmetry_multiplicity
 _atom_site_fract_x
 _atom_site_fract_y
 _atom_site_fract_z
 _atom_site_occupancy
  Yb  Yb0  1  0.000000  0.000000  0.500000  1
  Tc  Tc1  1  0.333333  0.666667  0.789860  1
  Tc  Tc2  1  0.666667  0.333333  0.210140  1
  O  O3  1  0.194826  0.834249  0.698595  1
  O  O4  1  0.165751  0.360578  0.698595  1
  O  O5  1  0.333333  0.666667  0.062763  1
  O  O6  1  0.360578  0.194826  0.301405  1
  O  O7  1  0.639422  0.805174  0.698595  1
  O  O8  1  0.666667  0.333333  0.937237  1
  O  O9  1  0.834249  0.639422  0.301405  1
  O  O10  1  0.805174  0.165751  0.301405  1
