# generated using pymatgen
data_Ca2Ho2Bi3Sb3Rh7
_symmetry_space_group_name_H-M   'P 1'
_cell_length_a   7.70231001
_cell_length_b   7.68127706
_cell_length_c   7.73674099
_cell_angle_alpha   109.37844100
_cell_angle_beta   109.48832142
_cell_angle_gamma   109.31069264
_symmetry_Int_Tables_number   1
_chemical_formula_structural   Ca2Ho2Bi3Sb3Rh7
_chemical_formula_sum   'Ca2 Ho2 Bi3 Sb3 Rh7'
_cell_volume   353.38603352
_cell_formula_units_Z   1
loop_
 _symmetry_equiv_pos_site_id
 _symmetry_equiv_pos_as_xyz
  1  'x, y, z'
loop_
 _atom_site_type_symbol
 _atom_site_label
 _atom_site_symmetry_multiplicity
 _atom_site_fract_x
 _atom_site_fract_y
 _atom_site_fract_z
 _atom_site_occupancy
  Ca  Ca0  1  0.468968  0.000037  0.000000  1
  Ca  Ca1  1  0.002996  0.511917  0.000000  1
  Ho  Ho2  1  0.003565  0.999798  0.515456  1
  Ho  Ho3  1  0.488109  0.484342  0.484544  1
  Bi  Bi4  1  0.985396  0.299286  0.296447  1
  Bi  Bi5  1  0.688948  0.002839  0.703553  1
  Bi  Bi6  1  0.689841  0.700983  0.000000  1
  Sb  Sb7  1  0.994479  0.667277  0.670581  1
  Sb  Sb8  1  0.323897  0.996696  0.329419  1
  Sb  Sb9  1  0.326178  0.334592  0.000000  1
  Rh  Rh10  1  0.049571  0.003869  0.000000  1
  Rh  Rh11  1  0.506849  0.753403  0.263544  1
  Rh  Rh12  1  0.746570  0.508958  0.255145  1
  Rh  Rh13  1  0.244230  0.745445  0.498561  1
  Rh  Rh14  1  0.243306  0.489861  0.736456  1
  Rh  Rh15  1  0.491425  0.253814  0.744855  1
  Rh  Rh16  1  0.745670  0.246885  0.501439  1
