# generated using pymatgen
data_Pa2(Si2Ni)3
_symmetry_space_group_name_H-M   'P 1'
_cell_length_a   10.75871020
_cell_length_b   10.75871069
_cell_length_c   4.01917500
_cell_angle_alpha   90.00000000
_cell_angle_beta   90.00000000
_cell_angle_gamma   158.46716532
_symmetry_Int_Tables_number   1
_chemical_formula_structural   Pa2(Si2Ni)3
_chemical_formula_sum   'Pa2 Si6 Ni3'
_cell_volume   170.75132486
_cell_formula_units_Z   1
loop_
 _symmetry_equiv_pos_site_id
 _symmetry_equiv_pos_as_xyz
  1  'x, y, z'
loop_
 _atom_site_type_symbol
 _atom_site_label
 _atom_site_symmetry_multiplicity
 _atom_site_fract_x
 _atom_site_fract_y
 _atom_site_fract_z
 _atom_site_occupancy
  Pa  Pa0  1  0.830105  0.169895  0.000000  1
  Pa  Pa1  1  0.169895  0.830105  0.000000  1
  Si  Si2  1  0.940432  0.059568  0.500000  1
  Si  Si3  1  0.059568  0.940432  0.500000  1
  Si  Si4  1  0.560564  0.439436  0.000000  1
  Si  Si5  1  0.439436  0.560564  0.000000  1
  Si  Si6  1  0.721147  0.278853  0.500000  1
  Si  Si7  1  0.278853  0.721147  0.500000  1
  Ni  Ni8  1  0.614548  0.385452  0.500000  1
  Ni  Ni9  1  0.385452  0.614548  0.500000  1
  Ni  Ni10  1  0.000000  0.000000  0.000000  1
