# generated using pymatgen
data_CoSn16Pt2Rh
_symmetry_space_group_name_H-M   'P 1'
_cell_length_a   12.59060213
_cell_length_b   12.59060271
_cell_length_c   12.58721022
_cell_angle_alpha   150.66857596
_cell_angle_beta   150.66858260
_cell_angle_gamma   42.00112885
_symmetry_Int_Tables_number   1
_chemical_formula_structural   CoSn16Pt2Rh
_chemical_formula_sum   'Co1 Sn16 Pt2 Rh1'
_cell_volume   477.62515201
_cell_formula_units_Z   1
loop_
 _symmetry_equiv_pos_site_id
 _symmetry_equiv_pos_as_xyz
  1  'x, y, z'
loop_
 _atom_site_type_symbol
 _atom_site_label
 _atom_site_symmetry_multiplicity
 _atom_site_fract_x
 _atom_site_fract_y
 _atom_site_fract_z
 _atom_site_occupancy
  Co  Co0  1  0.750000  0.750000  0.000000  1
  Sn  Sn1  1  0.129470  0.645500  0.150948  1
  Sn  Sn2  1  0.646328  0.495156  0.515764  1
  Sn  Sn3  1  0.888901  0.895693  0.656393  1
  Sn  Sn4  1  0.394489  0.738638  0.006586  1
  Sn  Sn5  1  0.604307  0.611099  0.343607  1
  Sn  Sn6  1  0.112098  0.767946  0.006586  1
  Sn  Sn7  1  0.854500  0.370530  0.849052  1
  Sn  Sn8  1  0.369436  0.520610  0.515764  1
  Sn  Sn9  1  0.979390  0.130564  0.484236  1
  Sn  Sn10  1  0.494552  0.978523  0.849052  1
  Sn  Sn11  1  0.732054  0.387902  0.993414  1
  Sn  Sn12  1  0.239300  0.232506  0.343607  1
  Sn  Sn13  1  0.761362  0.105511  0.993414  1
  Sn  Sn14  1  0.267494  0.260700  0.656393  1
  Sn  Sn15  1  0.004844  0.853672  0.484236  1
  Sn  Sn16  1  0.521477  0.005448  0.150948  1
  Pt  Pt17  1  0.250000  0.250000  0.000000  1
  Pt  Pt18  1  0.000000  0.500000  0.500000  1
  Rh  Rh19  1  0.500000  0.000000  0.500000  1
