# generated using pymatgen
data_Li3Nd3Hg2Ir
_symmetry_space_group_name_H-M   'P 1'
_cell_length_a   7.83371800
_cell_length_b   7.83371904
_cell_length_c   4.02405300
_cell_angle_alpha   90.00000000
_cell_angle_beta   90.00000000
_cell_angle_gamma   119.99999559
_symmetry_Int_Tables_number   1
_chemical_formula_structural   Li3Nd3Hg2Ir
_chemical_formula_sum   'Li3 Nd3 Hg2 Ir1'
_cell_volume   213.86034757
_cell_formula_units_Z   1
loop_
 _symmetry_equiv_pos_site_id
 _symmetry_equiv_pos_as_xyz
  1  'x, y, z'
loop_
 _atom_site_type_symbol
 _atom_site_label
 _atom_site_symmetry_multiplicity
 _atom_site_fract_x
 _atom_site_fract_y
 _atom_site_fract_z
 _atom_site_occupancy
  Li  Li0  1  0.253745  0.003436  0.500000  1
  Li  Li1  1  0.996564  0.250307  0.500000  1
  Li  Li2  1  0.749693  0.746255  0.500000  1
  Nd  Nd3  1  0.601591  0.031066  0.000000  1
  Nd  Nd4  1  0.968934  0.570525  0.000000  1
  Nd  Nd5  1  0.429475  0.398409  0.000000  1
  Hg  Hg6  1  0.333333  0.666667  0.500000  1
  Hg  Hg7  1  0.000000  0.000000  0.000000  1
  Ir  Ir8  1  0.666667  0.333333  0.500000  1
