# generated using pymatgen
data_Ho16In3Hg(IrPt)2
_symmetry_space_group_name_H-M   'P 1'
_cell_length_a   9.59889597
_cell_length_b   9.60327850
_cell_length_c   9.60327943
_cell_angle_alpha   60.50604510
_cell_angle_beta   60.41300444
_cell_angle_gamma   60.41300890
_symmetry_Int_Tables_number   1
_chemical_formula_structural   Ho16In3Hg(IrPt)2
_chemical_formula_sum   'Ho16 In3 Hg1 Ir2 Pt2'
_cell_volume   632.24081910
_cell_formula_units_Z   1
loop_
 _symmetry_equiv_pos_site_id
 _symmetry_equiv_pos_as_xyz
  1  'x, y, z'
loop_
 _atom_site_type_symbol
 _atom_site_label
 _atom_site_symmetry_multiplicity
 _atom_site_fract_x
 _atom_site_fract_y
 _atom_site_fract_z
 _atom_site_occupancy
  Ho  Ho0  1  0.438892  0.435436  0.064546  1
  Ho  Ho1  1  0.648152  0.643277  0.057641  1
  Ho  Ho2  1  0.187390  0.809809  0.193830  1
  Ho  Ho3  1  0.061437  0.437327  0.060583  1
  Ho  Ho4  1  0.192193  0.808143  0.808143  1
  Ho  Ho5  1  0.064174  0.437534  0.437534  1
  Ho  Ho6  1  0.810683  0.190051  0.190051  1
  Ho  Ho7  1  0.655082  0.650845  0.650845  1
  Ho  Ho8  1  0.809023  0.194748  0.808190  1
  Ho  Ho9  1  0.187390  0.193830  0.809809  1
  Ho  Ho10  1  0.053350  0.646688  0.646688  1
  Ho  Ho11  1  0.438376  0.061674  0.061674  1
  Ho  Ho12  1  0.061437  0.060583  0.437327  1
  Ho  Ho13  1  0.648152  0.057641  0.643277  1
  Ho  Ho14  1  0.809023  0.808190  0.194748  1
  Ho  Ho15  1  0.438892  0.064546  0.435436  1
  In  In16  1  0.416654  0.417543  0.747900  1
  In  In17  1  0.416654  0.747900  0.417543  1
  In  In18  1  0.748168  0.417070  0.417070  1
  Hg  Hg19  1  0.413377  0.413251  0.413251  1
  Ir  Ir20  1  0.859134  0.426145  0.860607  1
  Ir  Ir21  1  0.859134  0.860607  0.426145  1
  Pt  Pt22  1  0.427203  0.859675  0.859675  1
  Pt  Pt23  1  0.856032  0.857493  0.857493  1
