# generated using pymatgen
data_Tb3Ni6B2Ir
_symmetry_space_group_name_H-M   'P 1'
_cell_length_a   5.09755954
_cell_length_b   5.09756020
_cell_length_c   14.55970800
_cell_angle_alpha   90.00000000
_cell_angle_beta   90.00000000
_cell_angle_gamma   119.97753416
_symmetry_Int_Tables_number   1
_chemical_formula_structural   Tb3Ni6B2Ir
_chemical_formula_sum   'Tb6 Ni12 B4 Ir2'
_cell_volume   327.72248437
_cell_formula_units_Z   2
loop_
 _symmetry_equiv_pos_site_id
 _symmetry_equiv_pos_as_xyz
  1  'x, y, z'
loop_
 _atom_site_type_symbol
 _atom_site_label
 _atom_site_symmetry_multiplicity
 _atom_site_fract_x
 _atom_site_fract_y
 _atom_site_fract_z
 _atom_site_occupancy
  Tb  Tb0  1  0.666691  0.333309  0.030516  1
  Tb  Tb1  1  0.333309  0.666691  0.969484  1
  Tb  Tb2  1  0.333309  0.666691  0.530516  1
  Tb  Tb3  1  0.666691  0.333309  0.469484  1
  Tb  Tb4  1  0.666643  0.333357  0.250000  1
  Tb  Tb5  1  0.333357  0.666643  0.750000  1
  Ni  Ni6  1  0.834722  0.669471  0.652339  1
  Ni  Ni7  1  0.834740  0.165260  0.652347  1
  Ni  Ni8  1  0.330529  0.165278  0.652339  1
  Ni  Ni9  1  0.165278  0.330529  0.347661  1
  Ni  Ni10  1  0.165260  0.834740  0.347653  1
  Ni  Ni11  1  0.669471  0.834722  0.347661  1
  Ni  Ni12  1  0.165278  0.330529  0.152339  1
  Ni  Ni13  1  0.165260  0.834740  0.152347  1
  Ni  Ni14  1  0.669471  0.834722  0.152339  1
  Ni  Ni15  1  0.834722  0.669471  0.847661  1
  Ni  Ni16  1  0.834740  0.165260  0.847653  1
  Ni  Ni17  1  0.330529  0.165278  0.847661  1
  B  B18  1  0.666719  0.333281  0.750000  1
  B  B19  1  0.333281  0.666719  0.250000  1
  B  B20  1  0.000021  0.999979  0.750000  1
  B  B21  1  0.999979  0.000021  0.250000  1
  Ir  Ir22  1  0.000000  0.000000  0.500000  1
  Ir  Ir23  1  0.000000  0.000000  0.000000  1
