# generated using pymatgen
data_Lu(BrO3)3
_symmetry_space_group_name_H-M   'P 1'
_cell_length_a   9.71016800
_cell_length_b   9.71016699
_cell_length_c   5.70882500
_cell_angle_alpha   90.00000000
_cell_angle_beta   90.00000000
_cell_angle_gamma   119.99999163
_symmetry_Int_Tables_number   1
_chemical_formula_structural   Lu(BrO3)3
_chemical_formula_sum   'Lu2 Br6 O18'
_cell_volume   466.15553072
_cell_formula_units_Z   2
loop_
 _symmetry_equiv_pos_site_id
 _symmetry_equiv_pos_as_xyz
  1  'x, y, z'
loop_
 _atom_site_type_symbol
 _atom_site_label
 _atom_site_symmetry_multiplicity
 _atom_site_fract_x
 _atom_site_fract_y
 _atom_site_fract_z
 _atom_site_occupancy
  Lu  Lu0  1  0.666667  0.333333  0.698372  1
  Lu  Lu1  1  0.333333  0.666667  0.198372  1
  Br  Br2  1  0.682350  0.020745  0.363371  1
  Br  Br3  1  0.317650  0.979255  0.863371  1
  Br  Br4  1  0.020745  0.338394  0.863371  1
  Br  Br5  1  0.338394  0.317650  0.363371  1
  Br  Br6  1  0.979255  0.661606  0.363371  1
  Br  Br7  1  0.661606  0.682350  0.863371  1
  O  O8  1  0.774850  0.826162  0.043084  1
  O  O9  1  0.948688  0.774850  0.543084  1
  O  O10  1  0.826162  0.051312  0.543084  1
  O  O11  1  0.173838  0.948688  0.043084  1
  O  O12  1  0.051312  0.225150  0.043084  1
  O  O13  1  0.225150  0.173838  0.543084  1
  O  O14  1  0.705555  0.534841  0.921041  1
  O  O15  1  0.170714  0.705555  0.421041  1
  O  O16  1  0.528641  0.404049  0.472614  1
  O  O17  1  0.124592  0.528641  0.972614  1
  O  O18  1  0.404049  0.875408  0.972614  1
  O  O19  1  0.595951  0.124592  0.472614  1
  O  O20  1  0.875408  0.471359  0.472614  1
  O  O21  1  0.471359  0.595951  0.972614  1
  O  O22  1  0.294445  0.465159  0.421041  1
  O  O23  1  0.829286  0.294445  0.921041  1
  O  O24  1  0.465159  0.170714  0.921041  1
  O  O25  1  0.534841  0.829286  0.421041  1
