# generated using pymatgen
data_K4LuIn3I16
_symmetry_space_group_name_H-M   'P 1'
_cell_length_a   8.45464089
_cell_length_b   8.72328028
_cell_length_c   17.13629364
_cell_angle_alpha   84.98198415
_cell_angle_beta   90.01261675
_cell_angle_gamma   90.11211605
_symmetry_Int_Tables_number   1
_chemical_formula_structural   K4LuIn3I16
_chemical_formula_sum   'K4 Lu1 In3 I16'
_cell_volume   1258.99299289
_cell_formula_units_Z   1
loop_
 _symmetry_equiv_pos_site_id
 _symmetry_equiv_pos_as_xyz
  1  'x, y, z'
loop_
 _atom_site_type_symbol
 _atom_site_label
 _atom_site_symmetry_multiplicity
 _atom_site_fract_x
 _atom_site_fract_y
 _atom_site_fract_z
 _atom_site_occupancy
  K  K0  1  0.501116  0.256344  0.638699  1
  K  K1  1  0.000836  0.743698  0.861392  1
  K  K2  1  0.498546  0.743645  0.361474  1
  K  K3  1  0.998734  0.255851  0.138428  1
  Lu  Lu4  1  0.141731  0.243505  0.861106  1
  In  In5  1  0.359160  0.243621  0.361267  1
  In  In6  1  0.859168  0.756528  0.138928  1
  In  In7  1  0.640500  0.756983  0.638681  1
  I  I8  1  0.844581  0.126732  0.911567  1
  I  I9  1  0.350313  0.871882  0.589753  1
  I  I10  1  0.149674  0.871254  0.088984  1
  I  I11  1  0.649357  0.128341  0.410639  1
  I  I12  1  0.386453  0.422900  0.220714  1
  I  I13  1  0.886653  0.576591  0.279227  1
  I  I14  1  0.613098  0.576353  0.779106  1
  I  I15  1  0.111533  0.426834  0.718011  1
  I  I16  1  0.652278  0.993439  0.161617  1
  I  I17  1  0.151989  0.006387  0.338255  1
  I  I18  1  0.352886  0.002325  0.837716  1
  I  I19  1  0.848211  0.993903  0.661877  1
  I  I20  1  0.247140  0.429606  0.471740  1
  I  I21  1  0.747589  0.570020  0.028330  1
  I  I22  1  0.752505  0.570080  0.528565  1
  I  I23  1  0.255952  0.433179  0.973925  1
