# generated using pymatgen
data_AcNdTe3
_symmetry_space_group_name_H-M   'P 1'
_cell_length_a   4.62504900
_cell_length_b   12.12624100
_cell_length_c   12.61885400
_cell_angle_alpha   90.00000000
_cell_angle_beta   90.00000000
_cell_angle_gamma   90.00000000
_symmetry_Int_Tables_number   1
_chemical_formula_structural   AcNdTe3
_chemical_formula_sum   'Ac4 Nd4 Te12'
_cell_volume   707.72159740
_cell_formula_units_Z   4
loop_
 _symmetry_equiv_pos_site_id
 _symmetry_equiv_pos_as_xyz
  1  'x, y, z'
loop_
 _atom_site_type_symbol
 _atom_site_label
 _atom_site_symmetry_multiplicity
 _atom_site_fract_x
 _atom_site_fract_y
 _atom_site_fract_z
 _atom_site_occupancy
  Ac  Ac0  1  0.250000  0.496473  0.697178  1
  Ac  Ac1  1  0.750000  0.503527  0.302822  1
  Ac  Ac2  1  0.750000  0.996473  0.802822  1
  Ac  Ac3  1  0.250000  0.003527  0.197178  1
  Nd  Nd4  1  0.250000  0.185213  0.513728  1
  Nd  Nd5  1  0.750000  0.814787  0.486272  1
  Nd  Nd6  1  0.750000  0.685213  0.986272  1
  Nd  Nd7  1  0.250000  0.314787  0.013728  1
  Te  Te8  1  0.250000  0.868781  0.957639  1
  Te  Te9  1  0.750000  0.131219  0.042361  1
  Te  Te10  1  0.750000  0.368781  0.542361  1
  Te  Te11  1  0.250000  0.631219  0.457639  1
  Te  Te12  1  0.250000  0.201994  0.772119  1
  Te  Te13  1  0.750000  0.798006  0.227881  1
  Te  Te14  1  0.750000  0.701994  0.727881  1
  Te  Te15  1  0.250000  0.298006  0.272119  1
  Te  Te16  1  0.250000  0.558117  0.112498  1
  Te  Te17  1  0.750000  0.441883  0.887502  1
  Te  Te18  1  0.750000  0.058117  0.387502  1
  Te  Te19  1  0.250000  0.941883  0.612498  1
