# generated using pymatgen
data_HoScNiAs2
_symmetry_space_group_name_H-M   'P 1'
_cell_length_a   4.07917900
_cell_length_b   4.07917920
_cell_length_c   13.08345700
_cell_angle_alpha   90.00000000
_cell_angle_beta   90.00000000
_cell_angle_gamma   120.00002274
_symmetry_Int_Tables_number   1
_chemical_formula_structural   HoScNiAs2
_chemical_formula_sum   'Ho2 Sc2 Ni2 As4'
_cell_volume   188.53786754
_cell_formula_units_Z   2
loop_
 _symmetry_equiv_pos_site_id
 _symmetry_equiv_pos_as_xyz
  1  'x, y, z'
loop_
 _atom_site_type_symbol
 _atom_site_label
 _atom_site_symmetry_multiplicity
 _atom_site_fract_x
 _atom_site_fract_y
 _atom_site_fract_z
 _atom_site_occupancy
  Ho  Ho0  1  0.333333  0.666667  0.612674  1
  Ho  Ho1  1  0.666667  0.333333  0.112674  1
  Sc  Sc2  1  0.666667  0.333333  0.380615  1
  Sc  Sc3  1  0.333333  0.666667  0.880615  1
  Ni  Ni4  1  0.000000  0.000000  0.783235  1
  Ni  Ni5  1  0.000000  0.000000  0.283235  1
  As  As6  1  0.333333  0.666667  0.242673  1
  As  As7  1  0.000000  0.000000  0.980804  1
  As  As8  1  0.000000  0.000000  0.480804  1
  As  As9  1  0.666667  0.333333  0.742673  1
