# generated using pymatgen
data_Ho10Sn3Pb3O2
_symmetry_space_group_name_H-M   'P 1'
_cell_length_a   9.03445598
_cell_length_b   9.03445622
_cell_length_c   9.03059117
_cell_angle_alpha   125.90917340
_cell_angle_beta   125.90917003
_cell_angle_gamma   80.06666495
_symmetry_Int_Tables_number   1
_chemical_formula_structural   Ho10Sn3Pb3O2
_chemical_formula_sum   'Ho10 Sn3 Pb3 O2'
_cell_volume   466.72954900
_cell_formula_units_Z   1
loop_
 _symmetry_equiv_pos_site_id
 _symmetry_equiv_pos_as_xyz
  1  'x, y, z'
loop_
 _atom_site_type_symbol
 _atom_site_label
 _atom_site_symmetry_multiplicity
 _atom_site_fract_x
 _atom_site_fract_y
 _atom_site_fract_z
 _atom_site_occupancy
  Ho  Ho0  1  0.000140  0.200819  0.500000  1
  Ho  Ho1  1  0.799439  0.300817  0.800246  1
  Ho  Ho2  1  0.499429  0.000807  0.800246  1
  Ho  Ho3  1  0.499193  0.000571  0.199754  1
  Ho  Ho4  1  0.001466  0.798826  0.500000  1
  Ho  Ho5  1  0.499208  0.498513  0.997722  1
  Ho  Ho6  1  0.199183  0.700561  0.199754  1
  Ho  Ho7  1  0.701174  0.498534  0.500000  1
  Ho  Ho8  1  0.299181  0.499860  0.500000  1
  Ho  Ho9  1  0.001487  0.000792  0.002278  1
  Sn  Sn10  1  0.853224  0.353438  0.206662  1
  Sn  Sn11  1  0.146562  0.646776  0.793338  1
  Sn  Sn12  1  0.352613  0.147387  0.500000  1
  Pb  Pb13  1  0.750053  0.749947  0.000000  1
  Pb  Pb14  1  0.647421  0.852579  0.500000  1
  Pb  Pb15  1  0.250053  0.249947  0.000000  1
  O  O16  1  0.749957  0.249782  0.500000  1
  O  O17  1  0.250218  0.750043  0.500000  1
