# generated using pymatgen
data_Ho12Tc3Ni2Bi
_symmetry_space_group_name_H-M   'P 1'
_cell_length_a   8.40047461
_cell_length_b   8.40463023
_cell_length_c   8.40047506
_cell_angle_alpha   113.38745683
_cell_angle_beta   109.55624074
_cell_angle_gamma   105.54481964
_symmetry_Int_Tables_number   1
_chemical_formula_structural   Ho12Tc3Ni2Bi
_chemical_formula_sum   'Ho12 Tc3 Ni2 Bi1'
_cell_volume   454.54323741
_cell_formula_units_Z   1
loop_
 _symmetry_equiv_pos_site_id
 _symmetry_equiv_pos_as_xyz
  1  'x, y, z'
loop_
 _atom_site_type_symbol
 _atom_site_label
 _atom_site_symmetry_multiplicity
 _atom_site_fract_x
 _atom_site_fract_y
 _atom_site_fract_z
 _atom_site_occupancy
  Ho  Ho0  1  0.824482  0.732902  0.557278  1
  Ho  Ho1  1  0.175518  0.267098  0.442722  1
  Ho  Ho2  1  0.175625  0.732902  0.908420  1
  Ho  Ho3  1  0.824375  0.267098  0.091580  1
  Ho  Ho4  1  0.672171  0.355718  0.683548  1
  Ho  Ho5  1  0.327829  0.644282  0.316452  1
  Ho  Ho6  1  0.672069  0.988113  0.316045  1
  Ho  Ho7  1  0.327931  0.011887  0.683955  1
  Ho  Ho8  1  0.576088  0.768290  0.807869  1
  Ho  Ho9  1  0.423912  0.231710  0.192131  1
  Ho  Ho10  1  0.960421  0.768290  0.192201  1
  Ho  Ho11  1  0.039579  0.231710  0.807799  1
  Tc  Tc12  1  0.666611  0.000000  0.666611  1
  Tc  Tc13  1  0.333389  0.000000  0.333389  1
  Tc  Tc14  1  0.000000  0.000000  0.000000  1
  Ni  Ni15  1  0.114224  0.615083  0.500860  1
  Ni  Ni16  1  0.885776  0.384917  0.499140  1
  Bi  Bi17  1  0.500000  0.500000  0.000000  1
