# generated using pymatgen
data_MnAlCo3Si3W4
_symmetry_space_group_name_H-M   'P 1'
_cell_length_a   4.75715408
_cell_length_b   4.74561967
_cell_length_c   7.70703100
_cell_angle_alpha   90.00000000
_cell_angle_beta   90.00000000
_cell_angle_gamma   119.47610760
_symmetry_Int_Tables_number   1
_chemical_formula_structural   MnAlCo3Si3W4
_chemical_formula_sum   'Mn1 Al1 Co3 Si3 W4'
_cell_volume   151.46993561
_cell_formula_units_Z   1
loop_
 _symmetry_equiv_pos_site_id
 _symmetry_equiv_pos_as_xyz
  1  'x, y, z'
loop_
 _atom_site_type_symbol
 _atom_site_label
 _atom_site_symmetry_multiplicity
 _atom_site_fract_x
 _atom_site_fract_y
 _atom_site_fract_z
 _atom_site_occupancy
  Mn  Mn0  1  0.155101  0.331525  0.500000  1
  Al  Al1  1  0.823840  0.184856  0.000000  1
  Co  Co2  1  0.827497  0.673095  0.000000  1
  Co  Co3  1  0.333242  0.176653  0.000000  1
  Co  Co4  1  0.155437  0.829851  0.500000  1
  Si  Si5  1  0.640802  0.823221  0.500000  1
  Si  Si6  1  0.023530  0.993388  0.244964  1
  Si  Si7  1  0.023530  0.993388  0.755036  1
  W  W8  1  0.666702  0.329679  0.684878  1
  W  W9  1  0.341688  0.667453  0.815131  1
  W  W10  1  0.341688  0.667453  0.184869  1
  W  W11  1  0.666702  0.329679  0.315122  1
