# generated using pymatgen
data_MgScNi12P7
_symmetry_space_group_name_H-M   'P 1'
_cell_length_a   9.01708300
_cell_length_b   9.01708330
_cell_length_c   3.57506700
_cell_angle_alpha   90.00000000
_cell_angle_beta   90.00000000
_cell_angle_gamma   120.00000258
_symmetry_Int_Tables_number   1
_chemical_formula_structural   MgScNi12P7
_chemical_formula_sum   'Mg1 Sc1 Ni12 P7'
_cell_volume   251.73694331
_cell_formula_units_Z   1
loop_
 _symmetry_equiv_pos_site_id
 _symmetry_equiv_pos_as_xyz
  1  'x, y, z'
loop_
 _atom_site_type_symbol
 _atom_site_label
 _atom_site_symmetry_multiplicity
 _atom_site_fract_x
 _atom_site_fract_y
 _atom_site_fract_z
 _atom_site_occupancy
  Mg  Mg0  1  0.333333  0.666667  0.500000  1
  Sc  Sc1  1  0.000000  0.000000  0.000000  1
  Ni  Ni2  1  0.293166  0.396787  0.000000  1
  Ni  Ni3  1  0.882171  0.457821  0.500000  1
  Ni  Ni4  1  0.103620  0.706834  0.000000  1
  Ni  Ni5  1  0.542179  0.424351  0.500000  1
  Ni  Ni6  1  0.389594  0.178023  0.000000  1
  Ni  Ni7  1  0.788429  0.610406  0.000000  1
  Ni  Ni8  1  0.821977  0.211571  0.000000  1
  Ni  Ni9  1  0.233479  0.950004  0.500000  1
  Ni  Ni10  1  0.049996  0.283475  0.500000  1
  Ni  Ni11  1  0.716525  0.766521  0.500000  1
  Ni  Ni12  1  0.575649  0.117829  0.500000  1
  Ni  Ni13  1  0.603213  0.896380  0.000000  1
  P  P14  1  0.666667  0.333333  0.000000  1
  P  P15  1  0.078708  0.452495  0.000000  1
  P  P16  1  0.253762  0.213628  0.500000  1
  P  P17  1  0.786372  0.040134  0.500000  1
  P  P18  1  0.959866  0.746238  0.500000  1
  P  P19  1  0.547505  0.626212  0.000000  1
  P  P20  1  0.373788  0.921292  0.000000  1
