# generated using pymatgen
data_Pr4HoSi2Hg
_symmetry_space_group_name_H-M   'P 1'
_cell_length_a   7.65757811
_cell_length_b   7.65757790
_cell_length_c   9.45800939
_cell_angle_alpha   113.87983555
_cell_angle_beta   113.87983501
_cell_angle_gamma   90.00001008
_symmetry_Int_Tables_number   1
_chemical_formula_structural   Pr4HoSi2Hg
_chemical_formula_sum   'Pr8 Ho2 Si4 Hg2'
_cell_volume   454.72136269
_cell_formula_units_Z   2
loop_
 _symmetry_equiv_pos_site_id
 _symmetry_equiv_pos_as_xyz
  1  'x, y, z'
loop_
 _atom_site_type_symbol
 _atom_site_label
 _atom_site_symmetry_multiplicity
 _atom_site_fract_x
 _atom_site_fract_y
 _atom_site_fract_z
 _atom_site_occupancy
  Pr  Pr0  1  0.961038  0.812833  0.273871  1
  Pr  Pr1  1  0.312833  0.461038  0.273871  1
  Pr  Pr2  1  0.812833  0.312833  0.273871  1
  Pr  Pr3  1  0.461038  0.961038  0.273871  1
  Pr  Pr4  1  0.038962  0.187167  0.726129  1
  Pr  Pr5  1  0.687167  0.538962  0.726129  1
  Pr  Pr6  1  0.187167  0.687167  0.726129  1
  Pr  Pr7  1  0.538962  0.038962  0.726129  1
  Ho  Ho8  1  0.500000  0.500000  0.000000  1
  Ho  Ho9  1  0.000000  0.000000  0.000000  1
  Si  Si10  1  0.620295  0.879705  0.000000  1
  Si  Si11  1  0.379705  0.120295  0.000000  1
  Si  Si12  1  0.879705  0.379705  0.000000  1
  Si  Si13  1  0.120295  0.620295  0.000000  1
  Hg  Hg14  1  0.750000  0.750000  0.500000  1
  Hg  Hg15  1  0.250000  0.250000  0.500000  1
