# generated using pymatgen
data_Nd2CuP2
_symmetry_space_group_name_H-M   'P 1'
_cell_length_a   4.06903900
_cell_length_b   4.06903776
_cell_length_c   14.89718500
_cell_angle_alpha   90.00000000
_cell_angle_beta   90.00000000
_cell_angle_gamma   120.00000195
_symmetry_Int_Tables_number   1
_chemical_formula_structural   Nd2CuP2
_chemical_formula_sum   'Nd4 Cu2 P4'
_cell_volume   213.60843919
_cell_formula_units_Z   2
loop_
 _symmetry_equiv_pos_site_id
 _symmetry_equiv_pos_as_xyz
  1  'x, y, z'
loop_
 _atom_site_type_symbol
 _atom_site_label
 _atom_site_symmetry_multiplicity
 _atom_site_fract_x
 _atom_site_fract_y
 _atom_site_fract_z
 _atom_site_occupancy
  Nd  Nd0  1  0.333333  0.666667  0.110940  1
  Nd  Nd1  1  0.333333  0.666667  0.389060  1
  Nd  Nd2  1  0.666667  0.333332  0.610940  1
  Nd  Nd3  1  0.666667  0.333332  0.889060  1
  Cu  Cu4  1  0.000000  0.000000  0.250000  1
  Cu  Cu5  1  0.000000  0.000000  0.750000  1
  P  P6  1  0.000000  0.000000  0.000000  1
  P  P7  1  0.666667  0.333332  0.250000  1
  P  P8  1  0.000000  0.000000  0.500000  1
  P  P9  1  0.333333  0.666667  0.750000  1
