# generated using pymatgen
data_Zr8Tl2Cu7Hg2Au
_symmetry_space_group_name_H-M   'P 1'
_cell_length_a   7.32941749
_cell_length_b   7.32939565
_cell_length_c   6.89436907
_cell_angle_alpha   90.01176315
_cell_angle_beta   90.01499356
_cell_angle_gamma   90.16169889
_symmetry_Int_Tables_number   1
_chemical_formula_structural   Zr8Tl2Cu7Hg2Au
_chemical_formula_sum   'Zr8 Tl2 Cu7 Hg2 Au1'
_cell_volume   370.36539441
_cell_formula_units_Z   1
loop_
 _symmetry_equiv_pos_site_id
 _symmetry_equiv_pos_as_xyz
  1  'x, y, z'
loop_
 _atom_site_type_symbol
 _atom_site_label
 _atom_site_symmetry_multiplicity
 _atom_site_fract_x
 _atom_site_fract_y
 _atom_site_fract_z
 _atom_site_occupancy
  Zr  Zr0  1  0.149137  0.152217  0.004347  1
  Zr  Zr1  1  0.846705  0.852256  0.004109  1
  Zr  Zr2  1  0.648130  0.350407  0.498323  1
  Zr  Zr3  1  0.356512  0.643502  0.496784  1
  Zr  Zr4  1  0.691415  0.301400  0.001255  1
  Zr  Zr5  1  0.312081  0.695926  0.003491  1
  Zr  Zr6  1  0.794862  0.807490  0.497438  1
  Zr  Zr7  1  0.199935  0.198168  0.496710  1
  Tl  Tl8  1  0.999430  0.501754  0.249628  1
  Tl  Tl9  1  0.996784  0.492131  0.752063  1
  Cu  Cu10  1  0.380053  0.376488  0.197581  1
  Cu  Cu11  1  0.622019  0.622289  0.800558  1
  Cu  Cu12  1  0.622679  0.621175  0.198129  1
  Cu  Cu13  1  0.870933  0.127317  0.698639  1
  Cu  Cu14  1  0.876893  0.121813  0.301261  1
  Cu  Cu15  1  0.378729  0.376752  0.800653  1
  Cu  Cu16  1  0.122878  0.878374  0.296302  1
  Hg  Hg17  1  0.498240  0.000241  0.249880  1
  Hg  Hg18  1  0.508568  0.003321  0.752417  1
  Au  Au19  1  0.124020  0.876979  0.700429  1
