# generated using pymatgen
data_Ba4GaSi(AsPt2)2
_symmetry_space_group_name_H-M   'P 1'
_cell_length_a   6.78178119
_cell_length_b   6.85391537
_cell_length_c   6.83132722
_cell_angle_alpha   91.52734964
_cell_angle_beta   89.66351569
_cell_angle_gamma   90.38298766
_symmetry_Int_Tables_number   1
_chemical_formula_structural   Ba4GaSi(AsPt2)2
_chemical_formula_sum   'Ba4 Ga1 Si1 As2 Pt4'
_cell_volume   317.40701771
_cell_formula_units_Z   1
loop_
 _symmetry_equiv_pos_site_id
 _symmetry_equiv_pos_as_xyz
  1  'x, y, z'
loop_
 _atom_site_type_symbol
 _atom_site_label
 _atom_site_symmetry_multiplicity
 _atom_site_fract_x
 _atom_site_fract_y
 _atom_site_fract_z
 _atom_site_occupancy
  Ba  Ba0  1  0.627873  0.380898  0.875290  1
  Ba  Ba1  1  0.373509  0.868598  0.625993  1
  Ba  Ba2  1  0.123772  0.119604  0.128219  1
  Ba  Ba3  1  0.872654  0.628258  0.372484  1
  Ga  Ga4  1  0.159078  0.339682  0.654463  1
  Si  Si5  1  0.658945  0.158471  0.343510  1
  As  As6  1  0.338133  0.662089  0.171945  1
  As  As7  1  0.834896  0.838465  0.830534  1
  Pt  Pt8  1  0.596115  0.916602  0.102709  1
  Pt  Pt9  1  0.092227  0.596682  0.910989  1
  Pt  Pt10  1  0.424829  0.401880  0.405618  1
  Pt  Pt11  1  0.897967  0.088771  0.578245  1
