# generated using pymatgen
data_Ho10In8NiAu3
_symmetry_space_group_name_H-M   'P 1'
_cell_length_a   8.10713953
_cell_length_b   18.19868360
_cell_length_c   3.65875700
_cell_angle_alpha   90.00000000
_cell_angle_beta   90.00000000
_cell_angle_gamma   89.90976202
_symmetry_Int_Tables_number   1
_chemical_formula_structural   Ho10In8NiAu3
_chemical_formula_sum   'Ho10 In8 Ni1 Au3'
_cell_volume   539.80965736
_cell_formula_units_Z   1
loop_
 _symmetry_equiv_pos_site_id
 _symmetry_equiv_pos_as_xyz
  1  'x, y, z'
loop_
 _atom_site_type_symbol
 _atom_site_label
 _atom_site_symmetry_multiplicity
 _atom_site_fract_x
 _atom_site_fract_y
 _atom_site_fract_z
 _atom_site_occupancy
  Ho  Ho0  1  0.500063  0.498077  0.000000  1
  Ho  Ho1  1  0.000393  0.001948  0.000000  1
  Ho  Ho2  1  0.763452  0.282586  0.000000  1
  Ho  Ho3  1  0.258582  0.714939  0.000000  1
  Ho  Ho4  1  0.758581  0.783573  0.000000  1
  Ho  Ho5  1  0.229033  0.223840  0.000000  1
  Ho  Ho6  1  0.620613  0.082884  0.000000  1
  Ho  Ho7  1  0.379047  0.921272  0.000000  1
  Ho  Ho8  1  0.878203  0.578108  0.000000  1
  Ho  Ho9  1  0.114452  0.411061  0.000000  1
  In  In10  1  0.709602  0.935467  0.500000  1
  In  In11  1  0.291041  0.069517  0.500000  1
  In  In12  1  0.793856  0.430065  0.500000  1
  In  In13  1  0.206573  0.561884  0.500000  1
  In  In14  1  0.577289  0.645784  0.500000  1
  In  In15  1  0.421946  0.352449  0.500000  1
  In  In16  1  0.928257  0.151309  0.500000  1
  In  In17  1  0.077265  0.853243  0.500000  1
  Ni  Ni18  1  0.028018  0.303274  0.500000  1
  Au  Au19  1  0.529637  0.199775  0.500000  1
  Au  Au20  1  0.466701  0.802758  0.500000  1
  Au  Au21  1  0.967396  0.696188  0.500000  1
