# generated using pymatgen
data_PmCrGe2Pt
_symmetry_space_group_name_H-M   'P 1'
_cell_length_a   6.14983910
_cell_length_b   6.14983953
_cell_length_c   6.14983832
_cell_angle_alpha   140.48761153
_cell_angle_beta   140.48761119
_cell_angle_gamma   57.11366516
_symmetry_Int_Tables_number   1
_chemical_formula_structural   PmCrGe2Pt
_chemical_formula_sum   'Pm1 Cr1 Ge2 Pt1'
_cell_volume   93.36764754
_cell_formula_units_Z   1
loop_
 _symmetry_equiv_pos_site_id
 _symmetry_equiv_pos_as_xyz
  1  'x, y, z'
loop_
 _atom_site_type_symbol
 _atom_site_label
 _atom_site_symmetry_multiplicity
 _atom_site_fract_x
 _atom_site_fract_y
 _atom_site_fract_z
 _atom_site_occupancy
  Pm  Pm0  1  0.000000  0.000000  0.000000  1
  Cr  Cr1  1  0.750000  0.250000  0.500000  1
  Ge  Ge2  1  0.382651  0.382651  0.000000  1
  Ge  Ge3  1  0.617348  0.617348  0.000000  1
  Pt  Pt4  1  0.250000  0.750000  0.500000  1
