# generated using pymatgen
data_Ce4Th(TcB3)2
_symmetry_space_group_name_H-M   'P 1'
_cell_length_a   5.48437340
_cell_length_b   5.48437369
_cell_length_c   8.62644049
_cell_angle_alpha   71.46513996
_cell_angle_beta   71.46514140
_cell_angle_gamma   59.99999255
_symmetry_Int_Tables_number   1
_chemical_formula_structural   Ce4Th(TcB3)2
_chemical_formula_sum   'Ce4 Th1 Tc2 B6'
_cell_volume   209.02186133
_cell_formula_units_Z   1
loop_
 _symmetry_equiv_pos_site_id
 _symmetry_equiv_pos_as_xyz
  1  'x, y, z'
loop_
 _atom_site_type_symbol
 _atom_site_label
 _atom_site_symmetry_multiplicity
 _atom_site_fract_x
 _atom_site_fract_y
 _atom_site_fract_z
 _atom_site_occupancy
  Ce  Ce0  1  0.748866  0.748866  0.753402  1
  Ce  Ce1  1  0.251134  0.251134  0.246598  1
  Ce  Ce2  1  0.584754  0.584754  0.245736  1
  Ce  Ce3  1  0.415246  0.415246  0.754264  1
  Th  Th4  1  0.000000  0.000000  0.000000  1
  Tc  Tc5  1  0.889494  0.889494  0.331519  1
  Tc  Tc6  1  0.110506  0.110506  0.668482  1
  B  B7  1  0.500000  0.171445  0.500000  1
  B  B8  1  0.828555  0.500000  0.500000  1
  B  B9  1  0.171445  0.828555  0.500000  1
  B  B10  1  0.171445  0.500000  0.500000  1
  B  B11  1  0.828555  0.171445  0.500000  1
  B  B12  1  0.500000  0.828555  0.500000  1
