# generated using pymatgen
data_Y2Al7Zn2Pd3
_symmetry_space_group_name_H-M   'P 1'
_cell_length_a   7.50548200
_cell_length_b   7.53470781
_cell_length_c   9.38149800
_cell_angle_alpha   90.00000000
_cell_angle_beta   90.00000000
_cell_angle_gamma   119.34839941
_symmetry_Int_Tables_number   1
_chemical_formula_structural   Y2Al7Zn2Pd3
_chemical_formula_sum   'Y4 Al14 Zn4 Pd6'
_cell_volume   462.44714342
_cell_formula_units_Z   2
loop_
 _symmetry_equiv_pos_site_id
 _symmetry_equiv_pos_as_xyz
  1  'x, y, z'
loop_
 _atom_site_type_symbol
 _atom_site_label
 _atom_site_symmetry_multiplicity
 _atom_site_fract_x
 _atom_site_fract_y
 _atom_site_fract_z
 _atom_site_occupancy
  Y  Y0  1  0.995315  0.672727  0.250000  1
  Y  Y1  1  0.004685  0.327273  0.750000  1
  Y  Y2  1  0.672317  0.994854  0.250000  1
  Y  Y3  1  0.327683  0.005146  0.750000  1
  Al  Al4  1  0.009040  0.336799  0.081304  1
  Al  Al5  1  0.990960  0.663201  0.918696  1
  Al  Al6  1  0.990960  0.663201  0.581304  1
  Al  Al7  1  0.332784  0.002301  0.420324  1
  Al  Al8  1  0.009040  0.336799  0.418696  1
  Al  Al9  1  0.667216  0.997699  0.579676  1
  Al  Al10  1  0.667216  0.997699  0.920324  1
  Al  Al11  1  0.332784  0.002301  0.079676  1
  Al  Al12  1  0.336522  0.333928  0.554792  1
  Al  Al13  1  0.663478  0.666072  0.445208  1
  Al  Al14  1  0.663478  0.666072  0.054792  1
  Al  Al15  1  0.336522  0.333928  0.945208  1
  Al  Al16  1  0.542715  0.342632  0.250000  1
  Al  Al17  1  0.457285  0.657368  0.750000  1
  Zn  Zn18  1  0.140801  0.140796  0.250000  1
  Zn  Zn19  1  0.859199  0.859204  0.750000  1
  Zn  Zn20  1  0.342445  0.545207  0.250000  1
  Zn  Zn21  1  0.657555  0.454793  0.750000  1
  Pd  Pd22  1  0.674375  0.323950  0.005686  1
  Pd  Pd23  1  0.325625  0.676050  0.994314  1
  Pd  Pd24  1  0.325625  0.676050  0.505686  1
  Pd  Pd25  1  0.674375  0.323950  0.494314  1
  Pd  Pd26  1  0.000000  0.000000  0.000000  1
  Pd  Pd27  1  0.000000  0.000000  0.500000  1
