# generated using pymatgen
data_CaLa3(SnRh2)2
_symmetry_space_group_name_H-M   'P 1'
_cell_length_a   5.88854062
_cell_length_b   5.86339965
_cell_length_c   8.29378543
_cell_angle_alpha   102.70745145
_cell_angle_beta   102.69441007
_cell_angle_gamma   58.22487848
_symmetry_Int_Tables_number   1
_chemical_formula_structural   CaLa3(SnRh2)2
_chemical_formula_sum   'Ca1 La3 Sn2 Rh4'
_cell_volume   235.60485522
_cell_formula_units_Z   1
loop_
 _symmetry_equiv_pos_site_id
 _symmetry_equiv_pos_as_xyz
  1  'x, y, z'
loop_
 _atom_site_type_symbol
 _atom_site_label
 _atom_site_symmetry_multiplicity
 _atom_site_fract_x
 _atom_site_fract_y
 _atom_site_fract_z
 _atom_site_occupancy
  Ca  Ca0  1  0.504486  0.200170  0.849209  1
  La  La1  1  0.489195  0.801832  0.137830  1
  La  La2  1  0.199144  0.512924  0.358115  1
  La  La3  1  0.803583  0.491402  0.653572  1
  Sn  Sn4  1  0.848401  0.152352  0.247623  1
  Sn  Sn5  1  0.139198  0.855912  0.751315  1
  Rh  Rh6  1  0.009356  0.270628  0.006743  1
  Rh  Rh7  1  0.725857  0.996567  0.492382  1
  Rh  Rh8  1  0.268401  0.995203  0.500239  1
  Rh  Rh9  1  0.012380  0.723009  0.002972  1
