# generated using pymatgen
data_YHo15MgHg3Pd4
_symmetry_space_group_name_H-M   'P 1'
_cell_length_a   9.64643537
_cell_length_b   9.64471160
_cell_length_c   9.67372100
_cell_angle_alpha   59.90045609
_cell_angle_beta   59.90639086
_cell_angle_gamma   59.98535709
_symmetry_Int_Tables_number   1
_chemical_formula_structural   YHo15MgHg3Pd4
_chemical_formula_sum   'Y1 Ho15 Mg1 Hg3 Pd4'
_cell_volume   635.40585365
_cell_formula_units_Z   1
loop_
 _symmetry_equiv_pos_site_id
 _symmetry_equiv_pos_as_xyz
  1  'x, y, z'
loop_
 _atom_site_type_symbol
 _atom_site_label
 _atom_site_symmetry_multiplicity
 _atom_site_fract_x
 _atom_site_fract_y
 _atom_site_fract_z
 _atom_site_occupancy
  Y  Y0  1  0.935408  0.934864  0.564865  1
  Ho  Ho1  1  0.355458  0.353201  0.350793  1
  Ho  Ho2  1  0.355458  0.353201  0.940548  1
  Ho  Ho3  1  0.358659  0.935292  0.353025  1
  Ho  Ho4  1  0.922917  0.361147  0.357968  1
  Ho  Ho5  1  0.809685  0.190401  0.190199  1
  Ho  Ho6  1  0.186480  0.812566  0.812173  1
  Ho  Ho7  1  0.186480  0.812566  0.188780  1
  Ho  Ho8  1  0.809685  0.190401  0.809716  1
  Ho  Ho9  1  0.187460  0.189446  0.811547  1
  Ho  Ho10  1  0.809965  0.810717  0.189659  1
  Ho  Ho11  1  0.933880  0.565018  0.566051  1
  Ho  Ho12  1  0.563941  0.935027  0.934955  1
  Ho  Ho13  1  0.563941  0.935027  0.566077  1
  Ho  Ho14  1  0.933880  0.565018  0.935052  1
  Ho  Ho15  1  0.565703  0.566132  0.934083  1
  Mg  Mg16  1  0.279875  0.572232  0.573945  1
  Hg  Hg17  1  0.582530  0.588566  0.589887  1
  Hg  Hg18  1  0.582530  0.588566  0.239016  1
  Hg  Hg19  1  0.581577  0.239006  0.589708  1
  Pd  Pd20  1  0.142788  0.146317  0.147216  1
  Pd  Pd21  1  0.142788  0.146317  0.563679  1
  Pd  Pd22  1  0.142509  0.564616  0.146437  1
  Pd  Pd23  1  0.566401  0.144357  0.144621  1
