# generated using pymatgen
data_Eu4Ag3RhPb4
_symmetry_space_group_name_H-M   'P 1'
_cell_length_a   7.79307315
_cell_length_b   4.93216400
_cell_length_c   8.58500215
_cell_angle_alpha   90.00000000
_cell_angle_beta   89.31024953
_cell_angle_gamma   90.00000000
_symmetry_Int_Tables_number   1
_chemical_formula_structural   Eu4Ag3RhPb4
_chemical_formula_sum   'Eu4 Ag3 Rh1 Pb4'
_cell_volume   329.95536918
_cell_formula_units_Z   1
loop_
 _symmetry_equiv_pos_site_id
 _symmetry_equiv_pos_as_xyz
  1  'x, y, z'
loop_
 _atom_site_type_symbol
 _atom_site_label
 _atom_site_symmetry_multiplicity
 _atom_site_fract_x
 _atom_site_fract_y
 _atom_site_fract_z
 _atom_site_occupancy
  Eu  Eu0  1  0.516497  0.249999  0.194006  1
  Eu  Eu1  1  0.002230  0.249999  0.291016  1
  Eu  Eu2  1  0.989655  0.750000  0.711175  1
  Eu  Eu3  1  0.498225  0.750000  0.793565  1
  Ag  Ag4  1  0.214750  0.750000  0.091212  1
  Ag  Ag5  1  0.707068  0.750000  0.409776  1
  Ag  Ag6  1  0.289838  0.249999  0.592205  1
  Rh  Rh7  1  0.788099  0.249999  0.913423  1
  Pb  Pb8  1  0.806632  0.750000  0.072258  1
  Pb  Pb9  1  0.311665  0.750000  0.416303  1
  Pb  Pb10  1  0.702769  0.249999  0.595788  1
  Pb  Pb11  1  0.172573  0.249999  0.919272  1
