# generated using pymatgen
data_TbYbTm2(B6Os)2
_symmetry_space_group_name_H-M   'P 1'
_cell_length_a   3.62896900
_cell_length_b   9.11850308
_cell_length_c   11.51545301
_cell_angle_alpha   89.85830022
_cell_angle_beta   90.00000000
_cell_angle_gamma   90.00000000
_symmetry_Int_Tables_number   1
_chemical_formula_structural   TbYbTm2(B6Os)2
_chemical_formula_sum   'Tb2 Yb2 Tm4 B24 Os4'
_cell_volume   381.05398386
_cell_formula_units_Z   2
loop_
 _symmetry_equiv_pos_site_id
 _symmetry_equiv_pos_as_xyz
  1  'x, y, z'
loop_
 _atom_site_type_symbol
 _atom_site_label
 _atom_site_symmetry_multiplicity
 _atom_site_fract_x
 _atom_site_fract_y
 _atom_site_fract_z
 _atom_site_occupancy
  Tb  Tb0  1  0.000000  0.821692  0.086401  1
  Tb  Tb1  1  0.000000  0.178308  0.913599  1
  Yb  Yb2  1  0.000000  0.324262  0.414597  1
  Yb  Yb3  1  0.000000  0.675738  0.585403  1
  Tm  Tm4  1  0.000000  0.942220  0.370830  1
  Tm  Tm5  1  0.000000  0.057780  0.629171  1
  Tm  Tm6  1  0.000000  0.443107  0.130275  1
  Tm  Tm7  1  0.000000  0.556893  0.869724  1
  B  B8  1  0.500000  0.553881  0.432553  1
  B  B9  1  0.500000  0.446119  0.567447  1
  B  B10  1  0.500000  0.054029  0.067416  1
  B  B11  1  0.500000  0.945971  0.932584  1
  B  B12  1  0.500000  0.748557  0.418155  1
  B  B13  1  0.500000  0.251443  0.581845  1
  B  B14  1  0.500000  0.249229  0.081955  1
  B  B15  1  0.500000  0.750771  0.918045  1
  B  B16  1  0.500000  0.791192  0.265319  1
  B  B17  1  0.500000  0.208808  0.734681  1
  B  B18  1  0.500000  0.290901  0.234745  1
  B  B19  1  0.500000  0.709098  0.765255  1
  B  B20  1  0.500000  0.630536  0.185412  1
  B  B21  1  0.500000  0.369464  0.814588  1
  B  B22  1  0.500000  0.130585  0.314647  1
  B  B23  1  0.500000  0.869415  0.685353  1
  B  B24  1  0.500000  0.983032  0.212569  1
  B  B25  1  0.500000  0.016968  0.787431  1
  B  B26  1  0.500000  0.483125  0.287979  1
  B  B27  1  0.500000  0.516875  0.712021  1
  B  B28  1  0.500000  0.601527  0.027929  1
  B  B29  1  0.500000  0.398473  0.972071  1
  B  B30  1  0.500000  0.098802  0.472715  1
  B  B31  1  0.500000  0.901198  0.527285  1
  Os  Os32  1  0.000000  0.639537  0.319061  1
  Os  Os33  1  0.000000  0.360463  0.680939  1
  Os  Os34  1  0.000000  0.137627  0.179002  1
  Os  Os35  1  0.000000  0.862373  0.820998  1
