# generated using pymatgen
data_Y6Tm2Os3WC8
_symmetry_space_group_name_H-M   'P 1'
_cell_length_a   5.10189100
_cell_length_b   6.55025547
_cell_length_c   9.80602203
_cell_angle_alpha   89.70304258
_cell_angle_beta   90.00000000
_cell_angle_gamma   90.00000000
_symmetry_Int_Tables_number   1
_chemical_formula_structural   Y6Tm2Os3WC8
_chemical_formula_sum   'Y6 Tm2 Os3 W1 C8'
_cell_volume   327.70000302
_cell_formula_units_Z   1
loop_
 _symmetry_equiv_pos_site_id
 _symmetry_equiv_pos_as_xyz
  1  'x, y, z'
loop_
 _atom_site_type_symbol
 _atom_site_label
 _atom_site_symmetry_multiplicity
 _atom_site_fract_x
 _atom_site_fract_y
 _atom_site_fract_z
 _atom_site_occupancy
  Y  Y0  1  0.250000  0.679554  0.553875  1
  Y  Y1  1  0.250000  0.181011  0.944520  1
  Y  Y2  1  0.250000  0.532041  0.212267  1
  Y  Y3  1  0.750000  0.466081  0.780947  1
  Y  Y4  1  0.750000  0.969771  0.715549  1
  Y  Y5  1  0.250000  0.030294  0.286727  1
  Tm  Tm6  1  0.750000  0.325119  0.443241  1
  Tm  Tm7  1  0.750000  0.826142  0.056688  1
  Os  Os8  1  0.750000  0.277714  0.136432  1
  Os  Os9  1  0.750000  0.776564  0.362902  1
  Os  Os10  1  0.250000  0.224121  0.632097  1
  W  W11  1  0.250000  0.721532  0.868012  1
  C  C12  1  0.250000  0.453370  0.759662  1
  C  C13  1  0.750000  0.542686  0.241281  1
  C  C14  1  0.750000  0.043776  0.260059  1
  C  C15  1  0.250000  0.957972  0.739969  1
  C  C16  1  0.250000  0.825165  0.057242  1
  C  C17  1  0.750000  0.172142  0.952311  1
  C  C18  1  0.750000  0.670943  0.548570  1
  C  C19  1  0.250000  0.324002  0.447649  1
