# generated using pymatgen
data_DyHo2Lu17Bi12
_symmetry_space_group_name_H-M   'P 1'
_cell_length_a   8.14516326
_cell_length_b   9.39327300
_cell_length_c   11.80475600
_cell_angle_alpha   90.00000000
_cell_angle_beta   90.03186552
_cell_angle_gamma   90.00000000
_symmetry_Int_Tables_number   1
_chemical_formula_structural   DyHo2Lu17Bi12
_chemical_formula_sum   'Dy1 Ho2 Lu17 Bi12'
_cell_volume   903.17869776
_cell_formula_units_Z   1
loop_
 _symmetry_equiv_pos_site_id
 _symmetry_equiv_pos_as_xyz
  1  'x, y, z'
loop_
 _atom_site_type_symbol
 _atom_site_label
 _atom_site_symmetry_multiplicity
 _atom_site_fract_x
 _atom_site_fract_y
 _atom_site_fract_z
 _atom_site_occupancy
  Dy  Dy0  1  0.186896  0.750000  0.717212  1
  Ho  Ho1  1  0.812763  0.250000  0.282942  1
  Ho  Ho2  1  0.687010  0.750000  0.782731  1
  Lu  Lu3  1  0.352567  0.750000  0.218222  1
  Lu  Lu4  1  0.852448  0.750000  0.281784  1
  Lu  Lu5  1  0.647354  0.250000  0.781998  1
  Lu  Lu6  1  0.147748  0.250000  0.718222  1
  Lu  Lu7  1  0.692107  0.567376  0.059414  1
  Lu  Lu8  1  0.191704  0.932617  0.440515  1
  Lu  Lu9  1  0.308037  0.067331  0.940818  1
  Lu  Lu10  1  0.808315  0.432726  0.559295  1
  Lu  Lu11  1  0.308037  0.432669  0.940818  1
  Lu  Lu12  1  0.808315  0.067274  0.559295  1
  Lu  Lu13  1  0.692107  0.932624  0.059414  1
  Lu  Lu14  1  0.191704  0.567383  0.440515  1
  Lu  Lu15  1  0.477544  0.250000  0.489110  1
  Lu  Lu16  1  0.977917  0.250000  0.010839  1
  Lu  Lu17  1  0.522191  0.750000  0.510370  1
  Lu  Lu18  1  0.022414  0.750000  0.989709  1
  Lu  Lu19  1  0.312520  0.250000  0.216469  1
  Bi  Bi20  1  0.402431  0.750000  0.958417  1
  Bi  Bi21  1  0.901896  0.750000  0.541535  1
  Bi  Bi22  1  0.596953  0.250000  0.042603  1
  Bi  Bi23  1  0.098499  0.250000  0.457945  1
  Bi  Bi24  1  0.564498  0.995522  0.324972  1
  Bi  Bi25  1  0.066457  0.504350  0.174665  1
  Bi  Bi26  1  0.434876  0.494883  0.674631  1
  Bi  Bi27  1  0.934433  0.005159  0.825636  1
  Bi  Bi28  1  0.434876  0.005117  0.674631  1
  Bi  Bi29  1  0.934433  0.494841  0.825636  1
  Bi  Bi30  1  0.564498  0.504478  0.324972  1
  Bi  Bi31  1  0.066457  0.995650  0.174665  1
