# generated using pymatgen
data_NdTaNb5Cl18
_symmetry_space_group_name_H-M   'P 1'
_cell_length_a   10.28019997
_cell_length_b   10.28021118
_cell_length_c   10.28138853
_cell_angle_alpha   55.89314215
_cell_angle_beta   55.89496962
_cell_angle_gamma   55.90086816
_symmetry_Int_Tables_number   1
_chemical_formula_structural   NdTaNb5Cl18
_chemical_formula_sum   'Nd1 Ta1 Nb5 Cl18'
_cell_volume   695.23888972
_cell_formula_units_Z   1
loop_
 _symmetry_equiv_pos_site_id
 _symmetry_equiv_pos_as_xyz
  1  'x, y, z'
loop_
 _atom_site_type_symbol
 _atom_site_label
 _atom_site_symmetry_multiplicity
 _atom_site_fract_x
 _atom_site_fract_y
 _atom_site_fract_z
 _atom_site_occupancy
  Nd  Nd0  1  0.999453  0.999571  0.000333  1
  Ta  Ta1  1  0.410289  0.301308  0.648312  1
  Nb  Nb2  1  0.351557  0.590150  0.698846  1
  Nb  Nb3  1  0.699255  0.351695  0.589641  1
  Nb  Nb4  1  0.301091  0.648832  0.409931  1
  Nb  Nb5  1  0.648795  0.410375  0.300713  1
  Nb  Nb6  1  0.590292  0.699659  0.350905  1
  Cl  Cl7  1  0.566770  0.164804  0.443930  1
  Cl  Cl8  1  0.227097  0.368994  0.903290  1
  Cl  Cl9  1  0.904857  0.225885  0.370841  1
  Cl  Cl10  1  0.370867  0.904926  0.226074  1
  Cl  Cl11  1  0.774078  0.629349  0.095010  1
  Cl  Cl12  1  0.095040  0.773751  0.629412  1
  Cl  Cl13  1  0.696296  0.957118  0.163752  1
  Cl  Cl14  1  0.956086  0.163511  0.696790  1
  Cl  Cl15  1  0.164287  0.696002  0.956430  1
  Cl  Cl16  1  0.304552  0.047369  0.833532  1
  Cl  Cl17  1  0.043862  0.835285  0.303711  1
  Cl  Cl18  1  0.835810  0.302832  0.044258  1
  Cl  Cl19  1  0.558763  0.431107  0.835367  1
  Cl  Cl20  1  0.166473  0.438566  0.570479  1
  Cl  Cl21  1  0.441158  0.568581  0.164809  1
  Cl  Cl22  1  0.431303  0.835392  0.558739  1
  Cl  Cl23  1  0.835392  0.558993  0.431111  1
  Cl  Cl24  1  0.626579  0.095944  0.773784  1
