# generated using pymatgen
data_Ca6Si2HN
_symmetry_space_group_name_H-M   'P 1'
_cell_length_a   6.77096191
_cell_length_b   6.77096245
_cell_length_c   6.77096200
_cell_angle_alpha   60.00000219
_cell_angle_beta   59.99999958
_cell_angle_gamma   60.00000515
_symmetry_Int_Tables_number   1
_chemical_formula_structural   Ca6Si2HN
_chemical_formula_sum   'Ca6 Si2 H1 N1'
_cell_volume   219.50083534
_cell_formula_units_Z   1
loop_
 _symmetry_equiv_pos_site_id
 _symmetry_equiv_pos_as_xyz
  1  'x, y, z'
loop_
 _atom_site_type_symbol
 _atom_site_label
 _atom_site_symmetry_multiplicity
 _atom_site_fract_x
 _atom_site_fract_y
 _atom_site_fract_z
 _atom_site_occupancy
  Ca  Ca0  1  0.257137  0.742863  0.742863  1
  Ca  Ca1  1  0.257137  0.742863  0.257137  1
  Ca  Ca2  1  0.742863  0.257137  0.742863  1
  Ca  Ca3  1  0.742863  0.742863  0.257137  1
  Ca  Ca4  1  0.257137  0.257137  0.742863  1
  Ca  Ca5  1  0.742863  0.257137  0.257137  1
  Si  Si6  1  0.250000  0.250000  0.250000  1
  Si  Si7  1  0.750000  0.750000  0.750000  1
  H  H8  1  0.000000  0.000000  0.000000  1
  N  N9  1  0.500000  0.500000  0.500000  1
