# generated using pymatgen
data_TmHfBRh6
_symmetry_space_group_name_H-M   'P 1'
_cell_length_a   5.73997237
_cell_length_b   5.73997234
_cell_length_c   5.73997200
_cell_angle_alpha   60.00000198
_cell_angle_beta   60.00000215
_cell_angle_gamma   60.00000459
_symmetry_Int_Tables_number   1
_chemical_formula_structural   TmHfBRh6
_chemical_formula_sum   'Tm1 Hf1 B1 Rh6'
_cell_volume   133.72555427
_cell_formula_units_Z   1
loop_
 _symmetry_equiv_pos_site_id
 _symmetry_equiv_pos_as_xyz
  1  'x, y, z'
loop_
 _atom_site_type_symbol
 _atom_site_label
 _atom_site_symmetry_multiplicity
 _atom_site_fract_x
 _atom_site_fract_y
 _atom_site_fract_z
 _atom_site_occupancy
  Tm  Tm0  1  0.250001  0.250001  0.250001  1
  Hf  Hf1  1  0.750000  0.750000  0.750000  1
  B  B2  1  0.500000  0.500000  0.500000  1
  Rh  Rh3  1  0.757332  0.242668  0.242668  1
  Rh  Rh4  1  0.242668  0.757332  0.242668  1
  Rh  Rh5  1  0.757332  0.757332  0.242668  1
  Rh  Rh6  1  0.242668  0.242668  0.757332  1
  Rh  Rh7  1  0.757332  0.242668  0.757332  1
  Rh  Rh8  1  0.242668  0.757332  0.757332  1
