# generated using pymatgen
data_LaTh2Sn3Ir2Ru
_symmetry_space_group_name_H-M   'P 1'
_cell_length_a   7.54573000
_cell_length_b   7.59603664
_cell_length_c   4.16045400
_cell_angle_alpha   90.00000000
_cell_angle_beta   90.00000000
_cell_angle_gamma   119.78116199
_symmetry_Int_Tables_number   1
_chemical_formula_structural   LaTh2Sn3Ir2Ru
_chemical_formula_sum   'La1 Th2 Sn3 Ir2 Ru1'
_cell_volume   206.97273501
_cell_formula_units_Z   1
loop_
 _symmetry_equiv_pos_site_id
 _symmetry_equiv_pos_as_xyz
  1  'x, y, z'
loop_
 _atom_site_type_symbol
 _atom_site_label
 _atom_site_symmetry_multiplicity
 _atom_site_fract_x
 _atom_site_fract_y
 _atom_site_fract_z
 _atom_site_occupancy
  La  La0  1  0.586259  0.000000  0.000000  1
  Th  Th1  1  0.998522  0.586415  0.000000  1
  Th  Th2  1  0.412108  0.413585  0.000000  1
  Sn  Sn3  1  0.753213  0.760072  0.500000  1
  Sn  Sn4  1  0.993140  0.239928  0.500000  1
  Sn  Sn5  1  0.253458  0.000000  0.500000  1
  Ir  Ir6  1  0.317289  0.646928  0.500000  1
  Ir  Ir7  1  0.670362  0.353072  0.500000  1
  Ru  Ru8  1  0.015651  0.000000  0.000000  1
