# generated using pymatgen
data_Ac6Si7I3
_symmetry_space_group_name_H-M   'P 1'
_cell_length_a   4.31957600
_cell_length_b   12.72720300
_cell_length_c   17.81634200
_cell_angle_alpha   90.00000000
_cell_angle_beta   90.00000000
_cell_angle_gamma   90.00000000
_symmetry_Int_Tables_number   1
_chemical_formula_structural   Ac6Si7I3
_chemical_formula_sum   'Ac12 Si14 I6'
_cell_volume   979.47336690
_cell_formula_units_Z   2
loop_
 _symmetry_equiv_pos_site_id
 _symmetry_equiv_pos_as_xyz
  1  'x, y, z'
loop_
 _atom_site_type_symbol
 _atom_site_label
 _atom_site_symmetry_multiplicity
 _atom_site_fract_x
 _atom_site_fract_y
 _atom_site_fract_z
 _atom_site_occupancy
  Ac  Ac0  1  0.500000  0.355456  0.500000  1
  Ac  Ac1  1  0.000000  0.644544  0.000000  1
  Ac  Ac2  1  0.500000  0.365150  0.756527  1
  Ac  Ac3  1  0.000000  0.634850  0.743473  1
  Ac  Ac4  1  0.500000  0.365150  0.243473  1
  Ac  Ac5  1  0.000000  0.634850  0.256527  1
  Ac  Ac6  1  0.500000  0.078804  0.883069  1
  Ac  Ac7  1  0.000000  0.921196  0.616931  1
  Ac  Ac8  1  0.500000  0.078804  0.116931  1
  Ac  Ac9  1  0.000000  0.921196  0.383069  1
  Ac  Ac10  1  0.500000  0.362435  0.000000  1
  Ac  Ac11  1  0.000000  0.637565  0.500000  1
  Si  Si12  1  0.000000  0.166621  0.000000  1
  Si  Si13  1  0.500000  0.833379  0.500000  1
  Si  Si14  1  0.500000  0.557127  0.877799  1
  Si  Si15  1  0.000000  0.442873  0.622201  1
  Si  Si16  1  0.500000  0.557127  0.122201  1
  Si  Si17  1  0.000000  0.442873  0.377799  1
  Si  Si18  1  0.000000  0.263680  0.878816  1
  Si  Si19  1  0.500000  0.736320  0.621184  1
  Si  Si20  1  0.000000  0.263680  0.121184  1
  Si  Si21  1  0.500000  0.736320  0.378816  1
  Si  Si22  1  0.000000  0.457410  0.875656  1
  Si  Si23  1  0.500000  0.542590  0.624344  1
  Si  Si24  1  0.500000  0.542590  0.375656  1
  Si  Si25  1  0.000000  0.457410  0.124344  1
  I  I26  1  0.500000  0.111257  0.690431  1
  I  I27  1  0.000000  0.888743  0.809569  1
  I  I28  1  0.000000  0.138563  0.500000  1
  I  I29  1  0.500000  0.861437  0.000000  1
  I  I30  1  0.500000  0.111257  0.309569  1
  I  I31  1  0.000000  0.888743  0.190431  1
