# generated using pymatgen
data_Y7Tm9Cd2(InPd2)2
_symmetry_space_group_name_H-M   'P 1'
_cell_length_a   9.75488899
_cell_length_b   9.75488956
_cell_length_c   9.77777300
_cell_angle_alpha   59.92236636
_cell_angle_beta   59.92236441
_cell_angle_gamma   59.99547479
_symmetry_Int_Tables_number   1
_chemical_formula_structural   Y7Tm9Cd2(InPd2)2
_chemical_formula_sum   'Y7 Tm9 Cd2 In2 Pd4'
_cell_volume   657.11926803
_cell_formula_units_Z   1
loop_
 _symmetry_equiv_pos_site_id
 _symmetry_equiv_pos_as_xyz
  1  'x, y, z'
loop_
 _atom_site_type_symbol
 _atom_site_label
 _atom_site_symmetry_multiplicity
 _atom_site_fract_x
 _atom_site_fract_y
 _atom_site_fract_z
 _atom_site_occupancy
  Y  Y0  1  0.810765  0.810765  0.189235  1
  Y  Y1  1  0.938205  0.563666  0.563953  1
  Y  Y2  1  0.563666  0.938205  0.934175  1
  Y  Y3  1  0.563666  0.938205  0.563953  1
  Y  Y4  1  0.938205  0.563666  0.934175  1
  Y  Y5  1  0.563875  0.563875  0.936125  1
  Y  Y6  1  0.936315  0.936315  0.563685  1
  Tm  Tm7  1  0.351956  0.351956  0.352837  1
  Tm  Tm8  1  0.351956  0.351956  0.943251  1
  Tm  Tm9  1  0.351015  0.944177  0.352404  1
  Tm  Tm10  1  0.944177  0.351015  0.352404  1
  Tm  Tm11  1  0.812333  0.188161  0.186888  1
  Tm  Tm12  1  0.188161  0.812333  0.812618  1
  Tm  Tm13  1  0.188161  0.812333  0.186888  1
  Tm  Tm14  1  0.812333  0.188161  0.812618  1
  Tm  Tm15  1  0.185720  0.185720  0.814280  1
  Cd  Cd16  1  0.581855  0.250657  0.583744  1
  Cd  Cd17  1  0.250657  0.581855  0.583744  1
  In  In18  1  0.582651  0.582651  0.584492  1
  In  In19  1  0.582651  0.582651  0.250207  1
  Pd  Pd20  1  0.143619  0.143619  0.143758  1
  Pd  Pd21  1  0.143619  0.143619  0.569003  1
  Pd  Pd22  1  0.149818  0.564619  0.142780  1
  Pd  Pd23  1  0.564619  0.149818  0.142780  1
