# generated using pymatgen
data_SrLi2(P3Pd10)2
_symmetry_space_group_name_H-M   'P 1'
_cell_length_a   8.61812819
_cell_length_b   8.61812818
_cell_length_c   8.61812800
_cell_angle_alpha   60.00000068
_cell_angle_beta   60.00000073
_cell_angle_gamma   59.99999600
_symmetry_Int_Tables_number   1
_chemical_formula_structural   SrLi2(P3Pd10)2
_chemical_formula_sum   'Sr1 Li2 P6 Pd20'
_cell_volume   452.60967419
_cell_formula_units_Z   1
loop_
 _symmetry_equiv_pos_site_id
 _symmetry_equiv_pos_as_xyz
  1  'x, y, z'
loop_
 _atom_site_type_symbol
 _atom_site_label
 _atom_site_symmetry_multiplicity
 _atom_site_fract_x
 _atom_site_fract_y
 _atom_site_fract_z
 _atom_site_occupancy
  Sr  Sr0  1  0.250000  0.250000  0.250000  1
  Li  Li1  1  0.000000  0.000000  0.000000  1
  Li  Li2  1  0.750000  0.750000  0.750000  1
  P  P3  1  0.738033  0.261967  0.261967  1
  P  P4  1  0.738033  0.738033  0.261967  1
  P  P5  1  0.738033  0.261967  0.738033  1
  P  P6  1  0.261967  0.738033  0.261967  1
  P  P7  1  0.261967  0.738033  0.738033  1
  P  P8  1  0.261967  0.261967  0.738033  1
  Pd  Pd9  1  0.345192  0.998211  0.998211  1
  Pd  Pd10  1  0.998211  0.658385  0.345192  1
  Pd  Pd11  1  0.345192  0.998211  0.658385  1
  Pd  Pd12  1  0.998211  0.658385  0.998211  1
  Pd  Pd13  1  0.658385  0.345192  0.998211  1
  Pd  Pd14  1  0.620450  0.620450  0.138648  1
  Pd  Pd15  1  0.391064  0.826809  0.391064  1
  Pd  Pd16  1  0.138648  0.620450  0.620450  1
  Pd  Pd17  1  0.658385  0.998211  0.345192  1
  Pd  Pd18  1  0.998211  0.345192  0.658385  1
  Pd  Pd19  1  0.658385  0.998211  0.998211  1
  Pd  Pd20  1  0.998211  0.998211  0.345192  1
  Pd  Pd21  1  0.620450  0.138648  0.620450  1
  Pd  Pd22  1  0.345192  0.658385  0.998211  1
  Pd  Pd23  1  0.391064  0.391064  0.391064  1
  Pd  Pd24  1  0.620450  0.620450  0.620450  1
  Pd  Pd25  1  0.391064  0.391064  0.826809  1
  Pd  Pd26  1  0.998211  0.998211  0.658385  1
  Pd  Pd27  1  0.826809  0.391064  0.391064  1
  Pd  Pd28  1  0.998211  0.345192  0.998211  1
