# generated using pymatgen
data_LiYb4OsC8
_symmetry_space_group_name_H-M   'P 1'
_cell_length_a   6.81596497
_cell_length_b   6.81596491
_cell_length_c   6.81596295
_cell_angle_alpha   134.35709356
_cell_angle_beta   108.59402633
_cell_angle_gamma   88.96927228
_symmetry_Int_Tables_number   1
_chemical_formula_structural   LiYb4OsC8
_chemical_formula_sum   'Li1 Yb4 Os1 C8'
_cell_volume   204.53951560
_cell_formula_units_Z   1
loop_
 _symmetry_equiv_pos_site_id
 _symmetry_equiv_pos_as_xyz
  1  'x, y, z'
loop_
 _atom_site_type_symbol
 _atom_site_label
 _atom_site_symmetry_multiplicity
 _atom_site_fract_x
 _atom_site_fract_y
 _atom_site_fract_z
 _atom_site_occupancy
  Li  Li0  1  0.000000  0.250000  0.250000  1
  Yb  Yb1  1  0.201449  0.342566  0.845524  1
  Yb  Yb2  1  0.798551  0.644075  0.141118  1
  Yb  Yb3  1  0.497041  0.855925  0.654476  1
  Yb  Yb4  1  0.502959  0.157434  0.358882  1
  Os  Os5  1  0.000000  0.750000  0.750000  1
  C  C6  1  0.791364  0.136780  0.675024  1
  C  C7  1  0.208636  0.883659  0.345416  1
  C  C8  1  0.461755  0.616341  0.824976  1
  C  C9  1  0.538245  0.363220  0.154584  1
  C  C10  1  0.886895  0.022998  0.755609  1
  C  C11  1  0.113105  0.868714  0.136103  1
  C  C12  1  0.267389  0.631286  0.744391  1
  C  C13  1  0.732611  0.477002  0.363897  1
