# generated using pymatgen
data_Rb8Sc3Ti4Fe(PO4)12
_symmetry_space_group_name_H-M   'P 1'
_cell_length_a   10.05200900
_cell_length_b   10.05200900
_cell_length_c   10.05200900
_cell_angle_alpha   90.00000000
_cell_angle_beta   90.00000000
_cell_angle_gamma   90.00000000
_symmetry_Int_Tables_number   1
_chemical_formula_structural   Rb8Sc3Ti4Fe(PO4)12
_chemical_formula_sum   'Rb8 Sc3 Ti4 Fe1 P12 O48'
_cell_volume   1015.68398876
_cell_formula_units_Z   1
loop_
 _symmetry_equiv_pos_site_id
 _symmetry_equiv_pos_as_xyz
  1  'x, y, z'
loop_
 _atom_site_type_symbol
 _atom_site_label
 _atom_site_symmetry_multiplicity
 _atom_site_fract_x
 _atom_site_fract_y
 _atom_site_fract_z
 _atom_site_occupancy
  Rb  Rb0  1  0.071810  0.072195  0.070526  1
  Rb  Rb1  1  0.209945  0.709945  0.790055  1
  Rb  Rb2  1  0.290160  0.290105  0.290307  1
  Rb  Rb3  1  0.428318  0.928318  0.571682  1
  Rb  Rb4  1  0.572195  0.429474  0.928190  1
  Rb  Rb5  1  0.709693  0.790160  0.209895  1
  Rb  Rb6  1  0.790105  0.209693  0.709840  1
  Rb  Rb7  1  0.929474  0.571810  0.427805  1
  Sc  Sc8  1  0.084510  0.915414  0.413473  1
  Sc  Sc9  1  0.415414  0.086527  0.915490  1
  Sc  Sc10  1  0.586527  0.584510  0.584586  1
  Ti  Ti11  1  0.141320  0.357602  0.642268  1
  Ti  Ti12  1  0.357732  0.641320  0.142398  1
  Ti  Ti13  1  0.642858  0.142858  0.357142  1
  Ti  Ti14  1  0.857602  0.857732  0.858680  1
  Fe  Fe15  1  0.914675  0.414675  0.085325  1
  P  P16  1  0.044048  0.726779  0.122209  1
  P  P17  1  0.122072  0.045554  0.730729  1
  P  P18  1  0.226779  0.377791  0.955952  1
  P  P19  1  0.269271  0.622072  0.454446  1
  P  P20  1  0.378277  0.953628  0.231303  1
  P  P21  1  0.453628  0.268697  0.621723  1
  P  P22  1  0.545554  0.769271  0.877928  1
  P  P23  1  0.625583  0.453786  0.265898  1
  P  P24  1  0.734102  0.125583  0.046214  1
  P  P25  1  0.768697  0.878277  0.546372  1
  P  P26  1  0.877791  0.544048  0.773221  1
  P  P27  1  0.953786  0.234102  0.374417  1
  O  O28  1  0.999205  0.583833  0.145555  1
  O  O29  1  0.005987  0.964221  0.794525  1
  O  O30  1  0.016183  0.810371  0.246933  1
  O  O31  1  0.034889  0.296974  0.491367  1
  O  O32  1  0.083833  0.354445  0.000795  1
  O  O33  1  0.081520  0.195150  0.736547  1
  O  O34  1  0.146670  0.000951  0.588256  1
  O  O35  1  0.194039  0.734733  0.083277  1
  O  O36  1  0.184243  0.745572  0.481753  1
  O  O37  1  0.205475  0.505987  0.535779  1
  O  O38  1  0.234733  0.416723  0.805961  1
  O  O39  1  0.254900  0.982683  0.315980  1
  O  O40  1  0.245572  0.018247  0.815757  1
  O  O41  1  0.263453  0.581520  0.304850  1
  O  O42  1  0.293309  0.493025  0.036206  1
  O  O43  1  0.310371  0.253067  0.983817  1
  O  O44  1  0.303559  0.261888  0.583586  1
  O  O45  1  0.354037  0.998266  0.088819  1
  O  O46  1  0.416414  0.803559  0.238112  1
  O  O47  1  0.411744  0.646670  0.499049  1
  O  O48  1  0.464221  0.705475  0.994013  1
  O  O49  1  0.482683  0.184020  0.745100  1
  O  O50  1  0.495468  0.033631  0.294422  1
  O  O51  1  0.498266  0.411181  0.645963  1
  O  O52  1  0.500951  0.911744  0.853330  1
  O  O53  1  0.508633  0.534889  0.203026  1
  O  O54  1  0.518247  0.684243  0.754428  1
  O  O55  1  0.533631  0.205578  0.504532  1
  O  O56  1  0.591872  0.150754  0.000060  1
  O  O57  1  0.584258  0.304343  0.260988  1
  O  O58  1  0.650754  0.499940  0.408128  1
  O  O59  1  0.695150  0.763453  0.918480  1
  O  O60  1  0.684020  0.754900  0.517317  1
  O  O61  1  0.705578  0.995468  0.466369  1
  O  O62  1  0.739012  0.084258  0.195657  1
  O  O63  1  0.753067  0.516183  0.689629  1
  O  O64  1  0.748577  0.480423  0.179187  1
  O  O65  1  0.761888  0.916414  0.696441  1
  O  O66  1  0.796974  0.008633  0.965111  1
  O  O67  1  0.820813  0.248577  0.019577  1
  O  O68  1  0.804343  0.239012  0.415742  1
  O  O69  1  0.854445  0.499205  0.916167  1
  O  O70  1  0.916723  0.694039  0.765267  1
  O  O71  1  0.911181  0.854037  0.501734  1
  O  O72  1  0.963794  0.793309  0.006975  1
  O  O73  1  0.980423  0.320813  0.251423  1
  O  O74  1  0.993025  0.463794  0.706691  1
  O  O75  1  0.999940  0.091872  0.349246  1
