# generated using pymatgen
data_Y3Sn3HgIrRh
_symmetry_space_group_name_H-M   'P 1'
_cell_length_a   7.70735700
_cell_length_b   7.70735679
_cell_length_c   3.93125300
_cell_angle_alpha   90.00000000
_cell_angle_beta   90.00000000
_cell_angle_gamma   119.99999663
_symmetry_Int_Tables_number   1
_chemical_formula_structural   Y3Sn3HgIrRh
_chemical_formula_sum   'Y3 Sn3 Hg1 Ir1 Rh1'
_cell_volume   202.24257214
_cell_formula_units_Z   1
loop_
 _symmetry_equiv_pos_site_id
 _symmetry_equiv_pos_as_xyz
  1  'x, y, z'
loop_
 _atom_site_type_symbol
 _atom_site_label
 _atom_site_symmetry_multiplicity
 _atom_site_fract_x
 _atom_site_fract_y
 _atom_site_fract_z
 _atom_site_occupancy
  Y  Y0  1  0.411864  0.020207  0.500000  1
  Y  Y1  1  0.979793  0.391657  0.500000  1
  Y  Y2  1  0.608343  0.588136  0.500000  1
  Sn  Sn3  1  0.751771  0.008973  0.000000  1
  Sn  Sn4  1  0.991027  0.742798  0.000000  1
  Sn  Sn5  1  0.257202  0.248229  0.000000  1
  Hg  Hg6  1  0.333333  0.666667  0.000000  1
  Ir  Ir7  1  0.666667  0.333333  0.000000  1
  Rh  Rh8  1  0.000000  0.000000  0.500000  1
