# generated using pymatgen
data_Tm2Ta2C3O
_symmetry_space_group_name_H-M   'P 1'
_cell_length_a   10.89523786
_cell_length_b   10.89523749
_cell_length_c   10.89523852
_cell_angle_alpha   17.36875865
_cell_angle_beta   17.36876430
_cell_angle_gamma   17.36875850
_symmetry_Int_Tables_number   1
_chemical_formula_structural   Tm2Ta2C3O
_chemical_formula_sum   'Tm2 Ta2 C3 O1'
_cell_volume   100.57768133
_cell_formula_units_Z   1
loop_
 _symmetry_equiv_pos_site_id
 _symmetry_equiv_pos_as_xyz
  1  'x, y, z'
loop_
 _atom_site_type_symbol
 _atom_site_label
 _atom_site_symmetry_multiplicity
 _atom_site_fract_x
 _atom_site_fract_y
 _atom_site_fract_z
 _atom_site_occupancy
  Tm  Tm0  1  0.380277  0.380277  0.380277  1
  Tm  Tm1  1  0.619723  0.619723  0.619723  1
  Ta  Ta2  1  0.871314  0.871314  0.871314  1
  Ta  Ta3  1  0.128686  0.128686  0.128686  1
  C  C4  1  0.244033  0.244033  0.244033  1
  C  C5  1  0.500000  0.500000  0.500000  1
  C  C6  1  0.755967  0.755967  0.755967  1
  O  O7  1  0.000000  0.000000  0.000000  1
