# generated using pymatgen
data_Yb11Pr8YPt16
_symmetry_space_group_name_H-M   'P 1'
_cell_length_a   7.55862122
_cell_length_b   7.73933465
_cell_length_c   14.50417400
_cell_angle_alpha   89.95671353
_cell_angle_beta   90.11496881
_cell_angle_gamma   90.11820463
_symmetry_Int_Tables_number   1
_chemical_formula_structural   Yb11Pr8YPt16
_chemical_formula_sum   'Yb11 Pr8 Y1 Pt16'
_cell_volume   848.47155762
_cell_formula_units_Z   1
loop_
 _symmetry_equiv_pos_site_id
 _symmetry_equiv_pos_as_xyz
  1  'x, y, z'
loop_
 _atom_site_type_symbol
 _atom_site_label
 _atom_site_symmetry_multiplicity
 _atom_site_fract_x
 _atom_site_fract_y
 _atom_site_fract_z
 _atom_site_occupancy
  Yb  Yb0  1  0.334472  0.167575  0.624743  1
  Yb  Yb1  1  0.665032  0.831708  0.375861  1
  Yb  Yb2  1  0.669149  0.003941  0.750091  1
  Yb  Yb3  1  0.165349  0.666747  0.375716  1
  Yb  Yb4  1  0.836461  0.333746  0.875062  1
  Yb  Yb5  1  0.834268  0.331603  0.624504  1
  Yb  Yb6  1  0.831936  0.502076  0.250725  1
  Yb  Yb7  1  0.328593  0.997103  0.250732  1
  Yb  Yb8  1  0.334975  0.166660  0.876075  1
  Yb  Yb9  1  0.164346  0.668031  0.123588  1
  Yb  Yb10  1  0.168933  0.494836  0.749885  1
  Pr  Pr11  1  0.005567  0.180643  0.403979  1
  Pr  Pr12  1  0.506035  0.318972  0.403944  1
  Pr  Pr13  1  0.493164  0.678566  0.902058  1
  Pr  Pr14  1  0.493852  0.678525  0.597517  1
  Pr  Pr15  1  0.993315  0.820624  0.596962  1
  Pr  Pr16  1  0.994517  0.820899  0.902692  1
  Pr  Pr17  1  0.506466  0.321642  0.096603  1
  Pr  Pr18  1  0.007794  0.180197  0.096067  1
  Y  Y19  1  0.665273  0.832555  0.124797  1
  Pt  Pt20  1  0.296406  0.855580  0.749675  1
  Pt  Pt21  1  0.463919  0.615479  0.247332  1
  Pt  Pt22  1  0.036883  0.113032  0.750294  1
  Pt  Pt23  1  0.536900  0.385651  0.750977  1
  Pt  Pt24  1  0.175876  0.466218  0.538761  1
  Pt  Pt25  1  0.961080  0.885247  0.248859  1
  Pt  Pt26  1  0.702288  0.143504  0.249585  1
  Pt  Pt27  1  0.821204  0.541123  0.037913  1
  Pt  Pt28  1  0.328200  0.964916  0.039769  1
  Pt  Pt29  1  0.173775  0.464381  0.960859  1
  Pt  Pt30  1  0.674047  0.032704  0.539492  1
  Pt  Pt31  1  0.323118  0.966727  0.460619  1
  Pt  Pt32  1  0.824269  0.532127  0.460928  1
  Pt  Pt33  1  0.796768  0.643935  0.749598  1
  Pt  Pt34  1  0.204536  0.357114  0.250690  1
  Pt  Pt35  1  0.681235  0.035615  0.963046  1
