# generated using pymatgen
data_Sc2Nb4Re5Si6W
_symmetry_space_group_name_H-M   'P 1'
_cell_length_a   7.67282843
_cell_length_b   7.67383622
_cell_length_c   7.67383655
_cell_angle_alpha   126.22781714
_cell_angle_beta   128.11186676
_cell_angle_gamma   77.98647990
_symmetry_Int_Tables_number   1
_chemical_formula_structural   Sc2Nb4Re5Si6W
_chemical_formula_sum   'Sc2 Nb4 Re5 Si6 W1'
_cell_volume   277.91007988
_cell_formula_units_Z   1
loop_
 _symmetry_equiv_pos_site_id
 _symmetry_equiv_pos_as_xyz
  1  'x, y, z'
loop_
 _atom_site_type_symbol
 _atom_site_label
 _atom_site_symmetry_multiplicity
 _atom_site_fract_x
 _atom_site_fract_y
 _atom_site_fract_z
 _atom_site_occupancy
  Sc  Sc0  1  0.549374  0.091497  0.042813  1
  Sc  Sc1  1  0.450626  0.493440  0.542124  1
  Nb  Nb2  1  0.947858  0.491809  0.041774  1
  Nb  Nb3  1  0.052142  0.093914  0.543951  1
  Nb  Nb4  1  0.749286  0.904652  0.653354  1
  Nb  Nb5  1  0.250714  0.904069  0.155366  1
  Re  Re6  1  0.000000  0.239738  0.239738  1
  Re  Re7  1  0.118803  0.753964  0.617612  1
  Re  Re8  1  0.881197  0.498809  0.635162  1
  Re  Re9  1  0.635993  0.754741  0.135169  1
  Re  Re10  1  0.364007  0.499175  0.118748  1
  Si  Si11  1  0.747557  0.497146  0.250870  1
  Si  Si12  1  0.252443  0.503314  0.749588  1
  Si  Si13  1  0.330739  0.825851  0.492626  1
  Si  Si14  1  0.669261  0.161887  0.495112  1
  Si  Si15  1  0.834415  0.828179  0.996689  1
  Si  Si16  1  0.165585  0.162274  0.993763  1
  W  W17  1  0.500000  0.237741  0.737741  1
