# generated using pymatgen
data_Zr5AlBi2Pb
_symmetry_space_group_name_H-M   'P 1'
_cell_length_a   8.89271904
_cell_length_b   8.89271864
_cell_length_c   5.96025400
_cell_angle_alpha   90.00000000
_cell_angle_beta   90.00000000
_cell_angle_gamma   119.92231652
_symmetry_Int_Tables_number   1
_chemical_formula_structural   Zr5AlBi2Pb
_chemical_formula_sum   'Zr10 Al2 Bi4 Pb2'
_cell_volume   408.51118529
_cell_formula_units_Z   2
loop_
 _symmetry_equiv_pos_site_id
 _symmetry_equiv_pos_as_xyz
  1  'x, y, z'
loop_
 _atom_site_type_symbol
 _atom_site_label
 _atom_site_symmetry_multiplicity
 _atom_site_fract_x
 _atom_site_fract_y
 _atom_site_fract_z
 _atom_site_occupancy
  Zr  Zr0  1  0.666884  0.332986  0.001580  1
  Zr  Zr1  1  0.332986  0.666884  0.001580  1
  Zr  Zr2  1  0.332986  0.666884  0.498420  1
  Zr  Zr3  1  0.666884  0.332986  0.498420  1
  Zr  Zr4  1  0.733274  0.733274  0.750000  1
  Zr  Zr5  1  0.267226  0.000584  0.750000  1
  Zr  Zr6  1  0.000584  0.267226  0.750000  1
  Zr  Zr7  1  0.268562  0.268562  0.250000  1
  Zr  Zr8  1  0.731223  0.000150  0.250000  1
  Zr  Zr9  1  0.000150  0.731223  0.250000  1
  Al  Al10  1  0.000494  0.000494  0.000352  1
  Al  Al11  1  0.000494  0.000494  0.499648  1
  Bi  Bi12  1  0.387923  0.387923  0.750000  1
  Bi  Bi13  1  0.611834  0.000927  0.750000  1
  Bi  Bi14  1  0.000927  0.611834  0.750000  1
  Bi  Bi15  1  0.613170  0.613170  0.250000  1
  Pb  Pb16  1  0.384628  0.999770  0.250000  1
  Pb  Pb17  1  0.999770  0.384628  0.250000  1
