# generated using pymatgen
data_La12Pr8Sn11Bi5
_symmetry_space_group_name_H-M   'P 1'
_cell_length_a   8.54695492
_cell_length_b   8.56972396
_cell_length_c   16.29995000
_cell_angle_alpha   89.94295643
_cell_angle_beta   90.17066843
_cell_angle_gamma   89.96394621
_symmetry_Int_Tables_number   1
_chemical_formula_structural   La12Pr8Sn11Bi5
_chemical_formula_sum   'La12 Pr8 Sn11 Bi5'
_cell_volume   1193.88443365
_cell_formula_units_Z   1
loop_
 _symmetry_equiv_pos_site_id
 _symmetry_equiv_pos_as_xyz
  1  'x, y, z'
loop_
 _atom_site_type_symbol
 _atom_site_label
 _atom_site_symmetry_multiplicity
 _atom_site_fract_x
 _atom_site_fract_y
 _atom_site_fract_z
 _atom_site_occupancy
  La  La0  1  0.460717  0.821185  0.894239  1
  La  La1  1  0.964427  0.675433  0.604857  1
  La  La2  1  0.535733  0.176554  0.394850  1
  La  La3  1  0.036495  0.326338  0.105625  1
  La  La4  1  0.543106  0.179740  0.106890  1
  La  La5  1  0.048477  0.323267  0.394253  1
  La  La6  1  0.451070  0.822905  0.605909  1
  La  La7  1  0.953500  0.673096  0.894213  1
  La  La8  1  0.613525  0.339718  0.881951  1
  La  La9  1  0.113395  0.162752  0.617236  1
  La  La10  1  0.387502  0.664175  0.383497  1
  La  La11  1  0.886959  0.833789  0.119384  1
  Pr  Pr12  1  0.390482  0.661944  0.119876  1
  Pr  Pr13  1  0.892010  0.839580  0.380166  1
  Pr  Pr14  1  0.608382  0.339145  0.619425  1
  Pr  Pr15  1  0.113985  0.162211  0.879335  1
  Pr  Pr16  1  0.283195  0.501621  0.746695  1
  Pr  Pr17  1  0.783269  0.997721  0.748155  1
  Pr  Pr18  1  0.716827  0.498810  0.248446  1
  Pr  Pr19  1  0.216861  0.002571  0.252574  1
  Sn  Sn20  1  0.275446  0.473570  0.546287  1
  Sn  Sn21  1  0.224903  0.975079  0.453540  1
  Sn  Sn22  1  0.723708  0.525545  0.046466  1
  Sn  Sn23  1  0.655336  0.637544  0.749203  1
  Sn  Sn24  1  0.154593  0.861735  0.751811  1
  Sn  Sn25  1  0.343771  0.364395  0.249241  1
  Sn  Sn26  1  0.843807  0.137559  0.250757  1
  Sn  Sn27  1  0.414418  0.122035  0.751445  1
  Sn  Sn28  1  0.913653  0.376848  0.749797  1
  Sn  Sn29  1  0.586419  0.878128  0.250608  1
  Sn  Sn30  1  0.087539  0.622548  0.250063  1
  Bi  Bi31  1  0.229599  0.976572  0.044705  1
  Bi  Bi32  1  0.731915  0.523092  0.455363  1
  Bi  Bi33  1  0.768319  0.022480  0.544115  1
  Bi  Bi34  1  0.270907  0.475542  0.955206  1
  Bi  Bi35  1  0.775752  0.024771  0.953815  1
