# generated using pymatgen
data_Th2Al20ReTc3
_symmetry_space_group_name_H-M   'P 1'
_cell_length_a   6.93536464
_cell_length_b   6.93411324
_cell_length_c   9.24793396
_cell_angle_alpha   89.93281016
_cell_angle_beta   89.91840187
_cell_angle_gamma   96.75247454
_symmetry_Int_Tables_number   1
_chemical_formula_structural   Th2Al20ReTc3
_chemical_formula_sum   'Th2 Al20 Re1 Tc3'
_cell_volume   441.65289408
_cell_formula_units_Z   1
loop_
 _symmetry_equiv_pos_site_id
 _symmetry_equiv_pos_as_xyz
  1  'x, y, z'
loop_
 _atom_site_type_symbol
 _atom_site_label
 _atom_site_symmetry_multiplicity
 _atom_site_fract_x
 _atom_site_fract_y
 _atom_site_fract_z
 _atom_site_occupancy
  Th  Th0  1  0.872227  0.124183  0.750843  1
  Th  Th1  1  0.127773  0.875817  0.249157  1
  Al  Al2  1  0.519472  0.779127  0.750071  1
  Al  Al3  1  0.480528  0.220873  0.249929  1
  Al  Al4  1  0.595001  0.863396  0.250929  1
  Al  Al5  1  0.772800  0.771196  0.001033  1
  Al  Al6  1  0.159568  0.839918  0.600257  1
  Al  Al7  1  0.227200  0.228804  0.998967  1
  Al  Al8  1  0.137652  0.407838  0.249915  1
  Al  Al9  1  0.621664  0.378590  0.953334  1
  Al  Al10  1  0.840931  0.160149  0.100860  1
  Al  Al11  1  0.378396  0.621761  0.452609  1
  Al  Al12  1  0.159069  0.839851  0.899140  1
  Al  Al13  1  0.219559  0.479136  0.749203  1
  Al  Al14  1  0.378336  0.621410  0.046666  1
  Al  Al15  1  0.840432  0.160082  0.399743  1
  Al  Al16  1  0.621604  0.378239  0.547391  1
  Al  Al17  1  0.404999  0.136604  0.749071  1
  Al  Al18  1  0.780441  0.520864  0.250797  1
  Al  Al19  1  0.771781  0.771429  0.500891  1
  Al  Al20  1  0.228219  0.228571  0.499109  1
  Al  Al21  1  0.862348  0.592162  0.750085  1
  Re  Re22  1  0.500000  0.000000  0.000000  1
  Tc  Tc23  1  0.000000  0.500000  0.500000  1
  Tc  Tc24  1  0.000000  0.500000  0.000000  1
  Tc  Tc25  1  0.500000  0.000000  0.500000  1
