# generated using pymatgen
data_Tb6Ho10Cd4Ru3Pt
_symmetry_space_group_name_H-M   'P 1'
_cell_length_a   9.61731834
_cell_length_b   9.68587463
_cell_length_c   9.66226801
_cell_angle_alpha   59.92685683
_cell_angle_beta   59.69182702
_cell_angle_gamma   59.76701039
_symmetry_Int_Tables_number   1
_chemical_formula_structural   Tb6Ho10Cd4Ru3Pt
_chemical_formula_sum   'Tb6 Ho10 Cd4 Ru3 Pt1'
_cell_volume   633.47506835
_cell_formula_units_Z   1
loop_
 _symmetry_equiv_pos_site_id
 _symmetry_equiv_pos_as_xyz
  1  'x, y, z'
loop_
 _atom_site_type_symbol
 _atom_site_label
 _atom_site_symmetry_multiplicity
 _atom_site_fract_x
 _atom_site_fract_y
 _atom_site_fract_z
 _atom_site_occupancy
  Tb  Tb0  1  0.937862  0.561367  0.560856  1
  Tb  Tb1  1  0.557253  0.938819  0.938828  1
  Tb  Tb2  1  0.557388  0.938735  0.565141  1
  Tb  Tb3  1  0.938258  0.560974  0.939797  1
  Tb  Tb4  1  0.557244  0.565107  0.938840  1
  Tb  Tb5  1  0.937897  0.939891  0.560855  1
  Ho  Ho6  1  0.345333  0.349173  0.350311  1
  Ho  Ho7  1  0.345766  0.349091  0.956164  1
  Ho  Ho8  1  0.345374  0.955170  0.350366  1
  Ho  Ho9  1  0.962885  0.345638  0.345913  1
  Ho  Ho10  1  0.815322  0.189501  0.188495  1
  Ho  Ho11  1  0.186763  0.812315  0.811656  1
  Ho  Ho12  1  0.187718  0.812142  0.187817  1
  Ho  Ho13  1  0.815151  0.189493  0.805862  1
  Ho  Ho14  1  0.186775  0.189290  0.811543  1
  Ho  Ho15  1  0.815413  0.806602  0.188499  1
  Cd  Cd16  1  0.580410  0.580529  0.580091  1
  Cd  Cd17  1  0.580641  0.580533  0.258296  1
  Cd  Cd18  1  0.580418  0.258978  0.580083  1
  Cd  Cd19  1  0.256737  0.581304  0.580654  1
  Ru  Ru20  1  0.144419  0.137552  0.139513  1
  Ru  Ru21  1  0.144801  0.138544  0.578136  1
  Ru  Ru22  1  0.144396  0.578512  0.139527  1
  Pt  Pt23  1  0.575774  0.140742  0.142759  1
