# generated using pymatgen
data_Tm4Mn3ReOs4
_symmetry_space_group_name_H-M   'P 1'
_cell_length_a   5.32633900
_cell_length_b   5.27154838
_cell_length_c   8.57698600
_cell_angle_alpha   90.00000000
_cell_angle_beta   90.00000000
_cell_angle_gamma   120.34145296
_symmetry_Int_Tables_number   1
_chemical_formula_structural   Tm4Mn3ReOs4
_chemical_formula_sum   'Tm4 Mn3 Re1 Os4'
_cell_volume   207.83933654
_cell_formula_units_Z   1
loop_
 _symmetry_equiv_pos_site_id
 _symmetry_equiv_pos_as_xyz
  1  'x, y, z'
loop_
 _atom_site_type_symbol
 _atom_site_label
 _atom_site_symmetry_multiplicity
 _atom_site_fract_x
 _atom_site_fract_y
 _atom_site_fract_z
 _atom_site_occupancy
  Tm  Tm0  1  0.666998  0.334020  0.565800  1
  Tm  Tm1  1  0.332839  0.665468  0.436938  1
  Tm  Tm2  1  0.332839  0.665468  0.063062  1
  Tm  Tm3  1  0.666998  0.334020  0.934200  1
  Mn  Mn4  1  0.995907  0.992240  0.502453  1
  Mn  Mn5  1  0.995907  0.992240  0.997547  1
  Mn  Mn6  1  0.165527  0.330934  0.750000  1
  Re  Re7  1  0.834875  0.669653  0.250000  1
  Os  Os8  1  0.175140  0.834849  0.750000  1
  Os  Os9  1  0.660010  0.835156  0.750000  1
  Os  Os10  1  0.831084  0.172913  0.250000  1
  Os  Os11  1  0.341875  0.173039  0.250000  1
