# generated using pymatgen
data_Tb5Pr3Cd2OsPd
_symmetry_space_group_name_H-M   'P 1'
_cell_length_a   9.82651486
_cell_length_b   9.82651576
_cell_length_c   9.89630300
_cell_angle_alpha   59.76479398
_cell_angle_beta   59.76479092
_cell_angle_gamma   59.72535087
_symmetry_Int_Tables_number   1
_chemical_formula_structural   Tb5Pr3Cd2OsPd
_chemical_formula_sum   'Tb10 Pr6 Cd4 Os2 Pd2'
_cell_volume   671.89399301
_cell_formula_units_Z   2
loop_
 _symmetry_equiv_pos_site_id
 _symmetry_equiv_pos_as_xyz
  1  'x, y, z'
loop_
 _atom_site_type_symbol
 _atom_site_label
 _atom_site_symmetry_multiplicity
 _atom_site_fract_x
 _atom_site_fract_y
 _atom_site_fract_z
 _atom_site_occupancy
  Tb  Tb0  1  0.348181  0.348181  0.354353  1
  Tb  Tb1  1  0.348181  0.348181  0.949286  1
  Tb  Tb2  1  0.343285  0.958660  0.349028  1
  Tb  Tb3  1  0.958660  0.343285  0.349028  1
  Tb  Tb4  1  0.818595  0.185429  0.189278  1
  Tb  Tb5  1  0.185429  0.818595  0.806697  1
  Tb  Tb6  1  0.185429  0.818595  0.189278  1
  Tb  Tb7  1  0.818595  0.185429  0.806697  1
  Tb  Tb8  1  0.186418  0.186418  0.813582  1
  Tb  Tb9  1  0.810378  0.810378  0.189622  1
  Pr  Pr10  1  0.939798  0.553647  0.564144  1
  Pr  Pr11  1  0.553647  0.939798  0.942410  1
  Pr  Pr12  1  0.553647  0.939798  0.564144  1
  Pr  Pr13  1  0.939798  0.553647  0.942410  1
  Pr  Pr14  1  0.561209  0.561209  0.938791  1
  Pr  Pr15  1  0.942167  0.942167  0.557833  1
  Cd  Cd16  1  0.578801  0.578801  0.579388  1
  Cd  Cd17  1  0.578801  0.578801  0.263011  1
  Cd  Cd18  1  0.579849  0.260049  0.580050  1
  Cd  Cd19  1  0.260049  0.579849  0.580050  1
  Os  Os20  1  0.144526  0.144526  0.136838  1
  Os  Os21  1  0.144526  0.144526  0.574110  1
  Pd  Pd22  1  0.145882  0.574149  0.139984  1
  Pd  Pd23  1  0.574149  0.145882  0.139984  1
