# generated using pymatgen
data_Tb3Ce2Sn3Au
_symmetry_space_group_name_H-M   'P 1'
_cell_length_a   9.44193800
_cell_length_b   9.44193785
_cell_length_c   6.46912200
_cell_angle_alpha   90.00000000
_cell_angle_beta   90.00000000
_cell_angle_gamma   120.00000051
_symmetry_Int_Tables_number   1
_chemical_formula_structural   Tb3Ce2Sn3Au
_chemical_formula_sum   'Tb6 Ce4 Sn6 Au2'
_cell_volume   499.45717095
_cell_formula_units_Z   2
loop_
 _symmetry_equiv_pos_site_id
 _symmetry_equiv_pos_as_xyz
  1  'x, y, z'
loop_
 _atom_site_type_symbol
 _atom_site_label
 _atom_site_symmetry_multiplicity
 _atom_site_fract_x
 _atom_site_fract_y
 _atom_site_fract_z
 _atom_site_occupancy
  Tb  Tb0  1  0.271735  0.000000  0.750000  1
  Tb  Tb1  1  0.728265  0.000000  0.250000  1
  Tb  Tb2  1  0.000000  0.271735  0.750000  1
  Tb  Tb3  1  0.000000  0.728265  0.250000  1
  Tb  Tb4  1  0.728265  0.728265  0.750000  1
  Tb  Tb5  1  0.271735  0.271735  0.250000  1
  Ce  Ce6  1  0.333333  0.666667  0.500000  1
  Ce  Ce7  1  0.666667  0.333333  0.500000  1
  Ce  Ce8  1  0.666667  0.333333  0.000000  1
  Ce  Ce9  1  0.333333  0.666667  0.000000  1
  Sn  Sn10  1  0.620365  0.000000  0.750000  1
  Sn  Sn11  1  0.379635  0.000000  0.250000  1
  Sn  Sn12  1  0.000000  0.620365  0.750000  1
  Sn  Sn13  1  0.000000  0.379635  0.250000  1
  Sn  Sn14  1  0.379635  0.379635  0.750000  1
  Sn  Sn15  1  0.620365  0.620365  0.250000  1
  Au  Au16  1  0.000000  0.000000  0.500000  1
  Au  Au17  1  0.000000  0.000000  0.000000  1
