# generated using pymatgen
data_Li3Nd5Pt4
_symmetry_space_group_name_H-M   'P 1'
_cell_length_a   4.17642200
_cell_length_b   7.37877527
_cell_length_c   9.01179400
_cell_angle_alpha   88.80669803
_cell_angle_beta   90.00000000
_cell_angle_gamma   90.00000000
_symmetry_Int_Tables_number   1
_chemical_formula_structural   Li3Nd5Pt4
_chemical_formula_sum   'Li3 Nd5 Pt4'
_cell_volume   277.65513916
_cell_formula_units_Z   1
loop_
 _symmetry_equiv_pos_site_id
 _symmetry_equiv_pos_as_xyz
  1  'x, y, z'
loop_
 _atom_site_type_symbol
 _atom_site_label
 _atom_site_symmetry_multiplicity
 _atom_site_fract_x
 _atom_site_fract_y
 _atom_site_fract_z
 _atom_site_occupancy
  Li  Li0  1  0.250000  0.374820  0.554495  1
  Li  Li1  1  0.250000  0.849696  0.928981  1
  Li  Li2  1  0.750000  0.622412  0.451434  1
  Nd  Nd3  1  0.250000  0.943919  0.338976  1
  Nd  Nd4  1  0.250000  0.481732  0.197184  1
  Nd  Nd5  1  0.750000  0.043622  0.669973  1
  Nd  Nd6  1  0.750000  0.553253  0.813882  1
  Nd  Nd7  1  0.750000  0.128398  0.055250  1
  Pt  Pt8  1  0.250000  0.264602  0.863098  1
  Pt  Pt9  1  0.250000  0.747777  0.624234  1
  Pt  Pt10  1  0.750000  0.747106  0.126966  1
  Pt  Pt11  1  0.750000  0.242662  0.375527  1
