# generated using pymatgen
data_TbHo5Al24CuRu7
_symmetry_space_group_name_H-M   'P 1'
_cell_length_a   8.81104590
_cell_length_b   8.80815101
_cell_length_c   9.53665572
_cell_angle_alpha   89.74567427
_cell_angle_beta   90.24104988
_cell_angle_gamma   119.72375817
_symmetry_Int_Tables_number   1
_chemical_formula_structural   TbHo5Al24CuRu7
_chemical_formula_sum   'Tb1 Ho5 Al24 Cu1 Ru7'
_cell_volume   642.74054508
_cell_formula_units_Z   1
loop_
 _symmetry_equiv_pos_site_id
 _symmetry_equiv_pos_as_xyz
  1  'x, y, z'
loop_
 _atom_site_type_symbol
 _atom_site_label
 _atom_site_symmetry_multiplicity
 _atom_site_fract_x
 _atom_site_fract_y
 _atom_site_fract_z
 _atom_site_occupancy
  Tb  Tb0  1  0.191857  0.386028  0.248631  1
  Ho  Ho1  1  0.807850  0.613151  0.751189  1
  Ho  Ho2  1  0.613144  0.807992  0.248835  1
  Ho  Ho3  1  0.386948  0.192146  0.751151  1
  Ho  Ho4  1  0.194849  0.805265  0.251190  1
  Ho  Ho5  1  0.805208  0.194911  0.748760  1
  Al  Al6  1  0.332165  0.668266  0.020749  1
  Al  Al7  1  0.667913  0.332184  0.978844  1
  Al  Al8  1  0.666557  0.333560  0.516483  1
  Al  Al9  1  0.333640  0.666779  0.483833  1
  Al  Al10  1  0.163454  0.324468  0.578413  1
  Al  Al11  1  0.836636  0.675587  0.421988  1
  Al  Al12  1  0.675617  0.836649  0.578171  1
  Al  Al13  1  0.843417  0.676399  0.079299  1
  Al  Al14  1  0.324575  0.163183  0.422095  1
  Al  Al15  1  0.156602  0.323665  0.920258  1
  Al  Al16  1  0.162674  0.837353  0.578085  1
  Al  Al17  1  0.323730  0.156449  0.079210  1
  Al  Al18  1  0.837046  0.162548  0.422126  1
  Al  Al19  1  0.676431  0.843430  0.920548  1
  Al  Al20  1  0.836495  0.163041  0.076960  1
  Al  Al21  1  0.163201  0.836877  0.922767  1
  Al  Al22  1  0.560727  0.121936  0.248371  1
  Al  Al23  1  0.439258  0.878065  0.751610  1
  Al  Al24  1  0.877600  0.439370  0.248352  1
  Al  Al25  1  0.121933  0.560815  0.751561  1
  Al  Al26  1  0.561520  0.439110  0.249864  1
  Al  Al27  1  0.439096  0.561029  0.750187  1
  Al  Al28  1  0.998936  0.999996  0.250117  1
  Al  Al29  1  0.000695  0.999364  0.749905  1
  Cu  Cu30  1  0.500014  0.499456  0.000387  1
  Ru  Ru31  1  0.500042  0.000140  0.999921  1
  Ru  Ru32  1  0.999830  0.500135  0.999678  1
  Ru  Ru33  1  0.500036  0.000193  0.500069  1
  Ru  Ru34  1  0.999919  0.500167  0.500164  1
  Ru  Ru35  1  0.500311  0.500160  0.500245  1
  Ru  Ru36  1  0.000044  0.000076  0.999970  1
  Ru  Ru37  1  0.000033  0.000055  0.500011  1
