# generated using pymatgen
data_Ca2Er(Si3Pd10)2
_symmetry_space_group_name_H-M   'P 1'
_cell_length_a   8.71841126
_cell_length_b   8.71841080
_cell_length_c   8.71841200
_cell_angle_alpha   60.00000304
_cell_angle_beta   60.00000480
_cell_angle_gamma   60.00000582
_symmetry_Int_Tables_number   1
_chemical_formula_structural   Ca2Er(Si3Pd10)2
_chemical_formula_sum   'Ca2 Er1 Si6 Pd20'
_cell_volume   468.59442300
_cell_formula_units_Z   1
loop_
 _symmetry_equiv_pos_site_id
 _symmetry_equiv_pos_as_xyz
  1  'x, y, z'
loop_
 _atom_site_type_symbol
 _atom_site_label
 _atom_site_symmetry_multiplicity
 _atom_site_fract_x
 _atom_site_fract_y
 _atom_site_fract_z
 _atom_site_occupancy
  Ca  Ca0  1  0.250000  0.250000  0.250000  1
  Ca  Ca1  1  0.750000  0.750000  0.750000  1
  Er  Er2  1  0.000000  0.000000  0.000000  1
  Si  Si3  1  0.731818  0.268182  0.268182  1
  Si  Si4  1  0.268182  0.731818  0.731818  1
  Si  Si5  1  0.268182  0.731818  0.268182  1
  Si  Si6  1  0.731818  0.268182  0.731818  1
  Si  Si7  1  0.268182  0.268182  0.731818  1
  Si  Si8  1  0.731818  0.731818  0.268182  1
  Pd  Pd9  1  0.343986  0.000000  0.000000  1
  Pd  Pd10  1  0.656014  0.000000  0.000000  1
  Pd  Pd11  1  0.000000  0.343986  0.656014  1
  Pd  Pd12  1  0.000000  0.656014  0.343986  1
  Pd  Pd13  1  0.000000  0.343986  0.000000  1
  Pd  Pd14  1  0.656014  0.000000  0.343986  1
  Pd  Pd15  1  0.000000  0.656014  0.000000  1
  Pd  Pd16  1  0.343986  0.000000  0.656014  1
  Pd  Pd17  1  0.000000  0.000000  0.343986  1
  Pd  Pd18  1  0.000000  0.000000  0.656014  1
  Pd  Pd19  1  0.656014  0.343986  0.000000  1
  Pd  Pd20  1  0.343986  0.656014  0.000000  1
  Pd  Pd21  1  0.384272  0.384272  0.384272  1
  Pd  Pd22  1  0.615728  0.615728  0.615728  1
  Pd  Pd23  1  0.384272  0.384272  0.847186  1
  Pd  Pd24  1  0.384272  0.847186  0.384272  1
  Pd  Pd25  1  0.615728  0.615728  0.152814  1
  Pd  Pd26  1  0.615728  0.152814  0.615728  1
  Pd  Pd27  1  0.847186  0.384272  0.384272  1
  Pd  Pd28  1  0.152814  0.615728  0.615728  1
