# generated using pymatgen
data_Nd2Y3Ir2
_symmetry_space_group_name_H-M   'P 1'
_cell_length_a   6.58601660
_cell_length_b   7.24708509
_cell_length_c   8.78203848
_cell_angle_alpha   96.98579237
_cell_angle_beta   112.02251985
_cell_angle_gamma   89.99999882
_symmetry_Int_Tables_number   1
_chemical_formula_structural   Nd2Y3Ir2
_chemical_formula_sum   'Nd4 Y6 Ir4'
_cell_volume   385.21946705
_cell_formula_units_Z   2
loop_
 _symmetry_equiv_pos_site_id
 _symmetry_equiv_pos_as_xyz
  1  'x, y, z'
loop_
 _atom_site_type_symbol
 _atom_site_label
 _atom_site_symmetry_multiplicity
 _atom_site_fract_x
 _atom_site_fract_y
 _atom_site_fract_z
 _atom_site_occupancy
  Nd  Nd0  1  0.976551  0.920126  0.189936  1
  Nd  Nd1  1  0.786614  0.579874  0.810064  1
  Nd  Nd2  1  0.023449  0.079874  0.810064  1
  Nd  Nd3  1  0.213386  0.420126  0.189936  1
  Y  Y4  1  0.645602  0.816240  0.435688  1
  Y  Y5  1  0.209913  0.683760  0.564312  1
  Y  Y6  1  0.354398  0.183760  0.564312  1
  Y  Y7  1  0.790087  0.316240  0.435688  1
  Y  Y8  1  0.430067  0.750000  0.000000  1
  Y  Y9  1  0.569933  0.250000  0.000000  1
  Ir  Ir10  1  0.817403  0.573386  0.226258  1
  Ir  Ir11  1  0.591144  0.926614  0.773742  1
  Ir  Ir12  1  0.182597  0.426614  0.773742  1
  Ir  Ir13  1  0.408856  0.073386  0.226258  1
