# generated using pymatgen
data_Sn16Pd7Rh
_symmetry_space_group_name_H-M   'P 1'
_cell_length_a   6.55268169
_cell_length_b   6.55079403
_cell_length_c   13.29012302
_cell_angle_alpha   104.58442562
_cell_angle_beta   104.58854305
_cell_angle_gamma   88.75583269
_symmetry_Int_Tables_number   1
_chemical_formula_structural   Sn16Pd7Rh
_chemical_formula_sum   'Sn16 Pd7 Rh1'
_cell_volume   533.76974896
_cell_formula_units_Z   1
loop_
 _symmetry_equiv_pos_site_id
 _symmetry_equiv_pos_as_xyz
  1  'x, y, z'
loop_
 _atom_site_type_symbol
 _atom_site_label
 _atom_site_symmetry_multiplicity
 _atom_site_fract_x
 _atom_site_fract_y
 _atom_site_fract_z
 _atom_site_occupancy
  Sn  Sn0  1  0.336817  0.157234  0.002181  1
  Sn  Sn1  1  0.846575  0.338947  0.002406  1
  Sn  Sn2  1  0.155831  0.663459  0.002406  1
  Sn  Sn3  1  0.665363  0.844947  0.002181  1
  Sn  Sn4  1  0.875632  0.370341  0.249460  1
  Sn  Sn5  1  0.370018  0.373373  0.247027  1
  Sn  Sn6  1  0.877010  0.873655  0.247027  1
  Sn  Sn7  1  0.373829  0.879119  0.249460  1
  Sn  Sn8  1  0.091750  0.091614  0.499443  1
  Sn  Sn9  1  0.407694  0.407829  0.499443  1
  Sn  Sn10  1  0.910297  0.589134  0.499318  1
  Sn  Sn11  1  0.589022  0.910185  0.499318  1
  Sn  Sn12  1  0.125396  0.125831  0.751615  1
  Sn  Sn13  1  0.623153  0.125425  0.749446  1
  Sn  Sn14  1  0.126293  0.624021  0.749446  1
  Sn  Sn15  1  0.626219  0.625784  0.751615  1
  Pd  Pd16  1  0.558738  0.558738  0.117477  1
  Pd  Pd17  1  0.691391  0.191392  0.382784  1
  Pd  Pd18  1  0.191098  0.691097  0.382197  1
  Pd  Pd19  1  0.808774  0.308775  0.617551  1
  Pd  Pd20  1  0.308518  0.808517  0.617036  1
  Pd  Pd21  1  0.442285  0.442285  0.884571  1
  Pd  Pd22  1  0.940394  0.940394  0.880789  1
  Rh  Rh23  1  0.057902  0.057902  0.115804  1
