# generated using pymatgen
data_Ce6Sn2CO
_symmetry_space_group_name_H-M   'P 1'
_cell_length_a   6.91119437
_cell_length_b   6.91119464
_cell_length_c   6.91119500
_cell_angle_alpha   60.00000304
_cell_angle_beta   60.00000176
_cell_angle_gamma   60.00000246
_symmetry_Int_Tables_number   1
_chemical_formula_structural   Ce6Sn2CO
_chemical_formula_sum   'Ce6 Sn2 C1 O1'
_cell_volume   233.42340712
_cell_formula_units_Z   1
loop_
 _symmetry_equiv_pos_site_id
 _symmetry_equiv_pos_as_xyz
  1  'x, y, z'
loop_
 _atom_site_type_symbol
 _atom_site_label
 _atom_site_symmetry_multiplicity
 _atom_site_fract_x
 _atom_site_fract_y
 _atom_site_fract_z
 _atom_site_occupancy
  Ce  Ce0  1  0.749683  0.250317  0.250317  1
  Ce  Ce1  1  0.250317  0.749683  0.250317  1
  Ce  Ce2  1  0.749683  0.749683  0.250317  1
  Ce  Ce3  1  0.250317  0.250317  0.749683  1
  Ce  Ce4  1  0.749683  0.250317  0.749683  1
  Ce  Ce5  1  0.250317  0.749683  0.749683  1
  Sn  Sn6  1  0.250000  0.250000  0.250000  1
  Sn  Sn7  1  0.750000  0.750000  0.750000  1
  C  C8  1  0.500000  0.500000  0.500000  1
  O  O9  1  0.000000  0.000000  0.000000  1
