# generated using pymatgen
data_Dy9ErCuIrPb6
_symmetry_space_group_name_H-M   'P 1'
_cell_length_a   9.20610100
_cell_length_b   9.20610146
_cell_length_c   6.73906100
_cell_angle_alpha   90.00000000
_cell_angle_beta   90.00000000
_cell_angle_gamma   120.00000913
_symmetry_Int_Tables_number   1
_chemical_formula_structural   Dy9ErCuIrPb6
_chemical_formula_sum   'Dy9 Er1 Cu1 Ir1 Pb6'
_cell_volume   494.63115938
_cell_formula_units_Z   1
loop_
 _symmetry_equiv_pos_site_id
 _symmetry_equiv_pos_as_xyz
  1  'x, y, z'
loop_
 _atom_site_type_symbol
 _atom_site_label
 _atom_site_symmetry_multiplicity
 _atom_site_fract_x
 _atom_site_fract_y
 _atom_site_fract_z
 _atom_site_occupancy
  Dy  Dy0  1  0.244193  0.999960  0.238602  1
  Dy  Dy1  1  0.755767  0.999960  0.761398  1
  Dy  Dy2  1  0.000040  0.244233  0.238602  1
  Dy  Dy3  1  0.000040  0.755807  0.761398  1
  Dy  Dy4  1  0.755767  0.755807  0.238602  1
  Dy  Dy5  1  0.244193  0.244233  0.761398  1
  Dy  Dy6  1  0.333333  0.666667  0.000000  1
  Dy  Dy7  1  0.666667  0.333333  0.000000  1
  Dy  Dy8  1  0.666667  0.333333  0.500000  1
  Er  Er9  1  0.333333  0.666667  0.500000  1
  Cu  Cu10  1  0.000000  0.000000  0.500000  1
  Ir  Ir11  1  0.000000  0.000000  0.000000  1
  Pb  Pb12  1  0.602362  0.999883  0.253727  1
  Pb  Pb13  1  0.397521  0.999883  0.746273  1
  Pb  Pb14  1  0.000117  0.602479  0.253727  1
  Pb  Pb15  1  0.000117  0.397638  0.746273  1
  Pb  Pb16  1  0.397521  0.397638  0.253727  1
  Pb  Pb17  1  0.602362  0.602479  0.746273  1
