# generated using pymatgen
data_Ce7Nd(Si4W3)4
_symmetry_space_group_name_H-M   'P 1'
_cell_length_a   6.92472112
_cell_length_b   6.98364858
_cell_length_c   13.02934227
_cell_angle_alpha   89.97095265
_cell_angle_beta   89.98504069
_cell_angle_gamma   89.94205492
_symmetry_Int_Tables_number   1
_chemical_formula_structural   Ce7Nd(Si4W3)4
_chemical_formula_sum   'Ce7 Nd1 Si16 W12'
_cell_volume   630.09620635
_cell_formula_units_Z   1
loop_
 _symmetry_equiv_pos_site_id
 _symmetry_equiv_pos_as_xyz
  1  'x, y, z'
loop_
 _atom_site_type_symbol
 _atom_site_label
 _atom_site_symmetry_multiplicity
 _atom_site_fract_x
 _atom_site_fract_y
 _atom_site_fract_z
 _atom_site_occupancy
  Ce  Ce0  1  0.495106  0.660509  0.592059  1
  Ce  Ce1  1  0.994625  0.837713  0.907772  1
  Ce  Ce2  1  0.505548  0.338281  0.092093  1
  Ce  Ce3  1  0.004442  0.165191  0.405470  1
  Ce  Ce4  1  0.507003  0.339671  0.407936  1
  Ce  Ce5  1  0.006379  0.161495  0.092382  1
  Ce  Ce6  1  0.494748  0.662645  0.908071  1
  Nd  Nd7  1  0.995744  0.836095  0.591915  1
  Si  Si8  1  0.657299  0.954643  0.452562  1
  Si  Si9  1  0.156950  0.546715  0.047321  1
  Si  Si10  1  0.343445  0.046569  0.952940  1
  Si  Si11  1  0.843356  0.451956  0.546369  1
  Si  Si12  1  0.343742  0.046284  0.546541  1
  Si  Si13  1  0.842545  0.453711  0.953538  1
  Si  Si14  1  0.657587  0.953853  0.047503  1
  Si  Si15  1  0.156947  0.545714  0.451767  1
  Si  Si16  1  0.461114  0.365462  0.751785  1
  Si  Si17  1  0.961762  0.134268  0.750312  1
  Si  Si18  1  0.537992  0.635634  0.249692  1
  Si  Si19  1  0.037841  0.866065  0.250850  1
  Si  Si20  1  0.690941  0.868534  0.749814  1
  Si  Si21  1  0.193261  0.628624  0.750555  1
  Si  Si22  1  0.308371  0.131385  0.250058  1
  Si  Si23  1  0.808115  0.369729  0.248995  1
  W  W24  1  0.663744  0.164865  0.626742  1
  W  W25  1  0.166376  0.337833  0.873933  1
  W  W26  1  0.331492  0.838942  0.126708  1
  W  W27  1  0.829887  0.660025  0.372536  1
  W  W28  1  0.332474  0.838647  0.373386  1
  W  W29  1  0.832841  0.662623  0.126820  1
  W  W30  1  0.669859  0.160417  0.873412  1
  W  W31  1  0.167130  0.335540  0.626896  1
  W  W32  1  0.832114  0.495903  0.750562  1
  W  W33  1  0.333730  0.002451  0.750971  1
  W  W34  1  0.168062  0.502900  0.249639  1
  W  W35  1  0.667429  0.999109  0.250097  1
