# generated using pymatgen
data_Zr4Ti5ReSi8
_symmetry_space_group_name_H-M   'P 1'
_cell_length_a   6.80568518
_cell_length_b   6.79561900
_cell_length_c   12.50226619
_cell_angle_alpha   90.00000000
_cell_angle_beta   90.16645265
_cell_angle_gamma   90.00000000
_symmetry_Int_Tables_number   1
_chemical_formula_structural   Zr4Ti5ReSi8
_chemical_formula_sum   'Zr8 Ti10 Re2 Si16'
_cell_volume   578.21291258
_cell_formula_units_Z   2
loop_
 _symmetry_equiv_pos_site_id
 _symmetry_equiv_pos_as_xyz
  1  'x, y, z'
loop_
 _atom_site_type_symbol
 _atom_site_label
 _atom_site_symmetry_multiplicity
 _atom_site_fract_x
 _atom_site_fract_y
 _atom_site_fract_z
 _atom_site_occupancy
  Zr  Zr0  1  0.999208  0.656970  0.029847  1
  Zr  Zr1  1  0.000251  0.341823  0.529067  1
  Zr  Zr2  1  0.656096  0.001212  0.969222  1
  Zr  Zr3  1  0.158973  0.500835  0.779006  1
  Zr  Zr4  1  0.843904  0.501212  0.280778  1
  Zr  Zr5  1  0.500792  0.156970  0.220153  1
  Zr  Zr6  1  0.499749  0.841823  0.720933  1
  Zr  Zr7  1  0.341027  0.000835  0.470994  1
  Ti  Ti8  1  0.346842  0.505139  0.378435  1
  Ti  Ti9  1  0.848514  0.997688  0.373921  1
  Ti  Ti10  1  0.003365  0.151895  0.126257  1
  Ti  Ti11  1  0.996180  0.847220  0.627988  1
  Ti  Ti12  1  0.651486  0.497688  0.876079  1
  Ti  Ti13  1  0.503820  0.347220  0.622012  1
  Ti  Ti14  1  0.496635  0.651895  0.123743  1
  Ti  Ti15  1  0.153158  0.005139  0.871565  1
  Ti  Ti16  1  0.170795  0.827901  0.250971  1
  Ti  Ti17  1  0.329205  0.327901  0.999029  1
  Re  Re18  1  0.672501  0.670243  0.502001  1
  Re  Re19  1  0.827499  0.170243  0.747999  1
  Si  Si20  1  0.043611  0.707185  0.435426  1
  Si  Si21  1  0.951911  0.292563  0.934334  1
  Si  Si22  1  0.707430  0.044480  0.564819  1
  Si  Si23  1  0.206528  0.453569  0.185330  1
  Si  Si24  1  0.792570  0.544480  0.685181  1
  Si  Si25  1  0.456389  0.207185  0.814574  1
  Si  Si26  1  0.548089  0.792563  0.315666  1
  Si  Si27  1  0.293472  0.953569  0.064670  1
  Si  Si28  1  0.865733  0.795527  0.823582  1
  Si  Si29  1  0.136011  0.205747  0.321149  1
  Si  Si30  1  0.793733  0.865047  0.178152  1
  Si  Si31  1  0.294376  0.634956  0.573149  1
  Si  Si32  1  0.706267  0.365047  0.071848  1
  Si  Si33  1  0.634267  0.295527  0.426418  1
  Si  Si34  1  0.363989  0.705747  0.928851  1
  Si  Si35  1  0.205624  0.134956  0.676851  1
