# generated using pymatgen
data_UV13P9
_symmetry_space_group_name_H-M   'P 1'
_cell_length_a   10.39339400
_cell_length_b   10.39339380
_cell_length_c   3.27443000
_cell_angle_alpha   90.00000000
_cell_angle_beta   90.00000000
_cell_angle_gamma   120.00000065
_symmetry_Int_Tables_number   1
_chemical_formula_structural   UV13P9
_chemical_formula_sum   'U1 V13 P9'
_cell_volume   306.32406263
_cell_formula_units_Z   1
loop_
 _symmetry_equiv_pos_site_id
 _symmetry_equiv_pos_as_xyz
  1  'x, y, z'
loop_
 _atom_site_type_symbol
 _atom_site_label
 _atom_site_symmetry_multiplicity
 _atom_site_fract_x
 _atom_site_fract_y
 _atom_site_fract_z
 _atom_site_occupancy
  U  U0  1  0.666667  0.333333  0.000000  1
  V  V1  1  0.238574  0.477147  0.500000  1
  V  V2  1  0.238574  0.761426  0.500000  1
  V  V3  1  0.525024  0.050048  0.500000  1
  V  V4  1  0.525024  0.474976  0.500000  1
  V  V5  1  0.949952  0.474976  0.500000  1
  V  V6  1  0.994163  0.288708  0.000000  1
  V  V7  1  0.711292  0.705455  0.000000  1
  V  V8  1  0.711292  0.005837  0.000000  1
  V  V9  1  0.994163  0.705455  0.000000  1
  V  V10  1  0.294545  0.288708  0.000000  1
  V  V11  1  0.000000  0.000000  0.000000  1
  V  V12  1  0.522853  0.761426  0.500000  1
  V  V13  1  0.294545  0.005837  0.000000  1
  P  P14  1  0.407985  0.203992  0.500000  1
  P  P15  1  0.135528  0.567765  0.000000  1
  P  P16  1  0.432235  0.567765  0.000000  1
  P  P17  1  0.432235  0.864472  0.000000  1
  P  P18  1  0.802516  0.901258  0.500000  1
  P  P19  1  0.098742  0.901258  0.500000  1
  P  P20  1  0.098742  0.197484  0.500000  1
  P  P21  1  0.796008  0.203992  0.500000  1
  P  P22  1  0.796008  0.592015  0.500000  1
