# generated using pymatgen
data_V2SiGe(BMo2)4
_symmetry_space_group_name_H-M   'P 1'
_cell_length_a   7.01197993
_cell_length_b   7.01197982
_cell_length_c   7.01197954
_cell_angle_alpha   129.29628021
_cell_angle_beta   129.29627970
_cell_angle_gamma   74.53431604
_symmetry_Int_Tables_number   1
_chemical_formula_structural   V2SiGe(BMo2)4
_chemical_formula_sum   'V2 Si1 Ge1 B4 Mo8'
_cell_volume   201.20641618
_cell_formula_units_Z   1
loop_
 _symmetry_equiv_pos_site_id
 _symmetry_equiv_pos_as_xyz
  1  'x, y, z'
loop_
 _atom_site_type_symbol
 _atom_site_label
 _atom_site_symmetry_multiplicity
 _atom_site_fract_x
 _atom_site_fract_y
 _atom_site_fract_z
 _atom_site_occupancy
  V  V0  1  0.000410  0.000410  0.000000  1
  V  V1  1  0.499590  0.499590  0.000000  1
  Si  Si2  1  0.250000  0.250000  0.000000  1
  Ge  Ge3  1  0.750000  0.750000  0.000000  1
  B  B4  1  0.377198  0.877198  0.254397  1
  B  B5  1  0.877198  0.622802  0.500000  1
  B  B6  1  0.622802  0.122802  0.745603  1
  B  B7  1  0.122802  0.377198  0.500000  1
  Mo  Mo8  1  0.804222  0.971814  0.504833  1
  Mo  Mo9  1  0.299389  0.804222  0.832408  1
  Mo  Mo10  1  0.200611  0.033019  0.504833  1
  Mo  Mo11  1  0.528186  0.695778  0.495167  1
  Mo  Mo12  1  0.033019  0.528186  0.832408  1
  Mo  Mo13  1  0.695778  0.200611  0.167592  1
  Mo  Mo14  1  0.971814  0.466981  0.167592  1
  Mo  Mo15  1  0.466981  0.299389  0.495167  1
