# generated using pymatgen
data_RbNi9Sb2As3
_symmetry_space_group_name_H-M   'P 1'
_cell_length_a   6.91150400
_cell_length_b   6.91150346
_cell_length_c   11.73611500
_cell_angle_alpha   90.00000000
_cell_angle_beta   90.00000000
_cell_angle_gamma   119.99999300
_symmetry_Int_Tables_number   1
_chemical_formula_structural   RbNi9Sb2As3
_chemical_formula_sum   'Rb2 Ni18 Sb4 As6'
_cell_volume   485.51216096
_cell_formula_units_Z   2
loop_
 _symmetry_equiv_pos_site_id
 _symmetry_equiv_pos_as_xyz
  1  'x, y, z'
loop_
 _atom_site_type_symbol
 _atom_site_label
 _atom_site_symmetry_multiplicity
 _atom_site_fract_x
 _atom_site_fract_y
 _atom_site_fract_z
 _atom_site_occupancy
  Rb  Rb0  1  0.000000  0.000000  0.000000  1
  Rb  Rb1  1  0.000000  0.000000  0.500000  1
  Ni  Ni2  1  0.539864  0.460136  0.116810  1
  Ni  Ni3  1  0.079729  0.539864  0.616810  1
  Ni  Ni4  1  0.460136  0.920271  0.616810  1
  Ni  Ni5  1  0.539864  0.079729  0.116810  1
  Ni  Ni6  1  0.920271  0.460136  0.116810  1
  Ni  Ni7  1  0.079729  0.539864  0.883190  1
  Ni  Ni8  1  0.460136  0.920271  0.883190  1
  Ni  Ni9  1  0.460136  0.539864  0.616810  1
  Ni  Ni10  1  0.460136  0.539864  0.883190  1
  Ni  Ni11  1  0.539864  0.460136  0.383190  1
  Ni  Ni12  1  0.920271  0.460136  0.383190  1
  Ni  Ni13  1  0.539864  0.079729  0.383190  1
  Ni  Ni14  1  0.206917  0.793083  0.250000  1
  Ni  Ni15  1  0.413833  0.206917  0.750000  1
  Ni  Ni16  1  0.793083  0.586167  0.750000  1
  Ni  Ni17  1  0.206917  0.413833  0.250000  1
  Ni  Ni18  1  0.586167  0.793083  0.250000  1
  Ni  Ni19  1  0.793083  0.206917  0.750000  1
  Sb  Sb20  1  0.333333  0.666667  0.060610  1
  Sb  Sb21  1  0.666667  0.333333  0.560610  1
  Sb  Sb22  1  0.666667  0.333333  0.939390  1
  Sb  Sb23  1  0.333333  0.666667  0.439390  1
  As  As24  1  0.829851  0.170149  0.250000  1
  As  As25  1  0.659702  0.829851  0.750000  1
  As  As26  1  0.170149  0.340298  0.750000  1
  As  As27  1  0.829851  0.659702  0.250000  1
  As  As28  1  0.340298  0.170149  0.250000  1
  As  As29  1  0.170149  0.829851  0.750000  1
