# generated using pymatgen
data_Tm12Fe2RePb2
_symmetry_space_group_name_H-M   'P 1'
_cell_length_a   8.30766787
_cell_length_b   8.30766668
_cell_length_c   8.30766781
_cell_angle_alpha   108.82429605
_cell_angle_beta   108.82428432
_cell_angle_gamma   110.77298219
_symmetry_Int_Tables_number   1
_chemical_formula_structural   Tm12Fe2RePb2
_chemical_formula_sum   'Tm12 Fe2 Re1 Pb2'
_cell_volume   441.21146297
_cell_formula_units_Z   1
loop_
 _symmetry_equiv_pos_site_id
 _symmetry_equiv_pos_as_xyz
  1  'x, y, z'
loop_
 _atom_site_type_symbol
 _atom_site_label
 _atom_site_symmetry_multiplicity
 _atom_site_fract_x
 _atom_site_fract_y
 _atom_site_fract_z
 _atom_site_occupancy
  Tm  Tm0  1  0.193669  0.429372  0.235703  1
  Tm  Tm1  1  0.806331  0.570628  0.764297  1
  Tm  Tm2  1  0.193669  0.957966  0.764297  1
  Tm  Tm3  1  0.957966  0.193669  0.764297  1
  Tm  Tm4  1  0.806331  0.042034  0.235703  1
  Tm  Tm5  1  0.042034  0.806331  0.235703  1
  Tm  Tm6  1  0.429372  0.193669  0.235703  1
  Tm  Tm7  1  0.570628  0.806331  0.764297  1
  Tm  Tm8  1  0.308406  0.308406  0.616811  1
  Tm  Tm9  1  0.691594  0.691594  0.383189  1
  Tm  Tm10  1  0.691594  0.308406  0.000000  1
  Tm  Tm11  1  0.308406  0.691594  0.000000  1
  Fe  Fe12  1  0.386224  0.386224  0.000000  1
  Fe  Fe13  1  0.613776  0.613776  0.000000  1
  Re  Re14  1  0.000000  0.000000  0.000000  1
  Pb  Pb15  1  0.000000  0.500000  0.500000  1
  Pb  Pb16  1  0.500000  0.000000  0.500000  1
