# generated using pymatgen
data_Sr4Mo(BrN2)2
_symmetry_space_group_name_H-M   'P 1'
_cell_length_a   6.08534700
_cell_length_b   8.05255601
_cell_length_c   10.68174427
_cell_angle_alpha   81.64835430
_cell_angle_beta   90.00000000
_cell_angle_gamma   90.00000000
_symmetry_Int_Tables_number   1
_chemical_formula_structural   Sr4Mo(BrN2)2
_chemical_formula_sum   'Sr8 Mo2 Br4 N8'
_cell_volume   517.88234537
_cell_formula_units_Z   2
loop_
 _symmetry_equiv_pos_site_id
 _symmetry_equiv_pos_as_xyz
  1  'x, y, z'
loop_
 _atom_site_type_symbol
 _atom_site_label
 _atom_site_symmetry_multiplicity
 _atom_site_fract_x
 _atom_site_fract_y
 _atom_site_fract_z
 _atom_site_occupancy
  Sr  Sr0  1  0.750000  0.283936  0.305293  1
  Sr  Sr1  1  0.750000  0.002529  0.618972  1
  Sr  Sr2  1  0.750000  0.448657  0.613097  1
  Sr  Sr3  1  0.750000  0.813967  0.096880  1
  Sr  Sr4  1  0.250000  0.997471  0.381028  1
  Sr  Sr5  1  0.250000  0.551343  0.386903  1
  Sr  Sr6  1  0.250000  0.186033  0.903120  1
  Sr  Sr7  1  0.250000  0.716064  0.694707  1
  Mo  Mo8  1  0.750000  0.771842  0.394101  1
  Mo  Mo9  1  0.250000  0.228158  0.605899  1
  Br  Br10  1  0.250000  0.325971  0.165040  1
  Br  Br11  1  0.750000  0.674029  0.834960  1
  Br  Br12  1  0.250000  0.838245  0.099704  1
  Br  Br13  1  0.750000  0.161755  0.900296  1
  N  N14  1  0.250000  0.026802  0.716277  1
  N  N15  1  0.999513  0.245620  0.499464  1
  N  N16  1  0.499513  0.754380  0.500536  1
  N  N17  1  0.000487  0.754380  0.500536  1
  N  N18  1  0.750000  0.602413  0.291543  1
  N  N19  1  0.750000  0.973198  0.283723  1
  N  N20  1  0.500487  0.245620  0.499464  1
  N  N21  1  0.250000  0.397587  0.708457  1
