# generated using pymatgen
data_Dy4AsI6
_symmetry_space_group_name_H-M   'P 1'
_cell_length_a   4.24342200
_cell_length_b   13.89528700
_cell_length_c   14.72208000
_cell_angle_alpha   90.00000000
_cell_angle_beta   90.00000000
_cell_angle_gamma   90.00000000
_symmetry_Int_Tables_number   1
_chemical_formula_structural   Dy4AsI6
_chemical_formula_sum   'Dy8 As2 I12'
_cell_volume   868.06634387
_cell_formula_units_Z   2
loop_
 _symmetry_equiv_pos_site_id
 _symmetry_equiv_pos_as_xyz
  1  'x, y, z'
loop_
 _atom_site_type_symbol
 _atom_site_label
 _atom_site_symmetry_multiplicity
 _atom_site_fract_x
 _atom_site_fract_y
 _atom_site_fract_z
 _atom_site_occupancy
  Dy  Dy0  1  0.500000  0.114580  0.347524  1
  Dy  Dy1  1  0.500000  0.885420  0.652476  1
  Dy  Dy2  1  0.500000  0.614580  0.152476  1
  Dy  Dy3  1  0.500000  0.385420  0.847524  1
  Dy  Dy4  1  0.000000  0.109703  0.573195  1
  Dy  Dy5  1  0.000000  0.890297  0.426805  1
  Dy  Dy6  1  0.000000  0.609703  0.926805  1
  Dy  Dy7  1  0.000000  0.390297  0.073195  1
  As  As8  1  0.500000  0.000000  0.500000  1
  As  As9  1  0.500000  0.500000  0.000000  1
  I  I10  1  0.500000  0.245510  0.161198  1
  I  I11  1  0.500000  0.754490  0.838802  1
  I  I12  1  0.500000  0.745510  0.338802  1
  I  I13  1  0.500000  0.254490  0.661198  1
  I  I14  1  0.000000  0.258443  0.414533  1
  I  I15  1  0.000000  0.741557  0.585467  1
  I  I16  1  0.000000  0.758443  0.085467  1
  I  I17  1  0.000000  0.241557  0.914533  1
  I  I18  1  0.000000  0.999404  0.240824  1
  I  I19  1  0.000000  0.000596  0.759176  1
  I  I20  1  0.000000  0.499404  0.259176  1
  I  I21  1  0.000000  0.500596  0.740824  1
