# generated using pymatgen
data_Er4As6Ir3Ru4
_symmetry_space_group_name_H-M   'P 1'
_cell_length_a   7.23571027
_cell_length_b   7.23296206
_cell_length_c   7.23296265
_cell_angle_alpha   109.46351594
_cell_angle_beta   109.47891899
_cell_angle_gamma   109.47892686
_symmetry_Int_Tables_number   1
_chemical_formula_structural   Er4As6Ir3Ru4
_chemical_formula_sum   'Er4 As6 Ir3 Ru4'
_cell_volume   291.37373604
_cell_formula_units_Z   1
loop_
 _symmetry_equiv_pos_site_id
 _symmetry_equiv_pos_as_xyz
  1  'x, y, z'
loop_
 _atom_site_type_symbol
 _atom_site_label
 _atom_site_symmetry_multiplicity
 _atom_site_fract_x
 _atom_site_fract_y
 _atom_site_fract_z
 _atom_site_occupancy
  Er  Er0  1  0.999889  0.999776  0.499889  1
  Er  Er1  1  0.500000  0.000000  0.000000  1
  Er  Er2  1  0.000111  0.500111  0.000224  1
  Er  Er3  1  0.500000  0.500111  0.499889  1
  As  As4  1  0.679713  0.679767  0.993642  1
  As  As5  1  0.313929  0.313874  0.993642  1
  As  As6  1  0.000055  0.679767  0.686126  1
  As  As7  1  0.999945  0.313874  0.320233  1
  As  As8  1  0.686071  0.006358  0.686126  1
  As  As9  1  0.320287  0.006358  0.320233  1
  Ir  Ir10  1  0.500000  0.750750  0.249250  1
  Ir  Ir11  1  0.749250  0.498499  0.249250  1
  Ir  Ir12  1  0.250750  0.750750  0.501501  1
  Ru  Ru13  1  0.000000  0.000000  0.000000  1
  Ru  Ru14  1  0.249668  0.499336  0.749668  1
  Ru  Ru15  1  0.750332  0.250332  0.500664  1
  Ru  Ru16  1  0.500000  0.250332  0.749668  1
