# generated using pymatgen
data_K4Ba4Sc7Cr(PO4)12
_symmetry_space_group_name_H-M   'P 1'
_cell_length_a   10.20987700
_cell_length_b   10.20987700
_cell_length_c   10.20987700
_cell_angle_alpha   90.00000000
_cell_angle_beta   90.00000000
_cell_angle_gamma   90.00000000
_symmetry_Int_Tables_number   1
_chemical_formula_structural   K4Ba4Sc7Cr(PO4)12
_chemical_formula_sum   'K4 Ba4 Sc7 Cr1 P12 O48'
_cell_volume   1064.29379539
_cell_formula_units_Z   1
loop_
 _symmetry_equiv_pos_site_id
 _symmetry_equiv_pos_as_xyz
  1  'x, y, z'
loop_
 _atom_site_type_symbol
 _atom_site_label
 _atom_site_symmetry_multiplicity
 _atom_site_fract_x
 _atom_site_fract_y
 _atom_site_fract_z
 _atom_site_occupancy
  K  K0  1  0.193981  0.698209  0.801651  1
  K  K1  1  0.698209  0.801651  0.193981  1
  K  K2  1  0.801651  0.193981  0.698209  1
  K  K3  1  0.302556  0.302556  0.302556  1
  Ba  Ba4  1  0.428535  0.930626  0.569627  1
  Ba  Ba5  1  0.930626  0.569627  0.428535  1
  Ba  Ba6  1  0.569627  0.428535  0.930626  1
  Ba  Ba7  1  0.066660  0.066660  0.066660  1
  Sc  Sc8  1  0.915366  0.414672  0.083718  1
  Sc  Sc9  1  0.414672  0.083718  0.915366  1
  Sc  Sc10  1  0.083718  0.915366  0.414672  1
  Sc  Sc11  1  0.584341  0.584341  0.584341  1
  Sc  Sc12  1  0.648240  0.146167  0.352462  1
  Sc  Sc13  1  0.146167  0.352462  0.648240  1
  Sc  Sc14  1  0.352462  0.648240  0.146167  1
  Cr  Cr15  1  0.852377  0.852377  0.852377  1
  P  P16  1  0.230259  0.372105  0.961558  1
  P  P17  1  0.035474  0.731473  0.123680  1
  P  P18  1  0.870792  0.543656  0.772407  1
  P  P19  1  0.731473  0.123680  0.035474  1
  P  P20  1  0.543656  0.772407  0.870792  1
  P  P21  1  0.372105  0.961558  0.230259  1
  P  P22  1  0.772407  0.870792  0.543656  1
  P  P23  1  0.961558  0.230259  0.372105  1
  P  P24  1  0.123680  0.035474  0.731473  1
  P  P25  1  0.270225  0.627778  0.460965  1
  P  P26  1  0.460965  0.270225  0.627778  1
  P  P27  1  0.627778  0.460965  0.270225  1
  O  O28  1  0.303115  0.240829  0.984639  1
  O  O29  1  0.014813  0.803957  0.256171  1
  O  O30  1  0.740152  0.518643  0.699109  1
  O  O31  1  0.803957  0.256171  0.014813  1
  O  O32  1  0.518643  0.699109  0.740152  1
  O  O33  1  0.240829  0.984639  0.303115  1
  O  O34  1  0.699109  0.740152  0.518643  1
  O  O35  1  0.984639  0.303115  0.240829  1
  O  O36  1  0.256171  0.014813  0.803957  1
  O  O37  1  0.197404  0.759394  0.482847  1
  O  O38  1  0.482847  0.197404  0.759394  1
  O  O39  1  0.759394  0.482847  0.197404  1
  O  O40  1  0.086483  0.347547  0.000041  1
  O  O41  1  0.997371  0.587638  0.149394  1
  O  O42  1  0.845777  0.501008  0.915008  1
  O  O43  1  0.587638  0.149394  0.997371  1
  O  O44  1  0.501008  0.915008  0.845777  1
  O  O45  1  0.347547  0.000041  0.086483  1
  O  O46  1  0.915008  0.845777  0.501008  1
  O  O47  1  0.000041  0.086483  0.347547  1
  O  O48  1  0.149394  0.997371  0.587638  1
  O  O49  1  0.413784  0.653186  0.500269  1
  O  O50  1  0.500269  0.413784  0.653186  1
  O  O51  1  0.653186  0.500269  0.413784  1
  O  O52  1  0.240862  0.418676  0.817920  1
  O  O53  1  0.179552  0.741139  0.076853  1
  O  O54  1  0.916839  0.688445  0.764396  1
  O  O55  1  0.741139  0.076853  0.179552  1
  O  O56  1  0.688445  0.764396  0.916839  1
  O  O57  1  0.418676  0.817920  0.240862  1
  O  O58  1  0.764396  0.916839  0.688445  1
  O  O59  1  0.817920  0.240862  0.418676  1
  O  O60  1  0.076853  0.179552  0.741139  1
  O  O61  1  0.259850  0.580797  0.317318  1
  O  O62  1  0.317318  0.259850  0.580797  1
  O  O63  1  0.580797  0.317318  0.259850  1
  O  O64  1  0.300194  0.474577  0.048762  1
  O  O65  1  0.945694  0.803204  0.024468  1
  O  O66  1  0.975458  0.459769  0.701426  1
  O  O67  1  0.803204  0.024468  0.945694  1
  O  O68  1  0.459769  0.701426  0.975458  1
  O  O69  1  0.474577  0.048762  0.300194  1
  O  O70  1  0.701426  0.975458  0.459769  1
  O  O71  1  0.048762  0.300194  0.474577  1
  O  O72  1  0.024468  0.945694  0.803204  1
  O  O73  1  0.200671  0.525967  0.549025  1
  O  O74  1  0.549025  0.200671  0.525967  1
  O  O75  1  0.525967  0.549025  0.200671  1
