# generated using pymatgen
data_Ho4Lu4Re3OsC8
_symmetry_space_group_name_H-M   'P 1'
_cell_length_a   5.03228300
_cell_length_b   6.51808932
_cell_length_c   9.69568113
_cell_angle_alpha   89.86640217
_cell_angle_beta   90.00000000
_cell_angle_gamma   90.00000000
_symmetry_Int_Tables_number   1
_chemical_formula_structural   Ho4Lu4Re3OsC8
_chemical_formula_sum   'Ho4 Lu4 Re3 Os1 C8'
_cell_volume   318.02591265
_cell_formula_units_Z   1
loop_
 _symmetry_equiv_pos_site_id
 _symmetry_equiv_pos_as_xyz
  1  'x, y, z'
loop_
 _atom_site_type_symbol
 _atom_site_label
 _atom_site_symmetry_multiplicity
 _atom_site_fract_x
 _atom_site_fract_y
 _atom_site_fract_z
 _atom_site_occupancy
  Ho  Ho0  1  0.250000  0.533220  0.215533  1
  Ho  Ho1  1  0.750000  0.464725  0.785506  1
  Ho  Ho2  1  0.750000  0.967284  0.711960  1
  Ho  Ho3  1  0.250000  0.033223  0.285328  1
  Lu  Lu4  1  0.250000  0.672154  0.556740  1
  Lu  Lu5  1  0.750000  0.324803  0.441982  1
  Lu  Lu6  1  0.750000  0.825675  0.057716  1
  Lu  Lu7  1  0.250000  0.174572  0.942347  1
  Re  Re8  1  0.250000  0.720160  0.867483  1
  Re  Re9  1  0.750000  0.279783  0.131250  1
  Re  Re10  1  0.750000  0.778820  0.368346  1
  Os  Os11  1  0.250000  0.220903  0.632808  1
  C  C12  1  0.250000  0.452878  0.760438  1
  C  C13  1  0.750000  0.548124  0.239494  1
  C  C14  1  0.750000  0.047931  0.260556  1
  C  C15  1  0.250000  0.952779  0.740935  1
  C  C16  1  0.250000  0.830071  0.052862  1
  C  C17  1  0.750000  0.170755  0.946180  1
  C  C18  1  0.750000  0.670907  0.554297  1
  C  C19  1  0.250000  0.331236  0.448242  1
