# generated using pymatgen
data_Ho3Er(TmIr)2
_symmetry_space_group_name_H-M   'P 1'
_cell_length_a   6.35789898
_cell_length_b   7.21148500
_cell_length_c   9.09959500
_cell_angle_alpha   90.00000000
_cell_angle_beta   90.09563931
_cell_angle_gamma   90.00000000
_symmetry_Int_Tables_number   1
_chemical_formula_structural   Ho3Er(TmIr)2
_chemical_formula_sum   'Ho6 Er2 Tm4 Ir4'
_cell_volume   417.21487681
_cell_formula_units_Z   2
loop_
 _symmetry_equiv_pos_site_id
 _symmetry_equiv_pos_as_xyz
  1  'x, y, z'
loop_
 _atom_site_type_symbol
 _atom_site_label
 _atom_site_symmetry_multiplicity
 _atom_site_fract_x
 _atom_site_fract_y
 _atom_site_fract_z
 _atom_site_occupancy
  Ho  Ho0  1  0.327825  0.677378  0.061730  1
  Ho  Ho1  1  0.172175  0.177378  0.438270  1
  Ho  Ho2  1  0.870925  0.533730  0.250103  1
  Ho  Ho3  1  0.629075  0.033730  0.249897  1
  Ho  Ho4  1  0.128420  0.466130  0.749990  1
  Ho  Ho5  1  0.371580  0.966130  0.750010  1
  Er  Er6  1  0.328244  0.677038  0.438080  1
  Er  Er7  1  0.171756  0.177038  0.061920  1
  Tm  Tm8  1  0.671835  0.323058  0.562508  1
  Tm  Tm9  1  0.828165  0.823058  0.937492  1
  Tm  Tm10  1  0.671935  0.322825  0.937460  1
  Tm  Tm11  1  0.828065  0.822825  0.562540  1
  Ir  Ir12  1  0.043991  0.883354  0.250109  1
  Ir  Ir13  1  0.456009  0.383354  0.249891  1
  Ir  Ir14  1  0.954548  0.116486  0.750503  1
  Ir  Ir15  1  0.545452  0.616486  0.749497  1
