# generated using pymatgen
data_Li4Co2Ni7P7Rh
_symmetry_space_group_name_H-M   'P 1'
_cell_length_a   9.07410460
_cell_length_b   9.06024386
_cell_length_c   3.59371100
_cell_angle_alpha   90.00000000
_cell_angle_beta   90.00000000
_cell_angle_gamma   120.41327182
_symmetry_Int_Tables_number   1
_chemical_formula_structural   Li4Co2Ni7P7Rh
_chemical_formula_sum   'Li4 Co2 Ni7 P7 Rh1'
_cell_volume   254.79668136
_cell_formula_units_Z   1
loop_
 _symmetry_equiv_pos_site_id
 _symmetry_equiv_pos_as_xyz
  1  'x, y, z'
loop_
 _atom_site_type_symbol
 _atom_site_label
 _atom_site_symmetry_multiplicity
 _atom_site_fract_x
 _atom_site_fract_y
 _atom_site_fract_z
 _atom_site_occupancy
  Li  Li0  1  0.894811  0.121222  0.500000  1
  Li  Li1  1  0.224507  0.101080  0.500000  1
  Li  Li2  1  0.331751  0.663205  0.000000  1
  Li  Li3  1  0.661490  0.328009  0.500000  1
  Co  Co4  1  0.714121  0.881761  0.000000  1
  Co  Co5  1  0.565835  0.954565  0.500000  1
  Ni  Ni6  1  0.161190  0.276684  0.000000  1
  Ni  Ni7  1  0.122648  0.834850  0.000000  1
  Ni  Ni8  1  0.631711  0.569178  0.000000  1
  Ni  Ni9  1  0.942333  0.372459  0.000000  1
  Ni  Ni10  1  0.429248  0.058506  0.000000  1
  Ni  Ni11  1  0.389497  0.439190  0.500000  1
  Ni  Ni12  1  0.053024  0.611608  0.500000  1
  P  P13  1  0.585760  0.718329  0.500000  1
  P  P14  1  0.127098  0.414613  0.500000  1
  P  P15  1  0.296108  0.875235  0.500000  1
  P  P16  1  0.992255  0.990733  0.000000  1
  P  P17  1  0.878342  0.577431  0.000000  1
  P  P18  1  0.695937  0.118541  0.000000  1
  P  P19  1  0.423687  0.301713  0.000000  1
  Rh  Rh20  1  0.878648  0.791086  0.500000  1
