# generated using pymatgen
data_Tb3In3Cu2Pt
_symmetry_space_group_name_H-M   'P 1'
_cell_length_a   7.61429100
_cell_length_b   7.61429000
_cell_length_c   3.89037200
_cell_angle_alpha   90.00000000
_cell_angle_beta   90.00000000
_cell_angle_gamma   120.00000867
_symmetry_Int_Tables_number   1
_chemical_formula_structural   Tb3In3Cu2Pt
_chemical_formula_sum   'Tb3 In3 Cu2 Pt1'
_cell_volume   195.33524376
_cell_formula_units_Z   1
loop_
 _symmetry_equiv_pos_site_id
 _symmetry_equiv_pos_as_xyz
  1  'x, y, z'
loop_
 _atom_site_type_symbol
 _atom_site_label
 _atom_site_symmetry_multiplicity
 _atom_site_fract_x
 _atom_site_fract_y
 _atom_site_fract_z
 _atom_site_occupancy
  Tb  Tb0  1  0.007352  0.592938  0.500000  1
  Tb  Tb1  1  0.407062  0.414414  0.500000  1
  Tb  Tb2  1  0.585586  0.992648  0.500000  1
  In  In3  1  0.753125  0.745115  0.000000  1
  In  In4  1  0.991990  0.246875  0.000000  1
  In  In5  1  0.254885  0.008010  0.000000  1
  Cu  Cu6  1  0.000000  0.000000  0.500000  1
  Cu  Cu7  1  0.666667  0.333333  0.000000  1
  Pt  Pt8  1  0.333333  0.666667  0.000000  1
