# generated using pymatgen
data_KPm2GeF3
_symmetry_space_group_name_H-M   'P 1'
_cell_length_a   5.96449618
_cell_length_b   4.36249240
_cell_length_c   8.87426400
_cell_angle_alpha   104.36206657
_cell_angle_beta   79.59131496
_cell_angle_gamma   136.69564436
_symmetry_Int_Tables_number   1
_chemical_formula_structural   KPm2GeF3
_chemical_formula_sum   'K1 Pm2 Ge1 F3'
_cell_volume   153.42479579
_cell_formula_units_Z   1
loop_
 _symmetry_equiv_pos_site_id
 _symmetry_equiv_pos_as_xyz
  1  'x, y, z'
loop_
 _atom_site_type_symbol
 _atom_site_label
 _atom_site_symmetry_multiplicity
 _atom_site_fract_x
 _atom_site_fract_y
 _atom_site_fract_z
 _atom_site_occupancy
  K  K0  1  0.830255  0.075044  0.983805  1
  Pm  Pm1  1  0.337597  0.929347  0.661471  1
  Pm  Pm2  1  0.333376  0.240623  0.299368  1
  Ge  Ge3  1  0.837061  0.886154  0.576460  1
  F  F4  1  0.833499  0.673314  0.172640  1
  F  F5  1  0.338275  0.066219  0.920598  1
  F  F6  1  0.331623  0.695616  0.214004  1
