# generated using pymatgen
data_Nd3Mg2CdAgPb2
_symmetry_space_group_name_H-M   'P 1'
_cell_length_a   7.68308300
_cell_length_b   7.65515393
_cell_length_c   4.75064500
_cell_angle_alpha   90.00000000
_cell_angle_beta   90.00000000
_cell_angle_gamma   120.12075737
_symmetry_Int_Tables_number   1
_chemical_formula_structural   Nd3Mg2CdAgPb2
_chemical_formula_sum   'Nd3 Mg2 Cd1 Ag1 Pb2'
_cell_volume   241.68122434
_cell_formula_units_Z   1
loop_
 _symmetry_equiv_pos_site_id
 _symmetry_equiv_pos_as_xyz
  1  'x, y, z'
loop_
 _atom_site_type_symbol
 _atom_site_label
 _atom_site_symmetry_multiplicity
 _atom_site_fract_x
 _atom_site_fract_y
 _atom_site_fract_z
 _atom_site_occupancy
  Nd  Nd0  1  0.584317  0.000000  0.000000  1
  Nd  Nd1  1  0.002908  0.592347  0.000000  1
  Nd  Nd2  1  0.410561  0.407653  0.000000  1
  Mg  Mg3  1  0.001613  0.229855  0.500000  1
  Mg  Mg4  1  0.771757  0.770145  0.500000  1
  Cd  Cd5  1  0.230570  0.000000  0.500000  1
  Ag  Ag6  1  0.991750  0.000000  0.000000  1
  Pb  Pb7  1  0.334769  0.663015  0.500000  1
  Pb  Pb8  1  0.671755  0.336985  0.500000  1
