# generated using pymatgen
data_YbSmTm2(B6Os)2
_symmetry_space_group_name_H-M   'P 1'
_cell_length_a   3.64202400
_cell_length_b   9.13707056
_cell_length_c   11.54877705
_cell_angle_alpha   89.85115821
_cell_angle_beta   90.00000000
_cell_angle_gamma   90.00000000
_symmetry_Int_Tables_number   1
_chemical_formula_structural   YbSmTm2(B6Os)2
_chemical_formula_sum   'Yb2 Sm2 Tm4 B24 Os4'
_cell_volume   384.31232645
_cell_formula_units_Z   2
loop_
 _symmetry_equiv_pos_site_id
 _symmetry_equiv_pos_as_xyz
  1  'x, y, z'
loop_
 _atom_site_type_symbol
 _atom_site_label
 _atom_site_symmetry_multiplicity
 _atom_site_fract_x
 _atom_site_fract_y
 _atom_site_fract_z
 _atom_site_occupancy
  Yb  Yb0  1  0.000000  0.324367  0.415064  1
  Yb  Yb1  1  0.000000  0.675633  0.584936  1
  Sm  Sm2  1  0.000000  0.821649  0.086546  1
  Sm  Sm3  1  0.000000  0.178351  0.913454  1
  Tm  Tm4  1  0.000000  0.942167  0.371372  1
  Tm  Tm5  1  0.000000  0.057833  0.628629  1
  Tm  Tm6  1  0.000000  0.443082  0.130956  1
  Tm  Tm7  1  0.000000  0.556918  0.869043  1
  B  B8  1  0.500000  0.553826  0.432744  1
  B  B9  1  0.500000  0.446174  0.567256  1
  B  B10  1  0.500000  0.054990  0.068835  1
  B  B11  1  0.500000  0.945010  0.931165  1
  B  B12  1  0.500000  0.748295  0.418537  1
  B  B13  1  0.500000  0.251705  0.581463  1
  B  B14  1  0.500000  0.249958  0.083497  1
  B  B15  1  0.500000  0.750042  0.916503  1
  B  B16  1  0.500000  0.790581  0.266514  1
  B  B17  1  0.500000  0.209419  0.733486  1
  B  B18  1  0.500000  0.291026  0.235859  1
  B  B19  1  0.500000  0.708973  0.764141  1
  B  B20  1  0.500000  0.629852  0.186429  1
  B  B21  1  0.500000  0.370148  0.813571  1
  B  B22  1  0.500000  0.131127  0.315485  1
  B  B23  1  0.500000  0.868873  0.684515  1
  B  B24  1  0.500000  0.984169  0.213840  1
  B  B25  1  0.500000  0.015831  0.786160  1
  B  B26  1  0.500000  0.483070  0.288811  1
  B  B27  1  0.500000  0.516930  0.711189  1
  B  B28  1  0.500000  0.599457  0.027341  1
  B  B29  1  0.500000  0.400543  0.972659  1
  B  B30  1  0.500000  0.099424  0.472768  1
  B  B31  1  0.500000  0.900576  0.527232  1
  Os  Os32  1  0.000000  0.639224  0.319794  1
  Os  Os33  1  0.000000  0.360776  0.680206  1
  Os  Os34  1  0.000000  0.138566  0.180401  1
  Os  Os35  1  0.000000  0.861434  0.819599  1
