# generated using pymatgen
data_Hf6TiAl6Mo3N2
_symmetry_space_group_name_H-M   'P 1'
_cell_length_a   7.93551100
_cell_length_b   7.93551115
_cell_length_c   5.34350900
_cell_angle_alpha   90.00000000
_cell_angle_beta   90.00000000
_cell_angle_gamma   120.00000355
_symmetry_Int_Tables_number   1
_chemical_formula_structural   Hf6TiAl6Mo3N2
_chemical_formula_sum   'Hf6 Ti1 Al6 Mo3 N2'
_cell_volume   291.41168724
_cell_formula_units_Z   1
loop_
 _symmetry_equiv_pos_site_id
 _symmetry_equiv_pos_as_xyz
  1  'x, y, z'
loop_
 _atom_site_type_symbol
 _atom_site_label
 _atom_site_symmetry_multiplicity
 _atom_site_fract_x
 _atom_site_fract_y
 _atom_site_fract_z
 _atom_site_occupancy
  Hf  Hf0  1  0.229464  0.999138  0.249857  1
  Hf  Hf1  1  0.000862  0.230326  0.249857  1
  Hf  Hf2  1  0.769674  0.770536  0.249857  1
  Hf  Hf3  1  0.769674  0.999138  0.750143  1
  Hf  Hf4  1  0.000862  0.770536  0.750143  1
  Hf  Hf5  1  0.229464  0.230326  0.750143  1
  Ti  Ti6  1  0.666667  0.333333  0.000000  1
  Al  Al7  1  0.584472  0.997874  0.253306  1
  Al  Al8  1  0.002126  0.586598  0.253306  1
  Al  Al9  1  0.413402  0.415528  0.253306  1
  Al  Al10  1  0.413402  0.997874  0.746694  1
  Al  Al11  1  0.002126  0.415528  0.746694  1
  Al  Al12  1  0.584472  0.586598  0.746694  1
  Mo  Mo13  1  0.333333  0.666667  0.000000  1
  Mo  Mo14  1  0.666667  0.333333  0.500000  1
  Mo  Mo15  1  0.333333  0.666667  0.500000  1
  N  N16  1  0.000000  0.000000  0.000000  1
  N  N17  1  0.000000  0.000000  0.500000  1
