# generated using pymatgen
data_Tb4Pr(ThSe4)3
_symmetry_space_group_name_H-M   'P 1'
_cell_length_a   11.27312706
_cell_length_b   4.11637200
_cell_length_c   11.01870200
_cell_angle_alpha   90.00000000
_cell_angle_beta   89.82755526
_cell_angle_gamma   90.00000000
_symmetry_Int_Tables_number   1
_chemical_formula_structural   Tb4Pr(ThSe4)3
_chemical_formula_sum   'Tb4 Pr1 Th3 Se12'
_cell_volume   511.31376927
_cell_formula_units_Z   1
loop_
 _symmetry_equiv_pos_site_id
 _symmetry_equiv_pos_as_xyz
  1  'x, y, z'
loop_
 _atom_site_type_symbol
 _atom_site_label
 _atom_site_symmetry_multiplicity
 _atom_site_fract_x
 _atom_site_fract_y
 _atom_site_fract_z
 _atom_site_occupancy
  Tb  Tb0  1  0.484607  0.250000  0.187805  1
  Tb  Tb1  1  0.984338  0.250000  0.313552  1
  Tb  Tb2  1  0.516330  0.750000  0.812716  1
  Tb  Tb3  1  0.014285  0.750000  0.686198  1
  Pr  Pr4  1  0.697179  0.750000  0.496724  1
  Th  Th5  1  0.197439  0.750000  0.999290  1
  Th  Th6  1  0.305068  0.250000  0.501675  1
  Th  Th7  1  0.802491  0.250000  0.003573  1
  Se  Se8  1  0.542894  0.250000  0.629453  1
  Se  Se9  1  0.045901  0.250000  0.872902  1
  Se  Se10  1  0.449791  0.750000  0.370511  1
  Se  Se11  1  0.956088  0.750000  0.127472  1
  Se  Se12  1  0.614890  0.750000  0.054906  1
  Se  Se13  1  0.118020  0.750000  0.444950  1
  Se  Se14  1  0.383921  0.250000  0.944519  1
  Se  Se15  1  0.884938  0.250000  0.555086  1
  Se  Se16  1  0.728452  0.250000  0.290259  1
  Se  Se17  1  0.224472  0.250000  0.201253  1
  Se  Se18  1  0.272726  0.750000  0.705090  1
  Se  Se19  1  0.776172  0.750000  0.802067  1
