# generated using pymatgen
data_DyTaMn4P3
_symmetry_space_group_name_H-M   'P 1'
_cell_length_a   3.62029900
_cell_length_b   10.95621300
_cell_length_c   12.49120900
_cell_angle_alpha   90.00000000
_cell_angle_beta   90.00000000
_cell_angle_gamma   90.00000000
_symmetry_Int_Tables_number   1
_chemical_formula_structural   DyTaMn4P3
_chemical_formula_sum   'Dy4 Ta4 Mn16 P12'
_cell_volume   495.46089413
_cell_formula_units_Z   4
loop_
 _symmetry_equiv_pos_site_id
 _symmetry_equiv_pos_as_xyz
  1  'x, y, z'
loop_
 _atom_site_type_symbol
 _atom_site_label
 _atom_site_symmetry_multiplicity
 _atom_site_fract_x
 _atom_site_fract_y
 _atom_site_fract_z
 _atom_site_occupancy
  Dy  Dy0  1  0.250000  0.587660  0.707886  1
  Dy  Dy1  1  0.250000  0.912340  0.207886  1
  Dy  Dy2  1  0.750000  0.412340  0.292114  1
  Dy  Dy3  1  0.750000  0.087660  0.792114  1
  Ta  Ta4  1  0.250000  0.709425  0.983470  1
  Ta  Ta5  1  0.250000  0.790575  0.483470  1
  Ta  Ta6  1  0.750000  0.290575  0.016530  1
  Ta  Ta7  1  0.750000  0.209425  0.516530  1
  Mn  Mn8  1  0.250000  0.410196  0.492802  1
  Mn  Mn9  1  0.250000  0.089804  0.992802  1
  Mn  Mn10  1  0.750000  0.589804  0.507198  1
  Mn  Mn11  1  0.750000  0.910196  0.007198  1
  Mn  Mn12  1  0.250000  0.212305  0.179022  1
  Mn  Mn13  1  0.250000  0.287695  0.679022  1
  Mn  Mn14  1  0.750000  0.787695  0.820978  1
  Mn  Mn15  1  0.750000  0.712305  0.320978  1
  Mn  Mn16  1  0.250000  0.884175  0.695581  1
  Mn  Mn17  1  0.250000  0.615825  0.195581  1
  Mn  Mn18  1  0.750000  0.115825  0.304419  1
  Mn  Mn19  1  0.750000  0.384175  0.804419  1
  Mn  Mn20  1  0.250000  0.463868  0.934442  1
  Mn  Mn21  1  0.250000  0.036132  0.434442  1
  Mn  Mn22  1  0.750000  0.536132  0.065558  1
  Mn  Mn23  1  0.750000  0.963868  0.565558  1
  P  P24  1  0.250000  0.416833  0.118351  1
  P  P25  1  0.250000  0.083167  0.618351  1
  P  P26  1  0.750000  0.583167  0.881649  1
  P  P27  1  0.750000  0.916833  0.381649  1
  P  P28  1  0.250000  0.265892  0.867389  1
  P  P29  1  0.250000  0.234108  0.367389  1
  P  P30  1  0.750000  0.734108  0.132611  1
  P  P31  1  0.750000  0.765892  0.632611  1
  P  P32  1  0.250000  0.585251  0.382279  1
  P  P33  1  0.250000  0.914749  0.882279  1
  P  P34  1  0.750000  0.414749  0.617721  1
  P  P35  1  0.750000  0.085251  0.117721  1
