# generated using pymatgen
data_Nd17Tm3(Sn3Bi)4
_symmetry_space_group_name_H-M   'P 1'
_cell_length_a   8.38222064
_cell_length_b   8.40235724
_cell_length_c   16.06136700
_cell_angle_alpha   89.84640838
_cell_angle_beta   91.22368321
_cell_angle_gamma   90.00955893
_symmetry_Int_Tables_number   1
_chemical_formula_structural   Nd17Tm3(Sn3Bi)4
_chemical_formula_sum   'Nd17 Tm3 Sn12 Bi4'
_cell_volume   1130.94664713
_cell_formula_units_Z   1
loop_
 _symmetry_equiv_pos_site_id
 _symmetry_equiv_pos_as_xyz
  1  'x, y, z'
loop_
 _atom_site_type_symbol
 _atom_site_label
 _atom_site_symmetry_multiplicity
 _atom_site_fract_x
 _atom_site_fract_y
 _atom_site_fract_z
 _atom_site_occupancy
  Nd  Nd0  1  0.057811  0.167899  0.390373  1
  Nd  Nd1  1  0.381802  0.837208  0.119706  1
  Nd  Nd2  1  0.110743  0.335021  0.619369  1
  Nd  Nd3  1  0.466273  0.672227  0.899055  1
  Nd  Nd4  1  0.881230  0.661754  0.120569  1
  Nd  Nd5  1  0.119780  0.341839  0.880103  1
  Nd  Nd6  1  0.444963  0.675350  0.610601  1
  Nd  Nd7  1  0.605765  0.159060  0.618665  1
  Nd  Nd8  1  0.782179  0.500084  0.756303  1
  Nd  Nd9  1  0.890593  0.660786  0.379609  1
  Nd  Nd10  1  0.031746  0.180316  0.102237  1
  Nd  Nd11  1  0.957580  0.821700  0.897485  1
  Nd  Nd12  1  0.621356  0.161527  0.881601  1
  Nd  Nd13  1  0.540236  0.328693  0.104569  1
  Nd  Nd14  1  0.388044  0.842347  0.381546  1
  Nd  Nd15  1  0.951139  0.831756  0.610320  1
  Nd  Nd16  1  0.550618  0.326928  0.389160  1
  Tm  Tm17  1  0.219153  0.500808  0.244313  1
  Tm  Tm18  1  0.718635  0.999656  0.243654  1
  Tm  Tm19  1  0.281595  0.000694  0.748806  1
  Sn  Sn20  1  0.648361  0.860567  0.751791  1
  Sn  Sn21  1  0.850400  0.354999  0.250189  1
  Sn  Sn22  1  0.783044  0.467123  0.958292  1
  Sn  Sn23  1  0.581994  0.628401  0.251820  1
  Sn  Sn24  1  0.220649  0.527178  0.045996  1
  Sn  Sn25  1  0.414187  0.371462  0.749479  1
  Sn  Sn26  1  0.154048  0.645308  0.751991  1
  Sn  Sn27  1  0.917635  0.123560  0.750367  1
  Sn  Sn28  1  0.267359  0.017115  0.548605  1
  Sn  Sn29  1  0.720817  0.971139  0.046297  1
  Sn  Sn30  1  0.349185  0.143814  0.247796  1
  Sn  Sn31  1  0.083276  0.874238  0.249664  1
  Bi  Bi32  1  0.766076  0.483976  0.546733  1
  Bi  Bi33  1  0.732711  0.983642  0.450100  1
  Bi  Bi34  1  0.231813  0.516262  0.450187  1
  Bi  Bi35  1  0.277204  0.025566  0.952653  1
