# generated using pymatgen
data_LuZr(Co5As3)2
_symmetry_space_group_name_H-M   'P 1'
_cell_length_a   3.72817300
_cell_length_b   12.07397360
_cell_length_c   10.58372611
_cell_angle_alpha   90.03206920
_cell_angle_beta   90.00000000
_cell_angle_gamma   90.00000000
_symmetry_Int_Tables_number   1
_chemical_formula_structural   LuZr(Co5As3)2
_chemical_formula_sum   'Lu2 Zr2 Co20 As12'
_cell_volume   476.41431576
_cell_formula_units_Z   2
loop_
 _symmetry_equiv_pos_site_id
 _symmetry_equiv_pos_as_xyz
  1  'x, y, z'
loop_
 _atom_site_type_symbol
 _atom_site_label
 _atom_site_symmetry_multiplicity
 _atom_site_fract_x
 _atom_site_fract_y
 _atom_site_fract_z
 _atom_site_occupancy
  Lu  Lu0  1  0.250000  0.798125  0.581123  1
  Lu  Lu1  1  0.750000  0.201875  0.418877  1
  Zr  Zr2  1  0.750000  0.700984  0.079204  1
  Zr  Zr3  1  0.250000  0.299016  0.920796  1
  Co  Co4  1  0.750000  0.697175  0.383139  1
  Co  Co5  1  0.250000  0.302825  0.616861  1
  Co  Co6  1  0.250000  0.801572  0.887502  1
  Co  Co7  1  0.750000  0.198428  0.112498  1
  Co  Co8  1  0.750000  0.993281  0.214406  1
  Co  Co9  1  0.250000  0.006719  0.785594  1
  Co  Co10  1  0.250000  0.507980  0.716128  1
  Co  Co11  1  0.750000  0.492020  0.283872  1
  Co  Co12  1  0.750000  0.678444  0.784746  1
  Co  Co13  1  0.250000  0.321556  0.215254  1
  Co  Co14  1  0.250000  0.820364  0.282048  1
  Co  Co15  1  0.750000  0.179636  0.717952  1
  Co  Co16  1  0.750000  0.930337  0.970776  1
  Co  Co17  1  0.250000  0.069663  0.029224  1
  Co  Co18  1  0.250000  0.568723  0.468236  1
  Co  Co19  1  0.750000  0.431277  0.531764  1
  Co  Co20  1  0.750000  0.987169  0.592731  1
  Co  Co21  1  0.250000  0.012831  0.407269  1
  Co  Co22  1  0.250000  0.513146  0.090251  1
  Co  Co23  1  0.750000  0.486853  0.909749  1
  As  As24  1  0.750000  0.614822  0.585117  1
  As  As25  1  0.250000  0.385178  0.414883  1
  As  As26  1  0.250000  0.884692  0.085924  1
  As  As27  1  0.750000  0.115308  0.914076  1
  As  As28  1  0.750000  0.889410  0.400130  1
  As  As29  1  0.250000  0.110590  0.599870  1
  As  As30  1  0.250000  0.610904  0.901174  1
  As  As31  1  0.750000  0.389096  0.098826  1
  As  As32  1  0.750000  0.870393  0.768172  1
  As  As33  1  0.250000  0.129607  0.231828  1
  As  As34  1  0.250000  0.629039  0.265252  1
  As  As35  1  0.750000  0.370961  0.734748  1
