# generated using pymatgen
data_SmHf2Co8MoP6
_symmetry_space_group_name_H-M   'P 1'
_cell_length_a   12.05067507
_cell_length_b   12.05848629
_cell_length_c   3.67657900
_cell_angle_alpha   90.00000000
_cell_angle_beta   90.00000000
_cell_angle_gamma   120.02144431
_symmetry_Int_Tables_number   1
_chemical_formula_structural   SmHf2Co8MoP6
_chemical_formula_sum   'Sm2 Hf4 Co16 Mo2 P12'
_cell_volume   462.57783391
_cell_formula_units_Z   2
loop_
 _symmetry_equiv_pos_site_id
 _symmetry_equiv_pos_as_xyz
  1  'x, y, z'
loop_
 _atom_site_type_symbol
 _atom_site_label
 _atom_site_symmetry_multiplicity
 _atom_site_fract_x
 _atom_site_fract_y
 _atom_site_fract_z
 _atom_site_occupancy
  Sm  Sm0  1  0.334973  0.667284  0.000000  1
  Sm  Sm1  1  0.665027  0.332310  0.000000  1
  Hf  Hf2  1  0.821301  0.819863  0.500000  1
  Hf  Hf3  1  0.000000  0.175032  0.500000  1
  Hf  Hf4  1  0.000000  0.556127  0.000000  1
  Hf  Hf5  1  0.178699  0.998563  0.500000  1
  Co  Co6  1  0.632495  0.826080  0.000000  1
  Co  Co7  1  0.367505  0.193585  0.000000  1
  Co  Co8  1  0.000000  0.724624  0.500000  1
  Co  Co9  1  0.277315  0.276709  0.500000  1
  Co  Co10  1  0.874897  0.348187  0.500000  1
  Co  Co11  1  0.722685  0.999395  0.500000  1
  Co  Co12  1  0.821865  0.634092  0.000000  1
  Co  Co13  1  0.178135  0.812226  0.000000  1
  Co  Co14  1  0.355812  0.878957  0.500000  1
  Co  Co15  1  0.125103  0.473290  0.500000  1
  Co  Co16  1  0.644188  0.523144  0.500000  1
  Co  Co17  1  0.000000  0.000090  0.000000  1
  Co  Co18  1  0.522334  0.648757  0.500000  1
  Co  Co19  1  0.477666  0.126422  0.500000  1
  Co  Co20  1  0.192257  0.363710  0.000000  1
  Co  Co21  1  0.807743  0.171453  0.000000  1
  Mo  Mo22  1  0.447076  0.448602  0.000000  1
  Mo  Mo23  1  0.552924  0.001526  0.000000  1
  P  P24  1  0.000000  0.345535  0.000000  1
  P  P25  1  0.830009  0.523676  0.500000  1
  P  P26  1  0.686038  0.162019  0.500000  1
  P  P27  1  0.173742  0.171494  0.000000  1
  P  P28  1  0.641862  0.645751  0.000000  1
  P  P29  1  0.826258  0.997750  0.000000  1
  P  P30  1  0.523423  0.838040  0.500000  1
  P  P31  1  0.169991  0.693665  0.500000  1
  P  P32  1  0.358138  0.003890  0.000000  1
  P  P33  1  0.476577  0.314618  0.500000  1
  P  P34  1  0.000000  0.827556  0.000000  1
  P  P35  1  0.313962  0.475979  0.500000  1
