# generated using pymatgen
data_Nb13Ni8W3C3N
_symmetry_space_group_name_H-M   'P 1'
_cell_length_a   8.25373254
_cell_length_b   8.25396876
_cell_length_c   8.20938234
_cell_angle_alpha   59.82126835
_cell_angle_beta   59.82081539
_cell_angle_gamma   60.00074609
_symmetry_Int_Tables_number   1
_chemical_formula_structural   Nb13Ni8W3C3N
_chemical_formula_sum   'Nb13 Ni8 W3 C3 N1'
_cell_volume   394.39470514
_cell_formula_units_Z   1
loop_
 _symmetry_equiv_pos_site_id
 _symmetry_equiv_pos_as_xyz
  1  'x, y, z'
loop_
 _atom_site_type_symbol
 _atom_site_label
 _atom_site_symmetry_multiplicity
 _atom_site_fract_x
 _atom_site_fract_y
 _atom_site_fract_z
 _atom_site_occupancy
  Nb  Nb0  1  0.435582  0.066556  0.062274  1
  Nb  Nb1  1  0.063826  0.435969  0.436345  1
  Nb  Nb2  1  0.066555  0.435576  0.062291  1
  Nb  Nb3  1  0.063842  0.063854  0.436338  1
  Nb  Nb4  1  0.435978  0.063825  0.436356  1
  Nb  Nb5  1  0.435584  0.435591  0.062266  1
  Nb  Nb6  1  0.183445  0.814424  0.187709  1
  Nb  Nb7  1  0.814022  0.186175  0.813644  1
  Nb  Nb8  1  0.814418  0.183444  0.187726  1
  Nb  Nb9  1  0.186158  0.186146  0.813662  1
  Nb  Nb10  1  0.186174  0.814031  0.813655  1
  Nb  Nb11  1  0.814416  0.814409  0.187734  1
  Nb  Nb12  1  0.625000  0.625000  0.125000  1
  Ni  Ni13  1  0.831231  0.831247  0.825064  1
  Ni  Ni14  1  0.827974  0.827996  0.516003  1
  Ni  Ni15  1  0.512380  0.831280  0.825048  1
  Ni  Ni16  1  0.831211  0.512416  0.825095  1
  Ni  Ni17  1  0.418769  0.418753  0.424936  1
  Ni  Ni18  1  0.422026  0.422004  0.733997  1
  Ni  Ni19  1  0.418789  0.737584  0.424905  1
  Ni  Ni20  1  0.737620  0.418720  0.424952  1
  W  W21  1  0.625000  0.625000  0.625000  1
  W  W22  1  0.125000  0.625000  0.625000  1
  W  W23  1  0.625000  0.125000  0.625000  1
  C  C24  1  0.125000  0.125000  0.125000  1
  C  C25  1  0.625000  0.125000  0.125000  1
  C  C26  1  0.125000  0.625000  0.125000  1
  N  N27  1  0.125000  0.125000  0.625000  1
