# generated using pymatgen
data_Ti13Zn(GaCo)8
_symmetry_space_group_name_H-M   'P 1'
_cell_length_a   8.45068326
_cell_length_b   8.45068262
_cell_length_c   8.45068322
_cell_angle_alpha   59.91863201
_cell_angle_beta   59.91863058
_cell_angle_gamma   59.91864081
_symmetry_Int_Tables_number   1
_chemical_formula_structural   Ti13Zn(GaCo)8
_chemical_formula_sum   'Ti13 Zn1 Ga8 Co8'
_cell_volume   425.94950782
_cell_formula_units_Z   1
loop_
 _symmetry_equiv_pos_site_id
 _symmetry_equiv_pos_as_xyz
  1  'x, y, z'
loop_
 _atom_site_type_symbol
 _atom_site_label
 _atom_site_symmetry_multiplicity
 _atom_site_fract_x
 _atom_site_fract_y
 _atom_site_fract_z
 _atom_site_occupancy
  Ti  Ti0  1  0.205884  0.205884  0.793726  1
  Ti  Ti1  1  0.793726  0.205884  0.205884  1
  Ti  Ti2  1  0.205884  0.793726  0.205884  1
  Ti  Ti3  1  0.801078  0.801078  0.181419  1
  Ti  Ti4  1  0.181419  0.801078  0.801078  1
  Ti  Ti5  1  0.801078  0.181419  0.801078  1
  Ti  Ti6  1  0.379114  0.379114  0.379114  1
  Ti  Ti7  1  0.379173  0.864785  0.379173  1
  Ti  Ti8  1  0.864785  0.379173  0.379173  1
  Ti  Ti9  1  0.379173  0.379173  0.864785  1
  Ti  Ti10  1  0.841634  0.480379  0.841634  1
  Ti  Ti11  1  0.480379  0.841634  0.841634  1
  Ti  Ti12  1  0.841634  0.841634  0.480379  1
  Zn  Zn13  1  0.828925  0.828925  0.828925  1
  Ga  Ga14  1  0.155875  0.155875  0.155875  1
  Ga  Ga15  1  0.160002  0.525000  0.160002  1
  Ga  Ga16  1  0.525000  0.160002  0.160002  1
  Ga  Ga17  1  0.160002  0.160002  0.525000  1
  Ga  Ga18  1  0.619241  0.619241  0.619241  1
  Ga  Ga19  1  0.618809  0.146348  0.618809  1
  Ga  Ga20  1  0.146348  0.618809  0.618809  1
  Ga  Ga21  1  0.618809  0.618809  0.146348  1
  Co  Co22  1  0.004517  0.004517  0.495069  1
  Co  Co23  1  0.495069  0.004517  0.004517  1
  Co  Co24  1  0.004517  0.495069  0.004517  1
  Co  Co25  1  0.500788  0.500788  0.001797  1
  Co  Co26  1  0.001797  0.500788  0.500788  1
  Co  Co27  1  0.500788  0.001797  0.500788  1
  Co  Co28  1  0.501405  0.501405  0.501405  1
  Co  Co29  1  0.003142  0.003142  0.003142  1
