# generated using pymatgen
data_Ho4SiB4Ir9
_symmetry_space_group_name_H-M   'P 1'
_cell_length_a   10.69056819
_cell_length_b   10.69056801
_cell_length_c   10.69056849
_cell_angle_alpha   29.84765902
_cell_angle_beta   29.84766079
_cell_angle_gamma   29.84766544
_symmetry_Int_Tables_number   1
_chemical_formula_structural   Ho4SiB4Ir9
_chemical_formula_sum   'Ho4 Si1 B4 Ir9'
_cell_volume   268.01496148
_cell_formula_units_Z   1
loop_
 _symmetry_equiv_pos_site_id
 _symmetry_equiv_pos_as_xyz
  1  'x, y, z'
loop_
 _atom_site_type_symbol
 _atom_site_label
 _atom_site_symmetry_multiplicity
 _atom_site_fract_x
 _atom_site_fract_y
 _atom_site_fract_z
 _atom_site_occupancy
  Ho  Ho0  1  0.150262  0.150262  0.150262  1
  Ho  Ho1  1  0.950011  0.950011  0.950011  1
  Ho  Ho2  1  0.849738  0.849738  0.849738  1
  Ho  Ho3  1  0.049989  0.049989  0.049989  1
  Si  Si4  1  0.500000  0.500000  0.500000  1
  B  B5  1  0.615549  0.615549  0.615549  1
  B  B6  1  0.718364  0.718364  0.718364  1
  B  B7  1  0.384451  0.384451  0.384451  1
  B  B8  1  0.281636  0.281636  0.281636  1
  Ir  Ir9  1  0.401642  0.898823  0.401642  1
  Ir  Ir10  1  0.898823  0.401642  0.401642  1
  Ir  Ir11  1  0.500000  0.500000  0.000000  1
  Ir  Ir12  1  0.500000  0.000000  0.500000  1
  Ir  Ir13  1  0.000000  0.500000  0.500000  1
  Ir  Ir14  1  0.598358  0.101177  0.598358  1
  Ir  Ir15  1  0.598358  0.598358  0.101177  1
  Ir  Ir16  1  0.101177  0.598358  0.598358  1
  Ir  Ir17  1  0.401642  0.401642  0.898823  1
