# generated using pymatgen
data_Nd4Al18ZnIr2Rh3
_symmetry_space_group_name_H-M   'P 1'
_cell_length_a   7.65336817
_cell_length_b   7.65336789
_cell_length_c   9.61085400
_cell_angle_alpha   89.93962668
_cell_angle_beta   89.93962491
_cell_angle_gamma   119.41718431
_symmetry_Int_Tables_number   1
_chemical_formula_structural   Nd4Al18ZnIr2Rh3
_chemical_formula_sum   'Nd4 Al18 Zn1 Ir2 Rh3'
_cell_volume   490.36284842
_cell_formula_units_Z   1
loop_
 _symmetry_equiv_pos_site_id
 _symmetry_equiv_pos_as_xyz
  1  'x, y, z'
loop_
 _atom_site_type_symbol
 _atom_site_label
 _atom_site_symmetry_multiplicity
 _atom_site_fract_x
 _atom_site_fract_y
 _atom_site_fract_z
 _atom_site_occupancy
  Nd  Nd0  1  0.995507  0.675478  0.248651  1
  Nd  Nd1  1  0.004493  0.324522  0.751349  1
  Nd  Nd2  1  0.675478  0.995507  0.248651  1
  Nd  Nd3  1  0.324522  0.004493  0.751349  1
  Al  Al4  1  0.137571  0.137571  0.258851  1
  Al  Al5  1  0.862429  0.862429  0.741149  1
  Al  Al6  1  0.004608  0.345576  0.077520  1
  Al  Al7  1  0.995392  0.654424  0.922480  1
  Al  Al8  1  0.999684  0.664232  0.569878  1
  Al  Al9  1  0.335768  0.000316  0.430122  1
  Al  Al10  1  0.000316  0.335768  0.430122  1
  Al  Al11  1  0.664232  0.999684  0.569878  1
  Al  Al12  1  0.654424  0.995392  0.922480  1
  Al  Al13  1  0.345576  0.004608  0.077520  1
  Al  Al14  1  0.333684  0.333684  0.546728  1
  Al  Al15  1  0.666316  0.666316  0.453272  1
  Al  Al16  1  0.655728  0.655728  0.056173  1
  Al  Al17  1  0.344272  0.344272  0.943827  1
  Al  Al18  1  0.338947  0.549044  0.251232  1
  Al  Al19  1  0.661053  0.450956  0.748768  1
  Al  Al20  1  0.549044  0.338947  0.251232  1
  Al  Al21  1  0.450956  0.661053  0.748768  1
  Zn  Zn22  1  0.000000  0.000000  0.000000  1
  Ir  Ir23  1  0.329206  0.670794  0.500000  1
  Ir  Ir24  1  0.670794  0.329206  0.500000  1
  Rh  Rh25  1  0.671164  0.328836  0.000000  1
  Rh  Rh26  1  0.328836  0.671164  0.000000  1
  Rh  Rh27  1  0.000000  0.000000  0.500000  1
