# generated using pymatgen
data_Ho3Cd3In2Ir
_symmetry_space_group_name_H-M   'P 1'
_cell_length_a   8.22944400
_cell_length_b   8.22944388
_cell_length_c   3.67495400
_cell_angle_alpha   90.00000000
_cell_angle_beta   90.00000000
_cell_angle_gamma   119.99999941
_symmetry_Int_Tables_number   1
_chemical_formula_structural   Ho3Cd3In2Ir
_chemical_formula_sum   'Ho3 Cd3 In2 Ir1'
_cell_volume   215.53783873
_cell_formula_units_Z   1
loop_
 _symmetry_equiv_pos_site_id
 _symmetry_equiv_pos_as_xyz
  1  'x, y, z'
loop_
 _atom_site_type_symbol
 _atom_site_label
 _atom_site_symmetry_multiplicity
 _atom_site_fract_x
 _atom_site_fract_y
 _atom_site_fract_z
 _atom_site_occupancy
  Ho  Ho0  1  0.577426  0.954827  0.000000  1
  Ho  Ho1  1  0.045173  0.622600  0.000000  1
  Ho  Ho2  1  0.377400  0.422574  0.000000  1
  Cd  Cd3  1  0.286218  0.004129  0.500000  1
  Cd  Cd4  1  0.995871  0.282089  0.500000  1
  Cd  Cd5  1  0.717911  0.713782  0.500000  1
  In  In6  1  0.666667  0.333333  0.500000  1
  In  In7  1  0.000000  0.000000  0.000000  1
  Ir  Ir8  1  0.333333  0.666667  0.500000  1
