# generated using pymatgen
data_Sc8NiHg3
_symmetry_space_group_name_H-M   'P 1'
_cell_length_a   9.60342100
_cell_length_b   9.60342164
_cell_length_c   6.52530300
_cell_angle_alpha   90.00000000
_cell_angle_beta   90.00000000
_cell_angle_gamma   120.00000124
_symmetry_Int_Tables_number   1
_chemical_formula_structural   Sc8NiHg3
_chemical_formula_sum   'Sc16 Ni2 Hg6'
_cell_volume   521.17463900
_cell_formula_units_Z   2
loop_
 _symmetry_equiv_pos_site_id
 _symmetry_equiv_pos_as_xyz
  1  'x, y, z'
loop_
 _atom_site_type_symbol
 _atom_site_label
 _atom_site_symmetry_multiplicity
 _atom_site_fract_x
 _atom_site_fract_y
 _atom_site_fract_z
 _atom_site_occupancy
  Sc  Sc0  1  0.533593  0.067186  0.526959  1
  Sc  Sc1  1  0.932814  0.466407  0.526959  1
  Sc  Sc2  1  0.533593  0.466407  0.526959  1
  Sc  Sc3  1  0.466407  0.932814  0.026959  1
  Sc  Sc4  1  0.067186  0.533593  0.026959  1
  Sc  Sc5  1  0.466407  0.533593  0.026959  1
  Sc  Sc6  1  0.175092  0.350184  0.723537  1
  Sc  Sc7  1  0.649816  0.824908  0.723537  1
  Sc  Sc8  1  0.175092  0.824908  0.723537  1
  Sc  Sc9  1  0.824908  0.649816  0.223537  1
  Sc  Sc10  1  0.350184  0.175092  0.223537  1
  Sc  Sc11  1  0.824908  0.175092  0.223537  1
  Sc  Sc12  1  0.666667  0.333333  0.911962  1
  Sc  Sc13  1  0.333333  0.666667  0.411962  1
  Sc  Sc14  1  0.000000  0.000000  0.500040  1
  Sc  Sc15  1  0.000000  0.000000  0.000040  1
  Ni  Ni16  1  0.666667  0.333333  0.289912  1
  Ni  Ni17  1  0.333333  0.666667  0.789912  1
  Hg  Hg18  1  0.834094  0.668188  0.774813  1
  Hg  Hg19  1  0.331812  0.165906  0.774813  1
  Hg  Hg20  1  0.834094  0.165906  0.774813  1
  Hg  Hg21  1  0.165906  0.331812  0.274813  1
  Hg  Hg22  1  0.668188  0.834094  0.274813  1
  Hg  Hg23  1  0.165906  0.834094  0.274813  1
