# generated using pymatgen
data_La2CePr3(CI5)2
_symmetry_space_group_name_H-M   'P 1'
_cell_length_a   8.08482247
_cell_length_b   9.86561572
_cell_length_c   9.98252650
_cell_angle_alpha   106.90580537
_cell_angle_beta   96.80957230
_cell_angle_gamma   104.42762116
_symmetry_Int_Tables_number   1
_chemical_formula_structural   La2CePr3(CI5)2
_chemical_formula_sum   'La2 Ce1 Pr3 C2 I10'
_cell_volume   721.94103320
_cell_formula_units_Z   1
loop_
 _symmetry_equiv_pos_site_id
 _symmetry_equiv_pos_as_xyz
  1  'x, y, z'
loop_
 _atom_site_type_symbol
 _atom_site_label
 _atom_site_symmetry_multiplicity
 _atom_site_fract_x
 _atom_site_fract_y
 _atom_site_fract_z
 _atom_site_occupancy
  La  La0  1  0.108966  0.041924  0.775104  1
  La  La1  1  0.372902  0.133882  0.181825  1
  Ce  Ce2  1  0.630020  0.866753  0.820326  1
  Pr  Pr3  1  0.889814  0.957198  0.219678  1
  Pr  Pr4  1  0.033396  0.737449  0.925621  1
  Pr  Pr5  1  0.965450  0.261704  0.075024  1
  C  C6  1  0.914028  0.970062  0.957648  1
  C  C7  1  0.086060  0.029676  0.039896  1
  I  I8  1  0.197670  0.735749  0.650521  1
  I  I9  1  0.085821  0.371666  0.823779  1
  I  I10  1  0.458244  0.808942  0.090502  1
  I  I11  1  0.245478  0.082314  0.460073  1
  I  I12  1  0.545547  0.189879  0.908801  1
  I  I13  1  0.808291  0.262363  0.351850  1
  I  I14  1  0.335887  0.454582  0.271538  1
  I  I15  1  0.913399  0.631963  0.178164  1
  I  I16  1  0.662651  0.547956  0.729242  1
  I  I17  1  0.746374  0.915936  0.540409  1
