# generated using pymatgen
data_Dy7Tm4Lu5TlCd3Pt4
_symmetry_space_group_name_H-M   'P 1'
_cell_length_a   9.59098940
_cell_length_b   9.59115375
_cell_length_c   9.57931800
_cell_angle_alpha   60.04086119
_cell_angle_beta   60.04106066
_cell_angle_gamma   60.18872702
_symmetry_Int_Tables_number   1
_chemical_formula_structural   Dy7Tm4Lu5TlCd3Pt4
_chemical_formula_sum   'Dy7 Tm4 Lu5 Tl1 Cd3 Pt4'
_cell_volume   624.36541748
_cell_formula_units_Z   1
loop_
 _symmetry_equiv_pos_site_id
 _symmetry_equiv_pos_as_xyz
  1  'x, y, z'
loop_
 _atom_site_type_symbol
 _atom_site_label
 _atom_site_symmetry_multiplicity
 _atom_site_fract_x
 _atom_site_fract_y
 _atom_site_fract_z
 _atom_site_occupancy
  Dy  Dy0  1  0.812190  0.812158  0.187113  1
  Dy  Dy1  1  0.939737  0.562706  0.564398  1
  Dy  Dy2  1  0.563495  0.937570  0.935417  1
  Dy  Dy3  1  0.562589  0.939772  0.564389  1
  Dy  Dy4  1  0.937577  0.563483  0.935417  1
  Dy  Dy5  1  0.564537  0.564611  0.937935  1
  Dy  Dy6  1  0.938470  0.938542  0.561715  1
  Tm  Tm7  1  0.351031  0.351094  0.351232  1
  Tm  Tm8  1  0.351156  0.351159  0.946304  1
  Tm  Tm9  1  0.353836  0.940760  0.352619  1
  Tm  Tm10  1  0.940732  0.353966  0.352639  1
  Lu  Lu11  1  0.811686  0.189872  0.187045  1
  Lu  Lu12  1  0.190231  0.811179  0.810028  1
  Lu  Lu13  1  0.189834  0.811778  0.187099  1
  Lu  Lu14  1  0.811149  0.190258  0.810089  1
  Lu  Lu15  1  0.187898  0.187863  0.811727  1
  Tl  Tl16  1  0.583610  0.583301  0.585323  1
  Cd  Cd17  1  0.580252  0.580066  0.254084  1
  Cd  Cd18  1  0.579270  0.253929  0.581425  1
  Cd  Cd19  1  0.253973  0.579262  0.581713  1
  Pt  Pt20  1  0.140913  0.141063  0.146142  1
  Pt  Pt21  1  0.141009  0.140992  0.571899  1
  Pt  Pt22  1  0.143909  0.570978  0.142029  1
  Pt  Pt23  1  0.570922  0.143642  0.142216  1
