# generated using pymatgen
data_ErLu19(Bi2Ir)4
_symmetry_space_group_name_H-M   'P 1'
_cell_length_a   7.81672335
_cell_length_b   8.93108000
_cell_length_c   12.33126156
_cell_angle_alpha   90.00000000
_cell_angle_beta   90.03447676
_cell_angle_gamma   90.00000000
_symmetry_Int_Tables_number   1
_chemical_formula_structural   ErLu19(Bi2Ir)4
_chemical_formula_sum   'Er1 Lu19 Bi8 Ir4'
_cell_volume   860.86718303
_cell_formula_units_Z   1
loop_
 _symmetry_equiv_pos_site_id
 _symmetry_equiv_pos_as_xyz
  1  'x, y, z'
loop_
 _atom_site_type_symbol
 _atom_site_label
 _atom_site_symmetry_multiplicity
 _atom_site_fract_x
 _atom_site_fract_y
 _atom_site_fract_z
 _atom_site_occupancy
  Er  Er0  1  0.943621  0.750000  0.498094  1
  Lu  Lu1  1  0.660862  0.750000  0.706567  1
  Lu  Lu2  1  0.338798  0.250000  0.293614  1
  Lu  Lu3  1  0.161080  0.250000  0.793753  1
  Lu  Lu4  1  0.838860  0.750000  0.206101  1
  Lu  Lu5  1  0.127042  0.750000  0.812009  1
  Lu  Lu6  1  0.872923  0.250000  0.187919  1
  Lu  Lu7  1  0.627167  0.250000  0.688082  1
  Lu  Lu8  1  0.372743  0.750000  0.311887  1
  Lu  Lu9  1  0.557769  0.750000  0.997953  1
  Lu  Lu10  1  0.442164  0.250000  0.002003  1
  Lu  Lu11  1  0.057576  0.250000  0.501993  1
  Lu  Lu12  1  0.827938  0.459128  0.932411  1
  Lu  Lu13  1  0.172085  0.540876  0.067606  1
  Lu  Lu14  1  0.328110  0.540685  0.567700  1
  Lu  Lu15  1  0.172085  0.959124  0.067606  1
  Lu  Lu16  1  0.671748  0.458783  0.432251  1
  Lu  Lu17  1  0.827938  0.040872  0.932411  1
  Lu  Lu18  1  0.671748  0.041217  0.432251  1
  Lu  Lu19  1  0.328110  0.959315  0.567700  1
  Bi  Bi20  1  0.937395  0.007928  0.672827  1
  Bi  Bi21  1  0.062766  0.992916  0.327174  1
  Bi  Bi22  1  0.437396  0.992535  0.827608  1
  Bi  Bi23  1  0.062766  0.507084  0.327174  1
  Bi  Bi24  1  0.562563  0.007635  0.172414  1
  Bi  Bi25  1  0.937395  0.492072  0.672827  1
  Bi  Bi26  1  0.562563  0.492365  0.172414  1
  Bi  Bi27  1  0.437396  0.507465  0.827608  1
  Ir  Ir28  1  0.929989  0.750000  0.992550  1
  Ir  Ir29  1  0.070010  0.250000  0.007419  1
  Ir  Ir30  1  0.429976  0.250000  0.507453  1
  Ir  Ir31  1  0.569416  0.750000  0.492621  1
