# generated using pymatgen
data_Y6SiTe2
_symmetry_space_group_name_H-M   'P 1'
_cell_length_a   4.20549400
_cell_length_b   11.45474000
_cell_length_c   21.20010800
_cell_angle_alpha   90.00000000
_cell_angle_beta   90.00000000
_cell_angle_gamma   90.00000000
_symmetry_Int_Tables_number   1
_chemical_formula_structural   Y6SiTe2
_chemical_formula_sum   'Y24 Si4 Te8'
_cell_volume   1021.26941791
_cell_formula_units_Z   4
loop_
 _symmetry_equiv_pos_site_id
 _symmetry_equiv_pos_as_xyz
  1  'x, y, z'
loop_
 _atom_site_type_symbol
 _atom_site_label
 _atom_site_symmetry_multiplicity
 _atom_site_fract_x
 _atom_site_fract_y
 _atom_site_fract_z
 _atom_site_occupancy
  Y  Y0  1  0.750000  0.576813  0.855468  1
  Y  Y1  1  0.250000  0.171132  0.391580  1
  Y  Y2  1  0.250000  0.887209  0.492098  1
  Y  Y3  1  0.750000  0.828868  0.608420  1
  Y  Y4  1  0.750000  0.881908  0.975810  1
  Y  Y5  1  0.750000  0.618092  0.475810  1
  Y  Y6  1  0.750000  0.387209  0.007902  1
  Y  Y7  1  0.250000  0.423187  0.144532  1
  Y  Y8  1  0.250000  0.076813  0.644532  1
  Y  Y9  1  0.250000  0.747123  0.231379  1
  Y  Y10  1  0.250000  0.039996  0.848179  1
  Y  Y11  1  0.250000  0.752877  0.731379  1
  Y  Y12  1  0.750000  0.252877  0.768621  1
  Y  Y13  1  0.750000  0.671132  0.108420  1
  Y  Y14  1  0.250000  0.118092  0.024190  1
  Y  Y15  1  0.750000  0.247123  0.268621  1
  Y  Y16  1  0.750000  0.539996  0.651821  1
  Y  Y17  1  0.250000  0.460004  0.348179  1
  Y  Y18  1  0.750000  0.960004  0.151821  1
  Y  Y19  1  0.750000  0.112791  0.507902  1
  Y  Y20  1  0.250000  0.328868  0.891580  1
  Y  Y21  1  0.750000  0.923187  0.355468  1
  Y  Y22  1  0.250000  0.612791  0.992098  1
  Y  Y23  1  0.250000  0.381908  0.524190  1
  Si  Si24  1  0.750000  0.145637  0.926548  1
  Si  Si25  1  0.250000  0.854363  0.073452  1
  Si  Si26  1  0.250000  0.645637  0.573452  1
  Si  Si27  1  0.750000  0.354363  0.426548  1
  Te  Te28  1  0.750000  0.968242  0.740229  1
  Te  Te29  1  0.750000  0.279465  0.623577  1
  Te  Te30  1  0.250000  0.779465  0.876423  1
  Te  Te31  1  0.250000  0.031758  0.259771  1
  Te  Te32  1  0.250000  0.720535  0.376423  1
  Te  Te33  1  0.250000  0.468242  0.759771  1
  Te  Te34  1  0.750000  0.220535  0.123577  1
  Te  Te35  1  0.750000  0.531758  0.240229  1
