# generated using pymatgen
data_Ta22Ti2Si7Ge
_symmetry_space_group_name_H-M   'P 1'
_cell_length_a   10.22665317
_cell_length_b   10.22266408
_cell_length_c   5.21761043
_cell_angle_alpha   90.01813974
_cell_angle_beta   89.90544623
_cell_angle_gamma   89.99200976
_symmetry_Int_Tables_number   1
_chemical_formula_structural   Ta22Ti2Si7Ge
_chemical_formula_sum   'Ta22 Ti2 Si7 Ge1'
_cell_volume   545.46721081
_cell_formula_units_Z   1
loop_
 _symmetry_equiv_pos_site_id
 _symmetry_equiv_pos_as_xyz
  1  'x, y, z'
loop_
 _atom_site_type_symbol
 _atom_site_label
 _atom_site_symmetry_multiplicity
 _atom_site_fract_x
 _atom_site_fract_y
 _atom_site_fract_z
 _atom_site_occupancy
  Ta  Ta0  1  0.100826  0.415514  0.531843  1
  Ta  Ta1  1  0.411506  0.900998  0.469199  1
  Ta  Ta2  1  0.714829  0.814826  0.487405  1
  Ta  Ta3  1  0.686805  0.213804  0.984034  1
  Ta  Ta4  1  0.979045  0.853802  0.778963  1
  Ta  Ta5  1  0.186036  0.714504  0.515503  1
  Ta  Ta6  1  0.085555  0.601658  0.030745  1
  Ta  Ta7  1  0.019402  0.147391  0.776823  1
  Ta  Ta8  1  0.481952  0.354319  0.720596  1
  Ta  Ta9  1  0.310626  0.787240  0.986472  1
  Ta  Ta10  1  0.648107  0.475691  0.277355  1
  Ta  Ta11  1  0.397456  0.083665  0.970222  1
  Ta  Ta12  1  0.214146  0.314570  0.013811  1
  Ta  Ta13  1  0.350990  0.515349  0.278918  1
  Ta  Ta14  1  0.854916  0.019477  0.222070  1
  Ta  Ta15  1  0.915144  0.397753  0.032586  1
  Ta  Ta16  1  0.788149  0.686309  0.017139  1
  Ta  Ta17  1  0.601578  0.914295  0.963204  1
  Ta  Ta18  1  0.585478  0.101179  0.467046  1
  Ta  Ta19  1  0.815318  0.286153  0.515370  1
  Ta  Ta20  1  0.285561  0.186540  0.487400  1
  Ta  Ta21  1  0.897673  0.586881  0.531779  1
  Ti  Ti22  1  0.520031  0.646112  0.722725  1
  Ti  Ti23  1  0.145979  0.980686  0.223248  1
  Si  Si24  1  0.970854  0.796963  0.282756  1
  Si  Si25  1  0.297894  0.533623  0.782985  1
  Si  Si26  1  0.795979  0.031909  0.716446  1
  Si  Si27  1  0.704517  0.470328  0.782022  1
  Si  Si28  1  0.201693  0.969238  0.716401  1
  Si  Si29  1  0.468160  0.294295  0.215709  1
  Si  Si30  1  0.033929  0.202930  0.282385  1
  Ge  Ge31  1  0.529868  0.702001  0.216841  1
