# generated using pymatgen
data_Nd5Y3(Ho3Pb4)4
_symmetry_space_group_name_H-M   'P 1'
_cell_length_a   8.24901121
_cell_length_b   8.34670297
_cell_length_c   15.73251000
_cell_angle_alpha   89.96893136
_cell_angle_beta   89.72471702
_cell_angle_gamma   90.28689373
_symmetry_Int_Tables_number   1
_chemical_formula_structural   Nd5Y3(Ho3Pb4)4
_chemical_formula_sum   'Nd5 Y3 Ho12 Pb16'
_cell_volume   1083.18925313
_cell_formula_units_Z   1
loop_
 _symmetry_equiv_pos_site_id
 _symmetry_equiv_pos_as_xyz
  1  'x, y, z'
loop_
 _atom_site_type_symbol
 _atom_site_label
 _atom_site_symmetry_multiplicity
 _atom_site_fract_x
 _atom_site_fract_y
 _atom_site_fract_z
 _atom_site_occupancy
  Nd  Nd0  1  0.527226  0.321586  0.902256  1
  Nd  Nd1  1  0.028974  0.177051  0.597804  1
  Nd  Nd2  1  0.470625  0.677478  0.402118  1
  Nd  Nd3  1  0.972532  0.823417  0.097021  1
  Nd  Nd4  1  0.471194  0.678459  0.098369  1
  Y  Y5  1  0.966354  0.824217  0.400534  1
  Y  Y6  1  0.534091  0.323801  0.600713  1
  Y  Y7  1  0.031877  0.176601  0.899892  1
  Ho  Ho8  1  0.371059  0.842108  0.877455  1
  Ho  Ho9  1  0.874042  0.657826  0.621870  1
  Ho  Ho10  1  0.626720  0.158529  0.379635  1
  Ho  Ho11  1  0.128079  0.341383  0.122273  1
  Ho  Ho12  1  0.629084  0.158749  0.121555  1
  Ho  Ho13  1  0.127222  0.341253  0.378863  1
  Ho  Ho14  1  0.371903  0.841504  0.621445  1
  Ho  Ho15  1  0.870077  0.658892  0.877497  1
  Ho  Ho16  1  0.205219  0.504796  0.749686  1
  Ho  Ho17  1  0.705261  0.995371  0.749495  1
  Ho  Ho18  1  0.794578  0.494575  0.251101  1
  Ho  Ho19  1  0.294081  0.004738  0.250382  1
  Pb  Pb20  1  0.288580  0.042484  0.041074  1
  Pb  Pb21  1  0.788245  0.462019  0.458311  1
  Pb  Pb22  1  0.711369  0.959862  0.542354  1
  Pb  Pb23  1  0.207427  0.537841  0.956444  1
  Pb  Pb24  1  0.713773  0.964266  0.955677  1
  Pb  Pb25  1  0.215510  0.533739  0.544530  1
  Pb  Pb26  1  0.284578  0.034238  0.455805  1
  Pb  Pb27  1  0.790676  0.461714  0.043342  1
  Pb  Pb28  1  0.567405  0.627901  0.749402  1
  Pb  Pb29  1  0.067774  0.872701  0.749885  1
  Pb  Pb30  1  0.431808  0.371167  0.250263  1
  Pb  Pb31  1  0.931644  0.127564  0.250691  1
  Pb  Pb32  1  0.341702  0.151771  0.748521  1
  Pb  Pb33  1  0.842361  0.347680  0.751489  1
  Pb  Pb34  1  0.660805  0.850650  0.250422  1
  Pb  Pb35  1  0.156144  0.652068  0.251823  1
