# generated using pymatgen
data_Nd2LuGaGe
_symmetry_space_group_name_H-M   'P 1'
_cell_length_a   7.69193100
_cell_length_b   7.66835700
_cell_length_c   4.44663500
_cell_angle_alpha   90.00000000
_cell_angle_beta   90.00000000
_cell_angle_gamma   90.00000000
_symmetry_Int_Tables_number   1
_chemical_formula_structural   Nd2LuGaGe
_chemical_formula_sum   'Nd4 Lu2 Ga2 Ge2'
_cell_volume   262.28242178
_cell_formula_units_Z   2
loop_
 _symmetry_equiv_pos_site_id
 _symmetry_equiv_pos_as_xyz
  1  'x, y, z'
loop_
 _atom_site_type_symbol
 _atom_site_label
 _atom_site_symmetry_multiplicity
 _atom_site_fract_x
 _atom_site_fract_y
 _atom_site_fract_z
 _atom_site_occupancy
  Nd  Nd0  1  0.676235  0.176020  0.500000  1
  Nd  Nd1  1  0.823765  0.676020  0.500000  1
  Nd  Nd2  1  0.176702  0.324147  0.500000  1
  Nd  Nd3  1  0.323298  0.824147  0.500000  1
  Lu  Lu4  1  0.495984  0.496982  0.000000  1
  Lu  Lu5  1  0.004016  0.996982  0.000000  1
  Ga  Ga6  1  0.620179  0.880516  0.000000  1
  Ga  Ga7  1  0.879821  0.380516  0.000000  1
  Ge  Ge8  1  0.122212  0.622334  0.000000  1
  Ge  Ge9  1  0.377788  0.122334  0.000000  1
