# generated using pymatgen
data_SmTh3(Ta3Si4)2
_symmetry_space_group_name_H-M   'P 1'
_cell_length_a   7.14894743
_cell_length_b   7.15304843
_cell_length_c   13.34223000
_cell_angle_alpha   90.00000000
_cell_angle_beta   90.00000000
_cell_angle_gamma   89.92747284
_symmetry_Int_Tables_number   1
_chemical_formula_structural   SmTh3(Ta3Si4)2
_chemical_formula_sum   'Sm2 Th6 Ta12 Si16'
_cell_volume   682.27796313
_cell_formula_units_Z   2
loop_
 _symmetry_equiv_pos_site_id
 _symmetry_equiv_pos_as_xyz
  1  'x, y, z'
loop_
 _atom_site_type_symbol
 _atom_site_label
 _atom_site_symmetry_multiplicity
 _atom_site_fract_x
 _atom_site_fract_y
 _atom_site_fract_z
 _atom_site_occupancy
  Sm  Sm0  1  0.000364  0.337802  0.218031  1
  Sm  Sm1  1  0.999636  0.662198  0.718031  1
  Th  Th2  1  0.163133  0.498262  0.467917  1
  Th  Th3  1  0.501269  0.836333  0.031667  1
  Th  Th4  1  0.836867  0.501738  0.967917  1
  Th  Th5  1  0.498731  0.163667  0.531667  1
  Th  Th6  1  0.336395  0.998762  0.781495  1
  Th  Th7  1  0.663605  0.001238  0.281495  1
  Ta  Ta8  1  0.168755  0.168956  0.999285  1
  Ta  Ta9  1  0.831245  0.831044  0.499285  1
  Ta  Ta10  1  0.332867  0.669856  0.250372  1
  Ta  Ta11  1  0.667133  0.330144  0.750372  1
  Ta  Ta12  1  0.159444  0.992633  0.374689  1
  Ta  Ta13  1  0.840556  0.007367  0.874689  1
  Ta  Ta14  1  0.506544  0.659542  0.623997  1
  Ta  Ta15  1  0.341301  0.494040  0.876485  1
  Ta  Ta16  1  0.493456  0.340458  0.123997  1
  Ta  Ta17  1  0.658699  0.505960  0.376485  1
  Ta  Ta18  1  0.994465  0.160327  0.625966  1
  Ta  Ta19  1  0.005535  0.839673  0.125966  1
  Si  Si20  1  0.286652  0.041603  0.186122  1
  Si  Si21  1  0.713348  0.958397  0.686122  1
  Si  Si22  1  0.460246  0.789572  0.436164  1
  Si  Si23  1  0.209122  0.538355  0.065243  1
  Si  Si24  1  0.539754  0.210428  0.936164  1
  Si  Si25  1  0.790878  0.461645  0.565243  1
  Si  Si26  1  0.039432  0.292311  0.812695  1
  Si  Si27  1  0.960568  0.707689  0.312695  1
  Si  Si28  1  0.373116  0.298356  0.313321  1
  Si  Si29  1  0.626884  0.701644  0.813321  1
  Si  Si30  1  0.199648  0.873797  0.565726  1
  Si  Si31  1  0.123685  0.798412  0.935128  1
  Si  Si32  1  0.800352  0.126203  0.065726  1
  Si  Si33  1  0.876315  0.201588  0.435128  1
  Si  Si34  1  0.296589  0.377940  0.685696  1
  Si  Si35  1  0.703411  0.622060  0.185696  1
