# generated using pymatgen
data_Tb15DyCd3Co4Hg
_symmetry_space_group_name_H-M   'P 1'
_cell_length_a   9.53254182
_cell_length_b   9.52925776
_cell_length_c   9.53226600
_cell_angle_alpha   59.98955670
_cell_angle_beta   60.00095715
_cell_angle_gamma   59.99167247
_symmetry_Int_Tables_number   1
_chemical_formula_structural   Tb15DyCd3Co4Hg
_chemical_formula_sum   'Tb15 Dy1 Cd3 Co4 Hg1'
_cell_volume   612.19596879
_cell_formula_units_Z   1
loop_
 _symmetry_equiv_pos_site_id
 _symmetry_equiv_pos_as_xyz
  1  'x, y, z'
loop_
 _atom_site_type_symbol
 _atom_site_label
 _atom_site_symmetry_multiplicity
 _atom_site_fract_x
 _atom_site_fract_y
 _atom_site_fract_z
 _atom_site_occupancy
  Tb  Tb0  1  0.153574  0.539272  0.153577  1
  Tb  Tb1  1  0.687859  0.311754  0.687940  1
  Tb  Tb2  1  0.687859  0.311754  0.312447  1
  Tb  Tb3  1  0.937653  0.561486  0.563285  1
  Tb  Tb4  1  0.540875  0.153300  0.152912  1
  Tb  Tb5  1  0.152940  0.153331  0.540893  1
  Tb  Tb6  1  0.937569  0.937050  0.562691  1
  Tb  Tb7  1  0.312609  0.687071  0.312690  1
  Tb  Tb8  1  0.562662  0.937094  0.937537  1
  Tb  Tb9  1  0.562662  0.937094  0.562708  1
  Tb  Tb10  1  0.687621  0.687142  0.312619  1
  Tb  Tb11  1  0.563267  0.561511  0.937611  1
  Tb  Tb12  1  0.937653  0.561486  0.937576  1
  Tb  Tb13  1  0.312609  0.687071  0.687630  1
  Tb  Tb14  1  0.152940  0.153331  0.152834  1
  Dy  Dy15  1  0.312381  0.311773  0.687923  1
  Cd  Cd16  1  0.920183  0.919746  0.920178  1
  Cd  Cd17  1  0.920183  0.919746  0.239895  1
  Cd  Cd18  1  0.239905  0.919777  0.920159  1
  Co  Co19  1  0.359071  0.358771  0.923078  1
  Co  Co20  1  0.359064  0.922834  0.359052  1
  Co  Co21  1  0.923113  0.358770  0.359058  1
  Co  Co22  1  0.359071  0.358771  0.359080  1
  Hg  Hg23  1  0.916680  0.250064  0.916628  1
