# generated using pymatgen
data_SmFe4MoP3
_symmetry_space_group_name_H-M   'P 1'
_cell_length_a   3.73092400
_cell_length_b   10.48203400
_cell_length_c   12.08494600
_cell_angle_alpha   90.00000000
_cell_angle_beta   90.00000000
_cell_angle_gamma   90.00000000
_symmetry_Int_Tables_number   1
_chemical_formula_structural   SmFe4MoP3
_chemical_formula_sum   'Sm4 Fe16 Mo4 P12'
_cell_volume   472.61410696
_cell_formula_units_Z   4
loop_
 _symmetry_equiv_pos_site_id
 _symmetry_equiv_pos_as_xyz
  1  'x, y, z'
loop_
 _atom_site_type_symbol
 _atom_site_label
 _atom_site_symmetry_multiplicity
 _atom_site_fract_x
 _atom_site_fract_y
 _atom_site_fract_z
 _atom_site_occupancy
  Sm  Sm0  1  0.250000  0.583358  0.708474  1
  Sm  Sm1  1  0.250000  0.916642  0.208474  1
  Sm  Sm2  1  0.750000  0.416642  0.291526  1
  Sm  Sm3  1  0.750000  0.083358  0.791526  1
  Fe  Fe4  1  0.250000  0.410656  0.493573  1
  Fe  Fe5  1  0.250000  0.089344  0.993573  1
  Fe  Fe6  1  0.750000  0.589344  0.506427  1
  Fe  Fe7  1  0.750000  0.910656  0.006427  1
  Fe  Fe8  1  0.250000  0.216748  0.176448  1
  Fe  Fe9  1  0.250000  0.283252  0.676448  1
  Fe  Fe10  1  0.750000  0.783252  0.823552  1
  Fe  Fe11  1  0.750000  0.716748  0.323552  1
  Fe  Fe12  1  0.250000  0.877132  0.700112  1
  Fe  Fe13  1  0.250000  0.622868  0.200112  1
  Fe  Fe14  1  0.750000  0.122868  0.299888  1
  Fe  Fe15  1  0.750000  0.377132  0.799888  1
  Fe  Fe16  1  0.250000  0.463733  0.933886  1
  Fe  Fe17  1  0.250000  0.036267  0.433886  1
  Fe  Fe18  1  0.750000  0.536267  0.066114  1
  Fe  Fe19  1  0.750000  0.963733  0.566114  1
  Mo  Mo20  1  0.250000  0.705938  0.988234  1
  Mo  Mo21  1  0.250000  0.794062  0.488234  1
  Mo  Mo22  1  0.750000  0.294062  0.011766  1
  Mo  Mo23  1  0.750000  0.205938  0.511766  1
  P  P24  1  0.250000  0.425253  0.111512  1
  P  P25  1  0.250000  0.074747  0.611512  1
  P  P26  1  0.750000  0.574747  0.888488  1
  P  P27  1  0.750000  0.925253  0.388488  1
  P  P28  1  0.250000  0.269961  0.866475  1
  P  P29  1  0.250000  0.230039  0.366475  1
  P  P30  1  0.750000  0.730039  0.133525  1
  P  P31  1  0.750000  0.769961  0.633525  1
  P  P32  1  0.250000  0.597163  0.388478  1
  P  P33  1  0.250000  0.902837  0.888478  1
  P  P34  1  0.750000  0.402837  0.611522  1
  P  P35  1  0.750000  0.097163  0.111522  1
