# generated using pymatgen
data_Tm7Lu3(SiBi)4
_symmetry_space_group_name_H-M   'P 1'
_cell_length_a   8.54798225
_cell_length_b   8.55281306
_cell_length_c   7.80037106
_cell_angle_alpha   89.96640681
_cell_angle_beta   89.97959093
_cell_angle_gamma   125.86937239
_symmetry_Int_Tables_number   1
_chemical_formula_structural   Tm7Lu3(SiBi)4
_chemical_formula_sum   'Tm7 Lu3 Si4 Bi4'
_cell_volume   462.12867607
_cell_formula_units_Z   1
loop_
 _symmetry_equiv_pos_site_id
 _symmetry_equiv_pos_as_xyz
  1  'x, y, z'
loop_
 _atom_site_type_symbol
 _atom_site_label
 _atom_site_symmetry_multiplicity
 _atom_site_fract_x
 _atom_site_fract_y
 _atom_site_fract_z
 _atom_site_occupancy
  Tm  Tm0  1  0.285518  0.043430  0.335619  1
  Tm  Tm1  1  0.214658  0.456717  0.835804  1
  Tm  Tm2  1  0.956582  0.714619  0.664252  1
  Tm  Tm3  1  0.714473  0.956737  0.664272  1
  Tm  Tm4  1  0.456759  0.214826  0.835720  1
  Tm  Tm5  1  0.785339  0.543401  0.164383  1
  Tm  Tm6  1  0.043294  0.285551  0.335717  1
  Lu  Lu7  1  0.543789  0.784371  0.163959  1
  Lu  Lu8  1  0.500009  0.500233  0.499667  1
  Lu  Lu9  1  0.999497  0.999744  0.000178  1
  Si  Si10  1  0.635079  0.635383  0.866765  1
  Si  Si11  1  0.135251  0.135216  0.633890  1
  Si  Si12  1  0.863970  0.864787  0.365686  1
  Si  Si13  1  0.365172  0.365531  0.133861  1
  Bi  Bi14  1  0.293024  0.707857  0.499229  1
  Bi  Bi15  1  0.208309  0.792442  0.000313  1
  Bi  Bi16  1  0.707623  0.292591  0.500111  1
  Bi  Bi17  1  0.791654  0.206564  0.000575  1
