# generated using pymatgen
data_TbU2P4Pd7
_symmetry_space_group_name_H-M   'P 1'
_cell_length_a   7.92489278
_cell_length_b   7.92489255
_cell_length_c   9.47660600
_cell_angle_alpha   55.91953605
_cell_angle_beta   55.91953719
_cell_angle_gamma   29.50485699
_symmetry_Int_Tables_number   1
_chemical_formula_structural   TbU2P4Pd7
_chemical_formula_sum   'Tb1 U2 P4 Pd7'
_cell_volume   238.89225980
_cell_formula_units_Z   1
loop_
 _symmetry_equiv_pos_site_id
 _symmetry_equiv_pos_as_xyz
  1  'x, y, z'
loop_
 _atom_site_type_symbol
 _atom_site_label
 _atom_site_symmetry_multiplicity
 _atom_site_fract_x
 _atom_site_fract_y
 _atom_site_fract_z
 _atom_site_occupancy
  Tb  Tb0  1  0.315297  0.315297  0.684113  1
  U  U1  1  0.686242  0.686242  0.313731  1
  U  U2  1  0.999926  0.999926  0.999665  1
  P  P3  1  0.347371  0.347371  0.240642  1
  P  P4  1  0.651348  0.651348  0.760128  1
  P  P5  1  0.896080  0.896080  0.823937  1
  P  P6  1  0.103815  0.103815  0.179189  1
  Pd  Pd7  1  0.309553  0.309553  0.020448  1
  Pd  Pd8  1  0.690970  0.690970  0.977932  1
  Pd  Pd9  1  0.512276  0.512276  0.703213  1
  Pd  Pd10  1  0.829782  0.829782  0.431890  1
  Pd  Pd11  1  0.488778  0.488778  0.294088  1
  Pd  Pd12  1  0.168164  0.168164  0.568860  1
  Pd  Pd13  1  0.000399  0.000399  0.502164  1
