# generated using pymatgen
data_FeNi16B6SbO30
_symmetry_space_group_name_H-M   'P 1'
_cell_length_a   6.18663382
_cell_length_b   8.11848055
_cell_length_c   11.10215756
_cell_angle_alpha   104.74180148
_cell_angle_beta   93.94495754
_cell_angle_gamma   102.14785004
_symmetry_Int_Tables_number   1
_chemical_formula_structural   FeNi16B6SbO30
_chemical_formula_sum   'Fe1 Ni16 B6 Sb1 O30'
_cell_volume   522.75408398
_cell_formula_units_Z   1
loop_
 _symmetry_equiv_pos_site_id
 _symmetry_equiv_pos_as_xyz
  1  'x, y, z'
loop_
 _atom_site_type_symbol
 _atom_site_label
 _atom_site_symmetry_multiplicity
 _atom_site_fract_x
 _atom_site_fract_y
 _atom_site_fract_z
 _atom_site_occupancy
  Fe  Fe0  1  0.678430  0.678088  0.000245  1
  Ni  Ni1  1  0.549582  0.332912  0.717050  1
  Ni  Ni2  1  0.882684  0.669495  0.720409  1
  Ni  Ni3  1  0.217238  0.999884  0.717918  1
  Ni  Ni4  1  0.783169  0.996481  0.279702  1
  Ni  Ni5  1  0.116926  0.332722  0.282355  1
  Ni  Ni6  1  0.449432  0.667479  0.282701  1
  Ni  Ni7  1  0.167495  0.164782  0.497434  1
  Ni  Ni8  1  0.499235  0.501212  0.501738  1
  Ni  Ni9  1  0.833041  0.833817  0.500970  1
  Ni  Ni10  1  0.500152  0.999835  0.499881  1
  Ni  Ni11  1  0.833257  0.333204  0.499873  1
  Ni  Ni12  1  0.166277  0.666901  0.500387  1
  Ni  Ni13  1  0.501885  0.994284  0.999422  1
  Ni  Ni14  1  0.832852  0.331840  0.999442  1
  Ni  Ni15  1  0.165148  0.673780  0.000906  1
  Ni  Ni16  1  0.995902  0.996096  0.999810  1
  B  B17  1  0.274598  0.981647  0.237222  1
  B  B18  1  0.606932  0.318596  0.242659  1
  B  B19  1  0.940126  0.648508  0.239144  1
  B  B20  1  0.725950  0.019175  0.762429  1
  B  B21  1  0.059532  0.348129  0.757229  1
  B  B22  1  0.392471  0.683384  0.761173  1
  Sb  Sb23  1  0.331922  0.332079  0.999965  1
  O  O24  1  0.562229  0.069181  0.697826  1
  O  O25  1  0.894621  0.400836  0.699940  1
  O  O26  1  0.228691  0.735545  0.699565  1
  O  O27  1  0.438371  0.930884  0.301383  1
  O  O28  1  0.771373  0.265217  0.299747  1
  O  O29  1  0.104652  0.598086  0.301438  1
  O  O30  1  0.246007  0.932255  0.106315  1
  O  O31  1  0.574851  0.267906  0.107754  1
  O  O32  1  0.907543  0.596807  0.106714  1
  O  O33  1  0.755644  0.071164  0.893858  1
  O  O34  1  0.092134  0.399720  0.892272  1
  O  O35  1  0.423426  0.731793  0.893053  1
  O  O36  1  0.139380  0.081494  0.300453  1
  O  O37  1  0.470910  0.416128  0.302549  1
  O  O38  1  0.804181  0.746946  0.301868  1
  O  O39  1  0.861709  0.919774  0.699339  1
  O  O40  1  0.195903  0.251080  0.697302  1
  O  O41  1  0.527117  0.583646  0.698468  1
  O  O42  1  0.507620  0.261459  0.527364  1
  O  O43  1  0.839859  0.594142  0.530351  1
  O  O44  1  0.172565  0.927012  0.527999  1
  O  O45  1  0.827215  0.072737  0.469550  1
  O  O46  1  0.158787  0.405031  0.472013  1
  O  O47  1  0.493313  0.739236  0.472550  1
  O  O48  1  0.584956  0.406037  0.907842  1
  O  O49  1  0.921134  0.736080  0.905116  1
  O  O50  1  0.264614  0.080543  0.907208  1
  O  O51  1  0.738667  0.922769  0.095058  1
  O  O52  1  0.081279  0.265337  0.093285  1
  O  O53  1  0.407013  0.586825  0.091755  1
