# generated using pymatgen
data_Hf16Ni4Os3W
_symmetry_space_group_name_H-M   'P 1'
_cell_length_a   8.64015023
_cell_length_b   8.64014967
_cell_length_c   8.64015061
_cell_angle_alpha   59.94895244
_cell_angle_beta   59.94895619
_cell_angle_gamma   59.94895436
_symmetry_Int_Tables_number   1
_chemical_formula_structural   Hf16Ni4Os3W
_chemical_formula_sum   'Hf16 Ni4 Os3 W1'
_cell_volume   455.56022489
_cell_formula_units_Z   1
loop_
 _symmetry_equiv_pos_site_id
 _symmetry_equiv_pos_as_xyz
  1  'x, y, z'
loop_
 _atom_site_type_symbol
 _atom_site_label
 _atom_site_symmetry_multiplicity
 _atom_site_fract_x
 _atom_site_fract_y
 _atom_site_fract_z
 _atom_site_occupancy
  Hf  Hf0  1  0.686644  0.104150  0.104150  1
  Hf  Hf1  1  0.104150  0.686644  0.104150  1
  Hf  Hf2  1  0.104150  0.104150  0.686644  1
  Hf  Hf3  1  0.105597  0.105597  0.105597  1
  Hf  Hf4  1  0.315599  0.315599  0.682369  1
  Hf  Hf5  1  0.684321  0.684321  0.315444  1
  Hf  Hf6  1  0.315599  0.682369  0.315599  1
  Hf  Hf7  1  0.684321  0.315444  0.684321  1
  Hf  Hf8  1  0.682369  0.315599  0.315599  1
  Hf  Hf9  1  0.315444  0.684321  0.684321  1
  Hf  Hf10  1  0.953704  0.953704  0.546611  1
  Hf  Hf11  1  0.547451  0.547451  0.952783  1
  Hf  Hf12  1  0.953704  0.546611  0.953704  1
  Hf  Hf13  1  0.547451  0.952783  0.547451  1
  Hf  Hf14  1  0.546611  0.953704  0.953704  1
  Hf  Hf15  1  0.952783  0.547451  0.547451  1
  Ni  Ni16  1  0.323055  0.893061  0.893061  1
  Ni  Ni17  1  0.893061  0.323055  0.893061  1
  Ni  Ni18  1  0.893061  0.893061  0.323055  1
  Ni  Ni19  1  0.891951  0.891951  0.891951  1
  Os  Os20  1  0.998295  0.334226  0.334226  1
  Os  Os21  1  0.334226  0.998295  0.334226  1
  Os  Os22  1  0.334226  0.334226  0.998295  1
  W  W23  1  0.332225  0.332225  0.332225  1
