# generated using pymatgen
data_Er3Tm17(CoSb2)4
_symmetry_space_group_name_H-M   'P 1'
_cell_length_a   7.77457600
_cell_length_b   8.71907200
_cell_length_c   12.05693600
_cell_angle_alpha   90.00000000
_cell_angle_beta   90.00050766
_cell_angle_gamma   90.00000000
_symmetry_Int_Tables_number   1
_chemical_formula_structural   Er3Tm17(CoSb2)4
_chemical_formula_sum   'Er3 Tm17 Co4 Sb8'
_cell_volume   817.30458058
_cell_formula_units_Z   1
loop_
 _symmetry_equiv_pos_site_id
 _symmetry_equiv_pos_as_xyz
  1  'x, y, z'
loop_
 _atom_site_type_symbol
 _atom_site_label
 _atom_site_symmetry_multiplicity
 _atom_site_fract_x
 _atom_site_fract_y
 _atom_site_fract_z
 _atom_site_occupancy
  Er  Er0  1  0.122305  0.250000  0.191606  1
  Er  Er1  1  0.377671  0.250000  0.691667  1
  Er  Er2  1  0.877652  0.750000  0.808332  1
  Tm  Tm3  1  0.157603  0.750000  0.204149  1
  Tm  Tm4  1  0.657510  0.250000  0.295846  1
  Tm  Tm5  1  0.842543  0.250000  0.795868  1
  Tm  Tm6  1  0.342552  0.750000  0.704052  1
  Tm  Tm7  1  0.449701  0.750000  0.998105  1
  Tm  Tm8  1  0.949511  0.250000  0.501884  1
  Tm  Tm9  1  0.550185  0.250000  0.001952  1
  Tm  Tm10  1  0.050179  0.750000  0.498083  1
  Tm  Tm11  1  0.621811  0.750000  0.308938  1
  Tm  Tm12  1  0.823955  0.962514  0.065574  1
  Tm  Tm13  1  0.324202  0.037051  0.434362  1
  Tm  Tm14  1  0.176066  0.462403  0.934463  1
  Tm  Tm15  1  0.676069  0.537820  0.565376  1
  Tm  Tm16  1  0.176066  0.037597  0.934463  1
  Tm  Tm17  1  0.676069  0.962180  0.565376  1
  Tm  Tm18  1  0.823955  0.537486  0.065574  1
  Tm  Tm19  1  0.324202  0.462949  0.434362  1
  Co  Co20  1  0.431296  0.750000  0.490759  1
  Co  Co21  1  0.931096  0.250000  0.009120  1
  Co  Co22  1  0.568797  0.250000  0.508962  1
  Co  Co23  1  0.068843  0.750000  0.990953  1
  Sb  Sb24  1  0.930977  0.991284  0.327638  1
  Sb  Sb25  1  0.431641  0.008256  0.172467  1
  Sb  Sb26  1  0.068745  0.491449  0.672340  1
  Sb  Sb27  1  0.568719  0.508514  0.827641  1
  Sb  Sb28  1  0.068745  0.008551  0.672340  1
  Sb  Sb29  1  0.568719  0.991486  0.827641  1
  Sb  Sb30  1  0.930977  0.508716  0.327638  1
  Sb  Sb31  1  0.431641  0.491744  0.172467  1
