# generated using pymatgen
data_NaEr6Co6Sn23
_symmetry_space_group_name_H-M   'P 1'
_cell_length_a   9.67475900
_cell_length_b   9.67475732
_cell_length_c   9.98716100
_cell_angle_alpha   90.00000000
_cell_angle_beta   90.00000000
_cell_angle_gamma   119.99999547
_symmetry_Int_Tables_number   1
_chemical_formula_structural   NaEr6Co6Sn23
_chemical_formula_sum   'Na1 Er6 Co6 Sn23'
_cell_volume   809.56726349
_cell_formula_units_Z   1
loop_
 _symmetry_equiv_pos_site_id
 _symmetry_equiv_pos_as_xyz
  1  'x, y, z'
loop_
 _atom_site_type_symbol
 _atom_site_label
 _atom_site_symmetry_multiplicity
 _atom_site_fract_x
 _atom_site_fract_y
 _atom_site_fract_z
 _atom_site_occupancy
  Na  Na0  1  0.000000  0.000000  0.000000  1
  Er  Er1  1  0.519751  0.480249  0.694470  1
  Er  Er2  1  0.519751  0.039502  0.694470  1
  Er  Er3  1  0.960498  0.480249  0.694470  1
  Er  Er4  1  0.039502  0.519751  0.305530  1
  Er  Er5  1  0.480249  0.960498  0.305530  1
  Er  Er6  1  0.480249  0.519751  0.305530  1
  Co  Co7  1  0.170972  0.829028  0.798671  1
  Co  Co8  1  0.170972  0.341943  0.798671  1
  Co  Co9  1  0.658057  0.829028  0.798671  1
  Co  Co10  1  0.341943  0.170972  0.201329  1
  Co  Co11  1  0.829028  0.658057  0.201329  1
  Co  Co12  1  0.829028  0.170972  0.201329  1
  Sn  Sn13  1  0.666667  0.333333  0.183998  1
  Sn  Sn14  1  0.666667  0.333333  0.880810  1
  Sn  Sn15  1  0.333333  0.666667  0.119190  1
  Sn  Sn16  1  0.344372  0.344372  0.000000  1
  Sn  Sn17  1  0.000000  0.655628  0.000000  1
  Sn  Sn18  1  0.655628  0.000000  0.000000  1
  Sn  Sn19  1  0.655628  0.655628  0.000000  1
  Sn  Sn20  1  0.333333  0.666667  0.816002  1
  Sn  Sn21  1  0.436495  0.218248  0.454529  1
  Sn  Sn22  1  0.218248  0.781752  0.545471  1
  Sn  Sn23  1  0.218248  0.436495  0.545471  1
  Sn  Sn24  1  0.563505  0.781752  0.545471  1
  Sn  Sn25  1  0.117049  0.882951  0.271075  1
  Sn  Sn26  1  0.781752  0.563505  0.454529  1
  Sn  Sn27  1  0.781752  0.218248  0.454529  1
  Sn  Sn28  1  0.344372  0.000000  0.000000  1
  Sn  Sn29  1  0.117049  0.234099  0.271075  1
  Sn  Sn30  1  0.765901  0.882951  0.271075  1
  Sn  Sn31  1  0.234099  0.117049  0.728925  1
  Sn  Sn32  1  0.882951  0.765901  0.728925  1
  Sn  Sn33  1  0.882951  0.117049  0.728925  1
  Sn  Sn34  1  0.000000  0.000000  0.500000  1
  Sn  Sn35  1  0.000000  0.344372  0.000000  1
