# generated using pymatgen
data_Zr6TiAl(Ir2N)2
_symmetry_space_group_name_H-M   'P 1'
_cell_length_a   8.62554690
_cell_length_b   8.61594388
_cell_length_c   8.61594413
_cell_angle_alpha   59.86693757
_cell_angle_beta   59.96312610
_cell_angle_gamma   59.96312216
_symmetry_Int_Tables_number   1
_chemical_formula_structural   Zr6TiAl(Ir2N)2
_chemical_formula_sum   'Zr12 Ti2 Al2 Ir8 N4'
_cell_volume   452.06088909
_cell_formula_units_Z   2
loop_
 _symmetry_equiv_pos_site_id
 _symmetry_equiv_pos_as_xyz
  1  'x, y, z'
loop_
 _atom_site_type_symbol
 _atom_site_label
 _atom_site_symmetry_multiplicity
 _atom_site_fract_x
 _atom_site_fract_y
 _atom_site_fract_z
 _atom_site_occupancy
  Zr  Zr0  1  0.809935  0.809479  0.192052  1
  Zr  Zr1  1  0.188533  0.192052  0.809479  1
  Zr  Zr2  1  0.809935  0.192052  0.809479  1
  Zr  Zr3  1  0.188533  0.809479  0.192052  1
  Zr  Zr4  1  0.190356  0.809644  0.809644  1
  Zr  Zr5  1  0.811303  0.188697  0.188697  1
  Zr  Zr6  1  0.440065  0.440521  0.057948  1
  Zr  Zr7  1  0.061467  0.057948  0.440521  1
  Zr  Zr8  1  0.440065  0.057948  0.440521  1
  Zr  Zr9  1  0.061467  0.440521  0.057948  1
  Zr  Zr10  1  0.059644  0.440356  0.440356  1
  Zr  Zr11  1  0.438697  0.061303  0.061303  1
  Ti  Ti12  1  0.625000  0.125000  0.625000  1
  Ti  Ti13  1  0.625000  0.625000  0.125000  1
  Al  Al14  1  0.125000  0.625000  0.625000  1
  Al  Al15  1  0.625000  0.625000  0.625000  1
  Ir  Ir16  1  0.750712  0.416001  0.416001  1
  Ir  Ir17  1  0.417354  0.749927  0.415367  1
  Ir  Ir18  1  0.417354  0.415367  0.749927  1
  Ir  Ir19  1  0.417288  0.416001  0.416001  1
  Ir  Ir20  1  0.499288  0.833999  0.833999  1
  Ir  Ir21  1  0.832646  0.500073  0.834633  1
  Ir  Ir22  1  0.832646  0.834633  0.500073  1
  Ir  Ir23  1  0.832712  0.833999  0.833999  1
  N  N24  1  0.625000  0.125000  0.125000  1
  N  N25  1  0.125000  0.625000  0.125000  1
  N  N26  1  0.125000  0.125000  0.625000  1
  N  N27  1  0.125000  0.125000  0.125000  1
