# generated using pymatgen
data_CeMnCdPt3
_symmetry_space_group_name_H-M   'P 1'
_cell_length_a   5.51118049
_cell_length_b   5.51118041
_cell_length_c   5.28307060
_cell_angle_alpha   58.56111610
_cell_angle_beta   58.56111118
_cell_angle_gamma   60.00000936
_symmetry_Int_Tables_number   1
_chemical_formula_structural   CeMnCdPt3
_chemical_formula_sum   'Ce1 Mn1 Cd1 Pt3'
_cell_volume   110.93401145
_cell_formula_units_Z   1
loop_
 _symmetry_equiv_pos_site_id
 _symmetry_equiv_pos_as_xyz
  1  'x, y, z'
loop_
 _atom_site_type_symbol
 _atom_site_label
 _atom_site_symmetry_multiplicity
 _atom_site_fract_x
 _atom_site_fract_y
 _atom_site_fract_z
 _atom_site_occupancy
  Ce  Ce0  1  0.248462  0.248462  0.254614  1
  Mn  Mn1  1  0.626747  0.626747  0.119760  1
  Cd  Cd2  1  0.996105  0.996105  0.011686  1
  Pt  Pt3  1  0.627239  0.124209  0.621313  1
  Pt  Pt4  1  0.627239  0.627239  0.621313  1
  Pt  Pt5  1  0.124209  0.627239  0.621313  1
