# generated using pymatgen
data_LaPr3TmIr3
_symmetry_space_group_name_H-M   'P 1'
_cell_length_a   11.27196200
_cell_length_b   11.28999500
_cell_length_c   6.54876600
_cell_angle_alpha   90.00000000
_cell_angle_beta   90.00000000
_cell_angle_gamma   90.00000000
_symmetry_Int_Tables_number   1
_chemical_formula_structural   LaPr3TmIr3
_chemical_formula_sum   'La4 Pr12 Tm4 Ir12'
_cell_volume   833.39854544
_cell_formula_units_Z   4
loop_
 _symmetry_equiv_pos_site_id
 _symmetry_equiv_pos_as_xyz
  1  'x, y, z'
loop_
 _atom_site_type_symbol
 _atom_site_label
 _atom_site_symmetry_multiplicity
 _atom_site_fract_x
 _atom_site_fract_y
 _atom_site_fract_z
 _atom_site_occupancy
  La  La0  1  0.288013  0.087759  0.381673  1
  La  La1  1  0.288013  0.912241  0.881673  1
  La  La2  1  0.711987  0.087759  0.881673  1
  La  La3  1  0.711987  0.912241  0.381673  1
  Pr  Pr4  1  0.587391  0.787266  0.880746  1
  Pr  Pr5  1  0.587391  0.212734  0.380746  1
  Pr  Pr6  1  0.412609  0.787266  0.380746  1
  Pr  Pr7  1  0.412609  0.212734  0.880746  1
  Pr  Pr8  1  0.211940  0.413026  0.619115  1
  Pr  Pr9  1  0.211940  0.586974  0.119115  1
  Pr  Pr10  1  0.788060  0.413026  0.119115  1
  Pr  Pr11  1  0.788060  0.586974  0.619115  1
  Pr  Pr12  1  0.912748  0.711716  0.118752  1
  Pr  Pr13  1  0.912748  0.288284  0.618752  1
  Pr  Pr14  1  0.087252  0.711716  0.618752  1
  Pr  Pr15  1  0.087252  0.288284  0.118752  1
  Tm  Tm16  1  0.000000  0.000000  0.500109  1
  Tm  Tm17  1  0.000000  0.000000  0.000109  1
  Tm  Tm18  1  0.500000  0.500000  0.000273  1
  Tm  Tm19  1  0.500000  0.500000  0.500273  1
  Ir  Ir20  1  0.852880  0.146415  0.249181  1
  Ir  Ir21  1  0.852880  0.853585  0.749181  1
  Ir  Ir22  1  0.147120  0.146415  0.749181  1
  Ir  Ir23  1  0.147120  0.853585  0.249181  1
  Ir  Ir24  1  0.646563  0.353295  0.750108  1
  Ir  Ir25  1  0.646563  0.646705  0.250108  1
  Ir  Ir26  1  0.353437  0.353295  0.250108  1
  Ir  Ir27  1  0.353437  0.646705  0.750108  1
  Ir  Ir28  1  0.500000  0.000000  0.116735  1
  Ir  Ir29  1  0.500000  0.000000  0.616735  1
  Ir  Ir30  1  0.000000  0.500000  0.883733  1
  Ir  Ir31  1  0.000000  0.500000  0.383733  1
