# generated using pymatgen
data_Tb17Dy(MgIr6)2
_symmetry_space_group_name_H-M   'P 1'
_cell_length_a   10.85394700
_cell_length_b   10.85394700
_cell_length_c   6.33771400
_cell_angle_alpha   90.00000000
_cell_angle_beta   90.00000000
_cell_angle_gamma   90.00000000
_symmetry_Int_Tables_number   1
_chemical_formula_structural   Tb17Dy(MgIr6)2
_chemical_formula_sum   'Tb17 Dy1 Mg2 Ir12'
_cell_volume   746.63445967
_cell_formula_units_Z   1
loop_
 _symmetry_equiv_pos_site_id
 _symmetry_equiv_pos_as_xyz
  1  'x, y, z'
loop_
 _atom_site_type_symbol
 _atom_site_label
 _atom_site_symmetry_multiplicity
 _atom_site_fract_x
 _atom_site_fract_y
 _atom_site_fract_z
 _atom_site_occupancy
  Tb  Tb0  1  0.290932  0.089235  0.381365  1
  Tb  Tb1  1  0.284940  0.915174  0.878833  1
  Tb  Tb2  1  0.715060  0.084826  0.878833  1
  Tb  Tb3  1  0.709068  0.910765  0.381365  1
  Tb  Tb4  1  0.585148  0.785006  0.878819  1
  Tb  Tb5  1  0.589247  0.207909  0.381036  1
  Tb  Tb6  1  0.410753  0.792091  0.381036  1
  Tb  Tb7  1  0.414852  0.214994  0.878819  1
  Tb  Tb8  1  0.207909  0.410753  0.618964  1
  Tb  Tb9  1  0.214994  0.585148  0.121181  1
  Tb  Tb10  1  0.785006  0.414852  0.121181  1
  Tb  Tb11  1  0.792091  0.589247  0.618964  1
  Tb  Tb12  1  0.915174  0.715060  0.121167  1
  Tb  Tb13  1  0.910765  0.290932  0.618635  1
  Tb  Tb14  1  0.089235  0.709068  0.618635  1
  Tb  Tb15  1  0.084826  0.284940  0.121167  1
  Tb  Tb16  1  0.500000  0.500000  0.500000  1
  Dy  Dy17  1  0.000000  0.000000  0.500000  1
  Mg  Mg18  1  0.000000  0.000000  0.000000  1
  Mg  Mg19  1  0.500000  0.500000  0.000000  1
  Ir  Ir20  1  0.846481  0.153071  0.250056  1
  Ir  Ir21  1  0.846929  0.846481  0.749944  1
  Ir  Ir22  1  0.153071  0.153519  0.749944  1
  Ir  Ir23  1  0.153519  0.846929  0.250056  1
  Ir  Ir24  1  0.654948  0.346560  0.748605  1
  Ir  Ir25  1  0.653440  0.654948  0.251395  1
  Ir  Ir26  1  0.346560  0.345052  0.251395  1
  Ir  Ir27  1  0.345052  0.653440  0.748605  1
  Ir  Ir28  1  0.500000  0.000000  0.118443  1
  Ir  Ir29  1  0.500000  0.000000  0.627132  1
  Ir  Ir30  1  0.000000  0.500000  0.881557  1
  Ir  Ir31  1  0.000000  0.500000  0.372868  1
