# generated using pymatgen
data_Lu4IrPd3O14
_symmetry_space_group_name_H-M   'P 1'
_cell_length_a   7.13894706
_cell_length_b   7.13894877
_cell_length_c   7.16494376
_cell_angle_alpha   60.11996058
_cell_angle_beta   60.11995049
_cell_angle_gamma   60.00000484
_symmetry_Int_Tables_number   1
_chemical_formula_structural   Lu4IrPd3O14
_chemical_formula_sum   'Lu4 Ir1 Pd3 O14'
_cell_volume   258.67311138
_cell_formula_units_Z   1
loop_
 _symmetry_equiv_pos_site_id
 _symmetry_equiv_pos_as_xyz
  1  'x, y, z'
loop_
 _atom_site_type_symbol
 _atom_site_label
 _atom_site_symmetry_multiplicity
 _atom_site_fract_x
 _atom_site_fract_y
 _atom_site_fract_z
 _atom_site_occupancy
  Lu  Lu0  1  0.625000  0.125000  0.125000  1
  Lu  Lu1  1  0.125000  0.625000  0.125000  1
  Lu  Lu2  1  0.125000  0.125000  0.625000  1
  Lu  Lu3  1  0.125000  0.125000  0.125000  1
  Ir  Ir4  1  0.625000  0.625000  0.125000  1
  Pd  Pd5  1  0.125000  0.625000  0.625000  1
  Pd  Pd6  1  0.625000  0.125000  0.625000  1
  Pd  Pd7  1  0.625000  0.625000  0.625000  1
  O  O8  1  0.716933  0.716933  0.280209  1
  O  O9  1  0.279853  0.279853  0.721883  1
  O  O10  1  0.718411  0.279853  0.721883  1
  O  O11  1  0.285925  0.716933  0.280209  1
  O  O12  1  0.279853  0.718411  0.721883  1
  O  O13  1  0.716933  0.285925  0.280209  1
  O  O14  1  0.533067  0.533067  0.969791  1
  O  O15  1  0.970147  0.970147  0.528117  1
  O  O16  1  0.531589  0.970147  0.528117  1
  O  O17  1  0.964075  0.533067  0.969791  1
  O  O18  1  0.970147  0.531589  0.528117  1
  O  O19  1  0.533067  0.964075  0.969791  1
  O  O20  1  0.250393  0.250393  0.248821  1
  O  O21  1  0.999607  0.999607  0.001179  1
