# generated using pymatgen
data_Tb9Lu(In2Ir)4
_symmetry_space_group_name_H-M   'P 1'
_cell_length_a   3.67773200
_cell_length_b   8.03616500
_cell_length_c   18.30581666
_cell_angle_alpha   89.96941790
_cell_angle_beta   90.00000000
_cell_angle_gamma   90.00000000
_symmetry_Int_Tables_number   1
_chemical_formula_structural   Tb9Lu(In2Ir)4
_chemical_formula_sum   'Tb9 Lu1 In8 Ir4'
_cell_volume   541.02579297
_cell_formula_units_Z   1
loop_
 _symmetry_equiv_pos_site_id
 _symmetry_equiv_pos_as_xyz
  1  'x, y, z'
loop_
 _atom_site_type_symbol
 _atom_site_label
 _atom_site_symmetry_multiplicity
 _atom_site_fract_x
 _atom_site_fract_y
 _atom_site_fract_z
 _atom_site_occupancy
  Tb  Tb0  1  0.000000  0.883694  0.089214  1
  Tb  Tb1  1  0.000000  0.754739  0.278824  1
  Tb  Tb2  1  0.000000  0.745018  0.777786  1
  Tb  Tb3  1  0.000000  0.383870  0.411501  1
  Tb  Tb4  1  0.000000  0.116011  0.910634  1
  Tb  Tb5  1  0.000000  0.244678  0.720703  1
  Tb  Tb6  1  0.000000  0.499864  0.999817  1
  Tb  Tb7  1  0.000000  0.255248  0.221649  1
  Tb  Tb8  1  0.000000  0.999840  0.500528  1
  Lu  Lu9  1  0.000000  0.615086  0.590708  1
  In  In10  1  0.500000  0.207146  0.068090  1
  In  In11  1  0.500000  0.428687  0.849486  1
  In  In12  1  0.500000  0.570869  0.149727  1
  In  In13  1  0.500000  0.071559  0.350581  1
  In  In14  1  0.500000  0.925137  0.649036  1
  In  In15  1  0.500000  0.792502  0.931585  1
  In  In16  1  0.500000  0.706303  0.433966  1
  In  In17  1  0.500000  0.296677  0.567478  1
  Ir  Ir18  1  0.500000  0.980029  0.195846  1
  Ir  Ir19  1  0.500000  0.020078  0.804215  1
  Ir  Ir20  1  0.500000  0.522160  0.693578  1
  Ir  Ir21  1  0.500000  0.480806  0.305047  1
