# generated using pymatgen
data_CeDyAl20Ir3Ru
_symmetry_space_group_name_H-M   'P 1'
_cell_length_a   6.86505885
_cell_length_b   6.85810344
_cell_length_c   9.17252317
_cell_angle_alpha   89.97718861
_cell_angle_beta   89.91063269
_cell_angle_gamma   97.26672278
_symmetry_Int_Tables_number   1
_chemical_formula_structural   CeDyAl20Ir3Ru
_chemical_formula_sum   'Ce1 Dy1 Al20 Ir3 Ru1'
_cell_volume   428.38494648
_cell_formula_units_Z   1
loop_
 _symmetry_equiv_pos_site_id
 _symmetry_equiv_pos_as_xyz
  1  'x, y, z'
loop_
 _atom_site_type_symbol
 _atom_site_label
 _atom_site_symmetry_multiplicity
 _atom_site_fract_x
 _atom_site_fract_y
 _atom_site_fract_z
 _atom_site_occupancy
  Ce  Ce0  1  0.122230  0.875767  0.249439  1
  Dy  Dy1  1  0.871345  0.130818  0.750298  1
  Al  Al2  1  0.595364  0.857647  0.250398  1
  Al  Al3  1  0.776033  0.517704  0.252450  1
  Al  Al4  1  0.156388  0.844037  0.894683  1
  Al  Al5  1  0.410734  0.144562  0.749840  1
  Al  Al6  1  0.622152  0.378635  0.948028  1
  Al  Al7  1  0.844758  0.157135  0.398514  1
  Al  Al8  1  0.779962  0.779889  0.998390  1
  Al  Al9  1  0.856687  0.588542  0.748489  1
  Al  Al10  1  0.843411  0.156443  0.102859  1
  Al  Al11  1  0.223655  0.481237  0.747601  1
  Al  Al12  1  0.154891  0.842549  0.604186  1
  Al  Al13  1  0.781747  0.779770  0.500008  1
  Al  Al14  1  0.481444  0.224994  0.249978  1
  Al  Al15  1  0.624184  0.378981  0.550656  1
  Al  Al16  1  0.217755  0.220756  0.502224  1
  Al  Al17  1  0.376650  0.620080  0.450263  1
  Al  Al18  1  0.141688  0.405697  0.251279  1
  Al  Al19  1  0.519320  0.775091  0.750115  1
  Al  Al20  1  0.378544  0.620885  0.051172  1
  Al  Al21  1  0.219508  0.220591  0.999265  1
  Ir  Ir22  1  0.500264  0.999263  0.998867  1
  Ir  Ir23  1  0.500040  0.999276  0.501460  1
  Ir  Ir24  1  0.000652  0.499715  0.998593  1
  Ru  Ru25  1  0.000590  0.499940  0.500943  1
