# generated using pymatgen
data_CaNd19Si15Os
_symmetry_space_group_name_H-M   'P 1'
_cell_length_a   7.66545210
_cell_length_b   8.00500316
_cell_length_c   15.20869200
_cell_angle_alpha   90.00000000
_cell_angle_beta   90.00000000
_cell_angle_gamma   89.73775716
_symmetry_Int_Tables_number   1
_chemical_formula_structural   CaNd19Si15Os
_chemical_formula_sum   'Ca1 Nd19 Si15 Os1'
_cell_volume   933.22550040
_cell_formula_units_Z   1
loop_
 _symmetry_equiv_pos_site_id
 _symmetry_equiv_pos_as_xyz
  1  'x, y, z'
loop_
 _atom_site_type_symbol
 _atom_site_label
 _atom_site_symmetry_multiplicity
 _atom_site_fract_x
 _atom_site_fract_y
 _atom_site_fract_z
 _atom_site_occupancy
  Ca  Ca0  1  0.140375  0.516306  0.750000  1
  Nd  Nd1  1  0.813727  0.320633  0.621213  1
  Nd  Nd2  1  0.462363  0.688209  0.900235  1
  Nd  Nd3  1  0.963116  0.812997  0.901241  1
  Nd  Nd4  1  0.197632  0.677880  0.127032  1
  Nd  Nd5  1  0.682049  0.815284  0.123709  1
  Nd  Nd6  1  0.309491  0.181498  0.877454  1
  Nd  Nd7  1  0.197632  0.677880  0.372968  1
  Nd  Nd8  1  0.035661  0.186008  0.098513  1
  Nd  Nd9  1  0.309491  0.181498  0.622546  1
  Nd  Nd10  1  0.843451  0.485555  0.250000  1
  Nd  Nd11  1  0.364777  0.016700  0.250000  1
  Nd  Nd12  1  0.529450  0.321899  0.401533  1
  Nd  Nd13  1  0.813727  0.320633  0.878787  1
  Nd  Nd14  1  0.963116  0.812997  0.598759  1
  Nd  Nd15  1  0.462363  0.688209  0.599765  1
  Nd  Nd16  1  0.035661  0.186008  0.401487  1
  Nd  Nd17  1  0.682049  0.815284  0.376291  1
  Nd  Nd18  1  0.637069  0.990504  0.750000  1
  Nd  Nd19  1  0.529450  0.321899  0.098467  1
  Si  Si20  1  0.246833  0.370631  0.250000  1
  Si  Si21  1  0.868336  0.526813  0.459812  1
  Si  Si22  1  0.520567  0.402849  0.750000  1
  Si  Si23  1  0.635789  0.025044  0.958635  1
  Si  Si24  1  0.014712  0.093273  0.750000  1
  Si  Si25  1  0.750154  0.622692  0.750000  1
  Si  Si26  1  0.755545  0.118417  0.250000  1
  Si  Si27  1  0.360562  0.975595  0.460409  1
  Si  Si28  1  0.984030  0.902069  0.250000  1
  Si  Si29  1  0.360562  0.975595  0.039591  1
  Si  Si30  1  0.635789  0.025044  0.541365  1
  Si  Si31  1  0.143916  0.473741  0.963476  1
  Si  Si32  1  0.143916  0.473741  0.536524  1
  Si  Si33  1  0.868336  0.526813  0.040188  1
  Si  Si34  1  0.249248  0.880322  0.750000  1
  Os  Os35  1  0.489059  0.589477  0.250000  1
