# generated using pymatgen
data_LiY2Er7Cd3Ru
_symmetry_space_group_name_H-M   'P 1'
_cell_length_a   9.39992801
_cell_length_b   9.39934427
_cell_length_c   9.65677600
_cell_angle_alpha   90.00000000
_cell_angle_beta   90.00000000
_cell_angle_gamma   119.99794490
_symmetry_Int_Tables_number   1
_chemical_formula_structural   LiY2Er7Cd3Ru
_chemical_formula_sum   'Li2 Y4 Er14 Cd6 Ru2'
_cell_volume   738.91395196
_cell_formula_units_Z   2
loop_
 _symmetry_equiv_pos_site_id
 _symmetry_equiv_pos_as_xyz
  1  'x, y, z'
loop_
 _atom_site_type_symbol
 _atom_site_label
 _atom_site_symmetry_multiplicity
 _atom_site_fract_x
 _atom_site_fract_y
 _atom_site_fract_z
 _atom_site_occupancy
  Li  Li0  1  0.000004  0.000002  0.499929  1
  Li  Li1  1  0.000004  0.000002  0.000071  1
  Y  Y2  1  0.914956  0.457478  0.250000  1
  Y  Y3  1  0.457790  0.542141  0.750000  1
  Y  Y4  1  0.457790  0.915648  0.750000  1
  Y  Y5  1  0.084311  0.542155  0.750000  1
  Er  Er6  1  0.208467  0.792117  0.441539  1
  Er  Er7  1  0.208467  0.416350  0.441539  1
  Er  Er8  1  0.583647  0.791824  0.441409  1
  Er  Er9  1  0.791597  0.208012  0.558100  1
  Er  Er10  1  0.791597  0.583583  0.558100  1
  Er  Er11  1  0.416542  0.208271  0.557848  1
  Er  Er12  1  0.791597  0.208012  0.941900  1
  Er  Er13  1  0.791597  0.583583  0.941900  1
  Er  Er14  1  0.416542  0.208271  0.942152  1
  Er  Er15  1  0.208467  0.792117  0.058461  1
  Er  Er16  1  0.208467  0.416350  0.058461  1
  Er  Er17  1  0.583647  0.791824  0.058591  1
  Er  Er18  1  0.542013  0.457655  0.250000  1
  Er  Er19  1  0.542013  0.084359  0.250000  1
  Cd  Cd20  1  0.891523  0.108073  0.250000  1
  Cd  Cd21  1  0.891523  0.783451  0.250000  1
  Cd  Cd22  1  0.216947  0.108474  0.250000  1
  Cd  Cd23  1  0.108196  0.891839  0.750000  1
  Cd  Cd24  1  0.108196  0.216357  0.750000  1
  Cd  Cd25  1  0.783684  0.891842  0.750000  1
  Ru  Ru26  1  0.333650  0.666825  0.250000  1
  Ru  Ru27  1  0.666767  0.333383  0.750000  1
