# generated using pymatgen
data_PaCl(OF3)2
_symmetry_space_group_name_H-M   'P 1'
_cell_length_a   6.13029800
_cell_length_b   7.39357100
_cell_length_c   8.01052800
_cell_angle_alpha   90.00000000
_cell_angle_beta   90.00000000
_cell_angle_gamma   90.00000000
_symmetry_Int_Tables_number   1
_chemical_formula_structural   PaCl(OF3)2
_chemical_formula_sum   'Pa2 Cl2 O4 F12'
_cell_volume   363.07552754
_cell_formula_units_Z   2
loop_
 _symmetry_equiv_pos_site_id
 _symmetry_equiv_pos_as_xyz
  1  'x, y, z'
loop_
 _atom_site_type_symbol
 _atom_site_label
 _atom_site_symmetry_multiplicity
 _atom_site_fract_x
 _atom_site_fract_y
 _atom_site_fract_z
 _atom_site_occupancy
  Pa  Pa0  1  0.983306  0.000000  0.500000  1
  Pa  Pa1  1  0.016694  0.500000  0.000000  1
  Cl  Cl2  1  0.627348  0.000000  0.000000  1
  Cl  Cl3  1  0.372652  0.500000  0.500000  1
  O  O4  1  0.494424  0.500000  0.651810  1
  O  O5  1  0.505576  0.000000  0.151810  1
  O  O6  1  0.505576  0.000000  0.848190  1
  O  O7  1  0.494424  0.500000  0.348190  1
  F  F8  1  0.741809  0.197523  0.500000  1
  F  F9  1  0.238828  0.203599  0.500000  1
  F  F10  1  0.018264  0.500000  0.738579  1
  F  F11  1  0.741809  0.802477  0.500000  1
  F  F12  1  0.981736  0.000000  0.238579  1
  F  F13  1  0.761172  0.296401  0.000000  1
  F  F14  1  0.981736  0.000000  0.761421  1
  F  F15  1  0.238828  0.796401  0.500000  1
  F  F16  1  0.018264  0.500000  0.261421  1
  F  F17  1  0.761172  0.703599  0.000000  1
  F  F18  1  0.258191  0.302477  0.000000  1
  F  F19  1  0.258191  0.697523  0.000000  1
