# generated using pymatgen
data_RbTlSe12
_symmetry_space_group_name_H-M   'P 1'
_cell_length_a   11.31250957
_cell_length_b   11.31251014
_cell_length_c   11.31240082
_cell_angle_alpha   130.06271302
_cell_angle_beta   119.87231889
_cell_angle_gamma   81.85471492
_symmetry_Int_Tables_number   1
_chemical_formula_structural   RbTlSe12
_chemical_formula_sum   'Rb2 Tl2 Se24'
_cell_volume   925.20054292
_cell_formula_units_Z   2
loop_
 _symmetry_equiv_pos_site_id
 _symmetry_equiv_pos_as_xyz
  1  'x, y, z'
loop_
 _atom_site_type_symbol
 _atom_site_label
 _atom_site_symmetry_multiplicity
 _atom_site_fract_x
 _atom_site_fract_y
 _atom_site_fract_z
 _atom_site_occupancy
  Rb  Rb0  1  0.500000  0.500000  0.000000  1
  Rb  Rb1  1  0.000000  0.000000  0.000000  1
  Tl  Tl2  1  0.749999  0.249999  0.500000  1
  Tl  Tl3  1  0.250001  0.750001  0.500000  1
  Se  Se4  1  0.647003  0.750000  0.897003  1
  Se  Se5  1  0.852998  0.750001  0.102997  1
  Se  Se6  1  0.352997  0.250000  0.102997  1
  Se  Se7  1  0.147002  0.249999  0.897003  1
  Se  Se8  1  0.237085  0.125864  0.665205  1
  Se  Se9  1  0.262913  0.928119  0.888782  1
  Se  Se10  1  0.039335  0.374131  0.111218  1
  Se  Se11  1  0.460659  0.571881  0.334795  1
  Se  Se12  1  0.762915  0.874136  0.334795  1
  Se  Se13  1  0.737087  0.071881  0.111218  1
  Se  Se14  1  0.960665  0.625869  0.888782  1
  Se  Se15  1  0.539341  0.428119  0.665205  1
  Se  Se16  1  0.923702  0.825811  0.526113  1
  Se  Se17  1  0.576297  0.102400  0.902095  1
  Se  Se18  1  0.200306  0.674203  0.097905  1
  Se  Se19  1  0.299696  0.397587  0.473887  1
  Se  Se20  1  0.076298  0.174189  0.473887  1
  Se  Se21  1  0.423703  0.897600  0.097905  1
  Se  Se22  1  0.799695  0.325797  0.902095  1
  Se  Se23  1  0.700304  0.602413  0.526113  1
  Se  Se24  1  0.676755  0.064362  0.741116  1
  Se  Se25  1  0.823251  0.564378  0.387629  1
  Se  Se26  1  0.176749  0.435622  0.612371  1
  Se  Se27  1  0.323245  0.935638  0.258884  1
