# generated using pymatgen
data_Yb2Tm2UP12Ru19
_symmetry_space_group_name_H-M   'P 1'
_cell_length_a   12.55362858
_cell_length_b   12.55363008
_cell_length_c   3.96554100
_cell_angle_alpha   90.00000000
_cell_angle_beta   90.00000000
_cell_angle_gamma   120.33317220
_symmetry_Int_Tables_number   1
_chemical_formula_structural   Yb2Tm2UP12Ru19
_chemical_formula_sum   'Yb2 Tm2 U1 P12 Ru19'
_cell_volume   539.39116024
_cell_formula_units_Z   1
loop_
 _symmetry_equiv_pos_site_id
 _symmetry_equiv_pos_as_xyz
  1  'x, y, z'
loop_
 _atom_site_type_symbol
 _atom_site_label
 _atom_site_symmetry_multiplicity
 _atom_site_fract_x
 _atom_site_fract_y
 _atom_site_fract_z
 _atom_site_occupancy
  Yb  Yb0  1  0.811456  0.999509  0.500000  1
  Yb  Yb1  1  0.999509  0.811456  0.500000  1
  Tm  Tm2  1  0.334425  0.664604  0.000000  1
  Tm  Tm3  1  0.664604  0.334425  0.000000  1
  U  U4  1  0.175043  0.175043  0.500000  1
  P  P5  1  0.816410  0.816410  0.000000  1
  P  P6  1  0.182410  0.992762  0.000000  1
  P  P7  1  0.992762  0.182410  0.000000  1
  P  P8  1  0.172206  0.478659  0.500000  1
  P  P9  1  0.523879  0.695645  0.500000  1
  P  P10  1  0.307859  0.828609  0.500000  1
  P  P11  1  0.695645  0.523879  0.500000  1
  P  P12  1  0.828609  0.307859  0.500000  1
  P  P13  1  0.478659  0.172206  0.500000  1
  P  P14  1  0.372999  0.372999  0.000000  1
  P  P15  1  0.625890  0.000887  0.000000  1
  P  P16  1  0.000887  0.625890  0.000000  1
  Ru  Ru17  1  0.554345  0.554345  0.000000  1
  Ru  Ru18  1  0.446401  0.005712  0.000000  1
  Ru  Ru19  1  0.005712  0.446401  0.000000  1
  Ru  Ru20  1  0.719135  0.719135  0.500000  1
  Ru  Ru21  1  0.283932  0.002130  0.500000  1
  Ru  Ru22  1  0.002130  0.283932  0.500000  1
  Ru  Ru23  1  0.183948  0.368606  0.000000  1
  Ru  Ru24  1  0.620234  0.806636  0.000000  1
  Ru  Ru25  1  0.195742  0.813962  0.000000  1
  Ru  Ru26  1  0.806636  0.620234  0.000000  1
  Ru  Ru27  1  0.813962  0.195742  0.000000  1
  Ru  Ru28  1  0.368606  0.183948  0.000000  1
  Ru  Ru29  1  0.365560  0.492525  0.500000  1
  Ru  Ru30  1  0.508926  0.876836  0.500000  1
  Ru  Ru31  1  0.129168  0.634806  0.500000  1
  Ru  Ru32  1  0.876836  0.508926  0.500000  1
  Ru  Ru33  1  0.634806  0.129168  0.500000  1
  Ru  Ru34  1  0.492525  0.365560  0.500000  1
  Ru  Ru35  1  0.008145  0.008145  0.000000  1
