# generated using pymatgen
data_Er2AlB2Ir5
_symmetry_space_group_name_H-M   'P 1'
_cell_length_a   9.56599700
_cell_length_b   9.56599700
_cell_length_c   3.13196600
_cell_angle_alpha   90.00000000
_cell_angle_beta   90.00000000
_cell_angle_gamma   90.00000000
_symmetry_Int_Tables_number   1
_chemical_formula_structural   Er2AlB2Ir5
_chemical_formula_sum   'Er4 Al2 B4 Ir10'
_cell_volume   286.60087995
_cell_formula_units_Z   2
loop_
 _symmetry_equiv_pos_site_id
 _symmetry_equiv_pos_as_xyz
  1  'x, y, z'
loop_
 _atom_site_type_symbol
 _atom_site_label
 _atom_site_symmetry_multiplicity
 _atom_site_fract_x
 _atom_site_fract_y
 _atom_site_fract_z
 _atom_site_occupancy
  Er  Er0  1  0.176358  0.676358  0.000000  1
  Er  Er1  1  0.323642  0.176358  0.000000  1
  Er  Er2  1  0.676358  0.823642  0.000000  1
  Er  Er3  1  0.823642  0.323642  0.000000  1
  Al  Al4  1  0.000000  0.000000  0.000000  1
  Al  Al5  1  0.500000  0.500000  0.000000  1
  B  B6  1  0.122551  0.377449  0.000000  1
  B  B7  1  0.377449  0.877449  0.000000  1
  B  B8  1  0.622551  0.122551  0.000000  1
  B  B9  1  0.877449  0.622551  0.000000  1
  Ir  Ir10  1  0.000000  0.500000  0.500000  1
  Ir  Ir11  1  0.068828  0.217873  0.500000  1
  Ir  Ir12  1  0.217873  0.931172  0.500000  1
  Ir  Ir13  1  0.282127  0.431172  0.500000  1
  Ir  Ir14  1  0.431172  0.717873  0.500000  1
  Ir  Ir15  1  0.500000  0.000000  0.500000  1
  Ir  Ir16  1  0.568828  0.282127  0.500000  1
  Ir  Ir17  1  0.717873  0.568828  0.500000  1
  Ir  Ir18  1  0.782127  0.068828  0.500000  1
  Ir  Ir19  1  0.931172  0.782127  0.500000  1
