# generated using pymatgen
data_Ca20(Ga3Sn)3
_symmetry_space_group_name_H-M   'P 1'
_cell_length_a   8.10268500
_cell_length_b   8.10268500
_cell_length_c   14.60425200
_cell_angle_alpha   90.00000000
_cell_angle_beta   90.00000000
_cell_angle_gamma   90.00000000
_symmetry_Int_Tables_number   1
_chemical_formula_structural   Ca20(Ga3Sn)3
_chemical_formula_sum   'Ca20 Ga9 Sn3'
_cell_volume   958.82032015
_cell_formula_units_Z   1
loop_
 _symmetry_equiv_pos_site_id
 _symmetry_equiv_pos_as_xyz
  1  'x, y, z'
loop_
 _atom_site_type_symbol
 _atom_site_label
 _atom_site_symmetry_multiplicity
 _atom_site_fract_x
 _atom_site_fract_y
 _atom_site_fract_z
 _atom_site_occupancy
  Ca  Ca0  1  0.679145  0.175487  0.108746  1
  Ca  Ca1  1  0.178838  0.677562  0.611466  1
  Ca  Ca2  1  0.320855  0.824513  0.108746  1
  Ca  Ca3  1  0.821162  0.322438  0.611466  1
  Ca  Ca4  1  0.824513  0.679145  0.108746  1
  Ca  Ca5  1  0.322438  0.178838  0.611466  1
  Ca  Ca6  1  0.175487  0.320855  0.108746  1
  Ca  Ca7  1  0.677562  0.821162  0.611466  1
  Ca  Ca8  1  0.824513  0.320855  0.891254  1
  Ca  Ca9  1  0.322438  0.821162  0.388534  1
  Ca  Ca10  1  0.175487  0.679145  0.891254  1
  Ca  Ca11  1  0.677562  0.178838  0.388534  1
  Ca  Ca12  1  0.679145  0.824513  0.891254  1
  Ca  Ca13  1  0.178838  0.322438  0.388534  1
  Ca  Ca14  1  0.320855  0.175487  0.891254  1
  Ca  Ca15  1  0.821162  0.677562  0.388534  1
  Ca  Ca16  1  0.500000  0.500000  0.754533  1
  Ca  Ca17  1  0.000000  0.000000  0.251434  1
  Ca  Ca18  1  0.000000  0.000000  0.748566  1
  Ca  Ca19  1  0.500000  0.500000  0.245467  1
  Ga  Ga20  1  0.611050  0.110792  0.751559  1
  Ga  Ga21  1  0.110792  0.611050  0.248441  1
  Ga  Ga22  1  0.889208  0.388950  0.248441  1
  Ga  Ga23  1  0.388950  0.889208  0.751559  1
  Ga  Ga24  1  0.889208  0.611050  0.751559  1
  Ga  Ga25  1  0.388950  0.110792  0.248441  1
  Ga  Ga26  1  0.110792  0.388950  0.751559  1
  Ga  Ga27  1  0.611050  0.889208  0.248441  1
  Ga  Ga28  1  0.000000  0.000000  0.000000  1
  Sn  Sn29  1  0.500000  0.500000  0.500000  1
  Sn  Sn30  1  0.500000  0.500000  0.000000  1
  Sn  Sn31  1  0.000000  0.000000  0.500000  1
