# generated using pymatgen
data_Nd3Th(B10Rh)2
_symmetry_space_group_name_H-M   'P 1'
_cell_length_a   4.21061100
_cell_length_b   5.73788750
_cell_length_c   11.45185704
_cell_angle_alpha   89.98291571
_cell_angle_beta   90.00000000
_cell_angle_gamma   90.00000000
_symmetry_Int_Tables_number   1
_chemical_formula_structural   Nd3Th(B10Rh)2
_chemical_formula_sum   'Nd3 Th1 B20 Rh2'
_cell_volume   276.67699396
_cell_formula_units_Z   1
loop_
 _symmetry_equiv_pos_site_id
 _symmetry_equiv_pos_as_xyz
  1  'x, y, z'
loop_
 _atom_site_type_symbol
 _atom_site_label
 _atom_site_symmetry_multiplicity
 _atom_site_fract_x
 _atom_site_fract_y
 _atom_site_fract_z
 _atom_site_occupancy
  Nd  Nd0  1  0.500000  0.701830  0.137464  1
  Nd  Nd1  1  0.500000  0.795333  0.633849  1
  Nd  Nd2  1  0.500000  0.204065  0.365502  1
  Th  Th3  1  0.500000  0.295074  0.864891  1
  B  B4  1  0.000000  0.118373  0.543586  1
  B  B5  1  0.000000  0.881822  0.456579  1
  B  B6  1  0.000000  0.619251  0.956995  1
  B  B7  1  0.000000  0.382385  0.042922  1
  B  B8  1  0.000000  0.136382  0.697359  1
  B  B9  1  0.000000  0.862969  0.302462  1
  B  B10  1  0.300917  0.219968  0.118304  1
  B  B11  1  0.300982  0.782125  0.880411  1
  B  B12  1  0.699737  0.718975  0.381568  1
  B  B13  1  0.699375  0.281468  0.618931  1
  B  B14  1  0.699018  0.782125  0.880411  1
  B  B15  1  0.699083  0.219968  0.118304  1
  B  B16  1  0.300625  0.281468  0.618931  1
  B  B17  1  0.300263  0.718975  0.381568  1
  B  B18  1  0.000000  0.055625  0.192180  1
  B  B19  1  0.000000  0.943739  0.806844  1
  B  B20  1  0.000000  0.556361  0.307362  1
  B  B21  1  0.000000  0.442317  0.693618  1
  B  B22  1  0.000000  0.362755  0.197389  1
  B  B23  1  0.000000  0.634771  0.803268  1
  Rh  Rh24  1  0.000000  0.499906  0.500043  1
  Rh  Rh25  1  0.000000  0.001970  0.999259  1
