# generated using pymatgen
data_SrTlRh4(SeO3)8
_symmetry_space_group_name_H-M   'P 1'
_cell_length_a   9.07076042
_cell_length_b   9.07080206
_cell_length_c   9.06642078
_cell_angle_alpha   109.92675845
_cell_angle_beta   112.41461274
_cell_angle_gamma   106.15364189
_symmetry_Int_Tables_number   1
_chemical_formula_structural   SrTlRh4(SeO3)8
_chemical_formula_sum   'Sr1 Tl1 Rh4 Se8 O24'
_cell_volume   572.38043447
_cell_formula_units_Z   1
loop_
 _symmetry_equiv_pos_site_id
 _symmetry_equiv_pos_as_xyz
  1  'x, y, z'
loop_
 _atom_site_type_symbol
 _atom_site_label
 _atom_site_symmetry_multiplicity
 _atom_site_fract_x
 _atom_site_fract_y
 _atom_site_fract_z
 _atom_site_occupancy
  Sr  Sr0  1  0.250001  0.750000  0.500002  1
  Tl  Tl1  1  0.750004  0.250002  0.500002  1
  Rh  Rh2  1  0.749983  0.749996  0.499997  1
  Rh  Rh3  1  0.250008  0.250005  0.500019  1
  Rh  Rh4  1  0.495278  0.996739  0.992026  1
  Rh  Rh5  1  0.004735  0.503244  0.007968  1
  Se  Se6  1  0.841806  0.925896  0.267710  1
  Se  Se7  1  0.346990  0.429886  0.276873  1
  Se  Se8  1  0.658193  0.574102  0.732283  1
  Se  Se9  1  0.152996  0.070099  0.723113  1
  Se  Se10  1  0.697600  0.410461  0.101900  1
  Se  Se11  1  0.191453  0.904320  0.101911  1
  Se  Se12  1  0.308557  0.595681  0.898098  1
  Se  Se13  1  0.802389  0.089534  0.898081  1
  O  O14  1  0.827135  0.602255  0.929356  1
  O  O15  1  0.320786  0.100096  0.920935  1
  O  O16  1  0.672891  0.897788  0.070657  1
  O  O17  1  0.179190  0.399891  0.079072  1
  O  O18  1  0.659989  0.567002  0.233747  1
  O  O19  1  0.166709  0.073739  0.233730  1
  O  O20  1  0.333299  0.426264  0.766285  1
  O  O21  1  0.839990  0.932991  0.766225  1
  O  O22  1  0.812352  0.242443  0.820204  1
  O  O23  1  0.310502  0.732326  0.798144  1
  O  O24  1  0.077753  0.507829  0.820180  1
  O  O25  1  0.565799  0.987624  0.798117  1
  O  O26  1  0.422256  0.992171  0.179823  1
  O  O27  1  0.934198  0.512383  0.201878  1
  O  O28  1  0.687633  0.257557  0.179790  1
  O  O29  1  0.189505  0.767670  0.201861  1
  O  O30  1  0.516841  0.342284  0.594192  1
  O  O31  1  0.018673  0.836113  0.588965  1
  O  O32  1  0.751912  0.577368  0.594180  1
  O  O33  1  0.252879  0.070304  0.588992  1
  O  O34  1  0.748057  0.922617  0.405776  1
  O  O35  1  0.247150  0.429711  0.411032  1
  O  O36  1  0.983186  0.157722  0.405864  1
  O  O37  1  0.481321  0.663886  0.411009  1
