# generated using pymatgen
data_Ba4Ir6O18F
_symmetry_space_group_name_H-M   'P 1'
_cell_length_a   8.26129502
_cell_length_b   8.26129500
_cell_length_c   8.26129400
_cell_angle_alpha   109.47121327
_cell_angle_beta   109.47121322
_cell_angle_gamma   109.47122117
_symmetry_Int_Tables_number   1
_chemical_formula_structural   Ba4Ir6O18F
_chemical_formula_sum   'Ba4 Ir6 O18 F1'
_cell_volume   434.03277542
_cell_formula_units_Z   1
loop_
 _symmetry_equiv_pos_site_id
 _symmetry_equiv_pos_as_xyz
  1  'x, y, z'
loop_
 _atom_site_type_symbol
 _atom_site_label
 _atom_site_symmetry_multiplicity
 _atom_site_fract_x
 _atom_site_fract_y
 _atom_site_fract_z
 _atom_site_occupancy
  Ba  Ba0  1  0.000000  0.332877  0.000000  1
  Ba  Ba1  1  0.000000  0.000000  0.332877  1
  Ba  Ba2  1  0.667123  0.667123  0.667123  1
  Ba  Ba3  1  0.332877  0.000000  0.000000  1
  Ir  Ir4  1  0.500000  0.341457  0.841457  1
  Ir  Ir5  1  0.500000  0.658543  0.158543  1
  Ir  Ir6  1  0.341457  0.841457  0.500000  1
  Ir  Ir7  1  0.658543  0.158543  0.500000  1
  Ir  Ir8  1  0.841457  0.500000  0.341457  1
  Ir  Ir9  1  0.158543  0.500000  0.658543  1
  O  O10  1  0.691894  0.331800  0.050176  1
  O  O11  1  0.668200  0.360094  0.718376  1
  O  O12  1  0.281624  0.641719  0.949824  1
  O  O13  1  0.639906  0.308106  0.358281  1
  O  O14  1  0.360094  0.718376  0.668200  1
  O  O15  1  0.949824  0.281624  0.641719  1
  O  O16  1  0.050176  0.691894  0.331800  1
  O  O17  1  0.000000  0.638299  0.638299  1
  O  O18  1  0.638299  0.638299  0.000000  1
  O  O19  1  0.718376  0.668200  0.360094  1
  O  O20  1  0.331800  0.050176  0.691894  1
  O  O21  1  0.638299  0.000000  0.638299  1
  O  O22  1  0.000000  0.361701  0.361701  1
  O  O23  1  0.641719  0.949824  0.281624  1
  O  O24  1  0.358281  0.639906  0.308106  1
  O  O25  1  0.308106  0.358281  0.639906  1
  O  O26  1  0.361701  0.000000  0.361701  1
  O  O27  1  0.361701  0.361701  0.000000  1
  F  F28  1  0.000000  0.000000  0.000000  1
