# generated using pymatgen
data_PrIrBr
_symmetry_space_group_name_H-M   'P 1'
_cell_length_a   4.36730800
_cell_length_b   4.36730828
_cell_length_c   11.69277600
_cell_angle_alpha   90.00000000
_cell_angle_beta   90.00000000
_cell_angle_gamma   119.99999786
_symmetry_Int_Tables_number   1
_chemical_formula_structural   PrIrBr
_chemical_formula_sum   'Pr2 Ir2 Br2'
_cell_volume   193.14165185
_cell_formula_units_Z   2
loop_
 _symmetry_equiv_pos_site_id
 _symmetry_equiv_pos_as_xyz
  1  'x, y, z'
loop_
 _atom_site_type_symbol
 _atom_site_label
 _atom_site_symmetry_multiplicity
 _atom_site_fract_x
 _atom_site_fract_y
 _atom_site_fract_z
 _atom_site_occupancy
  Pr  Pr0  1  0.000000  0.000000  0.336998  1
  Pr  Pr1  1  0.000000  0.000000  0.663002  1
  Ir  Ir2  1  0.333333  0.666666  0.496005  1
  Ir  Ir3  1  0.666665  0.333333  0.503995  1
  Br  Br4  1  0.666665  0.333333  0.178508  1
  Br  Br5  1  0.333333  0.666666  0.821492  1
