# generated using pymatgen
data_Ca4YbSm(Si3Ru)8
_symmetry_space_group_name_H-M   'P 1'
_cell_length_a   10.18389060
_cell_length_b   10.18389193
_cell_length_c   8.17159835
_cell_angle_alpha   89.92162444
_cell_angle_beta   90.07837747
_cell_angle_gamma   132.68633390
_symmetry_Int_Tables_number   1
_chemical_formula_structural   Ca4YbSm(Si3Ru)8
_chemical_formula_sum   'Ca4 Yb1 Sm1 Si24 Ru8'
_cell_volume   622.96905174
_cell_formula_units_Z   1
loop_
 _symmetry_equiv_pos_site_id
 _symmetry_equiv_pos_as_xyz
  1  'x, y, z'
loop_
 _atom_site_type_symbol
 _atom_site_label
 _atom_site_symmetry_multiplicity
 _atom_site_fract_x
 _atom_site_fract_y
 _atom_site_fract_z
 _atom_site_occupancy
  Ca  Ca0  1  0.499647  0.499593  0.499741  1
  Ca  Ca1  1  0.999593  0.999647  0.000259  1
  Ca  Ca2  1  0.999179  0.499179  0.250000  1
  Ca  Ca3  1  0.498222  0.998222  0.250000  1
  Yb  Yb4  1  0.501789  0.001789  0.750000  1
  Sm  Sm5  1  0.000896  0.500896  0.750000  1
  Si  Si6  1  0.793825  0.203469  0.497724  1
  Si  Si7  1  0.297235  0.707643  0.000973  1
  Si  Si8  1  0.207643  0.797235  0.499027  1
  Si  Si9  1  0.703469  0.293825  0.002276  1
  Si  Si10  1  0.332854  0.333716  0.832122  1
  Si  Si11  1  0.663258  0.667644  0.167824  1
  Si  Si12  1  0.167644  0.163258  0.332176  1
  Si  Si13  1  0.833716  0.832854  0.667878  1
  Si  Si14  1  0.125757  0.892691  0.730273  1
  Si  Si15  1  0.108079  0.875315  0.269210  1
  Si  Si16  1  0.607311  0.374829  0.231018  1
  Si  Si17  1  0.624206  0.391686  0.770332  1
  Si  Si18  1  0.874829  0.107311  0.268982  1
  Si  Si19  1  0.891686  0.124206  0.729668  1
  Si  Si20  1  0.392691  0.625757  0.769727  1
  Si  Si21  1  0.375315  0.608079  0.230790  1
  Si  Si22  1  0.347912  0.114015  0.508260  1
  Si  Si23  1  0.886944  0.654059  0.492762  1
  Si  Si24  1  0.386388  0.152907  0.006839  1
  Si  Si25  1  0.846187  0.613799  0.990699  1
  Si  Si26  1  0.652907  0.886388  0.493161  1
  Si  Si27  1  0.113799  0.346187  0.509301  1
  Si  Si28  1  0.614015  0.847912  0.991740  1
  Si  Si29  1  0.154059  0.386944  0.007238  1
  Ru  Ru30  1  0.671147  0.330796  0.501199  1
  Ru  Ru31  1  0.169607  0.830126  0.999064  1
  Ru  Ru32  1  0.330126  0.669607  0.500936  1
  Ru  Ru33  1  0.830796  0.171147  0.998801  1
  Ru  Ru34  1  0.126346  0.125688  0.624786  1
  Ru  Ru35  1  0.872272  0.872964  0.375381  1
  Ru  Ru36  1  0.372964  0.372272  0.124619  1
  Ru  Ru37  1  0.625688  0.626346  0.875214  1
