# generated using pymatgen
data_Tb3Y9Tc3Pt
_symmetry_space_group_name_H-M   'P 1'
_cell_length_a   6.34863614
_cell_length_b   7.42379731
_cell_length_c   9.26980200
_cell_angle_alpha   90.00000000
_cell_angle_beta   90.00000000
_cell_angle_gamma   90.11190922
_symmetry_Int_Tables_number   1
_chemical_formula_structural   Tb3Y9Tc3Pt
_chemical_formula_sum   'Tb3 Y9 Tc3 Pt1'
_cell_volume   436.89409243
_cell_formula_units_Z   1
loop_
 _symmetry_equiv_pos_site_id
 _symmetry_equiv_pos_as_xyz
  1  'x, y, z'
loop_
 _atom_site_type_symbol
 _atom_site_label
 _atom_site_symmetry_multiplicity
 _atom_site_fract_x
 _atom_site_fract_y
 _atom_site_fract_z
 _atom_site_occupancy
  Tb  Tb0  1  0.125305  0.040137  0.250000  1
  Tb  Tb1  1  0.630366  0.453993  0.750000  1
  Tb  Tb2  1  0.370830  0.544240  0.250000  1
  Y  Y3  1  0.869802  0.964311  0.750000  1
  Y  Y4  1  0.665702  0.176926  0.064322  1
  Y  Y5  1  0.168216  0.319507  0.940797  1
  Y  Y6  1  0.828865  0.675428  0.432386  1
  Y  Y7  1  0.336441  0.827277  0.560923  1
  Y  Y8  1  0.336441  0.827277  0.939077  1
  Y  Y9  1  0.828865  0.675428  0.067614  1
  Y  Y10  1  0.168216  0.319507  0.559203  1
  Y  Y11  1  0.665702  0.176926  0.435678  1
  Tc  Tc12  1  0.966587  0.385710  0.250000  1
  Tc  Tc13  1  0.458372  0.115571  0.750000  1
  Tc  Tc14  1  0.535092  0.884139  0.250000  1
  Pt  Pt15  1  0.045192  0.613621  0.750000  1
