# generated using pymatgen
data_LiNd3Y13Cd3Ni4
_symmetry_space_group_name_H-M   'P 1'
_cell_length_a   9.64073645
_cell_length_b   9.62471005
_cell_length_c   9.62292732
_cell_angle_alpha   59.76308991
_cell_angle_beta   60.06859918
_cell_angle_gamma   60.08474344
_symmetry_Int_Tables_number   1
_chemical_formula_structural   LiNd3Y13Cd3Ni4
_chemical_formula_sum   'Li1 Nd3 Y13 Cd3 Ni4'
_cell_volume   630.96748024
_cell_formula_units_Z   1
loop_
 _symmetry_equiv_pos_site_id
 _symmetry_equiv_pos_as_xyz
  1  'x, y, z'
loop_
 _atom_site_type_symbol
 _atom_site_label
 _atom_site_symmetry_multiplicity
 _atom_site_fract_x
 _atom_site_fract_y
 _atom_site_fract_z
 _atom_site_occupancy
  Li  Li0  1  0.822913  0.820420  0.820414  1
  Nd  Nd1  1  0.597019  0.600368  0.600422  1
  Nd  Nd2  1  0.598626  0.599569  0.201138  1
  Nd  Nd3  1  0.598612  0.201145  0.599597  1
  Y  Y4  1  0.199130  0.600676  0.600712  1
  Y  Y5  1  0.061993  0.439740  0.439756  1
  Y  Y6  1  0.436817  0.064761  0.064726  1
  Y  Y7  1  0.440087  0.063230  0.438096  1
  Y  Y8  1  0.065424  0.435820  0.063508  1
  Y  Y9  1  0.440104  0.438111  0.063199  1
  Y  Y10  1  0.065425  0.063514  0.435825  1
  Y  Y11  1  0.187166  0.815213  0.815208  1
  Y  Y12  1  0.814656  0.185996  0.185995  1
  Y  Y13  1  0.814921  0.186385  0.814884  1
  Y  Y14  1  0.186545  0.814392  0.185895  1
  Y  Y15  1  0.814913  0.814895  0.186388  1
  Y  Y16  1  0.186550  0.185899  0.814381  1
  Cd  Cd17  1  0.835215  0.830557  0.504120  1
  Cd  Cd18  1  0.835215  0.504111  0.830568  1
  Cd  Cd19  1  0.503761  0.832208  0.832204  1
  Ni  Ni20  1  0.391291  0.393625  0.393619  1
  Ni  Ni21  1  0.388926  0.393500  0.824499  1
  Ni  Ni22  1  0.388909  0.824518  0.393491  1
  Ni  Ni23  1  0.825778  0.391345  0.391353  1
