# generated using pymatgen
data_Tb6Lu4InPb5
_symmetry_space_group_name_H-M   'P 1'
_cell_length_a   6.58622603
_cell_length_b   9.00283477
_cell_length_c   9.02649478
_cell_angle_alpha   119.91586237
_cell_angle_beta   90.00390541
_cell_angle_gamma   89.98978901
_symmetry_Int_Tables_number   1
_chemical_formula_structural   Tb6Lu4InPb5
_chemical_formula_sum   'Tb6 Lu4 In1 Pb5'
_cell_volume   463.90948585
_cell_formula_units_Z   1
loop_
 _symmetry_equiv_pos_site_id
 _symmetry_equiv_pos_as_xyz
  1  'x, y, z'
loop_
 _atom_site_type_symbol
 _atom_site_label
 _atom_site_symmetry_multiplicity
 _atom_site_fract_x
 _atom_site_fract_y
 _atom_site_fract_z
 _atom_site_occupancy
  Tb  Tb0  1  0.750121  0.236965  0.000125  1
  Tb  Tb1  1  0.749965  0.760050  0.766214  1
  Tb  Tb2  1  0.749966  0.993747  0.233788  1
  Tb  Tb3  1  0.250074  0.764581  0.999953  1
  Tb  Tb4  1  0.250016  0.238352  0.236700  1
  Tb  Tb5  1  0.250036  0.001493  0.763203  1
  Lu  Lu6  1  0.501993  0.337127  0.670886  1
  Lu  Lu7  1  0.501989  0.666202  0.329134  1
  Lu  Lu8  1  0.997949  0.665850  0.328689  1
  Lu  Lu9  1  0.997937  0.337163  0.671341  1
  In  In10  1  0.749815  0.599656  0.999977  1
  Pb  Pb11  1  0.750177  0.394289  0.395692  1
  Pb  Pb12  1  0.750006  0.998831  0.604539  1
  Pb  Pb13  1  0.250555  0.398986  0.999857  1
  Pb  Pb14  1  0.249673  0.604371  0.602063  1
  Pb  Pb15  1  0.249730  0.002338  0.397839  1
