# generated using pymatgen
data_TbTmMg(PRh2)6
_symmetry_space_group_name_H-M   'P 1'
_cell_length_a   3.88657902
_cell_length_b   9.70443917
_cell_length_c   9.70284503
_cell_angle_alpha   119.99335444
_cell_angle_beta   89.99607209
_cell_angle_gamma   89.99518571
_symmetry_Int_Tables_number   1
_chemical_formula_structural   TbTmMg(PRh2)6
_chemical_formula_sum   'Tb1 Tm1 Mg1 P6 Rh12'
_cell_volume   316.95437038
_cell_formula_units_Z   1
loop_
 _symmetry_equiv_pos_site_id
 _symmetry_equiv_pos_as_xyz
  1  'x, y, z'
loop_
 _atom_site_type_symbol
 _atom_site_label
 _atom_site_symmetry_multiplicity
 _atom_site_fract_x
 _atom_site_fract_y
 _atom_site_fract_z
 _atom_site_occupancy
  Tb  Tb0  1  0.753273  0.333263  0.666543  1
  Tm  Tm1  1  0.246819  0.666746  0.333470  1
  Mg  Mg2  1  0.499231  0.999997  0.000002  1
  P  P3  1  0.746836  0.882646  0.597253  1
  P  P4  1  0.746992  0.402889  0.285443  1
  P  P5  1  0.747029  0.714585  0.117472  1
  P  P6  1  0.253205  0.116719  0.401794  1
  P  P7  1  0.253049  0.598067  0.714878  1
  P  P8  1  0.253008  0.285097  0.883161  1
  Rh  Rh9  1  0.754028  0.127868  0.839134  1
  Rh  Rh10  1  0.754261  0.160946  0.288630  1
  Rh  Rh11  1  0.754049  0.711272  0.872252  1
  Rh  Rh12  1  0.246166  0.871557  0.161130  1
  Rh  Rh13  1  0.245921  0.838789  0.710532  1
  Rh  Rh14  1  0.246152  0.289572  0.128327  1
  Rh  Rh15  1  0.748541  0.613442  0.545284  1
  Rh  Rh16  1  0.748600  0.454846  0.068261  1
  Rh  Rh17  1  0.748620  0.931853  0.386578  1
  Rh  Rh18  1  0.251460  0.387542  0.452671  1
  Rh  Rh19  1  0.251395  0.547191  0.934751  1
  Rh  Rh20  1  0.251365  0.065112  0.612434  1
