# generated using pymatgen
data_Eu6Al24Os3Rh5
_symmetry_space_group_name_H-M   'P 1'
_cell_length_a   8.86614602
_cell_length_b   8.86471342
_cell_length_c   9.62218900
_cell_angle_alpha   90.00000000
_cell_angle_beta   89.86944185
_cell_angle_gamma   119.99463992
_symmetry_Int_Tables_number   1
_chemical_formula_structural   Eu6Al24Os3Rh5
_chemical_formula_sum   'Eu6 Al24 Os3 Rh5'
_cell_volume   654.97699448
_cell_formula_units_Z   1
loop_
 _symmetry_equiv_pos_site_id
 _symmetry_equiv_pos_as_xyz
  1  'x, y, z'
loop_
 _atom_site_type_symbol
 _atom_site_label
 _atom_site_symmetry_multiplicity
 _atom_site_fract_x
 _atom_site_fract_y
 _atom_site_fract_z
 _atom_site_occupancy
  Eu  Eu0  1  0.191971  0.387290  0.251382  1
  Eu  Eu1  1  0.808029  0.612710  0.748618  1
  Eu  Eu2  1  0.614859  0.807429  0.250159  1
  Eu  Eu3  1  0.385141  0.192571  0.749841  1
  Eu  Eu4  1  0.191971  0.804680  0.251382  1
  Eu  Eu5  1  0.808029  0.195320  0.748618  1
  Al  Al6  1  0.333671  0.666837  0.003488  1
  Al  Al7  1  0.666329  0.333163  0.996512  1
  Al  Al8  1  0.667529  0.333764  0.504364  1
  Al  Al9  1  0.332471  0.666236  0.495636  1
  Al  Al10  1  0.160065  0.323518  0.577483  1
  Al  Al11  1  0.839935  0.676482  0.422517  1
  Al  Al12  1  0.677296  0.838647  0.577998  1
  Al  Al13  1  0.838421  0.676993  0.078037  1
  Al  Al14  1  0.322704  0.161353  0.422002  1
  Al  Al15  1  0.161579  0.323007  0.921963  1
  Al  Al16  1  0.160065  0.836546  0.577483  1
  Al  Al17  1  0.322235  0.161119  0.078768  1
  Al  Al18  1  0.839935  0.163454  0.422517  1
  Al  Al19  1  0.677765  0.838881  0.921232  1
  Al  Al20  1  0.838421  0.161428  0.078037  1
  Al  Al21  1  0.161579  0.838572  0.921963  1
  Al  Al22  1  0.562601  0.125171  0.249688  1
  Al  Al23  1  0.437399  0.874829  0.750312  1
  Al  Al24  1  0.873737  0.436868  0.250597  1
  Al  Al25  1  0.126263  0.563132  0.749403  1
  Al  Al26  1  0.562601  0.437431  0.249688  1
  Al  Al27  1  0.437399  0.562569  0.750312  1
  Al  Al28  1  0.000661  0.000331  0.250112  1
  Al  Al29  1  0.999339  0.999669  0.749888  1
  Os  Os30  1  0.000000  0.500000  0.500000  1
  Os  Os31  1  0.000000  0.000000  0.000000  1
  Os  Os32  1  0.000000  0.000000  0.500000  1
  Rh  Rh33  1  0.500000  0.000000  0.000000  1
  Rh  Rh34  1  0.000000  0.500000  0.000000  1
  Rh  Rh35  1  0.500000  0.000000  0.500000  1
  Rh  Rh36  1  0.500000  0.500000  0.000000  1
  Rh  Rh37  1  0.500000  0.500000  0.500000  1
