# generated using pymatgen
data_Ca9YSi6F
_symmetry_space_group_name_H-M   'P 1'
_cell_length_a   9.08379095
_cell_length_b   9.06470326
_cell_length_c   9.08495623
_cell_angle_alpha   130.23447450
_cell_angle_beta   130.29015538
_cell_angle_gamma   72.89635464
_symmetry_Int_Tables_number   1
_chemical_formula_structural   Ca9YSi6F
_chemical_formula_sum   'Ca9 Y1 Si6 F1'
_cell_volume   425.68735013
_cell_formula_units_Z   1
loop_
 _symmetry_equiv_pos_site_id
 _symmetry_equiv_pos_as_xyz
  1  'x, y, z'
loop_
 _atom_site_type_symbol
 _atom_site_label
 _atom_site_symmetry_multiplicity
 _atom_site_fract_x
 _atom_site_fract_y
 _atom_site_fract_z
 _atom_site_occupancy
  Ca  Ca0  1  0.432524  0.773234  0.000000  1
  Ca  Ca1  1  0.930851  0.931477  0.644278  1
  Ca  Ca2  1  0.286574  0.287199  0.355722  1
  Ca  Ca3  1  0.711454  0.066010  0.000000  1
  Ca  Ca4  1  0.067514  0.712518  0.000000  1
  Ca  Ca5  1  0.565846  0.565472  0.336537  1
  Ca  Ca6  1  0.229308  0.228934  0.663463  1
  Ca  Ca7  1  0.253055  0.752363  0.504955  1
  Ca  Ca8  1  0.748100  0.247408  0.495045  1
  Y  Y9  1  0.778029  0.434845  0.000000  1
  Si  Si10  1  0.994123  0.497082  0.485124  1
  Si  Si11  1  0.509000  0.011959  0.514876  1
  Si  Si12  1  0.128166  0.363921  0.000000  1
  Si  Si13  1  0.357466  0.135933  0.000000  1
  Si  Si14  1  0.865729  0.858483  0.226169  1
  Si  Si15  1  0.639560  0.632314  0.773831  1
  F  F16  1  0.502700  0.500849  0.000000  1
