# generated using pymatgen
data_Dy2Er5TmSb20
_symmetry_space_group_name_H-M   'P 1'
_cell_length_a   4.20680200
_cell_length_b   13.18219473
_cell_length_c   14.61913735
_cell_angle_alpha   78.34780326
_cell_angle_beta   90.00000000
_cell_angle_gamma   90.00000000
_symmetry_Int_Tables_number   1
_chemical_formula_structural   Dy2Er5TmSb20
_chemical_formula_sum   'Dy2 Er5 Tm1 Sb20'
_cell_volume   793.99531952
_cell_formula_units_Z   1
loop_
 _symmetry_equiv_pos_site_id
 _symmetry_equiv_pos_as_xyz
  1  'x, y, z'
loop_
 _atom_site_type_symbol
 _atom_site_label
 _atom_site_symmetry_multiplicity
 _atom_site_fract_x
 _atom_site_fract_y
 _atom_site_fract_z
 _atom_site_occupancy
  Dy  Dy0  1  0.250000  0.953287  0.359300  1
  Dy  Dy1  1  0.750000  0.046764  0.640699  1
  Er  Er2  1  0.750000  0.605089  0.229491  1
  Er  Er3  1  0.250000  0.661869  0.855903  1
  Er  Er4  1  0.750000  0.338062  0.144004  1
  Er  Er5  1  0.250000  0.668645  0.576458  1
  Er  Er6  1  0.750000  0.331315  0.423637  1
  Tm  Tm7  1  0.250000  0.394983  0.770491  1
  Sb  Sb8  1  0.250000  0.144239  0.778683  1
  Sb  Sb9  1  0.750000  0.855926  0.221353  1
  Sb  Sb10  1  0.250000  0.144457  0.482311  1
  Sb  Sb11  1  0.750000  0.855557  0.517691  1
  Sb  Sb12  1  0.250000  0.152960  0.171388  1
  Sb  Sb13  1  0.750000  0.847014  0.828610  1
  Sb  Sb14  1  0.250000  0.420600  0.975096  1
  Sb  Sb15  1  0.750000  0.579410  0.024648  1
  Sb  Sb16  1  0.750000  0.029029  0.908841  1
  Sb  Sb17  1  0.250000  0.970988  0.091140  1
  Sb  Sb18  1  0.750000  0.140089  0.322251  1
  Sb  Sb19  1  0.250000  0.859929  0.677747  1
  Sb  Sb20  1  0.750000  0.279320  0.937036  1
  Sb  Sb21  1  0.250000  0.720729  0.062780  1
  Sb  Sb22  1  0.750000  0.285671  0.652859  1
  Sb  Sb23  1  0.250000  0.714450  0.347297  1
  Sb  Sb24  1  0.750000  0.575834  0.734398  1
  Sb  Sb25  1  0.250000  0.423776  0.265689  1
  Sb  Sb26  1  0.750000  0.572542  0.447486  1
  Sb  Sb27  1  0.250000  0.427465  0.552714  1
