# generated using pymatgen
data_Ta11TiMn4(Al2C)4
_symmetry_space_group_name_H-M   'P 1'
_cell_length_a   8.22837906
_cell_length_b   8.21759981
_cell_length_c   8.22837900
_cell_angle_alpha   60.04332765
_cell_angle_beta   59.91394282
_cell_angle_gamma   60.04332741
_symmetry_Int_Tables_number   1
_chemical_formula_structural   Ta11TiMn4(Al2C)4
_chemical_formula_sum   'Ta11 Ti1 Mn4 Al8 C4'
_cell_volume   393.42237408
_cell_formula_units_Z   1
loop_
 _symmetry_equiv_pos_site_id
 _symmetry_equiv_pos_as_xyz
  1  'x, y, z'
loop_
 _atom_site_type_symbol
 _atom_site_label
 _atom_site_symmetry_multiplicity
 _atom_site_fract_x
 _atom_site_fract_y
 _atom_site_fract_z
 _atom_site_occupancy
  Ta  Ta0  1  0.307652  0.694595  0.692954  1
  Ta  Ta1  1  0.692954  0.304800  0.307652  1
  Ta  Ta2  1  0.305797  0.694203  0.305797  1
  Ta  Ta3  1  0.692954  0.694595  0.307652  1
  Ta  Ta4  1  0.307652  0.304800  0.692954  1
  Ta  Ta5  1  0.556805  0.555228  0.943423  1
  Ta  Ta6  1  0.943423  0.555228  0.556805  1
  Ta  Ta7  1  0.556805  0.944543  0.943423  1
  Ta  Ta8  1  0.943423  0.944543  0.556805  1
  Ta  Ta9  1  0.694100  0.305900  0.694100  1
  Ta  Ta10  1  0.943416  0.556584  0.943416  1
  Ti  Ti11  1  0.557866  0.942134  0.557866  1
  Mn  Mn12  1  0.125304  0.123921  0.125304  1
  Mn  Mn13  1  0.624651  0.126170  0.123009  1
  Mn  Mn14  1  0.125304  0.625471  0.125304  1
  Mn  Mn15  1  0.123009  0.126170  0.624651  1
  Al  Al16  1  0.917077  0.916941  0.917077  1
  Al  Al17  1  0.999989  0.333524  0.332963  1
  Al  Al18  1  0.333725  0.000995  0.333725  1
  Al  Al19  1  0.332963  0.333524  0.999989  1
  Al  Al20  1  0.917077  0.248906  0.917077  1
  Al  Al21  1  0.913655  0.917405  0.251536  1
  Al  Al22  1  0.251536  0.917405  0.913655  1
  Al  Al23  1  0.333725  0.331553  0.333725  1
  C  C24  1  0.624574  0.628216  0.624574  1
  C  C25  1  0.125566  0.625005  0.624424  1
  C  C26  1  0.624574  0.122636  0.624574  1
  C  C27  1  0.624424  0.625005  0.125566  1
