# generated using pymatgen
data_TbDyHo2Pt4F28
_symmetry_space_group_name_H-M   'P 1'
_cell_length_a   5.55085405
_cell_length_b   8.88306923
_cell_length_c   11.99226618
_cell_angle_alpha   62.46365982
_cell_angle_beta   90.01382872
_cell_angle_gamma   90.01177753
_symmetry_Int_Tables_number   1
_chemical_formula_structural   TbDyHo2Pt4F28
_chemical_formula_sum   'Tb1 Dy1 Ho2 Pt4 F28'
_cell_volume   524.33581111
_cell_formula_units_Z   1
loop_
 _symmetry_equiv_pos_site_id
 _symmetry_equiv_pos_as_xyz
  1  'x, y, z'
loop_
 _atom_site_type_symbol
 _atom_site_label
 _atom_site_symmetry_multiplicity
 _atom_site_fract_x
 _atom_site_fract_y
 _atom_site_fract_z
 _atom_site_occupancy
  Tb  Tb0  1  0.260866  0.186715  0.735403  1
  Dy  Dy1  1  0.760982  0.813357  0.764506  1
  Ho  Ho2  1  0.238940  0.185434  0.235781  1
  Ho  Ho3  1  0.738918  0.814563  0.264200  1
  Pt  Pt4  1  0.758699  0.272038  0.957854  1
  Pt  Pt5  1  0.258725  0.728266  0.542263  1
  Pt  Pt6  1  0.240926  0.726816  0.044194  1
  Pt  Pt7  1  0.741017  0.273097  0.455694  1
  F  F8  1  0.436024  0.702456  0.916628  1
  F  F9  1  0.935656  0.297670  0.583233  1
  F  F10  1  0.562859  0.296879  0.084933  1
  F  F11  1  0.062944  0.703135  0.415172  1
  F  F12  1  0.440633  0.278792  0.541337  1
  F  F13  1  0.940321  0.721408  0.958248  1
  F  F14  1  0.559997  0.722810  0.456558  1
  F  F15  1  0.060142  0.277183  0.043485  1
  F  F16  1  0.774844  0.520979  0.858796  1
  F  F17  1  0.274897  0.479590  0.641037  1
  F  F18  1  0.225462  0.477510  0.142216  1
  F  F19  1  0.725467  0.522434  0.357780  1
  F  F20  1  0.753933  0.022887  0.051008  1
  F  F21  1  0.253947  0.977293  0.448935  1
  F  F22  1  0.245695  0.975750  0.950760  1
  F  F23  1  0.745670  0.024039  0.549503  1
  F  F24  1  0.965855  0.724843  0.635600  1
  F  F25  1  0.466070  0.275340  0.864636  1
  F  F26  1  0.034173  0.274765  0.362976  1
  F  F27  1  0.534065  0.725222  0.137014  1
  F  F28  1  0.050757  0.745853  0.176047  1
  F  F29  1  0.550741  0.254121  0.323906  1
  F  F30  1  0.947033  0.254303  0.825239  1
  F  F31  1  0.447839  0.745921  0.674944  1
  F  F32  1  0.416580  0.970646  0.232619  1
  F  F33  1  0.916573  0.029363  0.267371  1
  F  F34  1  0.587281  0.030012  0.767934  1
  F  F35  1  0.085466  0.968511  0.732190  1
