# generated using pymatgen
data_TbHoMn2Co10P7
_symmetry_space_group_name_H-M   'P 1'
_cell_length_a   9.03718502
_cell_length_b   9.05981467
_cell_length_c   3.60227900
_cell_angle_alpha   90.00000000
_cell_angle_beta   90.00000000
_cell_angle_gamma   120.02480931
_symmetry_Int_Tables_number   1
_chemical_formula_structural   TbHoMn2Co10P7
_chemical_formula_sum   'Tb1 Ho1 Mn2 Co10 P7'
_cell_volume   255.35939444
_cell_formula_units_Z   1
loop_
 _symmetry_equiv_pos_site_id
 _symmetry_equiv_pos_as_xyz
  1  'x, y, z'
loop_
 _atom_site_type_symbol
 _atom_site_label
 _atom_site_symmetry_multiplicity
 _atom_site_fract_x
 _atom_site_fract_y
 _atom_site_fract_z
 _atom_site_occupancy
  Tb  Tb0  1  0.668631  0.334092  0.000000  1
  Ho  Ho1  1  0.333558  0.666995  0.500000  1
  Mn  Mn2  1  0.778919  0.899076  0.500000  1
  Mn  Mn3  1  0.120781  0.220332  0.500000  1
  Co  Co4  1  0.060663  0.631548  0.000000  1
  Co  Co5  1  0.568320  0.938951  0.000000  1
  Co  Co6  1  0.370042  0.430988  0.000000  1
  Co  Co7  1  0.274136  0.116964  0.000000  1
  Co  Co8  1  0.844294  0.725863  0.000000  1
  Co  Co9  1  0.883669  0.157990  0.000000  1
  Co  Co10  1  0.433987  0.048619  0.500000  1
  Co  Co11  1  0.615281  0.564229  0.500000  1
  Co  Co12  1  0.950473  0.386972  0.500000  1
  Co  Co13  1  0.094562  0.874481  0.500000  1
  P  P14  1  0.297701  0.888034  0.000000  1
  P  P15  1  0.588744  0.700702  0.000000  1
  P  P16  1  0.112145  0.413151  0.000000  1
  P  P17  1  0.406899  0.290431  0.500000  1
  P  P18  1  0.887535  0.598654  0.500000  1
  P  P19  1  0.710117  0.113334  0.500000  1
  P  P20  1  0.999542  0.998593  0.000000  1
