# generated using pymatgen
data_Er4Al18Cu2Os3Pd
_symmetry_space_group_name_H-M   'P 1'
_cell_length_a   7.55093425
_cell_length_b   7.55093382
_cell_length_c   9.44002101
_cell_angle_alpha   90.07729016
_cell_angle_beta   90.07728904
_cell_angle_gamma   119.20977900
_symmetry_Int_Tables_number   1
_chemical_formula_structural   Er4Al18Cu2Os3Pd
_chemical_formula_sum   'Er4 Al18 Cu2 Os3 Pd1'
_cell_volume   469.79329357
_cell_formula_units_Z   1
loop_
 _symmetry_equiv_pos_site_id
 _symmetry_equiv_pos_as_xyz
  1  'x, y, z'
loop_
 _atom_site_type_symbol
 _atom_site_label
 _atom_site_symmetry_multiplicity
 _atom_site_fract_x
 _atom_site_fract_y
 _atom_site_fract_z
 _atom_site_occupancy
  Er  Er0  1  0.994565  0.673939  0.247649  1
  Er  Er1  1  0.005656  0.325629  0.751566  1
  Er  Er2  1  0.674371  0.994344  0.248434  1
  Er  Er3  1  0.326061  0.005435  0.752351  1
  Al  Al4  1  0.128114  0.129357  0.250007  1
  Al  Al5  1  0.870643  0.871886  0.749993  1
  Al  Al6  1  0.996874  0.331529  0.074547  1
  Al  Al7  1  0.996269  0.661938  0.924722  1
  Al  Al8  1  0.000585  0.668559  0.577305  1
  Al  Al9  1  0.331441  0.999415  0.422695  1
  Al  Al10  1  0.001155  0.333926  0.424336  1
  Al  Al11  1  0.666074  0.998845  0.575664  1
  Al  Al12  1  0.668471  0.003126  0.925453  1
  Al  Al13  1  0.338062  0.003731  0.075278  1
  Al  Al14  1  0.329202  0.331096  0.555143  1
  Al  Al15  1  0.668904  0.670798  0.444857  1
  Al  Al16  1  0.671590  0.666625  0.048024  1
  Al  Al17  1  0.333375  0.328410  0.951976  1
  Al  Al18  1  0.341795  0.552401  0.248865  1
  Al  Al19  1  0.656605  0.449228  0.753173  1
  Al  Al20  1  0.550772  0.343395  0.246827  1
  Al  Al21  1  0.447599  0.658205  0.751135  1
  Cu  Cu22  1  0.328475  0.671525  0.000000  1
  Cu  Cu23  1  0.327969  0.672031  0.500000  1
  Os  Os24  1  0.672320  0.327680  0.000000  1
  Os  Os25  1  0.001491  0.998509  0.000000  1
  Os  Os26  1  0.999924  0.000076  0.500000  1
  Pd  Pd27  1  0.671639  0.328361  0.500000  1
