# generated using pymatgen
data_TbY2Ga2Co9B4
_symmetry_space_group_name_H-M   'P 1'
_cell_length_a   5.14877813
_cell_length_b   5.14892832
_cell_length_c   9.58410100
_cell_angle_alpha   90.00033071
_cell_angle_beta   90.00155185
_cell_angle_gamma   119.99121852
_symmetry_Int_Tables_number   1
_chemical_formula_structural   TbY2Ga2Co9B4
_chemical_formula_sum   'Tb1 Y2 Ga2 Co9 B4'
_cell_volume   220.06017819
_cell_formula_units_Z   1
loop_
 _symmetry_equiv_pos_site_id
 _symmetry_equiv_pos_as_xyz
  1  'x, y, z'
loop_
 _atom_site_type_symbol
 _atom_site_label
 _atom_site_symmetry_multiplicity
 _atom_site_fract_x
 _atom_site_fract_y
 _atom_site_fract_z
 _atom_site_occupancy
  Tb  Tb0  1  0.000034  0.000070  0.659458  1
  Y  Y1  1  0.999986  0.999989  0.000060  1
  Y  Y2  1  0.000042  0.000053  0.340722  1
  Ga  Ga3  1  0.333255  0.666586  0.000159  1
  Ga  Ga4  1  0.666672  0.333377  0.000134  1
  Co  Co5  1  0.500026  0.000016  0.499903  1
  Co  Co6  1  0.499998  0.500068  0.499889  1
  Co  Co7  1  0.000016  0.499981  0.499882  1
  Co  Co8  1  0.500034  0.999994  0.207686  1
  Co  Co9  1  0.499983  0.500034  0.207629  1
  Co  Co10  1  0.999987  0.499953  0.207732  1
  Co  Co11  1  0.500000  0.999999  0.792403  1
  Co  Co12  1  0.499970  0.499969  0.792374  1
  Co  Co13  1  0.999977  0.500010  0.792368  1
  B  B14  1  0.333286  0.666624  0.349466  1
  B  B15  1  0.666656  0.333351  0.349464  1
  B  B16  1  0.666651  0.333229  0.650338  1
  B  B17  1  0.333326  0.666698  0.650336  1
