# generated using pymatgen
data_Cs4ReMoP4
_symmetry_space_group_name_H-M   'P 1'
_cell_length_a   8.78816481
_cell_length_b   8.78816483
_cell_length_c   8.78816520
_cell_angle_alpha   139.43475617
_cell_angle_beta   124.81442998
_cell_angle_gamma   70.69563427
_symmetry_Int_Tables_number   1
_chemical_formula_structural   Cs4ReMoP4
_chemical_formula_sum   'Cs4 Re1 Mo1 P4'
_cell_volume   355.55578146
_cell_formula_units_Z   1
loop_
 _symmetry_equiv_pos_site_id
 _symmetry_equiv_pos_as_xyz
  1  'x, y, z'
loop_
 _atom_site_type_symbol
 _atom_site_label
 _atom_site_symmetry_multiplicity
 _atom_site_fract_x
 _atom_site_fract_y
 _atom_site_fract_z
 _atom_site_occupancy
  Cs  Cs0  1  0.985431  0.150588  0.833931  1
  Cs  Cs1  1  0.014569  0.848502  0.165159  1
  Cs  Cs2  1  0.683343  0.349412  0.334841  1
  Cs  Cs3  1  0.316657  0.651498  0.666069  1
  Re  Re4  1  0.500000  0.250000  0.750000  1
  Mo  Mo5  1  0.500000  0.750000  0.250000  1
  P  P6  1  0.742366  0.582379  0.149509  1
  P  P7  1  0.567130  0.917621  0.659987  1
  P  P8  1  0.432870  0.092856  0.350491  1
  P  P9  1  0.257634  0.407144  0.840013  1
