# generated using pymatgen
data_CaTa2Hg3(SbO7)2
_symmetry_space_group_name_H-M   'P 1'
_cell_length_a   7.38097538
_cell_length_b   7.53196683
_cell_length_c   7.42963436
_cell_angle_alpha   60.77099191
_cell_angle_beta   60.21642123
_cell_angle_gamma   60.66096002
_symmetry_Int_Tables_number   1
_chemical_formula_structural   CaTa2Hg3(SbO7)2
_chemical_formula_sum   'Ca1 Ta2 Hg3 Sb2 O14'
_cell_volume   295.67201686
_cell_formula_units_Z   1
loop_
 _symmetry_equiv_pos_site_id
 _symmetry_equiv_pos_as_xyz
  1  'x, y, z'
loop_
 _atom_site_type_symbol
 _atom_site_label
 _atom_site_symmetry_multiplicity
 _atom_site_fract_x
 _atom_site_fract_y
 _atom_site_fract_z
 _atom_site_occupancy
  Ca  Ca0  1  0.125000  0.625000  0.125000  1
  Ta  Ta1  1  0.625000  0.625000  0.125000  1
  Ta  Ta2  1  0.625000  0.125000  0.625000  1
  Hg  Hg3  1  0.125000  0.125000  0.625000  1
  Hg  Hg4  1  0.625000  0.125000  0.125000  1
  Hg  Hg5  1  0.125000  0.125000  0.125000  1
  Sb  Sb6  1  0.125000  0.625000  0.625000  1
  Sb  Sb7  1  0.625000  0.625000  0.625000  1
  O  O8  1  0.305698  0.685268  0.307417  1
  O  O9  1  0.559649  0.937748  0.560360  1
  O  O10  1  0.307758  0.312252  0.689640  1
  O  O11  1  0.684470  0.317159  0.313902  1
  O  O12  1  0.300252  0.690701  0.708795  1
  O  O13  1  0.701617  0.685268  0.307417  1
  O  O14  1  0.942242  0.937748  0.560360  1
  O  O15  1  0.548383  0.564732  0.942583  1
  O  O16  1  0.992118  0.017498  0.998267  1
  O  O17  1  0.257882  0.232502  0.251733  1
  O  O18  1  0.690351  0.312252  0.689640  1
  O  O19  1  0.949748  0.559299  0.541205  1
  O  O20  1  0.565530  0.932841  0.936098  1
  O  O21  1  0.944302  0.564732  0.942583  1
