# generated using pymatgen
data_Ce3Y7(Al2Ru3)2
_symmetry_space_group_name_H-M   'P 1'
_cell_length_a   8.47024068
_cell_length_b   8.47023983
_cell_length_c   8.47024190
_cell_angle_alpha   110.10901130
_cell_angle_beta   110.10901205
_cell_angle_gamma   110.10901586
_symmetry_Int_Tables_number   1
_chemical_formula_structural   Ce3Y7(Al2Ru3)2
_chemical_formula_sum   'Ce3 Y7 Al4 Ru6'
_cell_volume   456.42508695
_cell_formula_units_Z   1
loop_
 _symmetry_equiv_pos_site_id
 _symmetry_equiv_pos_as_xyz
  1  'x, y, z'
loop_
 _atom_site_type_symbol
 _atom_site_label
 _atom_site_symmetry_multiplicity
 _atom_site_fract_x
 _atom_site_fract_y
 _atom_site_fract_z
 _atom_site_occupancy
  Ce  Ce0  1  0.252917  0.200313  0.944400  1
  Ce  Ce1  1  0.944400  0.252917  0.200313  1
  Ce  Ce2  1  0.200313  0.944400  0.252917  1
  Y  Y3  1  0.779695  0.779695  0.779695  1
  Y  Y4  1  0.312753  0.565996  0.751685  1
  Y  Y5  1  0.751685  0.312753  0.565996  1
  Y  Y6  1  0.565996  0.751685  0.312753  1
  Y  Y7  1  0.722007  0.506440  0.994677  1
  Y  Y8  1  0.994677  0.722007  0.506440  1
  Y  Y9  1  0.506440  0.994677  0.722007  1
  Al  Al10  1  0.411496  0.411496  0.411496  1
  Al  Al11  1  0.093741  0.498860  0.002694  1
  Al  Al12  1  0.002694  0.093741  0.498860  1
  Al  Al13  1  0.498860  0.002694  0.093741  1
  Ru  Ru14  1  0.906048  0.121833  0.755572  1
  Ru  Ru15  1  0.755572  0.906048  0.121833  1
  Ru  Ru16  1  0.121833  0.755572  0.906048  1
  Ru  Ru17  1  0.222216  0.592070  0.364585  1
  Ru  Ru18  1  0.364585  0.222216  0.592070  1
  Ru  Ru19  1  0.592070  0.364585  0.222216  1
