# generated using pymatgen
data_Tb8Nb11Si16Ir
_symmetry_space_group_name_H-M   'P 1'
_cell_length_a   7.06783893
_cell_length_b   7.06783981
_cell_length_c   13.04777363
_cell_angle_alpha   90.18383675
_cell_angle_beta   89.81616123
_cell_angle_gamma   89.68800288
_symmetry_Int_Tables_number   1
_chemical_formula_structural   Tb8Nb11Si16Ir
_chemical_formula_sum   'Tb8 Nb11 Si16 Ir1'
_cell_volume   651.77668394
_cell_formula_units_Z   1
loop_
 _symmetry_equiv_pos_site_id
 _symmetry_equiv_pos_as_xyz
  1  'x, y, z'
loop_
 _atom_site_type_symbol
 _atom_site_label
 _atom_site_symmetry_multiplicity
 _atom_site_fract_x
 _atom_site_fract_y
 _atom_site_fract_z
 _atom_site_occupancy
  Tb  Tb0  1  0.341071  0.003886  0.467633  1
  Tb  Tb1  1  0.495262  0.841615  0.719069  1
  Tb  Tb2  1  0.501365  0.158877  0.216393  1
  Tb  Tb3  1  0.841615  0.495262  0.280931  1
  Tb  Tb4  1  0.158877  0.501365  0.783607  1
  Tb  Tb5  1  0.656762  0.997194  0.968243  1
  Tb  Tb6  1  0.003886  0.341071  0.532367  1
  Tb  Tb7  1  0.997194  0.656762  0.031757  1
  Nb  Nb8  1  0.174887  0.828691  0.247076  1
  Nb  Nb9  1  0.828691  0.174887  0.752924  1
  Nb  Nb10  1  0.671394  0.671394  0.500000  1
  Nb  Nb11  1  0.149978  0.002955  0.875302  1
  Nb  Nb12  1  0.494449  0.659356  0.124630  1
  Nb  Nb13  1  0.505370  0.347278  0.626199  1
  Nb  Nb14  1  0.659356  0.494449  0.875370  1
  Nb  Nb15  1  0.347278  0.505370  0.373801  1
  Nb  Nb16  1  0.847476  0.993537  0.374109  1
  Nb  Nb17  1  0.002955  0.149978  0.124698  1
  Nb  Nb18  1  0.993537  0.847476  0.625891  1
  Si  Si19  1  0.202409  0.134847  0.684546  1
  Si  Si20  1  0.369703  0.699873  0.934362  1
  Si  Si21  1  0.634125  0.296551  0.433531  1
  Si  Si22  1  0.699873  0.369703  0.065638  1
  Si  Si23  1  0.296551  0.634125  0.566469  1
  Si  Si24  1  0.796037  0.866737  0.183660  1
  Si  Si25  1  0.134847  0.202409  0.315454  1
  Si  Si26  1  0.866737  0.796037  0.816340  1
  Si  Si27  1  0.289129  0.955598  0.060843  1
  Si  Si28  1  0.546102  0.793915  0.313546  1
  Si  Si29  1  0.448427  0.209451  0.817875  1
  Si  Si30  1  0.793915  0.546102  0.686454  1
  Si  Si31  1  0.209451  0.448427  0.182125  1
  Si  Si32  1  0.706756  0.046469  0.564529  1
  Si  Si33  1  0.955598  0.289129  0.939157  1
  Si  Si34  1  0.046469  0.706756  0.435471  1
  Ir  Ir35  1  0.332467  0.332467  0.000000  1
