# generated using pymatgen
data_Na(AlAg2)4
_symmetry_space_group_name_H-M   'P 1'
_cell_length_a   7.16094426
_cell_length_b   7.16094514
_cell_length_c   7.16094510
_cell_angle_alpha   98.00046559
_cell_angle_beta   98.00046818
_cell_angle_gamma   136.18984465
_symmetry_Int_Tables_number   1
_chemical_formula_structural   Na(AlAg2)4
_chemical_formula_sum   'Na1 Al4 Ag8'
_cell_volume   235.85390656
_cell_formula_units_Z   1
loop_
 _symmetry_equiv_pos_site_id
 _symmetry_equiv_pos_as_xyz
  1  'x, y, z'
loop_
 _atom_site_type_symbol
 _atom_site_label
 _atom_site_symmetry_multiplicity
 _atom_site_fract_x
 _atom_site_fract_y
 _atom_site_fract_z
 _atom_site_occupancy
  Na  Na0  1  0.000000  0.000000  0.000000  1
  Al  Al1  1  0.500000  0.500000  0.500000  1
  Al  Al2  1  0.000000  0.000000  0.500000  1
  Al  Al3  1  0.000000  0.500000  0.000000  1
  Al  Al4  1  0.500000  0.000000  0.000000  1
  Ag  Ag5  1  0.281851  0.500000  0.781851  1
  Ag  Ag6  1  0.718149  0.500000  0.218149  1
  Ag  Ag7  1  0.500000  0.281851  0.781851  1
  Ag  Ag8  1  0.500000  0.718149  0.218149  1
  Ag  Ag9  1  0.344326  0.000000  0.344326  1
  Ag  Ag10  1  0.655674  0.000000  0.655674  1
  Ag  Ag11  1  0.000000  0.344326  0.344326  1
  Ag  Ag12  1  0.000000  0.655674  0.655674  1
