# generated using pymatgen
data_LaTh4Si4Hg
_symmetry_space_group_name_H-M   'P 1'
_cell_length_a   7.82893804
_cell_length_b   7.81589862
_cell_length_c   4.14196000
_cell_angle_alpha   90.00000000
_cell_angle_beta   90.00000000
_cell_angle_gamma   89.42107188
_symmetry_Int_Tables_number   1
_chemical_formula_structural   LaTh4Si4Hg
_chemical_formula_sum   'La1 Th4 Si4 Hg1'
_cell_volume   253.43436508
_cell_formula_units_Z   1
loop_
 _symmetry_equiv_pos_site_id
 _symmetry_equiv_pos_as_xyz
  1  'x, y, z'
loop_
 _atom_site_type_symbol
 _atom_site_label
 _atom_site_symmetry_multiplicity
 _atom_site_fract_x
 _atom_site_fract_y
 _atom_site_fract_z
 _atom_site_occupancy
  La  La0  1  0.669372  0.195729  0.500000  1
  Th  Th1  1  0.999620  0.999835  0.000000  1
  Th  Th2  1  0.329764  0.807420  0.500000  1
  Th  Th3  1  0.192341  0.328947  0.500000  1
  Th  Th4  1  0.810774  0.670159  0.500000  1
  Si  Si5  1  0.098980  0.623132  0.000000  1
  Si  Si6  1  0.908972  0.382090  0.000000  1
  Si  Si7  1  0.618033  0.898074  0.000000  1
  Si  Si8  1  0.374130  0.092898  0.000000  1
  Hg  Hg9  1  0.498014  0.501718  0.000000  1
