# generated using pymatgen
data_Y12Th4MgCo4Hg3
_symmetry_space_group_name_H-M   'P 1'
_cell_length_a   9.63182744
_cell_length_b   9.61343098
_cell_length_c   9.61343200
_cell_angle_alpha   60.00000338
_cell_angle_beta   60.06316444
_cell_angle_gamma   60.06316822
_symmetry_Int_Tables_number   1
_chemical_formula_structural   Y12Th4MgCo4Hg3
_chemical_formula_sum   'Y12 Th4 Mg1 Co4 Hg3'
_cell_volume   630.03483931
_cell_formula_units_Z   1
loop_
 _symmetry_equiv_pos_site_id
 _symmetry_equiv_pos_as_xyz
  1  'x, y, z'
loop_
 _atom_site_type_symbol
 _atom_site_label
 _atom_site_symmetry_multiplicity
 _atom_site_fract_x
 _atom_site_fract_y
 _atom_site_fract_z
 _atom_site_occupancy
  Y  Y0  1  0.809861  0.189361  0.189361  1
  Y  Y1  1  0.185372  0.813149  0.813149  1
  Y  Y2  1  0.185372  0.813149  0.188330  1
  Y  Y3  1  0.809861  0.189361  0.811418  1
  Y  Y4  1  0.185372  0.188330  0.813149  1
  Y  Y5  1  0.809861  0.811418  0.189361  1
  Y  Y6  1  0.933579  0.565009  0.565009  1
  Y  Y7  1  0.562052  0.936940  0.936940  1
  Y  Y8  1  0.562052  0.936940  0.564068  1
  Y  Y9  1  0.933579  0.565009  0.936403  1
  Y  Y10  1  0.562052  0.564068  0.936940  1
  Y  Y11  1  0.933579  0.936403  0.565009  1
  Th  Th12  1  0.344413  0.345447  0.345447  1
  Th  Th13  1  0.344413  0.345447  0.964694  1
  Th  Th14  1  0.344413  0.964694  0.345447  1
  Th  Th15  1  0.960800  0.346400  0.346400  1
  Mg  Mg16  1  0.279311  0.573563  0.573563  1
  Co  Co17  1  0.145364  0.144695  0.144695  1
  Co  Co18  1  0.145364  0.144695  0.565245  1
  Co  Co19  1  0.145364  0.565245  0.144695  1
  Co  Co20  1  0.564009  0.145330  0.145330  1
  Hg  Hg21  1  0.584652  0.586920  0.586920  1
  Hg  Hg22  1  0.584652  0.586920  0.241507  1
  Hg  Hg23  1  0.584652  0.241507  0.586920  1
