# generated using pymatgen
data_Ca5Th(Si3Ru)8
_symmetry_space_group_name_H-M   'P 1'
_cell_length_a   10.19013468
_cell_length_b   10.19013533
_cell_length_c   8.18498643
_cell_angle_alpha   89.74164855
_cell_angle_beta   90.25834414
_cell_angle_gamma   132.63626600
_symmetry_Int_Tables_number   1
_chemical_formula_structural   Ca5Th(Si3Ru)8
_chemical_formula_sum   'Ca5 Th1 Si24 Ru8'
_cell_volume   625.25149414
_cell_formula_units_Z   1
loop_
 _symmetry_equiv_pos_site_id
 _symmetry_equiv_pos_as_xyz
  1  'x, y, z'
loop_
 _atom_site_type_symbol
 _atom_site_label
 _atom_site_symmetry_multiplicity
 _atom_site_fract_x
 _atom_site_fract_y
 _atom_site_fract_z
 _atom_site_occupancy
  Ca  Ca0  1  0.999673  0.999554  0.000062  1
  Ca  Ca1  1  0.499554  0.499673  0.499938  1
  Ca  Ca2  1  0.001763  0.501763  0.250000  1
  Ca  Ca3  1  0.998480  0.498480  0.750000  1
  Ca  Ca4  1  0.499203  0.999203  0.750000  1
  Th  Th5  1  0.501856  0.001856  0.250000  1
  Si  Si6  1  0.709595  0.300734  0.994854  1
  Si  Si7  1  0.291565  0.699817  0.995186  1
  Si  Si8  1  0.800734  0.209595  0.505146  1
  Si  Si9  1  0.199817  0.791565  0.504814  1
  Si  Si10  1  0.334120  0.332525  0.167600  1
  Si  Si11  1  0.667944  0.662810  0.832217  1
  Si  Si12  1  0.162810  0.167944  0.667783  1
  Si  Si13  1  0.832525  0.834120  0.332400  1
  Si  Si14  1  0.848229  0.615463  0.006471  1
  Si  Si15  1  0.152962  0.384651  0.992385  1
  Si  Si16  1  0.655054  0.887967  0.507896  1
  Si  Si17  1  0.115463  0.348229  0.493529  1
  Si  Si18  1  0.343935  0.112373  0.494687  1
  Si  Si19  1  0.884651  0.652962  0.507615  1
  Si  Si20  1  0.387967  0.155054  0.992104  1
  Si  Si21  1  0.612373  0.843935  0.005313  1
  Si  Si22  1  0.892689  0.125075  0.271027  1
  Si  Si23  1  0.108550  0.877202  0.730826  1
  Si  Si24  1  0.607664  0.375587  0.768038  1
  Si  Si25  1  0.625075  0.392689  0.228973  1
  Si  Si26  1  0.391495  0.622806  0.228299  1
  Si  Si27  1  0.377202  0.608550  0.769174  1
  Si  Si28  1  0.875587  0.107664  0.731962  1
  Si  Si29  1  0.122806  0.891495  0.271701  1
  Ru  Ru30  1  0.828197  0.168173  0.001695  1
  Ru  Ru31  1  0.172898  0.832073  0.002337  1
  Ru  Ru32  1  0.668173  0.328197  0.498305  1
  Ru  Ru33  1  0.332073  0.672898  0.497663  1
  Ru  Ru34  1  0.125533  0.126279  0.375053  1
  Ru  Ru35  1  0.872665  0.872844  0.624744  1
  Ru  Ru36  1  0.372844  0.372665  0.875256  1
  Ru  Ru37  1  0.626279  0.625533  0.124947  1
