# generated using pymatgen
data_DyEr15(TmSn4)4
_symmetry_space_group_name_H-M   'P 1'
_cell_length_a   7.97464022
_cell_length_b   8.10065980
_cell_length_c   15.32934101
_cell_angle_alpha   90.00397666
_cell_angle_beta   89.93639256
_cell_angle_gamma   89.96438524
_symmetry_Int_Tables_number   1
_chemical_formula_structural   DyEr15(TmSn4)4
_chemical_formula_sum   'Dy1 Er15 Tm4 Sn16'
_cell_volume   990.27228713
_cell_formula_units_Z   1
loop_
 _symmetry_equiv_pos_site_id
 _symmetry_equiv_pos_as_xyz
  1  'x, y, z'
loop_
 _atom_site_type_symbol
 _atom_site_label
 _atom_site_symmetry_multiplicity
 _atom_site_fract_x
 _atom_site_fract_y
 _atom_site_fract_z
 _atom_site_occupancy
  Dy  Dy0  1  0.021438  0.179549  0.903084  1
  Er  Er1  1  0.368195  0.836561  0.877428  1
  Er  Er2  1  0.868413  0.663455  0.622289  1
  Er  Er3  1  0.631522  0.163298  0.377514  1
  Er  Er4  1  0.132030  0.336865  0.122688  1
  Er  Er5  1  0.632050  0.163309  0.122605  1
  Er  Er6  1  0.131587  0.336677  0.377513  1
  Er  Er7  1  0.368505  0.836547  0.622378  1
  Er  Er8  1  0.868301  0.663330  0.877467  1
  Er  Er9  1  0.522175  0.320806  0.902831  1
  Er  Er10  1  0.022427  0.179447  0.597316  1
  Er  Er11  1  0.477722  0.679337  0.402831  1
  Er  Er12  1  0.978025  0.820406  0.097208  1
  Er  Er13  1  0.477944  0.679469  0.097164  1
  Er  Er14  1  0.977719  0.820649  0.402845  1
  Er  Er15  1  0.522307  0.320755  0.596977  1
  Tm  Tm16  1  0.198642  0.503484  0.749798  1
  Tm  Tm17  1  0.698373  0.996461  0.749746  1
  Tm  Tm18  1  0.801451  0.496598  0.250086  1
  Tm  Tm19  1  0.301510  0.003352  0.250079  1
  Sn  Sn20  1  0.292902  0.035276  0.042107  1
  Sn  Sn21  1  0.791901  0.464215  0.458337  1
  Sn  Sn22  1  0.708136  0.964492  0.541556  1
  Sn  Sn23  1  0.208239  0.536421  0.958576  1
  Sn  Sn24  1  0.706680  0.963296  0.958642  1
  Sn  Sn25  1  0.208047  0.535704  0.541517  1
  Sn  Sn26  1  0.291942  0.035695  0.458382  1
  Sn  Sn27  1  0.792150  0.464216  0.041622  1
  Sn  Sn28  1  0.564911  0.618731  0.749947  1
  Sn  Sn29  1  0.064888  0.880897  0.749940  1
  Sn  Sn30  1  0.435235  0.381287  0.250037  1
  Sn  Sn31  1  0.935225  0.118833  0.250078  1
  Sn  Sn32  1  0.331702  0.148884  0.749858  1
  Sn  Sn33  1  0.830664  0.351613  0.749536  1
  Sn  Sn34  1  0.668551  0.851032  0.249990  1
  Sn  Sn35  1  0.168493  0.649054  0.250030  1
