# generated using pymatgen
data_LiDy8InNiIr
_symmetry_space_group_name_H-M   'P 1'
_cell_length_a   9.58575702
_cell_length_b   9.58575629
_cell_length_c   9.53989900
_cell_angle_alpha   60.15812090
_cell_angle_beta   60.15812340
_cell_angle_gamma   60.49445734
_symmetry_Int_Tables_number   1
_chemical_formula_structural   LiDy8InNiIr
_chemical_formula_sum   'Li2 Dy16 In2 Ni2 Ir2'
_cell_volume   623.61976079
_cell_formula_units_Z   2
loop_
 _symmetry_equiv_pos_site_id
 _symmetry_equiv_pos_as_xyz
  1  'x, y, z'
loop_
 _atom_site_type_symbol
 _atom_site_label
 _atom_site_symmetry_multiplicity
 _atom_site_fract_x
 _atom_site_fract_y
 _atom_site_fract_z
 _atom_site_occupancy
  Li  Li0  1  0.822883  0.822883  0.825436  1
  Li  Li1  1  0.822883  0.822883  0.528798  1
  Dy  Dy2  1  0.595868  0.595868  0.603125  1
  Dy  Dy3  1  0.595868  0.595868  0.205139  1
  Dy  Dy4  1  0.594795  0.206961  0.599122  1
  Dy  Dy5  1  0.206961  0.594795  0.599122  1
  Dy  Dy6  1  0.063544  0.441640  0.437529  1
  Dy  Dy7  1  0.441640  0.063544  0.057288  1
  Dy  Dy8  1  0.441640  0.063544  0.437529  1
  Dy  Dy9  1  0.063544  0.441640  0.057288  1
  Dy  Dy10  1  0.443020  0.443020  0.056980  1
  Dy  Dy11  1  0.067005  0.067005  0.432995  1
  Dy  Dy12  1  0.187576  0.813738  0.810173  1
  Dy  Dy13  1  0.813738  0.187576  0.188513  1
  Dy  Dy14  1  0.813738  0.187576  0.810173  1
  Dy  Dy15  1  0.187576  0.813738  0.188513  1
  Dy  Dy16  1  0.810443  0.810443  0.189557  1
  Dy  Dy17  1  0.185394  0.185394  0.814606  1
  In  In18  1  0.835162  0.506171  0.829334  1
  In  In19  1  0.506171  0.835162  0.829334  1
  Ni  Ni20  1  0.392222  0.392222  0.392678  1
  Ni  Ni21  1  0.392222  0.392222  0.822880  1
  Ir  Ir22  1  0.392049  0.824064  0.391944  1
  Ir  Ir23  1  0.824064  0.392049  0.391944  1
