# generated using pymatgen
data_Sc10SiPb6Au
_symmetry_space_group_name_H-M   'P 1'
_cell_length_a   8.78767100
_cell_length_b   8.78767047
_cell_length_c   6.30124300
_cell_angle_alpha   90.00000000
_cell_angle_beta   90.00000000
_cell_angle_gamma   119.99999824
_symmetry_Int_Tables_number   1
_chemical_formula_structural   Sc10SiPb6Au
_chemical_formula_sum   'Sc10 Si1 Pb6 Au1'
_cell_volume   421.40959450
_cell_formula_units_Z   1
loop_
 _symmetry_equiv_pos_site_id
 _symmetry_equiv_pos_as_xyz
  1  'x, y, z'
loop_
 _atom_site_type_symbol
 _atom_site_label
 _atom_site_symmetry_multiplicity
 _atom_site_fract_x
 _atom_site_fract_y
 _atom_site_fract_z
 _atom_site_occupancy
  Sc  Sc0  1  0.666667  0.333333  0.500000  1
  Sc  Sc1  1  0.333333  0.666667  0.500000  1
  Sc  Sc2  1  0.333333  0.666667  0.000000  1
  Sc  Sc3  1  0.666667  0.333333  0.000000  1
  Sc  Sc4  1  0.743979  0.743979  0.230126  1
  Sc  Sc5  1  0.256021  0.000000  0.230126  1
  Sc  Sc6  1  0.000000  0.256021  0.230126  1
  Sc  Sc7  1  0.256021  0.256021  0.769874  1
  Sc  Sc8  1  0.743979  0.000000  0.769874  1
  Sc  Sc9  1  0.000000  0.743979  0.769874  1
  Si  Si10  1  0.000000  0.000000  0.000000  1
  Pb  Pb11  1  0.392035  0.392035  0.250835  1
  Pb  Pb12  1  0.607965  0.000000  0.250835  1
  Pb  Pb13  1  0.000000  0.607965  0.250835  1
  Pb  Pb14  1  0.607965  0.607965  0.749165  1
  Pb  Pb15  1  0.392035  0.000000  0.749165  1
  Pb  Pb16  1  0.000000  0.392035  0.749165  1
  Au  Au17  1  0.000000  0.000000  0.500000  1
