# generated using pymatgen
data_Y8CuSi12RhAu2
_symmetry_space_group_name_H-M   'P 1'
_cell_length_a   8.12894000
_cell_length_b   8.12893747
_cell_length_c   8.18008800
_cell_angle_alpha   89.99998838
_cell_angle_beta   90.00000718
_cell_angle_gamma   120.00004723
_symmetry_Int_Tables_number   1
_chemical_formula_structural   Y8CuSi12RhAu2
_chemical_formula_sum   'Y8 Cu1 Si12 Rh1 Au2'
_cell_volume   468.11881973
_cell_formula_units_Z   1
loop_
 _symmetry_equiv_pos_site_id
 _symmetry_equiv_pos_as_xyz
  1  'x, y, z'
loop_
 _atom_site_type_symbol
 _atom_site_label
 _atom_site_symmetry_multiplicity
 _atom_site_fract_x
 _atom_site_fract_y
 _atom_site_fract_z
 _atom_site_occupancy
  Y  Y0  1  0.000000  0.000000  0.249876  1
  Y  Y1  1  0.000000  0.000000  0.750108  1
  Y  Y2  1  0.993388  0.496694  0.251530  1
  Y  Y3  1  0.503306  0.496694  0.251529  1
  Y  Y4  1  0.503670  0.007339  0.748408  1
  Y  Y5  1  0.503306  0.006612  0.251530  1
  Y  Y6  1  0.503669  0.496331  0.748408  1
  Y  Y7  1  0.992662  0.496330  0.748408  1
  Cu  Cu8  1  0.666666  0.333333  0.001014  1
  Si  Si9  1  0.162143  0.324285  0.000185  1
  Si  Si10  1  0.675715  0.837857  0.000185  1
  Si  Si11  1  0.161486  0.322971  0.500595  1
  Si  Si12  1  0.340507  0.170253  0.999869  1
  Si  Si13  1  0.162142  0.837858  0.000185  1
  Si  Si14  1  0.677029  0.838514  0.500595  1
  Si  Si15  1  0.829747  0.659494  0.999868  1
  Si  Si16  1  0.338084  0.169042  0.499252  1
  Si  Si17  1  0.161486  0.838514  0.500595  1
  Si  Si18  1  0.830958  0.661915  0.499252  1
  Si  Si19  1  0.829747  0.170253  0.999869  1
  Si  Si20  1  0.830958  0.169042  0.499252  1
  Rh  Rh21  1  0.666666  0.333332  0.500316  1
  Au  Au22  1  0.333333  0.666667  0.998988  1
  Au  Au23  1  0.333333  0.666667  0.500184  1
