# generated using pymatgen
data_CaP12Ru3Rh
_symmetry_space_group_name_H-M   'P 1'
_cell_length_a   7.03608762
_cell_length_b   7.02178625
_cell_length_c   7.02178700
_cell_angle_alpha   109.42993078
_cell_angle_beta   109.51248927
_cell_angle_gamma   109.51247859
_symmetry_Int_Tables_number   1
_chemical_formula_structural   CaP12Ru3Rh
_chemical_formula_sum   'Ca1 P12 Ru3 Rh1'
_cell_volume   266.92125763
_cell_formula_units_Z   1
loop_
 _symmetry_equiv_pos_site_id
 _symmetry_equiv_pos_as_xyz
  1  'x, y, z'
loop_
 _atom_site_type_symbol
 _atom_site_label
 _atom_site_symmetry_multiplicity
 _atom_site_fract_x
 _atom_site_fract_y
 _atom_site_fract_z
 _atom_site_occupancy
  Ca  Ca0  1  0.000000  0.000000  0.000000  1
  P  P1  1  0.356311  0.216877  0.856171  1
  P  P2  1  0.643689  0.783123  0.143829  1
  P  P3  1  0.642733  0.499786  0.857448  1
  P  P4  1  0.357267  0.500214  0.142552  1
  P  P5  1  0.214716  0.857448  0.357664  1
  P  P6  1  0.785284  0.142552  0.642336  1
  P  P7  1  0.499860  0.856171  0.639294  1
  P  P8  1  0.500140  0.143829  0.360706  1
  P  P9  1  0.860566  0.360706  0.216877  1
  P  P10  1  0.139434  0.639294  0.783123  1
  P  P11  1  0.857052  0.642336  0.499786  1
  P  P12  1  0.142948  0.357664  0.500214  1
  Ru  Ru13  1  0.000000  0.000000  0.500000  1
  Ru  Ru14  1  0.000000  0.500000  0.000000  1
  Ru  Ru15  1  0.500000  0.500000  0.500000  1
  Rh  Rh16  1  0.500000  0.000000  0.000000  1
