# generated using pymatgen
data_DyMnFeSi2
_symmetry_space_group_name_H-M   'P 1'
_cell_length_a   5.76118919
_cell_length_b   5.76118909
_cell_length_c   5.76119056
_cell_angle_alpha   140.41449684
_cell_angle_beta   140.41449335
_cell_angle_gamma   57.22448806
_symmetry_Int_Tables_number   1
_chemical_formula_structural   DyMnFeSi2
_chemical_formula_sum   'Dy1 Mn1 Fe1 Si2'
_cell_volume   76.99355519
_cell_formula_units_Z   1
loop_
 _symmetry_equiv_pos_site_id
 _symmetry_equiv_pos_as_xyz
  1  'x, y, z'
loop_
 _atom_site_type_symbol
 _atom_site_label
 _atom_site_symmetry_multiplicity
 _atom_site_fract_x
 _atom_site_fract_y
 _atom_site_fract_z
 _atom_site_occupancy
  Dy  Dy0  1  0.000000  0.000000  0.000000  1
  Mn  Mn1  1  0.750000  0.250000  0.500000  1
  Fe  Fe2  1  0.250000  0.750000  0.500000  1
  Si  Si3  1  0.623117  0.623117  0.000000  1
  Si  Si4  1  0.376883  0.376883  0.000000  1
