# generated using pymatgen
data_Pu4Mo3WN8
_symmetry_space_group_name_H-M   'P 1'
_cell_length_a   3.23070200
_cell_length_b   5.61768532
_cell_length_c   10.81379193
_cell_angle_alpha   90.00622079
_cell_angle_beta   90.00000000
_cell_angle_gamma   90.00000000
_symmetry_Int_Tables_number   1
_chemical_formula_structural   Pu4Mo3WN8
_chemical_formula_sum   'Pu4 Mo3 W1 N8'
_cell_volume   196.26023523
_cell_formula_units_Z   1
loop_
 _symmetry_equiv_pos_site_id
 _symmetry_equiv_pos_as_xyz
  1  'x, y, z'
loop_
 _atom_site_type_symbol
 _atom_site_label
 _atom_site_symmetry_multiplicity
 _atom_site_fract_x
 _atom_site_fract_y
 _atom_site_fract_z
 _atom_site_occupancy
  Pu  Pu0  1  0.250000  0.575108  0.856567  1
  Pu  Pu1  1  0.750000  0.422321  0.143417  1
  Pu  Pu2  1  0.750000  0.923931  0.357521  1
  Pu  Pu3  1  0.250000  0.076369  0.643673  1
  Mo  Mo4  1  0.750000  0.071445  0.899604  1
  Mo  Mo5  1  0.750000  0.572095  0.599585  1
  Mo  Mo6  1  0.250000  0.428748  0.399220  1
  W  W7  1  0.250000  0.928239  0.100960  1
  N  N8  1  0.250000  0.664103  0.242475  1
  N  N9  1  0.750000  0.339409  0.755565  1
  N  N10  1  0.750000  0.838170  0.743777  1
  N  N11  1  0.250000  0.160237  0.254891  1
  N  N12  1  0.250000  0.754849  0.503372  1
  N  N13  1  0.750000  0.245586  0.496136  1
  N  N14  1  0.750000  0.745212  0.005871  1
  N  N15  1  0.250000  0.254178  0.997363  1
