# generated using pymatgen
data_NaSrNdI6
_symmetry_space_group_name_H-M   'P 1'
_cell_length_a   8.78119851
_cell_length_b   8.78118166
_cell_length_c   8.78104367
_cell_angle_alpha   55.09681770
_cell_angle_beta   55.09623809
_cell_angle_gamma   55.09644155
_symmetry_Int_Tables_number   1
_chemical_formula_structural   NaSrNdI6
_chemical_formula_sum   'Na1 Sr1 Nd1 I6'
_cell_volume   424.17965652
_cell_formula_units_Z   1
loop_
 _symmetry_equiv_pos_site_id
 _symmetry_equiv_pos_as_xyz
  1  'x, y, z'
loop_
 _atom_site_type_symbol
 _atom_site_label
 _atom_site_symmetry_multiplicity
 _atom_site_fract_x
 _atom_site_fract_y
 _atom_site_fract_z
 _atom_site_occupancy
  Na  Na0  1  0.670125  0.670118  0.670125  1
  Sr  Sr1  1  0.330234  0.330239  0.330237  1
  Nd  Nd2  1  0.999984  0.999998  0.999994  1
  I  I3  1  0.240073  0.605029  0.912573  1
  I  I4  1  0.605022  0.912577  0.240077  1
  I  I5  1  0.912595  0.240065  0.605009  1
  I  I6  1  0.759767  0.395301  0.086906  1
  I  I7  1  0.395292  0.086906  0.759775  1
  I  I8  1  0.086911  0.759767  0.395303  1
