# generated using pymatgen
data_Dy5Pa3(Pt2Pb)4
_symmetry_space_group_name_H-M   'P 1'
_cell_length_a   7.94823800
_cell_length_b   7.94823789
_cell_length_c   7.18917200
_cell_angle_alpha   90.00000000
_cell_angle_beta   90.00000000
_cell_angle_gamma   90.64963259
_symmetry_Int_Tables_number   1
_chemical_formula_structural   Dy5Pa3(Pt2Pb)4
_chemical_formula_sum   'Dy5 Pa3 Pt8 Pb4'
_cell_volume   454.14305607
_cell_formula_units_Z   1
loop_
 _symmetry_equiv_pos_site_id
 _symmetry_equiv_pos_as_xyz
  1  'x, y, z'
loop_
 _atom_site_type_symbol
 _atom_site_label
 _atom_site_symmetry_multiplicity
 _atom_site_fract_x
 _atom_site_fract_y
 _atom_site_fract_z
 _atom_site_occupancy
  Dy  Dy0  1  0.340275  0.343567  0.500000  1
  Dy  Dy1  1  0.656433  0.659725  0.500000  1
  Dy  Dy2  1  0.177117  0.822883  0.500000  1
  Dy  Dy3  1  0.841146  0.158854  0.000000  1
  Dy  Dy4  1  0.158267  0.841733  0.000000  1
  Pa  Pa5  1  0.679952  0.676227  0.000000  1
  Pa  Pa6  1  0.825046  0.174954  0.500000  1
  Pa  Pa7  1  0.323773  0.320048  0.000000  1
  Pt  Pt8  1  0.866098  0.873792  0.732530  1
  Pt  Pt9  1  0.126208  0.133902  0.732530  1
  Pt  Pt10  1  0.630823  0.369177  0.767395  1
  Pt  Pt11  1  0.630823  0.369177  0.232605  1
  Pt  Pt12  1  0.376841  0.623159  0.221284  1
  Pt  Pt13  1  0.126208  0.133902  0.267470  1
  Pt  Pt14  1  0.866098  0.873792  0.267470  1
  Pt  Pt15  1  0.376841  0.623159  0.778716  1
  Pb  Pb16  1  0.496117  0.997093  0.747185  1
  Pb  Pb17  1  0.496117  0.997093  0.252815  1
  Pb  Pb18  1  0.002907  0.503883  0.747185  1
  Pb  Pb19  1  0.002907  0.503883  0.252815  1
