# generated using pymatgen
data_Th3V(Ga3Pd)8
_symmetry_space_group_name_H-M   'P 1'
_cell_length_a   8.53659500
_cell_length_b   8.53659383
_cell_length_c   8.53659373
_cell_angle_alpha   89.80064218
_cell_angle_beta   89.80064688
_cell_angle_gamma   89.80065454
_symmetry_Int_Tables_number   1
_chemical_formula_structural   Th3V(Ga3Pd)8
_chemical_formula_sum   'Th3 V1 Ga24 Pd8'
_cell_volume   622.07971643
_cell_formula_units_Z   1
loop_
 _symmetry_equiv_pos_site_id
 _symmetry_equiv_pos_as_xyz
  1  'x, y, z'
loop_
 _atom_site_type_symbol
 _atom_site_label
 _atom_site_symmetry_multiplicity
 _atom_site_fract_x
 _atom_site_fract_y
 _atom_site_fract_z
 _atom_site_occupancy
  Th  Th0  1  0.000000  0.500000  0.000000  1
  Th  Th1  1  0.500000  0.000000  0.000000  1
  Th  Th2  1  0.000000  0.000000  0.500000  1
  V  V3  1  0.500000  0.500000  0.500000  1
  Ga  Ga4  1  0.988532  0.643380  0.643380  1
  Ga  Ga5  1  0.643380  0.643380  0.988532  1
  Ga  Ga6  1  0.643380  0.988532  0.643380  1
  Ga  Ga7  1  0.011468  0.356620  0.356620  1
  Ga  Ga8  1  0.356620  0.356620  0.011468  1
  Ga  Ga9  1  0.356620  0.011468  0.356620  1
  Ga  Ga10  1  0.731953  0.500000  0.268047  1
  Ga  Ga11  1  0.268047  0.500000  0.731953  1
  Ga  Ga12  1  0.500000  0.268047  0.731953  1
  Ga  Ga13  1  0.500000  0.731953  0.268047  1
  Ga  Ga14  1  0.268047  0.731953  0.500000  1
  Ga  Ga15  1  0.731953  0.268047  0.500000  1
  Ga  Ga16  1  0.838131  0.143429  0.838131  1
  Ga  Ga17  1  0.143429  0.838131  0.838131  1
  Ga  Ga18  1  0.838131  0.838131  0.143429  1
  Ga  Ga19  1  0.161869  0.856571  0.161869  1
  Ga  Ga20  1  0.856571  0.161869  0.161869  1
  Ga  Ga21  1  0.161869  0.161869  0.856571  1
  Ga  Ga22  1  0.725229  0.491092  0.725229  1
  Ga  Ga23  1  0.491092  0.725229  0.725229  1
  Ga  Ga24  1  0.725229  0.725229  0.491092  1
  Ga  Ga25  1  0.274771  0.508908  0.274771  1
  Ga  Ga26  1  0.508908  0.274771  0.274771  1
  Ga  Ga27  1  0.274771  0.274771  0.508908  1
  Pd  Pd28  1  0.838176  0.838176  0.838176  1
  Pd  Pd29  1  0.161824  0.161824  0.161824  1
  Pd  Pd30  1  0.665280  0.334720  0.000000  1
  Pd  Pd31  1  0.000000  0.334720  0.665280  1
  Pd  Pd32  1  0.334720  0.000000  0.665280  1
  Pd  Pd33  1  0.334720  0.665280  0.000000  1
  Pd  Pd34  1  0.000000  0.665280  0.334720  1
  Pd  Pd35  1  0.665280  0.000000  0.334720  1
