# generated using pymatgen
data_Zr10SiSnBi5
_symmetry_space_group_name_H-M   'P 1'
_cell_length_a   5.93837963
_cell_length_b   8.75852929
_cell_length_c   8.74932976
_cell_angle_alpha   119.96471945
_cell_angle_beta   89.94990430
_cell_angle_gamma   90.02483130
_symmetry_Int_Tables_number   1
_chemical_formula_structural   Zr10SiSnBi5
_chemical_formula_sum   'Zr10 Si1 Sn1 Bi5'
_cell_volume   394.23818030
_cell_formula_units_Z   1
loop_
 _symmetry_equiv_pos_site_id
 _symmetry_equiv_pos_as_xyz
  1  'x, y, z'
loop_
 _atom_site_type_symbol
 _atom_site_label
 _atom_site_symmetry_multiplicity
 _atom_site_fract_x
 _atom_site_fract_y
 _atom_site_fract_z
 _atom_site_occupancy
  Zr  Zr0  1  0.498416  0.330549  0.664155  1
  Zr  Zr1  1  0.498417  0.669451  0.333605  1
  Zr  Zr2  1  0.001992  0.669449  0.333702  1
  Zr  Zr3  1  0.001994  0.330550  0.664257  1
  Zr  Zr4  1  0.759682  0.250943  0.998813  1
  Zr  Zr5  1  0.759671  0.749053  0.747864  1
  Zr  Zr6  1  0.761648  0.000000  0.252142  1
  Zr  Zr7  1  0.239697  0.751505  0.006029  1
  Zr  Zr8  1  0.239701  0.248498  0.254527  1
  Zr  Zr9  1  0.240315  0.000000  0.745190  1
  Si  Si10  1  0.499284  0.000000  0.999622  1
  Sn  Sn11  1  0.251846  0.000001  0.390861  1
  Bi  Bi12  1  0.747629  0.609776  0.999273  1
  Bi  Bi13  1  0.747631  0.390226  0.389499  1
  Bi  Bi14  1  0.747848  0.000000  0.607792  1
  Bi  Bi15  1  0.252120  0.388668  0.000668  1
  Bi  Bi16  1  0.252109  0.611331  0.612000  1
