# generated using pymatgen
data_Tm8MgSc11Si15Se
_symmetry_space_group_name_H-M   'P 1'
_cell_length_a   7.09728577
_cell_length_b   7.30228846
_cell_length_c   13.93102893
_cell_angle_alpha   89.85888295
_cell_angle_beta   88.21720133
_cell_angle_gamma   90.12975187
_symmetry_Int_Tables_number   1
_chemical_formula_structural   Tm8MgSc11Si15Se
_chemical_formula_sum   'Tm8 Mg1 Sc11 Si15 Se1'
_cell_volume   721.64181342
_cell_formula_units_Z   1
loop_
 _symmetry_equiv_pos_site_id
 _symmetry_equiv_pos_as_xyz
  1  'x, y, z'
loop_
 _atom_site_type_symbol
 _atom_site_label
 _atom_site_symmetry_multiplicity
 _atom_site_fract_x
 _atom_site_fract_y
 _atom_site_fract_z
 _atom_site_occupancy
  Tm  Tm0  1  0.008570  0.175609  0.096933  1
  Tm  Tm1  1  0.991525  0.822443  0.902982  1
  Tm  Tm2  1  0.491588  0.675575  0.903254  1
  Tm  Tm3  1  0.001566  0.823507  0.596345  1
  Tm  Tm4  1  0.507827  0.324941  0.097003  1
  Tm  Tm5  1  0.993912  0.174742  0.401320  1
  Tm  Tm6  1  0.499924  0.315274  0.399659  1
  Tm  Tm7  1  0.506676  0.681924  0.599191  1
  Mg  Mg8  1  0.172179  0.506097  0.757609  1
  Sc  Sc9  1  0.827419  0.498603  0.253082  1
  Sc  Sc10  1  0.327289  0.000963  0.251522  1
  Sc  Sc11  1  0.671129  0.998374  0.748688  1
  Sc  Sc12  1  0.350320  0.169998  0.625777  1
  Sc  Sc13  1  0.648413  0.830077  0.374653  1
  Sc  Sc14  1  0.146998  0.670231  0.376717  1
  Sc  Sc15  1  0.664472  0.823412  0.125102  1
  Sc  Sc16  1  0.853662  0.332480  0.621374  1
  Sc  Sc17  1  0.334045  0.179196  0.874642  1
  Sc  Sc18  1  0.838967  0.323461  0.874256  1
  Sc  Sc19  1  0.163431  0.678700  0.125622  1
  Si  Si20  1  0.043359  0.106142  0.748357  1
  Si  Si21  1  0.955656  0.884400  0.249843  1
  Si  Si22  1  0.453004  0.614905  0.249419  1
  Si  Si23  1  0.551150  0.383538  0.749413  1
  Si  Si24  1  0.298690  0.875901  0.751173  1
  Si  Si25  1  0.704912  0.129449  0.247741  1
  Si  Si26  1  0.202512  0.370507  0.248851  1
  Si  Si27  1  0.789343  0.631221  0.750048  1
  Si  Si28  1  0.797495  0.540542  0.458626  1
  Si  Si29  1  0.313033  0.960485  0.461010  1
  Si  Si30  1  0.839571  0.535905  0.037954  1
  Si  Si31  1  0.683911  0.039663  0.541175  1
  Si  Si32  1  0.161208  0.463336  0.965487  1
  Si  Si33  1  0.658910  0.033937  0.959336  1
  Si  Si34  1  0.341833  0.967708  0.039665  1
  Se  Se35  1  0.205503  0.456750  0.536169  1
