# generated using pymatgen
data_BaMn3F10
_symmetry_space_group_name_H-M   'P 1'
_cell_length_a   10.76018343
_cell_length_b   9.31367145
_cell_length_c   7.80316989
_cell_angle_alpha   77.34152871
_cell_angle_beta   57.62152764
_cell_angle_gamma   45.03694435
_symmetry_Int_Tables_number   1
_chemical_formula_structural   BaMn3F10
_chemical_formula_sum   'Ba2 Mn6 F20'
_cell_volume   450.38876781
_cell_formula_units_Z   2
loop_
 _symmetry_equiv_pos_site_id
 _symmetry_equiv_pos_as_xyz
  1  'x, y, z'
loop_
 _atom_site_type_symbol
 _atom_site_label
 _atom_site_symmetry_multiplicity
 _atom_site_fract_x
 _atom_site_fract_y
 _atom_site_fract_z
 _atom_site_occupancy
  Ba  Ba0  1  0.004287  0.995713  0.995713  1
  Ba  Ba1  1  0.254287  0.245713  0.245713  1
  Mn  Mn2  1  0.504861  0.495139  0.495139  1
  Mn  Mn3  1  0.754861  0.745139  0.745139  1
  Mn  Mn4  1  0.266712  0.252449  0.733472  1
  Mn  Mn5  1  0.747367  0.733472  0.252449  1
  Mn  Mn6  1  0.516528  0.502633  0.983288  1
  Mn  Mn7  1  0.997551  0.983288  0.502633  1
  F  F8  1  0.164259  0.136177  0.831934  1
  F  F9  1  0.867630  0.831934  0.136177  1
  F  F10  1  0.418066  0.382370  0.085741  1
  F  F11  1  0.113823  0.085741  0.382370  1
  F  F12  1  0.808409  0.200379  0.785170  1
  F  F13  1  0.206041  0.785170  0.200379  1
  F  F14  1  0.464830  0.043959  0.441591  1
  F  F15  1  0.049621  0.441591  0.043959  1
  F  F16  1  0.839966  0.645033  0.451141  1
  F  F17  1  0.063860  0.451141  0.645033  1
  F  F18  1  0.798859  0.186140  0.410034  1
  F  F19  1  0.604967  0.410034  0.186140  1
  F  F20  1  0.630273  0.628222  0.368277  1
  F  F21  1  0.373227  0.368277  0.628222  1
  F  F22  1  0.881723  0.876773  0.619727  1
  F  F23  1  0.621778  0.619727  0.876773  1
  F  F24  1  0.460755  0.053999  0.830092  1
  F  F25  1  0.655154  0.830092  0.053999  1
  F  F26  1  0.419908  0.594846  0.789245  1
  F  F27  1  0.196001  0.789245  0.594846  1
