# generated using pymatgen
data_NpIn2Rh4Se3
_symmetry_space_group_name_H-M   'P 1'
_cell_length_a   7.27582413
_cell_length_b   7.27582413
_cell_length_c   4.00331200
_cell_angle_alpha   90.00000000
_cell_angle_beta   90.00000000
_cell_angle_gamma   72.81269285
_symmetry_Int_Tables_number   1
_chemical_formula_structural   NpIn2Rh4Se3
_chemical_formula_sum   'Np1 In2 Rh4 Se3'
_cell_volume   202.46200553
_cell_formula_units_Z   1
loop_
 _symmetry_equiv_pos_site_id
 _symmetry_equiv_pos_as_xyz
  1  'x, y, z'
loop_
 _atom_site_type_symbol
 _atom_site_label
 _atom_site_symmetry_multiplicity
 _atom_site_fract_x
 _atom_site_fract_y
 _atom_site_fract_z
 _atom_site_occupancy
  Np  Np0  1  0.154694  0.654694  0.500000  1
  In  In1  1  0.550231  0.446850  0.000000  1
  In  In2  1  0.946850  0.050231  0.000000  1
  Rh  Rh3  1  0.818494  0.640122  0.000000  1
  Rh  Rh4  1  0.559380  0.059380  0.000000  1
  Rh  Rh5  1  0.140122  0.318494  0.000000  1
  Rh  Rh6  1  0.311541  0.811541  0.000000  1
  Se  Se7  1  0.749210  0.873592  0.500000  1
  Se  Se8  1  0.373592  0.249210  0.500000  1
  Se  Se9  1  0.895885  0.395885  0.500000  1
