# generated using pymatgen
data_Ho2GaB2Ir2Ru3
_symmetry_space_group_name_H-M   'P 1'
_cell_length_a   9.65499800
_cell_length_b   9.61202700
_cell_length_c   3.07769500
_cell_angle_alpha   90.00000000
_cell_angle_beta   90.00000000
_cell_angle_gamma   90.00000000
_symmetry_Int_Tables_number   1
_chemical_formula_structural   Ho2GaB2Ir2Ru3
_chemical_formula_sum   'Ho4 Ga2 B4 Ir4 Ru6'
_cell_volume   285.62271905
_cell_formula_units_Z   2
loop_
 _symmetry_equiv_pos_site_id
 _symmetry_equiv_pos_as_xyz
  1  'x, y, z'
loop_
 _atom_site_type_symbol
 _atom_site_label
 _atom_site_symmetry_multiplicity
 _atom_site_fract_x
 _atom_site_fract_y
 _atom_site_fract_z
 _atom_site_occupancy
  Ho  Ho0  1  0.825490  0.324844  0.000000  1
  Ho  Ho1  1  0.174510  0.675156  0.000000  1
  Ho  Ho2  1  0.325490  0.175156  0.000000  1
  Ho  Ho3  1  0.674510  0.824844  0.000000  1
  Ga  Ga4  1  0.500000  0.500000  0.000000  1
  Ga  Ga5  1  0.000000  0.000000  0.000000  1
  B  B6  1  0.624271  0.119677  0.000000  1
  B  B7  1  0.375729  0.880323  0.000000  1
  B  B8  1  0.124271  0.380323  0.000000  1
  B  B9  1  0.875729  0.619677  0.000000  1
  Ir  Ir10  1  0.429594  0.717000  0.500000  1
  Ir  Ir11  1  0.570406  0.283000  0.500000  1
  Ir  Ir12  1  0.070406  0.217000  0.500000  1
  Ir  Ir13  1  0.929594  0.783000  0.500000  1
  Ru  Ru14  1  0.500000  0.000000  0.500000  1
  Ru  Ru15  1  0.000000  0.500000  0.500000  1
  Ru  Ru16  1  0.717380  0.567609  0.500000  1
  Ru  Ru17  1  0.282620  0.432391  0.500000  1
  Ru  Ru18  1  0.217380  0.932391  0.500000  1
  Ru  Ru19  1  0.782620  0.067609  0.500000  1
