# generated using pymatgen
data_Y5AlCo5
_symmetry_space_group_name_H-M   'P 1'
_cell_length_a   5.49505417
_cell_length_b   5.49505539
_cell_length_c   20.61048500
_cell_angle_alpha   90.00000000
_cell_angle_beta   90.00000000
_cell_angle_gamma   136.90659339
_symmetry_Int_Tables_number   1
_chemical_formula_structural   Y5AlCo5
_chemical_formula_sum   'Y10 Al2 Co10'
_cell_volume   425.18075867
_cell_formula_units_Z   2
loop_
 _symmetry_equiv_pos_site_id
 _symmetry_equiv_pos_as_xyz
  1  'x, y, z'
loop_
 _atom_site_type_symbol
 _atom_site_label
 _atom_site_symmetry_multiplicity
 _atom_site_fract_x
 _atom_site_fract_y
 _atom_site_fract_z
 _atom_site_occupancy
  Y  Y0  1  0.288164  0.711836  0.250000  1
  Y  Y1  1  0.291758  0.708242  0.065931  1
  Y  Y2  1  0.998269  0.001731  0.842618  1
  Y  Y3  1  0.711836  0.288164  0.750000  1
  Y  Y4  1  0.708242  0.291758  0.565931  1
  Y  Y5  1  0.001731  0.998269  0.342618  1
  Y  Y6  1  0.998269  0.001731  0.657382  1
  Y  Y7  1  0.708242  0.291758  0.934069  1
  Y  Y8  1  0.001731  0.998269  0.157382  1
  Y  Y9  1  0.291758  0.708242  0.434069  1
  Al  Al10  1  0.000000  0.000000  0.500000  1
  Al  Al11  1  0.000000  0.000000  0.000000  1
  Co  Co12  1  0.297131  0.702869  0.654246  1
  Co  Co13  1  0.581251  0.418749  0.441418  1
  Co  Co14  1  0.412702  0.587298  0.750000  1
  Co  Co15  1  0.418749  0.581251  0.941418  1
  Co  Co16  1  0.587298  0.412702  0.250000  1
  Co  Co17  1  0.418749  0.581251  0.558582  1
  Co  Co18  1  0.702869  0.297131  0.345754  1
  Co  Co19  1  0.702869  0.297131  0.154246  1
  Co  Co20  1  0.581251  0.418749  0.058582  1
  Co  Co21  1  0.297131  0.702869  0.845754  1
