# generated using pymatgen
data_YbDy7(Si4W3)4
_symmetry_space_group_name_H-M   'P 1'
_cell_length_a   6.76558069
_cell_length_b   6.93880354
_cell_length_c   12.92097232
_cell_angle_alpha   89.93588031
_cell_angle_beta   89.97350488
_cell_angle_gamma   89.91071668
_symmetry_Int_Tables_number   1
_chemical_formula_structural   YbDy7(Si4W3)4
_chemical_formula_sum   'Yb1 Dy7 Si16 W12'
_cell_volume   606.57432105
_cell_formula_units_Z   1
loop_
 _symmetry_equiv_pos_site_id
 _symmetry_equiv_pos_as_xyz
  1  'x, y, z'
loop_
 _atom_site_type_symbol
 _atom_site_label
 _atom_site_symmetry_multiplicity
 _atom_site_fract_x
 _atom_site_fract_y
 _atom_site_fract_z
 _atom_site_occupancy
  Yb  Yb0  1  0.996366  0.833515  0.590907  1
  Dy  Dy1  1  0.496842  0.668267  0.593918  1
  Dy  Dy2  1  0.996878  0.831733  0.906235  1
  Dy  Dy3  1  0.504525  0.331808  0.093355  1
  Dy  Dy4  1  0.003600  0.165881  0.408175  1
  Dy  Dy5  1  0.503698  0.332360  0.406950  1
  Dy  Dy6  1  0.004372  0.167547  0.093579  1
  Dy  Dy7  1  0.496167  0.668382  0.905896  1
  Si  Si8  1  0.660643  0.956695  0.453589  1
  Si  Si9  1  0.162447  0.543590  0.046004  1
  Si  Si10  1  0.337427  0.042760  0.953630  1
  Si  Si11  1  0.839056  0.459631  0.547261  1
  Si  Si12  1  0.338234  0.041541  0.547299  1
  Si  Si13  1  0.837810  0.457057  0.954071  1
  Si  Si14  1  0.662753  0.956805  0.046163  1
  Si  Si15  1  0.160638  0.543200  0.453276  1
  Si  Si16  1  0.464474  0.370696  0.750276  1
  Si  Si17  1  0.964853  0.128151  0.749414  1
  Si  Si18  1  0.534915  0.629869  0.250119  1
  Si  Si19  1  0.035148  0.869518  0.250632  1
  Si  Si20  1  0.699388  0.867363  0.748429  1
  Si  Si21  1  0.194452  0.635518  0.748246  1
  Si  Si22  1  0.302992  0.133284  0.250252  1
  Si  Si23  1  0.803853  0.365523  0.250572  1
  W  W24  1  0.668090  0.165613  0.625436  1
  W  W25  1  0.169235  0.338053  0.874977  1
  W  W26  1  0.331697  0.836867  0.126174  1
  W  W27  1  0.829552  0.661715  0.373487  1
  W  W28  1  0.331404  0.837258  0.374268  1
  W  W29  1  0.830620  0.661992  0.125783  1
  W  W30  1  0.668531  0.163539  0.873972  1
  W  W31  1  0.168905  0.335736  0.626654  1
  W  W32  1  0.834748  0.496459  0.750778  1
  W  W33  1  0.334193  0.002075  0.750958  1
  W  W34  1  0.165301  0.501438  0.249912  1
  W  W35  1  0.666190  0.998561  0.249358  1
