# generated using pymatgen
data_TbZrP7Ru12
_symmetry_space_group_name_H-M   'P 1'
_cell_length_a   9.39696600
_cell_length_b   9.39696440
_cell_length_c   3.92617700
_cell_angle_alpha   90.00000000
_cell_angle_beta   90.00000000
_cell_angle_gamma   120.00000470
_symmetry_Int_Tables_number   1
_chemical_formula_structural   TbZrP7Ru12
_chemical_formula_sum   'Tb1 Zr1 P7 Ru12'
_cell_volume   300.24495767
_cell_formula_units_Z   1
loop_
 _symmetry_equiv_pos_site_id
 _symmetry_equiv_pos_as_xyz
  1  'x, y, z'
loop_
 _atom_site_type_symbol
 _atom_site_label
 _atom_site_symmetry_multiplicity
 _atom_site_fract_x
 _atom_site_fract_y
 _atom_site_fract_z
 _atom_site_occupancy
  Tb  Tb0  1  0.333333  0.666667  0.000000  1
  Zr  Zr1  1  0.666667  0.333333  0.500000  1
  P  P2  1  0.600274  0.719235  0.500000  1
  P  P3  1  0.000000  0.000000  0.000000  1
  P  P4  1  0.280765  0.881041  0.500000  1
  P  P5  1  0.118959  0.399726  0.500000  1
  P  P6  1  0.885549  0.572680  0.000000  1
  P  P7  1  0.427320  0.312869  0.000000  1
  P  P8  1  0.687131  0.114451  0.000000  1
  Ru  Ru9  1  0.557683  0.954337  0.500000  1
  Ru  Ru10  1  0.396655  0.442317  0.500000  1
  Ru  Ru11  1  0.913733  0.122142  0.500000  1
  Ru  Ru12  1  0.208409  0.086267  0.500000  1
  Ru  Ru13  1  0.877858  0.791591  0.500000  1
  Ru  Ru14  1  0.726742  0.890325  0.000000  1
  Ru  Ru15  1  0.109675  0.836416  0.000000  1
  Ru  Ru16  1  0.163584  0.273258  0.000000  1
  Ru  Ru17  1  0.427080  0.073428  0.000000  1
  Ru  Ru18  1  0.926572  0.353653  0.000000  1
  Ru  Ru19  1  0.646347  0.572920  0.000000  1
  Ru  Ru20  1  0.045663  0.603345  0.500000  1
