# generated using pymatgen
data_TmTh2Sn3Ir2Ru
_symmetry_space_group_name_H-M   'P 1'
_cell_length_a   7.47832700
_cell_length_b   7.52786428
_cell_length_c   4.09273200
_cell_angle_alpha   90.00000000
_cell_angle_beta   90.00000000
_cell_angle_gamma   119.78256015
_symmetry_Int_Tables_number   1
_chemical_formula_structural   TmTh2Sn3Ir2Ru
_chemical_formula_sum   'Tm1 Th2 Sn3 Ir2 Ru1'
_cell_volume   199.97125663
_cell_formula_units_Z   1
loop_
 _symmetry_equiv_pos_site_id
 _symmetry_equiv_pos_as_xyz
  1  'x, y, z'
loop_
 _atom_site_type_symbol
 _atom_site_label
 _atom_site_symmetry_multiplicity
 _atom_site_fract_x
 _atom_site_fract_y
 _atom_site_fract_z
 _atom_site_occupancy
  Tm  Tm0  1  0.406737  0.000000  0.500000  1
  Th  Th1  1  0.000436  0.412089  0.500000  1
  Th  Th2  1  0.588347  0.587911  0.500000  1
  Sn  Sn3  1  0.011559  0.758809  0.000000  1
  Sn  Sn4  1  0.252750  0.241191  0.000000  1
  Sn  Sn5  1  0.739013  0.000000  0.000000  1
  Ir  Ir6  1  0.331726  0.657328  0.000000  1
  Ir  Ir7  1  0.674399  0.342672  0.000000  1
  Ru  Ru8  1  0.995033  0.000000  0.500000  1
