# generated using pymatgen
data_BaAl2GeAu
_symmetry_space_group_name_H-M   'P 1'
_cell_length_a   6.49607578
_cell_length_b   6.49607598
_cell_length_c   6.49607696
_cell_angle_alpha   139.31518876
_cell_angle_beta   139.31519229
_cell_angle_gamma   58.89457672
_symmetry_Int_Tables_number   1
_chemical_formula_structural   BaAl2GeAu
_chemical_formula_sum   'Ba1 Al2 Ge1 Au1'
_cell_volume   115.39038998
_cell_formula_units_Z   1
loop_
 _symmetry_equiv_pos_site_id
 _symmetry_equiv_pos_as_xyz
  1  'x, y, z'
loop_
 _atom_site_type_symbol
 _atom_site_label
 _atom_site_symmetry_multiplicity
 _atom_site_fract_x
 _atom_site_fract_y
 _atom_site_fract_z
 _atom_site_occupancy
  Ba  Ba0  1  0.993573  0.993573  0.000000  1
  Al  Al1  1  0.744519  0.244519  0.500000  1
  Al  Al2  1  0.244519  0.744519  0.500000  1
  Ge  Ge3  1  0.384676  0.384676  0.000000  1
  Au  Au4  1  0.632713  0.632713  0.000000  1
