# generated using pymatgen
data_Y2ThIn3PtRh2
_symmetry_space_group_name_H-M   'P 1'
_cell_length_a   7.74395446
_cell_length_b   7.77386747
_cell_length_c   3.86467300
_cell_angle_alpha   90.00000000
_cell_angle_beta   90.00000000
_cell_angle_gamma   120.66653134
_symmetry_Int_Tables_number   1
_chemical_formula_structural   Y2ThIn3PtRh2
_chemical_formula_sum   'Y2 Th1 In3 Pt1 Rh2'
_cell_volume   200.11841183
_cell_formula_units_Z   1
loop_
 _symmetry_equiv_pos_site_id
 _symmetry_equiv_pos_as_xyz
  1  'x, y, z'
loop_
 _atom_site_type_symbol
 _atom_site_label
 _atom_site_symmetry_multiplicity
 _atom_site_fract_x
 _atom_site_fract_y
 _atom_site_fract_z
 _atom_site_occupancy
  Y  Y0  1  0.405891  0.408528  0.500000  1
  Y  Y1  1  0.595898  0.004672  0.500000  1
  Th  Th2  1  0.988803  0.582852  0.500000  1
  In  In3  1  0.997155  0.240690  0.000000  1
  In  In4  1  0.269626  0.013551  0.000000  1
  In  In5  1  0.732792  0.745090  0.000000  1
  Pt  Pt6  1  0.321166  0.665299  0.000000  1
  Rh  Rh7  1  0.002258  0.988574  0.500000  1
  Rh  Rh8  1  0.686409  0.350744  0.000000  1
