# generated using pymatgen
data_Sm8ErSc11Si15Ru
_symmetry_space_group_name_H-M   'P 1'
_cell_length_a   7.17488972
_cell_length_b   7.54433742
_cell_length_c   14.12409101
_cell_angle_alpha   89.91898538
_cell_angle_beta   90.05254788
_cell_angle_gamma   90.27197183
_symmetry_Int_Tables_number   1
_chemical_formula_structural   Sm8ErSc11Si15Ru
_chemical_formula_sum   'Sm8 Er1 Sc11 Si15 Ru1'
_cell_volume   764.52437133
_cell_formula_units_Z   1
loop_
 _symmetry_equiv_pos_site_id
 _symmetry_equiv_pos_as_xyz
  1  'x, y, z'
loop_
 _atom_site_type_symbol
 _atom_site_label
 _atom_site_symmetry_multiplicity
 _atom_site_fract_x
 _atom_site_fract_y
 _atom_site_fract_z
 _atom_site_occupancy
  Sm  Sm0  1  0.011688  0.177853  0.096732  1
  Sm  Sm1  1  0.989969  0.827594  0.904576  1
  Sm  Sm2  1  0.489144  0.674717  0.905257  1
  Sm  Sm3  1  0.988760  0.825273  0.596879  1
  Sm  Sm4  1  0.511666  0.324632  0.096408  1
  Sm  Sm5  1  0.011529  0.177678  0.402499  1
  Sm  Sm6  1  0.512234  0.324340  0.401833  1
  Sm  Sm7  1  0.488600  0.675723  0.596512  1
  Er  Er8  1  0.316375  0.172022  0.626620  1
  Sc  Sc9  1  0.154974  0.500019  0.751908  1
  Sc  Sc10  1  0.839817  0.497425  0.249779  1
  Sc  Sc11  1  0.339574  0.003712  0.249380  1
  Sc  Sc12  1  0.670653  0.000210  0.751193  1
  Sc  Sc13  1  0.673159  0.825875  0.372235  1
  Sc  Sc14  1  0.172372  0.677003  0.372657  1
  Sc  Sc15  1  0.672434  0.826615  0.126354  1
  Sc  Sc16  1  0.835342  0.319868  0.628189  1
  Sc  Sc17  1  0.316049  0.171150  0.872770  1
  Sc  Sc18  1  0.837382  0.319139  0.873042  1
  Sc  Sc19  1  0.172357  0.677733  0.125986  1
  Si  Si20  1  0.969423  0.880250  0.249319  1
  Si  Si21  1  0.469918  0.617742  0.249278  1
  Si  Si22  1  0.530697  0.388132  0.752306  1
  Si  Si23  1  0.285107  0.868214  0.752204  1
  Si  Si24  1  0.712207  0.125545  0.249542  1
  Si  Si25  1  0.213280  0.375716  0.249404  1
  Si  Si26  1  0.780542  0.623301  0.750935  1
  Si  Si27  1  0.151553  0.472605  0.536247  1
  Si  Si28  1  0.846293  0.537613  0.460413  1
  Si  Si29  1  0.349891  0.961566  0.456218  1
  Si  Si30  1  0.847686  0.536902  0.039198  1
  Si  Si31  1  0.658961  0.034061  0.536205  1
  Si  Si32  1  0.156624  0.467619  0.963077  1
  Si  Si33  1  0.652629  0.035533  0.961647  1
  Si  Si34  1  0.347285  0.964988  0.040278  1
  Ru  Ru35  1  0.023827  0.111630  0.752920  1
