# generated using pymatgen
data_Ce3Th3Bi8
_symmetry_space_group_name_H-M   'P 1'
_cell_length_a   8.33443272
_cell_length_b   8.33443321
_cell_length_c   8.33462493
_cell_angle_alpha   109.57801852
_cell_angle_beta   109.36217901
_cell_angle_gamma   109.47259362
_symmetry_Int_Tables_number   1
_chemical_formula_structural   Ce3Th3Bi8
_chemical_formula_sum   'Ce3 Th3 Bi8'
_cell_volume   445.67656339
_cell_formula_units_Z   1
loop_
 _symmetry_equiv_pos_site_id
 _symmetry_equiv_pos_as_xyz
  1  'x, y, z'
loop_
 _atom_site_type_symbol
 _atom_site_label
 _atom_site_symmetry_multiplicity
 _atom_site_fract_x
 _atom_site_fract_y
 _atom_site_fract_z
 _atom_site_occupancy
  Ce  Ce0  1  0.874832  0.750255  0.125052  1
  Ce  Ce1  1  0.125386  0.375386  0.250000  1
  Ce  Ce2  1  0.625205  0.249780  0.374950  1
  Th  Th3  1  0.749839  0.875290  0.624972  1
  Th  Th4  1  0.374509  0.124509  0.750000  1
  Th  Th5  1  0.250318  0.624869  0.875030  1
  Bi  Bi6  1  0.158603  0.000271  0.002160  1
  Bi  Bi7  1  0.660054  0.001536  0.002110  1
  Bi  Bi8  1  0.502143  0.501321  0.160025  1
  Bi  Bi9  1  0.341296  0.842118  0.339975  1
  Bi  Bi10  1  0.999426  0.157944  0.497890  1
  Bi  Bi11  1  0.998111  0.656443  0.497840  1
  Bi  Bi12  1  0.498822  0.498262  0.656804  1
  Bi  Bi13  1  0.841458  0.342018  0.843196  1
