# generated using pymatgen
data_V10Ga5SiC
_symmetry_space_group_name_H-M   'P 1'
_cell_length_a   7.29652911
_cell_length_b   7.32137135
_cell_length_c   4.89647243
_cell_angle_alpha   89.95651487
_cell_angle_beta   90.08727424
_cell_angle_gamma   119.88781554
_symmetry_Int_Tables_number   1
_chemical_formula_structural   V10Ga5SiC
_chemical_formula_sum   'V10 Ga5 Si1 C1'
_cell_volume   226.78380237
_cell_formula_units_Z   1
loop_
 _symmetry_equiv_pos_site_id
 _symmetry_equiv_pos_as_xyz
  1  'x, y, z'
loop_
 _atom_site_type_symbol
 _atom_site_label
 _atom_site_symmetry_multiplicity
 _atom_site_fract_x
 _atom_site_fract_y
 _atom_site_fract_z
 _atom_site_occupancy
  V  V0  1  0.000996  0.770615  0.253748  1
  V  V1  1  0.230381  0.229385  0.253748  1
  V  V2  1  0.764901  0.000000  0.254125  1
  V  V3  1  0.993507  0.226305  0.746493  1
  V  V4  1  0.767202  0.773695  0.746493  1
  V  V5  1  0.235342  0.000000  0.744702  1
  V  V6  1  0.338385  0.672842  0.998226  1
  V  V7  1  0.665543  0.327158  0.998226  1
  V  V8  1  0.665035  0.326295  0.501850  1
  V  V9  1  0.338738  0.673705  0.501850  1
  Ga  Ga10  1  0.003747  0.404587  0.246031  1
  Ga  Ga11  1  0.599159  0.595413  0.246031  1
  Ga  Ga12  1  0.400335  0.000000  0.244770  1
  Ga  Ga13  1  0.998314  0.598770  0.754206  1
  Ga  Ga14  1  0.399544  0.401230  0.754206  1
  Si  Si15  1  0.597887  0.000000  0.756029  1
  C  C16  1  0.000984  0.000000  0.499264  1
