# generated using pymatgen
data_U(S8Br)3
_symmetry_space_group_name_H-M   'P 1'
_cell_length_a   4.20236595
_cell_length_b   15.39011103
_cell_length_c   15.39010940
_cell_angle_alpha   119.18120348
_cell_angle_beta   95.22221847
_cell_angle_gamma   95.22221974
_symmetry_Int_Tables_number   1
_chemical_formula_structural   U(S8Br)3
_chemical_formula_sum   'U1 S24 Br3'
_cell_volume   854.86026590
_cell_formula_units_Z   1
loop_
 _symmetry_equiv_pos_site_id
 _symmetry_equiv_pos_as_xyz
  1  'x, y, z'
loop_
 _atom_site_type_symbol
 _atom_site_label
 _atom_site_symmetry_multiplicity
 _atom_site_fract_x
 _atom_site_fract_y
 _atom_site_fract_z
 _atom_site_occupancy
  U  U0  1  0.554783  0.000000  0.000000  1
  S  S1  1  0.403282  0.407536  0.000000  1
  S  S2  1  0.547482  0.722214  0.000000  1
  S  S3  1  0.263117  0.520645  0.126336  1
  S  S4  1  0.365494  0.741393  0.127715  1
  S  S5  1  0.572537  0.653852  0.177498  1
  S  S6  1  0.624102  0.386323  0.258607  1
  S  S7  1  0.825266  0.277786  0.277786  1
  S  S8  1  0.918684  0.523645  0.346147  1
  S  S9  1  0.136781  0.873665  0.394309  1
  S  S10  1  0.624102  0.258607  0.386323  1
  S  S11  1  0.403282  0.000000  0.407536  1
  S  S12  1  0.395039  0.822503  0.476355  1
  S  S13  1  0.742473  0.605691  0.479356  1
  S  S14  1  0.263117  0.126336  0.520645  1
  S  S15  1  0.918684  0.346147  0.523645  1
  S  S16  1  0.995748  0.592464  0.592464  1
  S  S17  1  0.237780  0.872285  0.613677  1
  S  S18  1  0.742473  0.479356  0.605691  1
  S  S19  1  0.572537  0.177498  0.653852  1
  S  S20  1  0.547482  0.000000  0.722214  1
  S  S21  1  0.365494  0.127715  0.741393  1
  S  S22  1  0.395039  0.476355  0.822503  1
  S  S23  1  0.237780  0.613677  0.872285  1
  S  S24  1  0.136781  0.394309  0.873665  1
  Br  Br25  1  0.100822  0.138889  0.000000  1
  Br  Br26  1  0.100822  0.000000  0.138889  1
  Br  Br27  1  0.961933  0.861111  0.861111  1
