# generated using pymatgen
data_Tb20FeBi8Ir3
_symmetry_space_group_name_H-M   'P 1'
_cell_length_a   8.06310628
_cell_length_b   9.02349400
_cell_length_c   12.55403953
_cell_angle_alpha   90.00000000
_cell_angle_beta   90.12496586
_cell_angle_gamma   90.00000000
_symmetry_Int_Tables_number   1
_chemical_formula_structural   Tb20FeBi8Ir3
_chemical_formula_sum   'Tb20 Fe1 Bi8 Ir3'
_cell_volume   913.39699178
_cell_formula_units_Z   1
loop_
 _symmetry_equiv_pos_site_id
 _symmetry_equiv_pos_as_xyz
  1  'x, y, z'
loop_
 _atom_site_type_symbol
 _atom_site_label
 _atom_site_symmetry_multiplicity
 _atom_site_fract_x
 _atom_site_fract_y
 _atom_site_fract_z
 _atom_site_occupancy
  Tb  Tb0  1  0.846250  0.750000  0.801194  1
  Tb  Tb1  1  0.157102  0.250000  0.206237  1
  Tb  Tb2  1  0.342778  0.250000  0.705539  1
  Tb  Tb3  1  0.658462  0.750000  0.293210  1
  Tb  Tb4  1  0.378166  0.750000  0.694732  1
  Tb  Tb5  1  0.622947  0.250000  0.305832  1
  Tb  Tb6  1  0.877581  0.250000  0.805741  1
  Tb  Tb7  1  0.117368  0.750000  0.189587  1
  Tb  Tb8  1  0.945853  0.750000  0.503689  1
  Tb  Tb9  1  0.050714  0.250000  0.497667  1
  Tb  Tb10  1  0.444510  0.250000  0.997369  1
  Tb  Tb11  1  0.551066  0.750000  0.002808  1
  Tb  Tb12  1  0.677050  0.042181  0.565570  1
  Tb  Tb13  1  0.321453  0.957956  0.434423  1
  Tb  Tb14  1  0.178523  0.954164  0.935715  1
  Tb  Tb15  1  0.321453  0.542044  0.434423  1
  Tb  Tb16  1  0.827163  0.031403  0.061540  1
  Tb  Tb17  1  0.677050  0.457819  0.565570  1
  Tb  Tb18  1  0.827163  0.468597  0.061540  1
  Tb  Tb19  1  0.178523  0.545836  0.935715  1
  Fe  Fe20  1  0.928970  0.750000  0.011147  1
  Bi  Bi21  1  0.571385  0.491191  0.827637  1
  Bi  Bi22  1  0.429151  0.508560  0.172759  1
  Bi  Bi23  1  0.070219  0.508709  0.673683  1
  Bi  Bi24  1  0.429151  0.991440  0.172759  1
  Bi  Bi25  1  0.929703  0.491939  0.326595  1
  Bi  Bi26  1  0.571385  0.008809  0.827637  1
  Bi  Bi27  1  0.929703  0.008061  0.326595  1
  Bi  Bi28  1  0.070219  0.991291  0.673683  1
  Ir  Ir29  1  0.569876  0.750000  0.509448  1
  Ir  Ir30  1  0.428460  0.250000  0.489439  1
  Ir  Ir31  1  0.070599  0.250000  0.990516  1
