# generated using pymatgen
data_YEr5(AlC3)2
_symmetry_space_group_name_H-M   'P 1'
_cell_length_a   3.53163800
_cell_length_b   6.96469518
_cell_length_c   9.95392667
_cell_angle_alpha   90.06657650
_cell_angle_beta   90.00000000
_cell_angle_gamma   90.00000000
_symmetry_Int_Tables_number   1
_chemical_formula_structural   YEr5(AlC3)2
_chemical_formula_sum   'Y1 Er5 Al2 C6'
_cell_volume   244.83440070
_cell_formula_units_Z   1
loop_
 _symmetry_equiv_pos_site_id
 _symmetry_equiv_pos_as_xyz
  1  'x, y, z'
loop_
 _atom_site_type_symbol
 _atom_site_label
 _atom_site_symmetry_multiplicity
 _atom_site_fract_x
 _atom_site_fract_y
 _atom_site_fract_z
 _atom_site_occupancy
  Y  Y0  1  0.500000  0.007175  0.800075  1
  Er  Er1  1  0.500000  0.509987  0.201489  1
  Er  Er2  1  0.500000  0.489989  0.798986  1
  Er  Er3  1  0.500000  0.989413  0.200342  1
  Er  Er4  1  0.000000  0.750107  0.457488  1
  Er  Er5  1  0.000000  0.250241  0.542664  1
  Al  Al6  1  0.000000  0.747397  0.006071  1
  Al  Al7  1  0.000000  0.252295  0.995006  1
  C  C8  1  0.500000  0.509464  0.566373  1
  C  C9  1  0.500000  0.490656  0.433591  1
  C  C10  1  0.500000  0.990693  0.564981  1
  C  C11  1  0.500000  0.009743  0.432336  1
  C  C12  1  0.000000  0.749828  0.209309  1
  C  C13  1  0.000000  0.253011  0.791290  1
