# generated using pymatgen
data_ZrTi2Be9
_symmetry_space_group_name_H-M   'P 1'
_cell_length_a   7.60920316
_cell_length_b   7.60920305
_cell_length_c   7.60920304
_cell_angle_alpha   34.91869524
_cell_angle_beta   34.91869311
_cell_angle_gamma   34.91868985
_symmetry_Int_Tables_number   1
_chemical_formula_structural   ZrTi2Be9
_chemical_formula_sum   'Zr1 Ti2 Be9'
_cell_volume   128.87547915
_cell_formula_units_Z   1
loop_
 _symmetry_equiv_pos_site_id
 _symmetry_equiv_pos_as_xyz
  1  'x, y, z'
loop_
 _atom_site_type_symbol
 _atom_site_label
 _atom_site_symmetry_multiplicity
 _atom_site_fract_x
 _atom_site_fract_y
 _atom_site_fract_z
 _atom_site_occupancy
  Zr  Zr0  1  0.000000  0.000000  0.000000  1
  Ti  Ti1  1  0.856587  0.856587  0.856587  1
  Ti  Ti2  1  0.143413  0.143413  0.143413  1
  Be  Be3  1  0.416330  0.920216  0.416330  1
  Be  Be4  1  0.416330  0.416330  0.920216  1
  Be  Be5  1  0.920216  0.416330  0.416330  1
  Be  Be6  1  0.583670  0.079784  0.583670  1
  Be  Be7  1  0.583670  0.583670  0.079784  1
  Be  Be8  1  0.079784  0.583670  0.583670  1
  Be  Be9  1  0.665784  0.665784  0.665784  1
  Be  Be10  1  0.334216  0.334216  0.334216  1
  Be  Be11  1  0.500000  0.500000  0.500000  1
