# generated using pymatgen
data_LaYbTh2(Al8Pt3)3
_symmetry_space_group_name_H-M   'P 1'
_cell_length_a   7.58367103
_cell_length_b   7.60386059
_cell_length_c   13.30292197
_cell_angle_alpha   84.67436820
_cell_angle_beta   100.81095156
_cell_angle_gamma   119.78706510
_symmetry_Int_Tables_number   1
_chemical_formula_structural   LaYbTh2(Al8Pt3)3
_chemical_formula_sum   'La1 Yb1 Th2 Al24 Pt9'
_cell_volume   653.94585595
_cell_formula_units_Z   1
loop_
 _symmetry_equiv_pos_site_id
 _symmetry_equiv_pos_as_xyz
  1  'x, y, z'
loop_
 _atom_site_type_symbol
 _atom_site_label
 _atom_site_symmetry_multiplicity
 _atom_site_fract_x
 _atom_site_fract_y
 _atom_site_fract_z
 _atom_site_occupancy
  La  La0  1  0.769451  0.502726  0.808688  1
  Yb  Yb1  1  0.232931  0.497999  0.194280  1
  Th  Th2  1  0.435508  0.830749  0.806461  1
  Th  Th3  1  0.564113  0.168819  0.194292  1
  Al  Al4  1  0.478679  0.167064  0.946515  1
  Al  Al5  1  0.518099  0.829938  0.056508  1
  Al  Al6  1  0.021687  0.167203  0.558614  1
  Al  Al7  1  0.978445  0.833215  0.439403  1
  Al  Al8  1  0.352174  0.832473  0.556082  1
  Al  Al9  1  0.646977  0.166960  0.443034  1
  Al  Al10  1  0.617193  0.829742  0.332035  1
  Al  Al11  1  0.379598  0.167952  0.664475  1
  Al  Al12  1  0.052345  0.489919  0.663453  1
  Al  Al13  1  0.949376  0.510182  0.333002  1
  Al  Al14  1  0.732374  0.841349  0.662627  1
  Al  Al15  1  0.266265  0.161001  0.333876  1
  Al  Al16  1  0.149207  0.496056  0.950878  1
  Al  Al17  1  0.856189  0.503131  0.055954  1
  Al  Al18  1  0.821303  0.835483  0.958265  1
  Al  Al19  1  0.180609  0.167041  0.046772  1
  Al  Al20  1  0.312968  0.499955  0.440560  1
  Al  Al21  1  0.686378  0.500597  0.557329  1
  Al  Al22  1  0.100720  0.836412  0.183273  1
  Al  Al23  1  0.899849  0.162013  0.816952  1
  Al  Al24  1  0.301085  0.366562  0.814927  1
  Al  Al25  1  0.695621  0.633086  0.184972  1
  Al  Al26  1  0.103949  0.965042  0.815915  1
  Al  Al27  1  0.897784  0.038238  0.183718  1
  Pt  Pt28  1  0.385258  0.507355  0.636636  1
  Pt  Pt29  1  0.613609  0.492095  0.362133  1
  Pt  Pt30  1  0.173143  0.829810  0.999750  1
  Pt  Pt31  1  0.826216  0.169657  0.000723  1
  Pt  Pt32  1  0.295252  0.835448  0.361685  1
  Pt  Pt33  1  0.704626  0.163954  0.637227  1
  Pt  Pt34  1  0.049211  0.828040  0.636333  1
  Pt  Pt35  1  0.951351  0.173011  0.362284  1
  Pt  Pt36  1  0.500458  0.499725  0.000367  1
