# generated using pymatgen
data_Mn5Fe7(W6C)2
_symmetry_space_group_name_H-M   'P 1'
_cell_length_a   7.74211365
_cell_length_b   7.74338408
_cell_length_c   7.74211300
_cell_angle_alpha   60.00542563
_cell_angle_beta   59.99999851
_cell_angle_gamma   60.00542366
_symmetry_Int_Tables_number   1
_chemical_formula_structural   Mn5Fe7(W6C)2
_chemical_formula_sum   'Mn5 Fe7 W12 C2'
_cell_volume   328.22408860
_cell_formula_units_Z   1
loop_
 _symmetry_equiv_pos_site_id
 _symmetry_equiv_pos_as_xyz
  1  'x, y, z'
loop_
 _atom_site_type_symbol
 _atom_site_label
 _atom_site_symmetry_multiplicity
 _atom_site_fract_x
 _atom_site_fract_y
 _atom_site_fract_z
 _atom_site_occupancy
  Mn  Mn0  1  0.922595  0.232216  0.922595  1
  Mn  Mn1  1  0.124536  0.125940  0.624988  1
  Mn  Mn2  1  0.125093  0.624721  0.125093  1
  Mn  Mn3  1  0.124536  0.125940  0.124536  1
  Mn  Mn4  1  0.624988  0.125940  0.124536  1
  Fe  Fe5  1  0.328396  0.014811  0.328396  1
  Fe  Fe6  1  0.328179  0.328346  0.328179  1
  Fe  Fe7  1  0.015296  0.328346  0.328179  1
  Fe  Fe8  1  0.921913  0.920124  0.236052  1
  Fe  Fe9  1  0.236052  0.920124  0.921913  1
  Fe  Fe10  1  0.328179  0.328346  0.015296  1
  Fe  Fe11  1  0.921913  0.920124  0.921913  1
  W  W12  1  0.302682  0.697462  0.697173  1
  W  W13  1  0.302925  0.302420  0.697327  1
  W  W14  1  0.552479  0.947928  0.552479  1
  W  W15  1  0.947327  0.553664  0.551682  1
  W  W16  1  0.552479  0.947928  0.947115  1
  W  W17  1  0.697327  0.302420  0.302925  1
  W  W18  1  0.947327  0.553664  0.947327  1
  W  W19  1  0.302682  0.697462  0.302682  1
  W  W20  1  0.551682  0.553664  0.947327  1
  W  W21  1  0.697327  0.302420  0.697327  1
  W  W22  1  0.697173  0.697462  0.302682  1
  W  W23  1  0.947115  0.947928  0.552479  1
  C  C24  1  0.749887  0.750340  0.749887  1
  C  C25  1  0.499912  0.500263  0.499912  1
