# generated using pymatgen
data_NdDy2Tm(Ir2O7)2
_symmetry_space_group_name_H-M   'P 1'
_cell_length_a   7.30230618
_cell_length_b   7.24680106
_cell_length_c   7.23328616
_cell_angle_alpha   59.93818059
_cell_angle_beta   60.19210358
_cell_angle_gamma   60.25113204
_symmetry_Int_Tables_number   1
_chemical_formula_structural   NdDy2Tm(Ir2O7)2
_chemical_formula_sum   'Nd1 Dy2 Tm1 Ir4 O14'
_cell_volume   271.43686000
_cell_formula_units_Z   1
loop_
 _symmetry_equiv_pos_site_id
 _symmetry_equiv_pos_as_xyz
  1  'x, y, z'
loop_
 _atom_site_type_symbol
 _atom_site_label
 _atom_site_symmetry_multiplicity
 _atom_site_fract_x
 _atom_site_fract_y
 _atom_site_fract_z
 _atom_site_occupancy
  Nd  Nd0  1  0.625000  0.125000  0.125000  1
  Dy  Dy1  1  0.125000  0.625000  0.125000  1
  Dy  Dy2  1  0.125000  0.125000  0.125000  1
  Tm  Tm3  1  0.125000  0.125000  0.625000  1
  Ir  Ir4  1  0.125000  0.625000  0.625000  1
  Ir  Ir5  1  0.625000  0.125000  0.625000  1
  Ir  Ir6  1  0.625000  0.625000  0.125000  1
  Ir  Ir7  1  0.625000  0.625000  0.625000  1
  O  O8  1  0.720710  0.702862  0.288379  1
  O  O9  1  0.287896  0.288672  0.709167  1
  O  O10  1  0.723722  0.287879  0.700521  1
  O  O11  1  0.287979  0.711515  0.288989  1
  O  O12  1  0.287896  0.714264  0.709167  1
  O  O13  1  0.720710  0.288049  0.288379  1
  O  O14  1  0.529290  0.547138  0.961621  1
  O  O15  1  0.962104  0.961328  0.540833  1
  O  O16  1  0.526278  0.962121  0.549479  1
  O  O17  1  0.962021  0.538485  0.961011  1
  O  O18  1  0.962104  0.535736  0.540833  1
  O  O19  1  0.529290  0.961951  0.961621  1
  O  O20  1  0.239743  0.251472  0.257313  1
  O  O21  1  0.010257  0.998528  0.992687  1
