# generated using pymatgen
data_Tb3Lu2ScFeSb2
_symmetry_space_group_name_H-M   'P 1'
_cell_length_a   8.03682200
_cell_length_b   8.03202258
_cell_length_c   4.14570600
_cell_angle_alpha   90.00000000
_cell_angle_beta   90.00000000
_cell_angle_gamma   120.01977651
_symmetry_Int_Tables_number   1
_chemical_formula_structural   Tb3Lu2ScFeSb2
_chemical_formula_sum   'Tb3 Lu2 Sc1 Fe1 Sb2'
_cell_volume   231.71375820
_cell_formula_units_Z   1
loop_
 _symmetry_equiv_pos_site_id
 _symmetry_equiv_pos_as_xyz
  1  'x, y, z'
loop_
 _atom_site_type_symbol
 _atom_site_label
 _atom_site_symmetry_multiplicity
 _atom_site_fract_x
 _atom_site_fract_y
 _atom_site_fract_z
 _atom_site_occupancy
  Tb  Tb0  1  0.599111  0.000000  0.500000  1
  Tb  Tb1  1  0.392675  0.392056  0.500000  1
  Tb  Tb2  1  0.000619  0.607944  0.500000  1
  Lu  Lu3  1  0.770761  0.770289  0.000000  1
  Lu  Lu4  1  0.000472  0.229711  0.000000  1
  Sc  Sc5  1  0.229599  0.000000  0.000000  1
  Fe  Fe6  1  0.012176  0.000000  0.500000  1
  Sb  Sb7  1  0.331931  0.669275  0.000000  1
  Sb  Sb8  1  0.662657  0.330725  0.000000  1
