# generated using pymatgen
data_La8Al8Ir3Pt4Rh
_symmetry_space_group_name_H-M   'P 1'
_cell_length_a   4.31105000
_cell_length_b   7.24138046
_cell_length_c   16.57051802
_cell_angle_alpha   89.87336783
_cell_angle_beta   90.00000000
_cell_angle_gamma   90.00000000
_symmetry_Int_Tables_number   1
_chemical_formula_structural   La8Al8Ir3Pt4Rh
_chemical_formula_sum   'La8 Al8 Ir3 Pt4 Rh1'
_cell_volume   517.29639347
_cell_formula_units_Z   1
loop_
 _symmetry_equiv_pos_site_id
 _symmetry_equiv_pos_as_xyz
  1  'x, y, z'
loop_
 _atom_site_type_symbol
 _atom_site_label
 _atom_site_symmetry_multiplicity
 _atom_site_fract_x
 _atom_site_fract_y
 _atom_site_fract_z
 _atom_site_occupancy
  La  La0  1  0.250000  0.516709  0.779966  1
  La  La1  1  0.750000  0.483577  0.219985  1
  La  La2  1  0.750000  0.983528  0.279933  1
  La  La3  1  0.250000  0.017231  0.719387  1
  La  La4  1  0.250000  0.652139  0.557270  1
  La  La5  1  0.750000  0.350000  0.442431  1
  La  La6  1  0.750000  0.848750  0.057270  1
  La  La7  1  0.250000  0.151085  0.942412  1
  Al  Al8  1  0.250000  0.660287  0.353841  1
  Al  Al9  1  0.750000  0.339707  0.646914  1
  Al  Al10  1  0.750000  0.839341  0.853787  1
  Al  Al11  1  0.250000  0.161098  0.146309  1
  Al  Al12  1  0.250000  0.506183  0.059326  1
  Al  Al13  1  0.750000  0.493789  0.940498  1
  Al  Al14  1  0.750000  0.992954  0.559468  1
  Al  Al15  1  0.250000  0.005485  0.440102  1
  Ir  Ir16  1  0.250000  0.713250  0.927453  1
  Ir  Ir17  1  0.750000  0.286735  0.072641  1
  Ir  Ir18  1  0.750000  0.786774  0.427537  1
  Pt  Pt19  1  0.250000  0.773674  0.181232  1
  Pt  Pt20  1  0.750000  0.226389  0.818713  1
  Pt  Pt21  1  0.750000  0.726428  0.681034  1
  Pt  Pt22  1  0.250000  0.274118  0.319313  1
  Rh  Rh23  1  0.250000  0.210767  0.573178  1
