# generated using pymatgen
data_La8Y11LuPt16
_symmetry_space_group_name_H-M   'P 1'
_cell_length_a   7.63840023
_cell_length_b   7.80916481
_cell_length_c   14.81703300
_cell_angle_alpha   90.02492376
_cell_angle_beta   90.06707412
_cell_angle_gamma   89.99240639
_symmetry_Int_Tables_number   1
_chemical_formula_structural   La8Y11LuPt16
_chemical_formula_sum   'La8 Y11 Lu1 Pt16'
_cell_volume   883.82830251
_cell_formula_units_Z   1
loop_
 _symmetry_equiv_pos_site_id
 _symmetry_equiv_pos_as_xyz
  1  'x, y, z'
loop_
 _atom_site_type_symbol
 _atom_site_label
 _atom_site_symmetry_multiplicity
 _atom_site_fract_x
 _atom_site_fract_y
 _atom_site_fract_z
 _atom_site_occupancy
  La  La0  1  0.496926  0.324276  0.902730  1
  La  La1  1  0.995934  0.176583  0.597981  1
  La  La2  1  0.503514  0.676180  0.402565  1
  La  La3  1  0.003310  0.824074  0.097134  1
  La  La4  1  0.502512  0.676434  0.096010  1
  La  La5  1  0.003702  0.823821  0.402412  1
  La  La6  1  0.496114  0.323434  0.598131  1
  La  La7  1  0.997919  0.174521  0.902728  1
  Y  Y8  1  0.839102  0.668116  0.623303  1
  Y  Y9  1  0.661009  0.168003  0.377107  1
  Y  Y10  1  0.161620  0.331505  0.121820  1
  Y  Y11  1  0.660541  0.167575  0.122051  1
  Y  Y12  1  0.161179  0.331803  0.377279  1
  Y  Y13  1  0.338861  0.831982  0.622921  1
  Y  Y14  1  0.839423  0.668108  0.878032  1
  Y  Y15  1  0.175150  0.495691  0.751010  1
  Y  Y16  1  0.674103  0.004792  0.750874  1
  Y  Y17  1  0.825557  0.505377  0.249561  1
  Y  Y18  1  0.325527  0.994552  0.249572  1
  Lu  Lu19  1  0.339120  0.832200  0.876130  1
  Pt  Pt20  1  0.323218  0.031910  0.041342  1
  Pt  Pt21  1  0.824666  0.465910  0.455805  1
  Pt  Pt22  1  0.675374  0.966253  0.544722  1
  Pt  Pt23  1  0.179175  0.539368  0.955427  1
  Pt  Pt24  1  0.670315  0.964491  0.954574  1
  Pt  Pt25  1  0.175120  0.533450  0.544846  1
  Pt  Pt26  1  0.324790  0.033794  0.455527  1
  Pt  Pt27  1  0.825971  0.465515  0.044106  1
  Pt  Pt28  1  0.541286  0.628180  0.751912  1
  Pt  Pt29  1  0.045205  0.873230  0.751938  1
  Pt  Pt30  1  0.457272  0.374651  0.249345  1
  Pt  Pt31  1  0.957399  0.125440  0.249401  1
  Pt  Pt32  1  0.305736  0.135534  0.751917  1
  Pt  Pt33  1  0.804569  0.363328  0.750842  1
  Pt  Pt34  1  0.693969  0.862660  0.249425  1
  Pt  Pt35  1  0.194812  0.637263  0.249520  1
