# generated using pymatgen
data_Yb8Fe2PdN8
_symmetry_space_group_name_H-M   'P 1'
_cell_length_a   9.16024114
_cell_length_b   4.92227223
_cell_length_c   7.04615657
_cell_angle_alpha   90.00001419
_cell_angle_beta   74.22257370
_cell_angle_gamma   74.41451759
_symmetry_Int_Tables_number   1
_chemical_formula_structural   Yb8Fe2PdN8
_chemical_formula_sum   'Yb8 Fe2 Pd1 N8'
_cell_volume   293.57835136
_cell_formula_units_Z   1
loop_
 _symmetry_equiv_pos_site_id
 _symmetry_equiv_pos_as_xyz
  1  'x, y, z'
loop_
 _atom_site_type_symbol
 _atom_site_label
 _atom_site_symmetry_multiplicity
 _atom_site_fract_x
 _atom_site_fract_y
 _atom_site_fract_z
 _atom_site_occupancy
  Yb  Yb0  1  0.060491  0.969755  0.744698  1
  Yb  Yb1  1  0.939509  0.030245  0.255302  1
  Yb  Yb2  1  0.670117  0.664942  0.464103  1
  Yb  Yb3  1  0.329883  0.335058  0.535897  1
  Yb  Yb4  1  0.819166  0.590418  0.972754  1
  Yb  Yb5  1  0.180834  0.409582  0.027246  1
  Yb  Yb6  1  0.601193  0.199403  0.807563  1
  Yb  Yb7  1  0.398807  0.800597  0.192437  1
  Fe  Fe8  1  0.376678  0.811660  0.792859  1
  Fe  Fe9  1  0.623322  0.188340  0.207141  1
  Pd  Pd10  1  0.000000  0.500000  0.500000  1
  N  N11  1  0.211639  0.894180  0.998797  1
  N  N12  1  0.788361  0.105820  0.001203  1
  N  N13  1  0.356195  0.821902  0.556616  1
  N  N14  1  0.643805  0.178098  0.443384  1
  N  N15  1  0.561550  0.719225  0.829248  1
  N  N16  1  0.438450  0.280775  0.170752  1
  N  N17  1  0.070495  0.464752  0.757742  1
  N  N18  1  0.929505  0.535248  0.242258  1
