# generated using pymatgen
data_Nb8SnRhSe16
_symmetry_space_group_name_H-M   'P 1'
_cell_length_a   6.99739700
_cell_length_b   6.99739850
_cell_length_c   14.06984300
_cell_angle_alpha   90.00000000
_cell_angle_beta   90.00000000
_cell_angle_gamma   119.99999766
_symmetry_Int_Tables_number   1
_chemical_formula_structural   Nb8SnRhSe16
_chemical_formula_sum   'Nb8 Sn1 Rh1 Se16'
_cell_volume   596.61341590
_cell_formula_units_Z   1
loop_
 _symmetry_equiv_pos_site_id
 _symmetry_equiv_pos_as_xyz
  1  'x, y, z'
loop_
 _atom_site_type_symbol
 _atom_site_label
 _atom_site_symmetry_multiplicity
 _atom_site_fract_x
 _atom_site_fract_y
 _atom_site_fract_z
 _atom_site_occupancy
  Nb  Nb0  1  0.000000  0.000000  0.224042  1
  Nb  Nb1  1  0.000000  0.000000  0.775958  1
  Nb  Nb2  1  0.508390  0.016781  0.222494  1
  Nb  Nb3  1  0.983219  0.491610  0.222494  1
  Nb  Nb4  1  0.508390  0.491610  0.222494  1
  Nb  Nb5  1  0.491610  0.983219  0.777506  1
  Nb  Nb6  1  0.016781  0.508390  0.777506  1
  Nb  Nb7  1  0.491610  0.508390  0.777506  1
  Sn  Sn8  1  0.000000  0.000000  0.500000  1
  Rh  Rh9  1  0.000000  0.000000  0.000000  1
  Se  Se10  1  0.333333  0.666667  0.901684  1
  Se  Se11  1  0.666667  0.333333  0.098316  1
  Se  Se12  1  0.666667  0.333333  0.348077  1
  Se  Se13  1  0.333333  0.666667  0.651923  1
  Se  Se14  1  0.168201  0.831799  0.342097  1
  Se  Se15  1  0.168201  0.336402  0.342097  1
  Se  Se16  1  0.663598  0.831799  0.342097  1
  Se  Se17  1  0.831799  0.168201  0.657903  1
  Se  Se18  1  0.831799  0.663598  0.657903  1
  Se  Se19  1  0.336402  0.168201  0.657903  1
  Se  Se20  1  0.831621  0.168379  0.893160  1
  Se  Se21  1  0.831621  0.663245  0.893160  1
  Se  Se22  1  0.336755  0.168379  0.893160  1
  Se  Se23  1  0.168379  0.831621  0.106840  1
  Se  Se24  1  0.168379  0.336755  0.106840  1
  Se  Se25  1  0.663245  0.831621  0.106840  1
