# generated using pymatgen
data_Nb9V(GaSi2)2
_symmetry_space_group_name_H-M   'P 1'
_cell_length_a   7.61716236
_cell_length_b   7.61716125
_cell_length_c   7.61716100
_cell_angle_alpha   128.06051720
_cell_angle_beta   128.06052017
_cell_angle_gamma   76.52700865
_symmetry_Int_Tables_number   1
_chemical_formula_structural   Nb9V(GaSi2)2
_chemical_formula_sum   'Nb9 V1 Ga2 Si4'
_cell_volume   266.16227740
_cell_formula_units_Z   1
loop_
 _symmetry_equiv_pos_site_id
 _symmetry_equiv_pos_as_xyz
  1  'x, y, z'
loop_
 _atom_site_type_symbol
 _atom_site_label
 _atom_site_symmetry_multiplicity
 _atom_site_fract_x
 _atom_site_fract_y
 _atom_site_fract_z
 _atom_site_occupancy
  Nb  Nb0  1  0.016997  0.185440  0.498205  1
  Nb  Nb1  1  0.687236  0.518792  0.501795  1
  Nb  Nb2  1  0.518792  0.016997  0.831556  1
  Nb  Nb3  1  0.185440  0.687236  0.168444  1
  Nb  Nb4  1  0.983003  0.814560  0.501795  1
  Nb  Nb5  1  0.312764  0.481208  0.498205  1
  Nb  Nb6  1  0.481208  0.983003  0.168444  1
  Nb  Nb7  1  0.814560  0.312764  0.831556  1
  Nb  Nb8  1  0.500000  0.500000  0.000000  1
  V  V9  1  0.000000  0.000000  0.000000  1
  Ga  Ga10  1  0.750240  0.750240  0.000000  1
  Ga  Ga11  1  0.249760  0.249760  0.000000  1
  Si  Si12  1  0.364273  0.126352  0.490625  1
  Si  Si13  1  0.635727  0.873648  0.509375  1
  Si  Si14  1  0.873648  0.364273  0.237920  1
  Si  Si15  1  0.126352  0.635727  0.762080  1
