# generated using pymatgen
data_Ba4Ca2La2Co4O15
_symmetry_space_group_name_H-M   'P 1'
_cell_length_a   11.71297003
_cell_length_b   11.71297021
_cell_length_c   6.83954572
_cell_angle_alpha   90.11310136
_cell_angle_beta   90.11310254
_cell_angle_gamma   120.09244456
_symmetry_Int_Tables_number   1
_chemical_formula_structural   Ba4Ca2La2Co4O15
_chemical_formula_sum   'Ba8 Ca4 La4 Co8 O30'
_cell_volume   811.86393866
_cell_formula_units_Z   2
loop_
 _symmetry_equiv_pos_site_id
 _symmetry_equiv_pos_as_xyz
  1  'x, y, z'
loop_
 _atom_site_type_symbol
 _atom_site_label
 _atom_site_symmetry_multiplicity
 _atom_site_fract_x
 _atom_site_fract_y
 _atom_site_fract_z
 _atom_site_occupancy
  Ba  Ba0  1  0.828031  0.175943  0.328139  1
  Ba  Ba1  1  0.831434  0.654753  0.323814  1
  Ba  Ba2  1  0.343670  0.170785  0.328381  1
  Ba  Ba3  1  0.175943  0.828031  0.828139  1
  Ba  Ba4  1  0.170785  0.343670  0.828381  1
  Ba  Ba5  1  0.654753  0.831434  0.823814  1
  Ba  Ba6  1  0.668055  0.330575  0.018772  1
  Ba  Ba7  1  0.330575  0.668055  0.518772  1
  Ca  Ca8  1  0.998856  0.999618  0.524605  1
  Ca  Ca9  1  0.999618  0.998856  0.024605  1
  Ca  Ca10  1  0.525974  0.050219  0.659545  1
  Ca  Ca11  1  0.050219  0.525974  0.159545  1
  La  La12  1  0.524672  0.476469  0.664734  1
  La  La13  1  0.953505  0.477586  0.662677  1
  La  La14  1  0.476469  0.524672  0.164734  1
  La  La15  1  0.477586  0.953505  0.162677  1
  Co  Co16  1  0.665447  0.330796  0.487532  1
  Co  Co17  1  0.330796  0.665447  0.987532  1
  Co  Co18  1  0.827733  0.175794  0.834664  1
  Co  Co19  1  0.831388  0.655401  0.836078  1
  Co  Co20  1  0.347692  0.170659  0.829810  1
  Co  Co21  1  0.175794  0.827733  0.334664  1
  Co  Co22  1  0.170659  0.347692  0.329810  1
  Co  Co23  1  0.655401  0.831388  0.336078  1
  O  O24  1  0.062249  0.670973  0.469566  1
  O  O25  1  0.329259  0.391730  0.464910  1
  O  O26  1  0.607584  0.936541  0.468029  1
  O  O27  1  0.063149  0.390744  0.470751  1
  O  O28  1  0.329448  0.936692  0.467728  1
  O  O29  1  0.608525  0.670099  0.464628  1
  O  O30  1  0.936692  0.329448  0.967728  1
  O  O31  1  0.670099  0.608525  0.964628  1
  O  O32  1  0.390744  0.063149  0.970751  1
  O  O33  1  0.936541  0.607584  0.968029  1
  O  O34  1  0.670973  0.062249  0.969566  1
  O  O35  1  0.391730  0.329259  0.964910  1
  O  O36  1  0.585032  0.412024  0.335079  1
  O  O37  1  0.586031  0.171768  0.334548  1
  O  O38  1  0.826021  0.411818  0.338149  1
  O  O39  1  0.412024  0.585032  0.835079  1
  O  O40  1  0.411818  0.826021  0.838149  1
  O  O41  1  0.171768  0.586031  0.834548  1
  O  O42  1  0.084496  0.909589  0.259465  1
  O  O43  1  0.089329  0.174298  0.258149  1
  O  O44  1  0.827581  0.911804  0.261966  1
  O  O45  1  0.909589  0.084496  0.759465  1
  O  O46  1  0.911804  0.827581  0.761966  1
  O  O47  1  0.174298  0.089329  0.758149  1
  O  O48  1  0.748199  0.248602  0.662493  1
  O  O49  1  0.750920  0.502787  0.659152  1
  O  O50  1  0.498842  0.248813  0.660834  1
  O  O51  1  0.248602  0.748199  0.162493  1
  O  O52  1  0.248813  0.498842  0.160834  1
  O  O53  1  0.502787  0.750920  0.159152  1
