# generated using pymatgen
data_Tb4Y(GaTe)2
_symmetry_space_group_name_H-M   'P 1'
_cell_length_a   8.68368800
_cell_length_b   8.68368767
_cell_length_c   7.95653500
_cell_angle_alpha   90.00000000
_cell_angle_beta   90.00000000
_cell_angle_gamma   125.43719677
_symmetry_Int_Tables_number   1
_chemical_formula_structural   Tb4Y(GaTe)2
_chemical_formula_sum   'Tb8 Y2 Ga4 Te4'
_cell_volume   488.82969399
_cell_formula_units_Z   2
loop_
 _symmetry_equiv_pos_site_id
 _symmetry_equiv_pos_as_xyz
  1  'x, y, z'
loop_
 _atom_site_type_symbol
 _atom_site_label
 _atom_site_symmetry_multiplicity
 _atom_site_fract_x
 _atom_site_fract_y
 _atom_site_fract_z
 _atom_site_occupancy
  Tb  Tb0  1  0.040444  0.297296  0.331997  1
  Tb  Tb1  1  0.959556  0.702704  0.668003  1
  Tb  Tb2  1  0.459556  0.202704  0.831997  1
  Tb  Tb3  1  0.797296  0.540444  0.168003  1
  Tb  Tb4  1  0.540444  0.797296  0.168003  1
  Tb  Tb5  1  0.202704  0.459556  0.831997  1
  Tb  Tb6  1  0.702704  0.959556  0.668003  1
  Tb  Tb7  1  0.297296  0.040444  0.331997  1
  Y  Y8  1  0.000000  0.000000  0.000000  1
  Y  Y9  1  0.500000  0.500000  0.500000  1
  Ga  Ga10  1  0.374565  0.374565  0.124438  1
  Ga  Ga11  1  0.625435  0.625435  0.875562  1
  Ga  Ga12  1  0.125435  0.125435  0.624438  1
  Ga  Ga13  1  0.874565  0.874565  0.375562  1
  Te  Te14  1  0.795555  0.204445  0.000000  1
  Te  Te15  1  0.204445  0.795555  0.000000  1
  Te  Te16  1  0.704445  0.295555  0.500000  1
  Te  Te17  1  0.295555  0.704445  0.500000  1
