# generated using pymatgen
data_YbLu7(B6Os)4
_symmetry_space_group_name_H-M   'P 1'
_cell_length_a   3.59776900
_cell_length_b   9.04403809
_cell_length_c   11.41999937
_cell_angle_alpha   89.94383379
_cell_angle_beta   90.00000000
_cell_angle_gamma   90.00000000
_symmetry_Int_Tables_number   1
_chemical_formula_structural   YbLu7(B6Os)4
_chemical_formula_sum   'Yb1 Lu7 B24 Os4'
_cell_volume   371.58787064
_cell_formula_units_Z   1
loop_
 _symmetry_equiv_pos_site_id
 _symmetry_equiv_pos_as_xyz
  1  'x, y, z'
loop_
 _atom_site_type_symbol
 _atom_site_label
 _atom_site_symmetry_multiplicity
 _atom_site_fract_x
 _atom_site_fract_y
 _atom_site_fract_z
 _atom_site_occupancy
  Yb  Yb0  1  0.000000  0.322580  0.413380  1
  Lu  Lu1  1  0.000000  0.677055  0.585077  1
  Lu  Lu2  1  0.000000  0.821424  0.086552  1
  Lu  Lu3  1  0.000000  0.179227  0.914477  1
  Lu  Lu4  1  0.000000  0.944522  0.372272  1
  Lu  Lu5  1  0.000000  0.056918  0.627138  1
  Lu  Lu6  1  0.000000  0.443759  0.128101  1
  Lu  Lu7  1  0.000000  0.555630  0.873229  1
  B  B8  1  0.500000  0.554094  0.433253  1
  B  B9  1  0.500000  0.446564  0.567118  1
  B  B10  1  0.500000  0.052743  0.065559  1
  B  B11  1  0.500000  0.946262  0.933407  1
  B  B12  1  0.500000  0.749693  0.420065  1
  B  B13  1  0.500000  0.250651  0.580892  1
  B  B14  1  0.500000  0.248704  0.079567  1
  B  B15  1  0.500000  0.750581  0.920372  1
  B  B16  1  0.500000  0.793019  0.265673  1
  B  B17  1  0.500000  0.208047  0.734969  1
  B  B18  1  0.500000  0.291143  0.233437  1
  B  B19  1  0.500000  0.707894  0.765969  1
  B  B20  1  0.500000  0.631908  0.184849  1
  B  B21  1  0.500000  0.368885  0.816123  1
  B  B22  1  0.500000  0.130514  0.314425  1
  B  B23  1  0.500000  0.868649  0.684453  1
  B  B24  1  0.500000  0.981668  0.212045  1
  B  B25  1  0.500000  0.018071  0.786960  1
  B  B26  1  0.500000  0.482845  0.286909  1
  B  B27  1  0.500000  0.518112  0.713345  1
  B  B28  1  0.500000  0.605981  0.029480  1
  B  B29  1  0.500000  0.394396  0.971125  1
  B  B30  1  0.500000  0.101813  0.471768  1
  B  B31  1  0.500000  0.895900  0.528806  1
  Os  Os32  1  0.000000  0.640103  0.320260  1
  Os  Os33  1  0.000000  0.361892  0.680522  1
  Os  Os34  1  0.000000  0.136644  0.177207  1
  Os  Os35  1  0.000000  0.862107  0.821218  1
