# generated using pymatgen
data_Ca3NpO6
_symmetry_space_group_name_H-M   'P 1'
_cell_length_a   6.76402371
_cell_length_b   6.76402449
_cell_length_c   6.76402378
_cell_angle_alpha   91.26723911
_cell_angle_beta   91.26724400
_cell_angle_gamma   91.26723641
_symmetry_Int_Tables_number   1
_chemical_formula_structural   Ca3NpO6
_chemical_formula_sum   'Ca6 Np2 O12'
_cell_volume   309.23728861
_cell_formula_units_Z   2
loop_
 _symmetry_equiv_pos_site_id
 _symmetry_equiv_pos_as_xyz
  1  'x, y, z'
loop_
 _atom_site_type_symbol
 _atom_site_label
 _atom_site_symmetry_multiplicity
 _atom_site_fract_x
 _atom_site_fract_y
 _atom_site_fract_z
 _atom_site_occupancy
  Ca  Ca0  1  0.939146  0.443658  0.749340  1
  Ca  Ca1  1  0.749340  0.939146  0.443658  1
  Ca  Ca2  1  0.556342  0.250660  0.060854  1
  Ca  Ca3  1  0.250660  0.060854  0.556342  1
  Ca  Ca4  1  0.060854  0.556342  0.250660  1
  Ca  Ca5  1  0.443658  0.749340  0.939146  1
  Np  Np6  1  0.000000  0.000000  0.000000  1
  Np  Np7  1  0.500000  0.500000  0.500000  1
  O  O8  1  0.292220  0.064250  0.926521  1
  O  O9  1  0.064250  0.926521  0.292220  1
  O  O10  1  0.926521  0.292220  0.064250  1
  O  O11  1  0.707780  0.935750  0.073479  1
  O  O12  1  0.935750  0.073479  0.707780  1
  O  O13  1  0.073479  0.707780  0.935750  1
  O  O14  1  0.207269  0.413717  0.541670  1
  O  O15  1  0.413717  0.541670  0.207269  1
  O  O16  1  0.458330  0.792731  0.586283  1
  O  O17  1  0.586283  0.458330  0.792731  1
  O  O18  1  0.792731  0.586283  0.458330  1
  O  O19  1  0.541670  0.207269  0.413717  1
