# generated using pymatgen
data_Tc5Os2
_symmetry_space_group_name_H-M   'P 1'
_cell_length_a   4.78438812
_cell_length_b   7.05865061
_cell_length_c   6.49605082
_cell_angle_alpha   94.36904649
_cell_angle_beta   111.60794612
_cell_angle_gamma   90.00000565
_symmetry_Int_Tables_number   1
_chemical_formula_structural   Tc5Os2
_chemical_formula_sum   'Tc10 Os4'
_cell_volume   203.27753269
_cell_formula_units_Z   2
loop_
 _symmetry_equiv_pos_site_id
 _symmetry_equiv_pos_as_xyz
  1  'x, y, z'
loop_
 _atom_site_type_symbol
 _atom_site_label
 _atom_site_symmetry_multiplicity
 _atom_site_fract_x
 _atom_site_fract_y
 _atom_site_fract_z
 _atom_site_occupancy
  Tc  Tc0  1  0.527151  0.037292  0.718914  1
  Tc  Tc1  1  0.472849  0.962708  0.281086  1
  Tc  Tc2  1  0.808238  0.462708  0.281086  1
  Tc  Tc3  1  0.191762  0.537292  0.718914  1
  Tc  Tc4  1  0.383824  0.323668  0.432378  1
  Tc  Tc5  1  0.616176  0.676332  0.567622  1
  Tc  Tc6  1  0.951448  0.176332  0.567622  1
  Tc  Tc7  1  0.048552  0.823668  0.432378  1
  Tc  Tc8  1  0.333430  0.250000  0.000000  1
  Tc  Tc9  1  0.666570  0.750000  0.000000  1
  Os  Os10  1  0.238352  0.607676  0.143338  1
  Os  Os11  1  0.761648  0.392324  0.856662  1
  Os  Os12  1  0.095016  0.892324  0.856662  1
  Os  Os13  1  0.904984  0.107676  0.143338  1
