# generated using pymatgen
data_Ba3PbF10
_symmetry_space_group_name_H-M   'P 1'
_cell_length_a   8.80649471
_cell_length_b   8.80649408
_cell_length_c   6.22823000
_cell_angle_alpha   90.00000000
_cell_angle_beta   90.00000000
_cell_angle_gamma   100.78677227
_symmetry_Int_Tables_number   1
_chemical_formula_structural   Ba3PbF10
_chemical_formula_sum   'Ba6 Pb2 F20'
_cell_volume   474.49144845
_cell_formula_units_Z   2
loop_
 _symmetry_equiv_pos_site_id
 _symmetry_equiv_pos_as_xyz
  1  'x, y, z'
loop_
 _atom_site_type_symbol
 _atom_site_label
 _atom_site_symmetry_multiplicity
 _atom_site_fract_x
 _atom_site_fract_y
 _atom_site_fract_z
 _atom_site_occupancy
  Ba  Ba0  1  0.825842  0.603914  0.750000  1
  Ba  Ba1  1  0.174158  0.396086  0.250000  1
  Ba  Ba2  1  0.396086  0.174158  0.750000  1
  Ba  Ba3  1  0.603914  0.825842  0.250000  1
  Ba  Ba4  1  0.890007  0.109993  0.750000  1
  Ba  Ba5  1  0.109993  0.890007  0.250000  1
  Pb  Pb6  1  0.321012  0.678988  0.750000  1
  Pb  Pb7  1  0.678988  0.321012  0.250000  1
  F  F8  1  0.137692  0.137692  0.500000  1
  F  F9  1  0.862308  0.862308  0.500000  1
  F  F10  1  0.862308  0.862308  0.000000  1
  F  F11  1  0.137692  0.137692  0.000000  1
  F  F12  1  0.110436  0.651145  0.535726  1
  F  F13  1  0.889564  0.348855  0.464274  1
  F  F14  1  0.889564  0.348855  0.035726  1
  F  F15  1  0.348855  0.889564  0.964274  1
  F  F16  1  0.110436  0.651145  0.964274  1
  F  F17  1  0.651145  0.110436  0.035726  1
  F  F18  1  0.651145  0.110436  0.464274  1
  F  F19  1  0.348855  0.889564  0.535726  1
  F  F20  1  0.242468  0.424946  0.750000  1
  F  F21  1  0.757532  0.575054  0.250000  1
  F  F22  1  0.575054  0.757532  0.750000  1
  F  F23  1  0.424946  0.242468  0.250000  1
  F  F24  1  0.601551  0.398449  0.549352  1
  F  F25  1  0.398449  0.601551  0.450648  1
  F  F26  1  0.398449  0.601551  0.049352  1
  F  F27  1  0.601551  0.398449  0.950648  1
