# generated using pymatgen
data_Na2ScAlB28
_symmetry_space_group_name_H-M   'P 1'
_cell_length_a   7.36273415
_cell_length_b   7.36273369
_cell_length_c   7.30660051
_cell_angle_alpha   132.37533858
_cell_angle_beta   111.81936250
_cell_angle_gamma   87.83978558
_symmetry_Int_Tables_number   1
_chemical_formula_structural   Na2ScAlB28
_chemical_formula_sum   'Na2 Sc1 Al1 B28'
_cell_volume   258.23777865
_cell_formula_units_Z   1
loop_
 _symmetry_equiv_pos_site_id
 _symmetry_equiv_pos_as_xyz
  1  'x, y, z'
loop_
 _atom_site_type_symbol
 _atom_site_label
 _atom_site_symmetry_multiplicity
 _atom_site_fract_x
 _atom_site_fract_y
 _atom_site_fract_z
 _atom_site_occupancy
  Na  Na0  1  0.096974  0.750258  0.347232  1
  Na  Na1  1  0.903026  0.249742  0.652768  1
  Sc  Sc2  1  0.500000  0.500000  0.500000  1
  Al  Al3  1  0.500000  0.000000  0.000000  1
  B  B4  1  0.896790  0.218468  0.995215  1
  B  B5  1  0.464807  0.177072  0.795860  1
  B  B6  1  0.881212  0.168948  0.204140  1
  B  B7  1  0.723254  0.401575  0.004785  1
  B  B8  1  0.586399  0.415441  0.167160  1
  B  B9  1  0.740792  0.350366  0.370604  1
  B  B10  1  0.304734  0.336248  0.972283  1
  B  B11  1  0.724442  0.719115  0.322454  1
  B  B12  1  0.876657  0.673209  0.705932  1
  B  B13  1  0.467276  0.670725  0.294068  1
  B  B14  1  0.103339  0.098013  0.322454  1
  B  B15  1  0.896661  0.901987  0.677546  1
  B  B16  1  0.532724  0.329275  0.705932  1
  B  B17  1  0.123343  0.326791  0.294068  1
  B  B18  1  0.275558  0.280885  0.677546  1
  B  B19  1  0.748281  0.919240  0.832840  1
  B  B20  1  0.479762  0.870187  0.629396  1
  B  B21  1  0.863965  0.832451  0.027717  1
  B  B22  1  0.695266  0.663752  0.027717  1
  B  B23  1  0.259208  0.649634  0.629396  1
  B  B24  1  0.413601  0.584559  0.832840  1
  B  B25  1  0.276746  0.598425  0.995215  1
  B  B26  1  0.118788  0.831052  0.795860  1
  B  B27  1  0.535193  0.822928  0.204140  1
  B  B28  1  0.103210  0.781532  0.004785  1
  B  B29  1  0.136035  0.167549  0.972283  1
  B  B30  1  0.520238  0.129813  0.370604  1
  B  B31  1  0.251719  0.080760  0.167160  1
