# generated using pymatgen
data_Hf10C8N
_symmetry_space_group_name_H-M   'P 1'
_cell_length_a   8.66777677
_cell_length_b   8.67229613
_cell_length_c   10.85789704
_cell_angle_alpha   63.02191568
_cell_angle_beta   63.02101590
_cell_angle_gamma   44.54268970
_symmetry_Int_Tables_number   1
_chemical_formula_structural   Hf10C8N
_chemical_formula_sum   'Hf20 C16 N2'
_cell_volume   498.99101908
_cell_formula_units_Z   2
loop_
 _symmetry_equiv_pos_site_id
 _symmetry_equiv_pos_as_xyz
  1  'x, y, z'
loop_
 _atom_site_type_symbol
 _atom_site_label
 _atom_site_symmetry_multiplicity
 _atom_site_fract_x
 _atom_site_fract_y
 _atom_site_fract_z
 _atom_site_occupancy
  Hf  Hf0  1  0.225912  0.478550  0.946499  1
  Hf  Hf1  1  0.721408  0.967660  0.956002  1
  Hf  Hf2  1  0.564736  0.330688  0.648742  1
  Hf  Hf3  1  0.435264  0.669312  0.351258  1
  Hf  Hf4  1  0.278592  0.032340  0.043998  1
  Hf  Hf5  1  0.081708  0.815037  0.644636  1
  Hf  Hf6  1  0.124460  0.371730  0.749766  1
  Hf  Hf7  1  0.918292  0.184963  0.355364  1
  Hf  Hf8  1  0.967889  0.721102  0.455815  1
  Hf  Hf9  1  0.774088  0.521450  0.053501  1
  Hf  Hf10  1  0.626817  0.876851  0.749198  1
  Hf  Hf11  1  0.814120  0.081017  0.145470  1
  Hf  Hf12  1  0.478207  0.223538  0.447271  1
  Hf  Hf13  1  0.669773  0.435630  0.851140  1
  Hf  Hf14  1  0.521793  0.776462  0.552729  1
  Hf  Hf15  1  0.330227  0.564370  0.148860  1
  Hf  Hf16  1  0.373183  0.123149  0.250802  1
  Hf  Hf17  1  0.185880  0.918983  0.854530  1
  Hf  Hf18  1  0.032111  0.278898  0.544185  1
  Hf  Hf19  1  0.875540  0.628270  0.250234  1
  C  C20  1  0.576401  0.826429  0.146845  1
  C  C21  1  0.777158  0.024647  0.550831  1
  C  C22  1  0.423599  0.173571  0.853155  1
  C  C23  1  0.626121  0.375958  0.249028  1
  C  C24  1  0.274148  0.528451  0.551850  1
  C  C25  1  0.473891  0.724747  0.949655  1
  C  C26  1  0.322796  0.075305  0.651009  1
  C  C27  1  0.173085  0.424406  0.351543  1
  C  C28  1  0.974829  0.225000  0.950493  1
  C  C29  1  0.826915  0.575594  0.648457  1
  C  C30  1  0.025171  0.775000  0.049507  1
  C  C31  1  0.677204  0.924695  0.348991  1
  C  C32  1  0.725852  0.471549  0.448150  1
  C  C33  1  0.526109  0.275253  0.050345  1
  C  C34  1  0.373879  0.624042  0.750972  1
  C  C35  1  0.222842  0.975353  0.449169  1
  N  N36  1  0.074687  0.323196  0.148953  1
  N  N37  1  0.925313  0.676804  0.851047  1
