# generated using pymatgen
data_LaEr3Co6(Ni4B3)2
_symmetry_space_group_name_H-M   'P 1'
_cell_length_a   5.00610700
_cell_length_b   5.00610826
_cell_length_c   12.95530500
_cell_angle_alpha   90.00000000
_cell_angle_beta   90.00000000
_cell_angle_gamma   119.99999830
_symmetry_Int_Tables_number   1
_chemical_formula_structural   LaEr3Co6(Ni4B3)2
_chemical_formula_sum   'La1 Er3 Co6 Ni8 B6'
_cell_volume   281.17625741
_cell_formula_units_Z   1
loop_
 _symmetry_equiv_pos_site_id
 _symmetry_equiv_pos_as_xyz
  1  'x, y, z'
loop_
 _atom_site_type_symbol
 _atom_site_label
 _atom_site_symmetry_multiplicity
 _atom_site_fract_x
 _atom_site_fract_y
 _atom_site_fract_z
 _atom_site_occupancy
  La  La0  1  0.000000  0.000000  0.000000  1
  Er  Er1  1  0.000000  0.000000  0.500000  1
  Er  Er2  1  0.000000  0.000000  0.734426  1
  Er  Er3  1  0.000000  0.000000  0.265574  1
  Co  Co4  1  0.500000  0.500000  0.615235  1
  Co  Co5  1  0.500000  0.000000  0.615235  1
  Co  Co6  1  0.000000  0.500000  0.615235  1
  Co  Co7  1  0.500000  0.500000  0.384765  1
  Co  Co8  1  0.500000  0.000000  0.384765  1
  Co  Co9  1  0.000000  0.500000  0.384765  1
  Ni  Ni10  1  0.666667  0.333333  0.000000  1
  Ni  Ni11  1  0.333333  0.666667  0.000000  1
  Ni  Ni12  1  0.500000  0.500000  0.839385  1
  Ni  Ni13  1  0.500000  0.000000  0.839385  1
  Ni  Ni14  1  0.000000  0.500000  0.839385  1
  Ni  Ni15  1  0.500000  0.500000  0.160615  1
  Ni  Ni16  1  0.500000  0.000000  0.160615  1
  Ni  Ni17  1  0.000000  0.500000  0.160615  1
  B  B18  1  0.666667  0.333333  0.500000  1
  B  B19  1  0.333333  0.666667  0.500000  1
  B  B20  1  0.666667  0.333333  0.727745  1
  B  B21  1  0.333333  0.666667  0.727745  1
  B  B22  1  0.333333  0.666667  0.272255  1
  B  B23  1  0.666667  0.333333  0.272255  1
