# generated using pymatgen
data_YbEu2(AgPb)3
_symmetry_space_group_name_H-M   'P 1'
_cell_length_a   5.01327400
_cell_length_b   5.01327431
_cell_length_c   11.35390100
_cell_angle_alpha   90.00000000
_cell_angle_beta   90.00000000
_cell_angle_gamma   119.99999794
_symmetry_Int_Tables_number   1
_chemical_formula_structural   YbEu2(AgPb)3
_chemical_formula_sum   'Yb1 Eu2 Ag3 Pb3'
_cell_volume   247.12612191
_cell_formula_units_Z   1
loop_
 _symmetry_equiv_pos_site_id
 _symmetry_equiv_pos_as_xyz
  1  'x, y, z'
loop_
 _atom_site_type_symbol
 _atom_site_label
 _atom_site_symmetry_multiplicity
 _atom_site_fract_x
 _atom_site_fract_y
 _atom_site_fract_z
 _atom_site_occupancy
  Yb  Yb0  1  0.666667  0.333333  0.165746  1
  Eu  Eu1  1  0.666667  0.333333  0.832847  1
  Eu  Eu2  1  0.666667  0.333333  0.495520  1
  Ag  Ag3  1  0.333333  0.666667  0.015089  1
  Ag  Ag4  1  0.000000  0.000000  0.686518  1
  Ag  Ag5  1  0.000000  0.000000  0.291194  1
  Pb  Pb6  1  0.333333  0.666667  0.649056  1
  Pb  Pb7  1  0.333333  0.666667  0.340281  1
  Pb  Pb8  1  0.000000  0.000000  0.001650  1
