# generated using pymatgen
data_Ho4Al24Cu2Ni7
_symmetry_space_group_name_H-M   'P 1'
_cell_length_a   7.34475641
_cell_length_b   7.37408485
_cell_length_c   12.76012902
_cell_angle_alpha   84.60048269
_cell_angle_beta   78.95819946
_cell_angle_gamma   59.90737196
_symmetry_Int_Tables_number   1
_chemical_formula_structural   Ho4Al24Cu2Ni7
_chemical_formula_sum   'Ho4 Al24 Cu2 Ni7'
_cell_volume   586.87938039
_cell_formula_units_Z   1
loop_
 _symmetry_equiv_pos_site_id
 _symmetry_equiv_pos_as_xyz
  1  'x, y, z'
loop_
 _atom_site_type_symbol
 _atom_site_label
 _atom_site_symmetry_multiplicity
 _atom_site_fract_x
 _atom_site_fract_y
 _atom_site_fract_z
 _atom_site_occupancy
  Ho  Ho0  1  0.396291  0.168496  0.805906  1
  Ho  Ho1  1  0.603709  0.831504  0.194094  1
  Ho  Ho2  1  0.734712  0.495885  0.805867  1
  Ho  Ho3  1  0.265288  0.504115  0.194133  1
  Al  Al4  1  0.680006  0.832439  0.947970  1
  Al  Al5  1  0.319994  0.167561  0.052030  1
  Al  Al6  1  0.147560  0.830396  0.564263  1
  Al  Al7  1  0.852440  0.169604  0.435737  1
  Al  Al8  1  0.476498  0.166460  0.558334  1
  Al  Al9  1  0.523502  0.833540  0.441666  1
  Al  Al10  1  0.217661  0.170008  0.333162  1
  Al  Al11  1  0.782339  0.829992  0.666838  1
  Al  Al12  1  0.434924  0.510052  0.666544  1
  Al  Al13  1  0.565076  0.489948  0.333456  1
  Al  Al14  1  0.115275  0.160319  0.665531  1
  Al  Al15  1  0.884725  0.839681  0.334469  1
  Al  Al16  1  0.353786  0.497274  0.947854  1
  Al  Al17  1  0.646214  0.502726  0.052146  1
  Al  Al18  1  0.014028  0.169415  0.961105  1
  Al  Al19  1  0.985972  0.830585  0.038895  1
  Al  Al20  1  0.186127  0.495525  0.441839  1
  Al  Al21  1  0.813873  0.504475  0.558161  1
  Al  Al22  1  0.726933  0.163816  0.184653  1
  Al  Al23  1  0.273067  0.836184  0.815347  1
  Al  Al24  1  0.061562  0.624656  0.814219  1
  Al  Al25  1  0.938438  0.375344  0.185781  1
  Al  Al26  1  0.853642  0.043008  0.818773  1
  Al  Al27  1  0.146358  0.956992  0.181227  1
  Cu  Cu28  1  0.778662  0.174575  0.638076  1
  Cu  Cu29  1  0.221338  0.825425  0.361924  1
  Ni  Ni30  1  0.120850  0.493552  0.636952  1
  Ni  Ni31  1  0.879150  0.506448  0.363048  1
  Ni  Ni32  1  0.658201  0.171345  0.000243  1
  Ni  Ni33  1  0.341799  0.828655  0.999757  1
  Ni  Ni34  1  0.538903  0.167496  0.363508  1
  Ni  Ni35  1  0.461097  0.832504  0.636492  1
  Ni  Ni36  1  0.000000  0.500000  0.000000  1
