# generated using pymatgen
data_Zr8V11Si16Tc
_symmetry_space_group_name_H-M   'P 1'
_cell_length_a   6.64680389
_cell_length_b   6.64083750
_cell_length_c   12.31460118
_cell_angle_alpha   90.07526527
_cell_angle_beta   89.94269362
_cell_angle_gamma   89.98460793
_symmetry_Int_Tables_number   1
_chemical_formula_structural   Zr8V11Si16Tc
_chemical_formula_sum   'Zr8 V11 Si16 Tc1'
_cell_volume   543.56997837
_cell_formula_units_Z   1
loop_
 _symmetry_equiv_pos_site_id
 _symmetry_equiv_pos_as_xyz
  1  'x, y, z'
loop_
 _atom_site_type_symbol
 _atom_site_label
 _atom_site_symmetry_multiplicity
 _atom_site_fract_x
 _atom_site_fract_y
 _atom_site_fract_z
 _atom_site_occupancy
  Zr  Zr0  1  0.002319  0.662288  0.030337  1
  Zr  Zr1  1  0.996042  0.338307  0.531588  1
  Zr  Zr2  1  0.661872  0.002834  0.969666  1
  Zr  Zr3  1  0.161442  0.497596  0.780678  1
  Zr  Zr4  1  0.837537  0.502484  0.280264  1
  Zr  Zr5  1  0.497309  0.158646  0.217980  1
  Zr  Zr6  1  0.503693  0.838634  0.719555  1
  Zr  Zr7  1  0.338455  0.994760  0.469173  1
  V  V8  1  0.839609  0.996637  0.373063  1
  V  V9  1  0.005288  0.162518  0.126540  1
  V  V10  1  0.997062  0.839224  0.626508  1
  V  V11  1  0.660019  0.494771  0.876372  1
  V  V12  1  0.504441  0.340688  0.623514  1
  V  V13  1  0.495516  0.661464  0.122445  1
  V  V14  1  0.160258  0.005226  0.873712  1
  V  V15  1  0.670909  0.667614  0.501342  1
  V  V16  1  0.833470  0.167066  0.749822  1
  V  V17  1  0.166427  0.836048  0.248929  1
  V  V18  1  0.334019  0.333755  0.000021  1
  Si  Si19  1  0.037418  0.711527  0.436179  1
  Si  Si20  1  0.960389  0.289478  0.935657  1
  Si  Si21  1  0.710528  0.038966  0.564582  1
  Si  Si22  1  0.210098  0.462497  0.184988  1
  Si  Si23  1  0.789662  0.539610  0.686123  1
  Si  Si24  1  0.460040  0.210116  0.814205  1
  Si  Si25  1  0.538742  0.788184  0.314092  1
  Si  Si26  1  0.289251  0.960542  0.063730  1
  Si  Si27  1  0.874917  0.795111  0.820836  1
  Si  Si28  1  0.124764  0.202591  0.319207  1
  Si  Si29  1  0.795082  0.874855  0.178993  1
  Si  Si30  1  0.295566  0.626297  0.572051  1
  Si  Si31  1  0.705764  0.374805  0.070916  1
  Si  Si32  1  0.626926  0.294931  0.430514  1
  Si  Si33  1  0.374474  0.705292  0.929161  1
  Si  Si34  1  0.206003  0.125535  0.679302  1
  Tc  Tc35  1  0.334689  0.499105  0.377956  1
