# generated using pymatgen
data_Li4Nd(ThPb2)2
_symmetry_space_group_name_H-M   'P 1'
_cell_length_a   4.80274964
_cell_length_b   7.39323895
_cell_length_c   8.88223279
_cell_angle_alpha   114.59371987
_cell_angle_beta   105.68552384
_cell_angle_gamma   89.99999272
_symmetry_Int_Tables_number   1
_chemical_formula_structural   Li4Nd(ThPb2)2
_chemical_formula_sum   'Li4 Nd1 Th2 Pb4'
_cell_volume   273.80802894
_cell_formula_units_Z   1
loop_
 _symmetry_equiv_pos_site_id
 _symmetry_equiv_pos_as_xyz
  1  'x, y, z'
loop_
 _atom_site_type_symbol
 _atom_site_label
 _atom_site_symmetry_multiplicity
 _atom_site_fract_x
 _atom_site_fract_y
 _atom_site_fract_z
 _atom_site_occupancy
  Li  Li0  1  0.672493  0.987740  0.344984  1
  Li  Li1  1  0.328194  0.014976  0.656388  1
  Li  Li2  1  0.328194  0.641413  0.656388  1
  Li  Li3  1  0.672493  0.357244  0.344984  1
  Nd  Nd4  1  0.874475  0.374475  0.748952  1
  Th  Th5  1  0.000066  0.000066  0.000132  1
  Th  Th6  1  0.124123  0.624123  0.248246  1
  Pb  Pb7  1  0.501076  0.710482  0.002152  1
  Pb  Pb8  1  0.501076  0.291670  0.002152  1
  Pb  Pb9  1  0.782869  0.782869  0.565738  1
  Pb  Pb10  1  0.214941  0.214941  0.429882  1
