# generated using pymatgen
data_Zr4Co20Si11As
_symmetry_space_group_name_H-M   'P 1'
_cell_length_a   3.65233700
_cell_length_b   11.78987449
_cell_length_c   10.35272630
_cell_angle_alpha   89.85473292
_cell_angle_beta   90.00000000
_cell_angle_gamma   90.00000000
_symmetry_Int_Tables_number   1
_chemical_formula_structural   Zr4Co20Si11As
_chemical_formula_sum   'Zr4 Co20 Si11 As1'
_cell_volume   445.79311989
_cell_formula_units_Z   1
loop_
 _symmetry_equiv_pos_site_id
 _symmetry_equiv_pos_as_xyz
  1  'x, y, z'
loop_
 _atom_site_type_symbol
 _atom_site_label
 _atom_site_symmetry_multiplicity
 _atom_site_fract_x
 _atom_site_fract_y
 _atom_site_fract_z
 _atom_site_occupancy
  Zr  Zr0  1  0.750000  0.702630  0.083726  1
  Zr  Zr1  1  0.250000  0.295444  0.922324  1
  Zr  Zr2  1  0.250000  0.797301  0.583356  1
  Zr  Zr3  1  0.750000  0.202107  0.414639  1
  Co  Co4  1  0.750000  0.698628  0.384114  1
  Co  Co5  1  0.250000  0.299886  0.612080  1
  Co  Co6  1  0.250000  0.801954  0.884529  1
  Co  Co7  1  0.750000  0.198233  0.114916  1
  Co  Co8  1  0.750000  0.991885  0.211560  1
  Co  Co9  1  0.250000  0.007853  0.787735  1
  Co  Co10  1  0.250000  0.515283  0.712388  1
  Co  Co11  1  0.750000  0.492267  0.287803  1
  Co  Co12  1  0.750000  0.677306  0.783688  1
  Co  Co13  1  0.250000  0.322851  0.215147  1
  Co  Co14  1  0.250000  0.823613  0.284357  1
  Co  Co15  1  0.750000  0.173857  0.714784  1
  Co  Co16  1  0.750000  0.929089  0.970720  1
  Co  Co17  1  0.250000  0.069976  0.029454  1
  Co  Co18  1  0.250000  0.570246  0.470219  1
  Co  Co19  1  0.750000  0.429125  0.528128  1
  Co  Co20  1  0.750000  0.988973  0.592087  1
  Co  Co21  1  0.250000  0.010137  0.407081  1
  Co  Co22  1  0.250000  0.510775  0.093145  1
  Co  Co23  1  0.750000  0.491525  0.910392  1
  Si  Si24  1  0.750000  0.612635  0.584875  1
  Si  Si25  1  0.250000  0.388261  0.412570  1
  Si  Si26  1  0.250000  0.887544  0.085970  1
  Si  Si27  1  0.750000  0.110839  0.914149  1
  Si  Si28  1  0.750000  0.890132  0.400539  1
  Si  Si29  1  0.250000  0.108693  0.597970  1
  Si  Si30  1  0.250000  0.611399  0.902006  1
  Si  Si31  1  0.750000  0.390532  0.101046  1
  Si  Si32  1  0.750000  0.871459  0.768708  1
  Si  Si33  1  0.250000  0.128163  0.230792  1
  Si  Si34  1  0.250000  0.628826  0.268910  1
  As  As35  1  0.750000  0.370573  0.734093  1
