# generated using pymatgen
data_La8Sc12Si15Tc
_symmetry_space_group_name_H-M   'P 1'
_cell_length_a   7.30977449
_cell_length_b   7.64616643
_cell_length_c   14.26426700
_cell_angle_alpha   90.00000000
_cell_angle_beta   90.00000000
_cell_angle_gamma   89.95980292
_symmetry_Int_Tables_number   1
_chemical_formula_structural   La8Sc12Si15Tc
_chemical_formula_sum   'La8 Sc12 Si15 Tc1'
_cell_volume   797.25468196
_cell_formula_units_Z   1
loop_
 _symmetry_equiv_pos_site_id
 _symmetry_equiv_pos_as_xyz
  1  'x, y, z'
loop_
 _atom_site_type_symbol
 _atom_site_label
 _atom_site_symmetry_multiplicity
 _atom_site_fract_x
 _atom_site_fract_y
 _atom_site_fract_z
 _atom_site_occupancy
  La  La0  1  0.990226  0.668827  0.599965  1
  La  La1  1  0.010644  0.324216  0.402939  1
  La  La2  1  0.510375  0.170026  0.403720  1
  La  La3  1  0.010644  0.324216  0.097061  1
  La  La4  1  0.488675  0.831075  0.596343  1
  La  La5  1  0.990226  0.668827  0.900035  1
  La  La6  1  0.488675  0.831075  0.903657  1
  La  La7  1  0.510375  0.170026  0.096280  1
  Sc  Sc8  1  0.151414  0.017619  0.750000  1
  Sc  Sc9  1  0.841879  0.995038  0.250000  1
  Sc  Sc10  1  0.338731  0.499029  0.250000  1
  Sc  Sc11  1  0.662370  0.493478  0.750000  1
  Sc  Sc12  1  0.318756  0.328951  0.627127  1
  Sc  Sc13  1  0.672074  0.670261  0.373333  1
  Sc  Sc14  1  0.173160  0.822896  0.374397  1
  Sc  Sc15  1  0.672074  0.670261  0.126667  1
  Sc  Sc16  1  0.837693  0.184266  0.627380  1
  Sc  Sc17  1  0.318756  0.328951  0.872873  1
  Sc  Sc18  1  0.837693  0.184266  0.872620  1
  Sc  Sc19  1  0.173160  0.822896  0.125603  1
  Si  Si20  1  0.969077  0.628171  0.250000  1
  Si  Si21  1  0.469784  0.872400  0.250000  1
  Si  Si22  1  0.530550  0.123956  0.750000  1
  Si  Si23  1  0.294279  0.616937  0.750000  1
  Si  Si24  1  0.707524  0.380257  0.250000  1
  Si  Si25  1  0.209060  0.117108  0.250000  1
  Si  Si26  1  0.781933  0.889183  0.750000  1
  Si  Si27  1  0.150947  0.031976  0.538235  1
  Si  Si28  1  0.852418  0.959874  0.461214  1
  Si  Si29  1  0.351303  0.535927  0.459037  1
  Si  Si30  1  0.852418  0.959874  0.038786  1
  Si  Si31  1  0.648502  0.465648  0.539093  1
  Si  Si32  1  0.150947  0.031976  0.961765  1
  Si  Si33  1  0.648502  0.465648  0.960907  1
  Si  Si34  1  0.351303  0.535927  0.040963  1
  Tc  Tc35  1  0.033855  0.378938  0.750000  1
