# generated using pymatgen
data_Eu2B4Ir3Ru
_symmetry_space_group_name_H-M   'P 1'
_cell_length_a   7.03036845
_cell_length_b   6.11162025
_cell_length_c   5.59247168
_cell_angle_alpha   73.68627250
_cell_angle_beta   56.54476863
_cell_angle_gamma   50.13184647
_symmetry_Int_Tables_number   1
_chemical_formula_structural   Eu2B4Ir3Ru
_chemical_formula_sum   'Eu2 B4 Ir3 Ru1'
_cell_volume   152.88298319
_cell_formula_units_Z   1
loop_
 _symmetry_equiv_pos_site_id
 _symmetry_equiv_pos_as_xyz
  1  'x, y, z'
loop_
 _atom_site_type_symbol
 _atom_site_label
 _atom_site_symmetry_multiplicity
 _atom_site_fract_x
 _atom_site_fract_y
 _atom_site_fract_z
 _atom_site_occupancy
  Eu  Eu0  1  0.749176  0.749176  0.750824  1
  Eu  Eu1  1  0.498379  0.498379  0.501621  1
  B  B2  1  0.076809  0.427631  0.069486  1
  B  B3  1  0.819732  0.177561  0.820633  1
  B  B4  1  0.427631  0.076809  0.426075  1
  B  B5  1  0.177561  0.819732  0.182074  1
  Ir  Ir6  1  0.132364  0.132364  0.867636  1
  Ir  Ir7  1  0.867788  0.867788  0.132212  1
  Ir  Ir8  1  0.117830  0.117830  0.382170  1
  Ru  Ru9  1  0.382732  0.382732  0.117268  1
