# generated using pymatgen
data_DyAlAgPt3
_symmetry_space_group_name_H-M   'P 1'
_cell_length_a   5.15013987
_cell_length_b   5.15013892
_cell_length_c   5.15014100
_cell_angle_alpha   64.49495809
_cell_angle_beta   64.49497543
_cell_angle_gamma   64.49497017
_symmetry_Int_Tables_number   1
_chemical_formula_structural   DyAlAgPt3
_chemical_formula_sum   'Dy1 Al1 Ag1 Pt3'
_cell_volume   106.11485167
_cell_formula_units_Z   1
loop_
 _symmetry_equiv_pos_site_id
 _symmetry_equiv_pos_as_xyz
  1  'x, y, z'
loop_
 _atom_site_type_symbol
 _atom_site_label
 _atom_site_symmetry_multiplicity
 _atom_site_fract_x
 _atom_site_fract_y
 _atom_site_fract_z
 _atom_site_occupancy
  Dy  Dy0  1  0.245402  0.245402  0.245402  1
  Al  Al1  1  0.627239  0.627239  0.627239  1
  Ag  Ag2  1  0.998252  0.998252  0.998252  1
  Pt  Pt3  1  0.627290  0.627290  0.124526  1
  Pt  Pt4  1  0.627290  0.124526  0.627290  1
  Pt  Pt5  1  0.124526  0.627290  0.627290  1
