# generated using pymatgen
data_Nb3IBr7
_symmetry_space_group_name_H-M   'P 1'
_cell_length_a   7.20566000
_cell_length_b   7.20565897
_cell_length_c   14.45766000
_cell_angle_alpha   90.00000000
_cell_angle_beta   90.00000000
_cell_angle_gamma   119.99999554
_symmetry_Int_Tables_number   1
_chemical_formula_structural   Nb3IBr7
_chemical_formula_sum   'Nb6 I2 Br14'
_cell_volume   650.09395616
_cell_formula_units_Z   2
loop_
 _symmetry_equiv_pos_site_id
 _symmetry_equiv_pos_as_xyz
  1  'x, y, z'
loop_
 _atom_site_type_symbol
 _atom_site_label
 _atom_site_symmetry_multiplicity
 _atom_site_fract_x
 _atom_site_fract_y
 _atom_site_fract_z
 _atom_site_occupancy
  Nb  Nb0  1  0.531322  0.468678  0.757148  1
  Nb  Nb1  1  0.531322  0.062644  0.757148  1
  Nb  Nb2  1  0.468678  0.531322  0.242852  1
  Nb  Nb3  1  0.468678  0.937356  0.242852  1
  Nb  Nb4  1  0.062644  0.531322  0.242852  1
  Nb  Nb5  1  0.937356  0.468678  0.757148  1
  I  I6  1  0.666667  0.333333  0.605719  1
  I  I7  1  0.333333  0.666667  0.394281  1
  Br  Br8  1  0.835294  0.164706  0.340773  1
  Br  Br9  1  0.835294  0.670587  0.340773  1
  Br  Br10  1  0.329413  0.164706  0.340773  1
  Br  Br11  1  0.670587  0.835294  0.659227  1
  Br  Br12  1  0.164706  0.329413  0.659227  1
  Br  Br13  1  0.164706  0.835294  0.659227  1
  Br  Br14  1  0.168553  0.831447  0.120915  1
  Br  Br15  1  0.168553  0.337106  0.120915  1
  Br  Br16  1  0.333333  0.666667  0.856127  1
  Br  Br17  1  0.666667  0.333333  0.143873  1
  Br  Br18  1  0.831447  0.168553  0.879085  1
  Br  Br19  1  0.831447  0.662894  0.879085  1
  Br  Br20  1  0.337106  0.168553  0.879085  1
  Br  Br21  1  0.662894  0.831447  0.120915  1
