# generated using pymatgen
data_Ho16Al4Fe3Pt
_symmetry_space_group_name_H-M   'P 1'
_cell_length_a   9.36619241
_cell_length_b   9.38644580
_cell_length_c   9.38644500
_cell_angle_alpha   60.00000634
_cell_angle_beta   59.92844916
_cell_angle_gamma   59.92845027
_symmetry_Int_Tables_number   1
_chemical_formula_structural   Ho16Al4Fe3Pt
_chemical_formula_sum   'Ho16 Al4 Fe3 Pt1'
_cell_volume   582.88098168
_cell_formula_units_Z   1
loop_
 _symmetry_equiv_pos_site_id
 _symmetry_equiv_pos_as_xyz
  1  'x, y, z'
loop_
 _atom_site_type_symbol
 _atom_site_label
 _atom_site_symmetry_multiplicity
 _atom_site_fract_x
 _atom_site_fract_y
 _atom_site_fract_z
 _atom_site_occupancy
  Ho  Ho0  1  0.343080  0.355200  0.355200  1
  Ho  Ho1  1  0.343080  0.355200  0.946520  1
  Ho  Ho2  1  0.343080  0.946520  0.355200  1
  Ho  Ho3  1  0.957142  0.347619  0.347619  1
  Ho  Ho4  1  0.814675  0.194028  0.194028  1
  Ho  Ho5  1  0.192394  0.807470  0.807470  1
  Ho  Ho6  1  0.192394  0.807470  0.192666  1
  Ho  Ho7  1  0.814675  0.194028  0.797269  1
  Ho  Ho8  1  0.192394  0.192666  0.807470  1
  Ho  Ho9  1  0.814675  0.797269  0.194028  1
  Ho  Ho10  1  0.937030  0.561406  0.561405  1
  Ho  Ho11  1  0.557881  0.939490  0.939489  1
  Ho  Ho12  1  0.557882  0.939490  0.563139  1
  Ho  Ho13  1  0.937030  0.561406  0.940159  1
  Ho  Ho14  1  0.557881  0.563140  0.939489  1
  Ho  Ho15  1  0.937030  0.940160  0.561405  1
  Al  Al16  1  0.578753  0.575912  0.575912  1
  Al  Al17  1  0.578753  0.575912  0.269422  1
  Al  Al18  1  0.578753  0.269422  0.575912  1
  Al  Al19  1  0.267382  0.577539  0.577539  1
  Fe  Fe20  1  0.142678  0.137462  0.137462  1
  Fe  Fe21  1  0.142678  0.137462  0.582398  1
  Fe  Fe22  1  0.142678  0.582398  0.137462  1
  Pt  Pt23  1  0.576007  0.141331  0.141331  1
