# generated using pymatgen
data_K6GaMoF12
_symmetry_space_group_name_H-M   'P 1'
_cell_length_a   6.41550116
_cell_length_b   6.18650709
_cell_length_c   10.77139000
_cell_angle_alpha   55.13396594
_cell_angle_beta   90.15723647
_cell_angle_gamma   89.88157868
_symmetry_Int_Tables_number   1
_chemical_formula_structural   K6GaMoF12
_chemical_formula_sum   'K6 Ga1 Mo1 F12'
_cell_volume   350.76457700
_cell_formula_units_Z   1
loop_
 _symmetry_equiv_pos_site_id
 _symmetry_equiv_pos_as_xyz
  1  'x, y, z'
loop_
 _atom_site_type_symbol
 _atom_site_label
 _atom_site_symmetry_multiplicity
 _atom_site_fract_x
 _atom_site_fract_y
 _atom_site_fract_z
 _atom_site_occupancy
  K  K0  1  0.500000  0.500000  0.000000  1
  K  K1  1  0.000000  0.500000  0.500000  1
  K  K2  1  0.049299  0.725497  0.762405  1
  K  K3  1  0.950701  0.274503  0.237595  1
  K  K4  1  0.551684  0.257566  0.757680  1
  K  K5  1  0.448316  0.742434  0.242320  1
  Ga  Ga6  1  0.000000  0.000000  0.000000  1
  Mo  Mo7  1  0.500000  0.000000  0.500000  1
  F  F8  1  0.771265  0.765257  0.568465  1
  F  F9  1  0.228735  0.234743  0.431535  1
  F  F10  1  0.247502  0.219453  0.944606  1
  F  F11  1  0.752498  0.780547  0.055394  1
  F  F12  1  0.449013  0.883321  0.722988  1
  F  F13  1  0.550987  0.116679  0.277012  1
  F  F14  1  0.959030  0.115150  0.793030  1
  F  F15  1  0.040970  0.884850  0.206970  1
  F  F16  1  0.329034  0.671918  0.549271  1
  F  F17  1  0.670966  0.328082  0.450729  1
  F  F18  1  0.828979  0.292942  0.960415  1
  F  F19  1  0.171021  0.707058  0.039585  1
