# generated using pymatgen
data_Tb4VRe3B16
_symmetry_space_group_name_H-M   'P 1'
_cell_length_a   3.59428700
_cell_length_b   5.98898274
_cell_length_c   11.59425918
_cell_angle_alpha   90.14416222
_cell_angle_beta   90.00000000
_cell_angle_gamma   90.00000000
_symmetry_Int_Tables_number   1
_chemical_formula_structural   Tb4VRe3B16
_chemical_formula_sum   'Tb4 V1 Re3 B16'
_cell_volume   249.57865680
_cell_formula_units_Z   1
loop_
 _symmetry_equiv_pos_site_id
 _symmetry_equiv_pos_as_xyz
  1  'x, y, z'
loop_
 _atom_site_type_symbol
 _atom_site_label
 _atom_site_symmetry_multiplicity
 _atom_site_fract_x
 _atom_site_fract_y
 _atom_site_fract_z
 _atom_site_occupancy
  Tb  Tb0  1  0.000000  0.125347  0.149159  1
  Tb  Tb1  1  0.000000  0.875473  0.850564  1
  Tb  Tb2  1  0.000000  0.627187  0.349383  1
  Tb  Tb3  1  0.000000  0.372539  0.652053  1
  V  V4  1  0.000000  0.372548  0.917347  1
  Re  Re5  1  0.000000  0.133621  0.412103  1
  Re  Re6  1  0.000000  0.866345  0.586662  1
  Re  Re7  1  0.000000  0.626357  0.083651  1
  B  B8  1  0.500000  0.475946  0.191617  1
  B  B9  1  0.500000  0.523644  0.808228  1
  B  B10  1  0.500000  0.974916  0.308203  1
  B  B11  1  0.500000  0.025222  0.691972  1
  B  B12  1  0.500000  0.284457  0.314451  1
  B  B13  1  0.500000  0.715526  0.685395  1
  B  B14  1  0.500000  0.785246  0.184280  1
  B  B15  1  0.500000  0.215080  0.815486  1
  B  B16  1  0.500000  0.363346  0.468814  1
  B  B17  1  0.500000  0.636679  0.531335  1
  B  B18  1  0.500000  0.864102  0.032320  1
  B  B19  1  0.500000  0.135754  0.967220  1
  B  B20  1  0.500000  0.386026  0.046587  1
  B  B21  1  0.500000  0.614050  0.952939  1
  B  B22  1  0.500000  0.886706  0.453069  1
  B  B23  1  0.500000  0.113884  0.547162  1
