# generated using pymatgen
data_Dy2Er(TmIr)2
_symmetry_space_group_name_H-M   'P 1'
_cell_length_a   6.44741452
_cell_length_b   7.18301736
_cell_length_c   8.44789007
_cell_angle_alpha   96.62935992
_cell_angle_beta   112.43277037
_cell_angle_gamma   89.99999300
_symmetry_Int_Tables_number   1
_chemical_formula_structural   Dy2Er(TmIr)2
_chemical_formula_sum   'Dy4 Er2 Tm4 Ir4'
_cell_volume   358.80028933
_cell_formula_units_Z   2
loop_
 _symmetry_equiv_pos_site_id
 _symmetry_equiv_pos_as_xyz
  1  'x, y, z'
loop_
 _atom_site_type_symbol
 _atom_site_label
 _atom_site_symmetry_multiplicity
 _atom_site_fract_x
 _atom_site_fract_y
 _atom_site_fract_z
 _atom_site_occupancy
  Dy  Dy0  1  0.970900  0.919427  0.184110  1
  Dy  Dy1  1  0.786789  0.580573  0.815890  1
  Dy  Dy2  1  0.029207  0.080858  0.815883  1
  Dy  Dy3  1  0.213325  0.419142  0.184117  1
  Er  Er4  1  0.652342  0.818176  0.441032  1
  Er  Er5  1  0.211309  0.681824  0.558968  1
  Tm  Tm6  1  0.347593  0.182406  0.559035  1
  Tm  Tm7  1  0.788559  0.317594  0.440965  1
  Tm  Tm8  1  0.427770  0.750000  0.000000  1
  Tm  Tm9  1  0.572301  0.250000  0.000000  1
  Ir  Ir10  1  0.822915  0.573037  0.219783  1
  Ir  Ir11  1  0.603132  0.926963  0.780217  1
  Ir  Ir12  1  0.176851  0.426380  0.779839  1
  Ir  Ir13  1  0.397010  0.073620  0.220161  1
