# generated using pymatgen
data_Tb2YInSi2Ag3
_symmetry_space_group_name_H-M   'P 1'
_cell_length_a   7.26340600
_cell_length_b   7.25560860
_cell_length_c   4.26207000
_cell_angle_alpha   90.00000000
_cell_angle_beta   90.00000000
_cell_angle_gamma   120.03553798
_symmetry_Int_Tables_number   1
_chemical_formula_structural   Tb2YInSi2Ag3
_chemical_formula_sum   'Tb2 Y1 In1 Si2 Ag3'
_cell_volume   194.45080413
_cell_formula_units_Z   1
loop_
 _symmetry_equiv_pos_site_id
 _symmetry_equiv_pos_as_xyz
  1  'x, y, z'
loop_
 _atom_site_type_symbol
 _atom_site_label
 _atom_site_symmetry_multiplicity
 _atom_site_fract_x
 _atom_site_fract_y
 _atom_site_fract_z
 _atom_site_occupancy
  Tb  Tb0  1  0.999915  0.431612  0.500000  1
  Tb  Tb1  1  0.568303  0.568388  0.500000  1
  Y  Y2  1  0.431574  0.000000  0.500000  1
  In  In3  1  0.000177  0.000000  0.500000  1
  Si  Si4  1  0.333395  0.666826  0.000000  1
  Si  Si5  1  0.666570  0.333174  0.000000  1
  Ag  Ag6  1  0.000075  0.736207  0.000000  1
  Ag  Ag7  1  0.263868  0.263793  0.000000  1
  Ag  Ag8  1  0.736124  0.000000  0.000000  1
