# generated using pymatgen
data_NaS27
_symmetry_space_group_name_H-M   'P 1'
_cell_length_a   14.54946851
_cell_length_b   14.54946869
_cell_length_c   14.54946836
_cell_angle_alpha   118.59456567
_cell_angle_beta   118.59456409
_cell_angle_gamma   118.59456349
_symmetry_Int_Tables_number   1
_chemical_formula_structural   NaS27
_chemical_formula_sum   'Na1 S27'
_cell_volume   941.95376504
_cell_formula_units_Z   1
loop_
 _symmetry_equiv_pos_site_id
 _symmetry_equiv_pos_as_xyz
  1  'x, y, z'
loop_
 _atom_site_type_symbol
 _atom_site_label
 _atom_site_symmetry_multiplicity
 _atom_site_fract_x
 _atom_site_fract_y
 _atom_site_fract_z
 _atom_site_occupancy
  Na  Na0  1  0.448773  0.448773  0.448773  1
  S  S1  1  0.028643  0.630297  0.630297  1
  S  S2  1  0.630297  0.630297  0.028643  1
  S  S3  1  0.630297  0.028643  0.630297  1
  S  S4  1  0.240649  0.854655  0.721092  1
  S  S5  1  0.854655  0.721092  0.240649  1
  S  S6  1  0.721092  0.240649  0.854655  1
  S  S7  1  0.854655  0.240649  0.721092  1
  S  S8  1  0.240649  0.721092  0.854655  1
  S  S9  1  0.721092  0.854655  0.240649  1
  S  S10  1  0.103316  0.633634  0.445239  1
  S  S11  1  0.633634  0.445239  0.103316  1
  S  S12  1  0.445239  0.103316  0.633634  1
  S  S13  1  0.633634  0.103316  0.445239  1
  S  S14  1  0.103316  0.445239  0.633634  1
  S  S15  1  0.445239  0.633634  0.103316  1
  S  S16  1  0.349281  0.731298  0.596694  1
  S  S17  1  0.731298  0.596694  0.349281  1
  S  S18  1  0.596694  0.349281  0.731298  1
  S  S19  1  0.731298  0.349281  0.596694  1
  S  S20  1  0.349281  0.596694  0.731298  1
  S  S21  1  0.596694  0.731298  0.349281  1
  S  S22  1  0.186398  0.455829  0.455829  1
  S  S23  1  0.455829  0.455829  0.186398  1
  S  S24  1  0.455829  0.186398  0.455829  1
  S  S25  1  0.012464  0.923428  0.923428  1
  S  S26  1  0.923428  0.923428  0.012464  1
  S  S27  1  0.923428  0.012464  0.923428  1
