# generated using pymatgen
data_Pr3Nd(BeAs)12
_symmetry_space_group_name_H-M   'P 1'
_cell_length_a   3.85825900
_cell_length_b   10.92104129
_cell_length_c   11.89305500
_cell_angle_alpha   89.97220475
_cell_angle_beta   90.00000000
_cell_angle_gamma   90.00000000
_symmetry_Int_Tables_number   1
_chemical_formula_structural   Pr3Nd(BeAs)12
_chemical_formula_sum   'Pr3 Nd1 Be12 As12'
_cell_volume   501.12815443
_cell_formula_units_Z   1
loop_
 _symmetry_equiv_pos_site_id
 _symmetry_equiv_pos_as_xyz
  1  'x, y, z'
loop_
 _atom_site_type_symbol
 _atom_site_label
 _atom_site_symmetry_multiplicity
 _atom_site_fract_x
 _atom_site_fract_y
 _atom_site_fract_z
 _atom_site_occupancy
  Pr  Pr0  1  0.750000  0.944390  0.337379  1
  Pr  Pr1  1  0.250000  0.444447  0.162706  1
  Pr  Pr2  1  0.750000  0.555695  0.837579  1
  Nd  Nd3  1  0.250000  0.055714  0.662571  1
  Be  Be4  1  0.750000  0.242085  0.454613  1
  Be  Be5  1  0.250000  0.742417  0.045426  1
  Be  Be6  1  0.750000  0.257543  0.954199  1
  Be  Be7  1  0.250000  0.757896  0.545654  1
  Be  Be8  1  0.750000  0.645977  0.286529  1
  Be  Be9  1  0.250000  0.146157  0.213544  1
  Be  Be10  1  0.750000  0.854097  0.786454  1
  Be  Be11  1  0.250000  0.354103  0.713000  1
  Be  Be12  1  0.750000  0.037242  0.063565  1
  Be  Be13  1  0.250000  0.537088  0.436405  1
  Be  Be14  1  0.750000  0.462573  0.563800  1
  Be  Be15  1  0.250000  0.962706  0.936355  1
  As  As16  1  0.750000  0.438644  0.370936  1
  As  As17  1  0.250000  0.938749  0.129263  1
  As  As18  1  0.750000  0.061218  0.870373  1
  As  As19  1  0.250000  0.561278  0.629260  1
  As  As20  1  0.750000  0.227388  0.144765  1
  As  As21  1  0.250000  0.727244  0.355242  1
  As  As22  1  0.750000  0.271776  0.644970  1
  As  As23  1  0.250000  0.772683  0.855084  1
  As  As24  1  0.750000  0.641839  0.092404  1
  As  As25  1  0.250000  0.141481  0.407994  1
  As  As26  1  0.750000  0.859374  0.592523  1
  As  As27  1  0.250000  0.358196  0.907405  1
