# generated using pymatgen
data_Na5ReNO4
_symmetry_space_group_name_H-M   'P 1'
_cell_length_a   5.75364866
_cell_length_b   5.75364917
_cell_length_c   10.79703700
_cell_angle_alpha   90.00000000
_cell_angle_beta   90.00000000
_cell_angle_gamma   118.76344135
_symmetry_Int_Tables_number   1
_chemical_formula_structural   Na5ReNO4
_chemical_formula_sum   'Na10 Re2 N2 O8'
_cell_volume   313.32832382
_cell_formula_units_Z   2
loop_
 _symmetry_equiv_pos_site_id
 _symmetry_equiv_pos_as_xyz
  1  'x, y, z'
loop_
 _atom_site_type_symbol
 _atom_site_label
 _atom_site_symmetry_multiplicity
 _atom_site_fract_x
 _atom_site_fract_y
 _atom_site_fract_z
 _atom_site_occupancy
  Na  Na0  1  0.191335  0.808665  0.500000  1
  Na  Na1  1  0.191335  0.808665  0.000000  1
  Na  Na2  1  0.548222  0.169221  0.750000  1
  Na  Na3  1  0.169221  0.548222  0.750000  1
  Na  Na4  1  0.500000  0.500000  0.000000  1
  Na  Na5  1  0.808665  0.191335  0.500000  1
  Na  Na6  1  0.808665  0.191335  0.000000  1
  Na  Na7  1  0.500000  0.500000  0.500000  1
  Na  Na8  1  0.451778  0.830779  0.250000  1
  Na  Na9  1  0.830779  0.451778  0.250000  1
  Re  Re10  1  0.200793  0.200793  0.250000  1
  Re  Re11  1  0.799207  0.799207  0.750000  1
  N  N12  1  0.903631  0.903631  0.250000  1
  N  N13  1  0.096369  0.096369  0.750000  1
  O  O14  1  0.833365  0.558162  0.627598  1
  O  O15  1  0.558162  0.833365  0.627598  1
  O  O16  1  0.166635  0.441838  0.372402  1
  O  O17  1  0.441838  0.166635  0.372402  1
  O  O18  1  0.441838  0.166635  0.127598  1
  O  O19  1  0.166635  0.441838  0.127598  1
  O  O20  1  0.558162  0.833365  0.872402  1
  O  O21  1  0.833365  0.558162  0.872402  1
