# generated using pymatgen
data_TbCdCuPt3
_symmetry_space_group_name_H-M   'P 1'
_cell_length_a   5.19936193
_cell_length_b   5.45905919
_cell_length_c   5.45906000
_cell_angle_alpha   60.00000721
_cell_angle_beta   58.33351777
_cell_angle_gamma   58.33353142
_symmetry_Int_Tables_number   1
_chemical_formula_structural   TbCdCuPt3
_chemical_formula_sum   'Tb1 Cd1 Cu1 Pt3'
_cell_volume   106.72330373
_cell_formula_units_Z   1
loop_
 _symmetry_equiv_pos_site_id
 _symmetry_equiv_pos_as_xyz
  1  'x, y, z'
loop_
 _atom_site_type_symbol
 _atom_site_label
 _atom_site_symmetry_multiplicity
 _atom_site_fract_x
 _atom_site_fract_y
 _atom_site_fract_z
 _atom_site_occupancy
  Tb  Tb0  1  0.997038  0.000987  0.000987  1
  Cd  Cd1  1  0.243837  0.252054  0.252054  1
  Cu  Cu2  1  0.127791  0.624070  0.624070  1
  Pt  Pt3  1  0.627111  0.623523  0.623523  1
  Pt  Pt4  1  0.627111  0.623523  0.125843  1
  Pt  Pt5  1  0.627111  0.125843  0.623523  1
