# generated using pymatgen
data_HfZrAs4
_symmetry_space_group_name_H-M   'P 1'
_cell_length_a   3.73102300
_cell_length_b   6.83521455
_cell_length_c   9.06233267
_cell_angle_alpha   89.88348790
_cell_angle_beta   90.00000000
_cell_angle_gamma   90.00000000
_symmetry_Int_Tables_number   1
_chemical_formula_structural   HfZrAs4
_chemical_formula_sum   'Hf2 Zr2 As8'
_cell_volume   231.11023533
_cell_formula_units_Z   2
loop_
 _symmetry_equiv_pos_site_id
 _symmetry_equiv_pos_as_xyz
  1  'x, y, z'
loop_
 _atom_site_type_symbol
 _atom_site_label
 _atom_site_symmetry_multiplicity
 _atom_site_fract_x
 _atom_site_fract_y
 _atom_site_fract_z
 _atom_site_occupancy
  Hf  Hf0  1  0.250000  0.271965  0.337825  1
  Hf  Hf1  1  0.750000  0.728035  0.662175  1
  Zr  Zr2  1  0.250000  0.771155  0.162112  1
  Zr  Zr3  1  0.750000  0.228845  0.837888  1
  As  As4  1  0.250000  0.915974  0.851487  1
  As  As5  1  0.750000  0.084026  0.148513  1
  As  As6  1  0.250000  0.420468  0.645657  1
  As  As7  1  0.750000  0.579532  0.354343  1
  As  As8  1  0.750000  0.620409  0.956543  1
  As  As9  1  0.250000  0.379591  0.043457  1
  As  As10  1  0.750000  0.120110  0.541845  1
  As  As11  1  0.250000  0.879890  0.458155  1
