# generated using pymatgen
data_Li8Nd8PPt7
_symmetry_space_group_name_H-M   'P 1'
_cell_length_a   4.11062900
_cell_length_b   7.41421223
_cell_length_c   16.92323000
_cell_angle_alpha   89.67235363
_cell_angle_beta   90.00000000
_cell_angle_gamma   90.00000000
_symmetry_Int_Tables_number   1
_chemical_formula_structural   Li8Nd8PPt7
_chemical_formula_sum   'Li8 Nd8 P1 Pt7'
_cell_volume   515.76213019
_cell_formula_units_Z   1
loop_
 _symmetry_equiv_pos_site_id
 _symmetry_equiv_pos_as_xyz
  1  'x, y, z'
loop_
 _atom_site_type_symbol
 _atom_site_label
 _atom_site_symmetry_multiplicity
 _atom_site_fract_x
 _atom_site_fract_y
 _atom_site_fract_z
 _atom_site_occupancy
  Li  Li0  1  0.250000  0.629634  0.351533  1
  Li  Li1  1  0.750000  0.362671  0.644344  1
  Li  Li2  1  0.750000  0.874974  0.851702  1
  Li  Li3  1  0.250000  0.125906  0.148359  1
  Li  Li4  1  0.250000  0.490076  0.059780  1
  Li  Li5  1  0.750000  0.509930  0.941373  1
  Li  Li6  1  0.750000  0.017685  0.561961  1
  Li  Li7  1  0.250000  0.997473  0.442018  1
  Nd  Nd8  1  0.250000  0.555532  0.785867  1
  Nd  Nd9  1  0.750000  0.447559  0.213921  1
  Nd  Nd10  1  0.750000  0.943544  0.287511  1
  Nd  Nd11  1  0.250000  0.049986  0.716698  1
  Nd  Nd12  1  0.250000  0.657436  0.561360  1
  Nd  Nd13  1  0.750000  0.335072  0.434473  1
  Nd  Nd14  1  0.750000  0.841806  0.061625  1
  Nd  Nd15  1  0.250000  0.167269  0.937674  1
  P  P16  1  0.250000  0.242482  0.563405  1
  Pt  Pt17  1  0.250000  0.746780  0.187807  1
  Pt  Pt18  1  0.750000  0.257202  0.808795  1
  Pt  Pt19  1  0.750000  0.751387  0.686455  1
  Pt  Pt20  1  0.250000  0.245018  0.311764  1
  Pt  Pt21  1  0.250000  0.756062  0.939447  1
  Pt  Pt22  1  0.750000  0.247466  0.060607  1
  Pt  Pt23  1  0.750000  0.747050  0.441520  1
