# generated using pymatgen
data_Dy3Cu3(Ni5B)2
_symmetry_space_group_name_H-M   'P 1'
_cell_length_a   4.99104800
_cell_length_b   4.99104805
_cell_length_c   10.88751900
_cell_angle_alpha   90.00000000
_cell_angle_beta   90.00000000
_cell_angle_gamma   119.99998638
_symmetry_Int_Tables_number   1
_chemical_formula_structural   Dy3Cu3(Ni5B)2
_chemical_formula_sum   'Dy3 Cu3 Ni10 B2'
_cell_volume   234.87841911
_cell_formula_units_Z   1
loop_
 _symmetry_equiv_pos_site_id
 _symmetry_equiv_pos_as_xyz
  1  'x, y, z'
loop_
 _atom_site_type_symbol
 _atom_site_label
 _atom_site_symmetry_multiplicity
 _atom_site_fract_x
 _atom_site_fract_y
 _atom_site_fract_z
 _atom_site_occupancy
  Dy  Dy0  1  0.000000  0.000000  0.999799  1
  Dy  Dy1  1  0.000000  0.000000  0.335209  1
  Dy  Dy2  1  0.000000  0.000000  0.669797  1
  Cu  Cu3  1  0.333333  0.666667  0.317071  1
  Cu  Cu4  1  0.666667  0.333333  0.316859  1
  Cu  Cu5  1  0.666667  0.333333  0.683072  1
  Ni  Ni6  1  0.499573  0.999147  0.500583  1
  Ni  Ni7  1  0.499573  0.500427  0.500583  1
  Ni  Ni8  1  0.000853  0.500427  0.500583  1
  Ni  Ni9  1  0.333333  0.666667  0.681088  1
  Ni  Ni10  1  0.500105  0.000211  0.129891  1
  Ni  Ni11  1  0.500105  0.499895  0.129891  1
  Ni  Ni12  1  0.999789  0.499895  0.129891  1
  Ni  Ni13  1  0.498899  0.997799  0.868904  1
  Ni  Ni14  1  0.498899  0.501101  0.868904  1
  Ni  Ni15  1  0.002201  0.501101  0.868904  1
  B  B16  1  0.333333  0.666667  0.999924  1
  B  B17  1  0.666667  0.333333  0.999043  1
