# generated using pymatgen
data_PmNi5
_symmetry_space_group_name_H-M   'P 1'
_cell_length_a   4.93190600
_cell_length_b   4.93192119
_cell_length_c   3.95445800
_cell_angle_alpha   90.00000000
_cell_angle_beta   90.00000000
_cell_angle_gamma   59.99889541
_symmetry_Int_Tables_number   1
_chemical_formula_structural   PmNi5
_chemical_formula_sum   'Pm1 Ni5'
_cell_volume   83.29974727
_cell_formula_units_Z   1
loop_
 _symmetry_equiv_pos_site_id
 _symmetry_equiv_pos_as_xyz
  1  'x, y, z'
loop_
 _atom_site_type_symbol
 _atom_site_label
 _atom_site_symmetry_multiplicity
 _atom_site_fract_x
 _atom_site_fract_y
 _atom_site_fract_z
 _atom_site_occupancy
  Pm  Pm0  1  0.999998  0.000002  0.000000  1
  Ni  Ni1  1  0.333328  0.333333  0.000000  1
  Ni  Ni2  1  0.666666  0.666671  0.000000  1
  Ni  Ni3  1  0.500414  0.000002  0.499999  1
  Ni  Ni4  1  0.000005  0.499582  0.499999  1
  Ni  Ni5  1  0.499583  0.500413  0.499999  1
