# generated using pymatgen
data_Yb12ZnRu3
_symmetry_space_group_name_H-M   'P 1'
_cell_length_a   6.27745336
_cell_length_b   7.74386430
_cell_length_c   9.32946600
_cell_angle_alpha   90.00000000
_cell_angle_beta   90.00000000
_cell_angle_gamma   88.85328962
_symmetry_Int_Tables_number   1
_chemical_formula_structural   Yb12ZnRu3
_chemical_formula_sum   'Yb12 Zn1 Ru3'
_cell_volume   453.43081322
_cell_formula_units_Z   1
loop_
 _symmetry_equiv_pos_site_id
 _symmetry_equiv_pos_as_xyz
  1  'x, y, z'
loop_
 _atom_site_type_symbol
 _atom_site_label
 _atom_site_symmetry_multiplicity
 _atom_site_fract_x
 _atom_site_fract_y
 _atom_site_fract_z
 _atom_site_occupancy
  Yb  Yb0  1  0.341048  0.666343  0.075067  1
  Yb  Yb1  1  0.157690  0.168352  0.427205  1
  Yb  Yb2  1  0.652841  0.315226  0.554072  1
  Yb  Yb3  1  0.857732  0.847352  0.942599  1
  Yb  Yb4  1  0.652841  0.315226  0.945928  1
  Yb  Yb5  1  0.857732  0.847352  0.557401  1
  Yb  Yb6  1  0.341048  0.666343  0.424933  1
  Yb  Yb7  1  0.157690  0.168352  0.072795  1
  Yb  Yb8  1  0.866934  0.542420  0.250000  1
  Yb  Yb9  1  0.629457  0.033701  0.250000  1
  Yb  Yb10  1  0.111685  0.449375  0.750000  1
  Yb  Yb11  1  0.362476  0.979401  0.750000  1
  Zn  Zn12  1  0.560511  0.620572  0.750000  1
  Ru  Ru13  1  0.046995  0.876501  0.250000  1
  Ru  Ru14  1  0.460681  0.377549  0.250000  1
  Ru  Ru15  1  0.942641  0.125935  0.750000  1
