# generated using pymatgen
data_Nb4Al2Cr5Os
_symmetry_space_group_name_H-M   'P 1'
_cell_length_a   4.96418491
_cell_length_b   4.96418353
_cell_length_c   8.30839900
_cell_angle_alpha   90.00000000
_cell_angle_beta   90.00000000
_cell_angle_gamma   120.73424552
_symmetry_Int_Tables_number   1
_chemical_formula_structural   Nb4Al2Cr5Os
_chemical_formula_sum   'Nb4 Al2 Cr5 Os1'
_cell_volume   175.98787072
_cell_formula_units_Z   1
loop_
 _symmetry_equiv_pos_site_id
 _symmetry_equiv_pos_as_xyz
  1  'x, y, z'
loop_
 _atom_site_type_symbol
 _atom_site_label
 _atom_site_symmetry_multiplicity
 _atom_site_fract_x
 _atom_site_fract_y
 _atom_site_fract_z
 _atom_site_occupancy
  Nb  Nb0  1  0.332996  0.667004  0.436246  1
  Nb  Nb1  1  0.666861  0.333139  0.566114  1
  Nb  Nb2  1  0.666861  0.333139  0.933886  1
  Nb  Nb3  1  0.332996  0.667004  0.063754  1
  Al  Al4  1  0.002246  0.997754  0.504321  1
  Al  Al5  1  0.002246  0.997754  0.995679  1
  Cr  Cr6  1  0.823553  0.657544  0.250000  1
  Cr  Cr7  1  0.342456  0.176447  0.250000  1
  Cr  Cr8  1  0.174906  0.825094  0.750000  1
  Cr  Cr9  1  0.174955  0.348947  0.750000  1
  Cr  Cr10  1  0.651053  0.825045  0.750000  1
  Os  Os11  1  0.828870  0.171130  0.250000  1
