# generated using pymatgen
data_Hf16Ta3Ni4Pt
_symmetry_space_group_name_H-M   'P 1'
_cell_length_a   8.74429277
_cell_length_b   8.74429194
_cell_length_c   8.74429300
_cell_angle_alpha   60.14760155
_cell_angle_beta   60.14760465
_cell_angle_gamma   60.14760204
_symmetry_Int_Tables_number   1
_chemical_formula_structural   Hf16Ta3Ni4Pt
_chemical_formula_sum   'Hf16 Ta3 Ni4 Pt1'
_cell_volume   474.36063151
_cell_formula_units_Z   1
loop_
 _symmetry_equiv_pos_site_id
 _symmetry_equiv_pos_as_xyz
  1  'x, y, z'
loop_
 _atom_site_type_symbol
 _atom_site_label
 _atom_site_symmetry_multiplicity
 _atom_site_fract_x
 _atom_site_fract_y
 _atom_site_fract_z
 _atom_site_occupancy
  Hf  Hf0  1  0.697021  0.100780  0.100780  1
  Hf  Hf1  1  0.100780  0.697021  0.100780  1
  Hf  Hf2  1  0.100780  0.100780  0.697021  1
  Hf  Hf3  1  0.103199  0.103199  0.103199  1
  Hf  Hf4  1  0.315415  0.315415  0.685450  1
  Hf  Hf5  1  0.685442  0.685442  0.314710  1
  Hf  Hf6  1  0.315415  0.685450  0.315415  1
  Hf  Hf7  1  0.685442  0.314710  0.685442  1
  Hf  Hf8  1  0.685450  0.315415  0.315415  1
  Hf  Hf9  1  0.314710  0.685442  0.685442  1
  Hf  Hf10  1  0.952245  0.952245  0.546833  1
  Hf  Hf11  1  0.550992  0.550992  0.948601  1
  Hf  Hf12  1  0.952245  0.546833  0.952245  1
  Hf  Hf13  1  0.550992  0.948601  0.550992  1
  Hf  Hf14  1  0.546833  0.952245  0.952245  1
  Hf  Hf15  1  0.948601  0.550992  0.550992  1
  Ta  Ta16  1  0.998294  0.333155  0.333155  1
  Ta  Ta17  1  0.333155  0.998294  0.333155  1
  Ta  Ta18  1  0.333155  0.333155  0.998294  1
  Ni  Ni19  1  0.325307  0.889919  0.889919  1
  Ni  Ni20  1  0.889919  0.325307  0.889919  1
  Ni  Ni21  1  0.889919  0.889919  0.325307  1
  Ni  Ni22  1  0.891280  0.891280  0.891280  1
  Pt  Pt23  1  0.333404  0.333404  0.333404  1
