# generated using pymatgen
data_Dy2FeSi5Pt2
_symmetry_space_group_name_H-M   'P 1'
_cell_length_a   8.08717935
_cell_length_b   8.08717896
_cell_length_c   8.08717968
_cell_angle_alpha   138.02813393
_cell_angle_beta   104.29995533
_cell_angle_gamma   90.54594460
_symmetry_Int_Tables_number   1
_chemical_formula_structural   Dy2FeSi5Pt2
_chemical_formula_sum   'Dy4 Fe2 Si10 Pt4'
_cell_volume   327.18359039
_cell_formula_units_Z   2
loop_
 _symmetry_equiv_pos_site_id
 _symmetry_equiv_pos_as_xyz
  1  'x, y, z'
loop_
 _atom_site_type_symbol
 _atom_site_label
 _atom_site_symmetry_multiplicity
 _atom_site_fract_x
 _atom_site_fract_y
 _atom_site_fract_z
 _atom_site_occupancy
  Dy  Dy0  1  0.603525  0.370119  0.233407  1
  Dy  Dy1  1  0.396475  0.629881  0.766593  1
  Dy  Dy2  1  0.136712  0.870119  0.266593  1
  Dy  Dy3  1  0.863288  0.129881  0.733407  1
  Fe  Fe4  1  0.000000  0.750000  0.750000  1
  Fe  Fe5  1  0.000000  0.250000  0.250000  1
  Si  Si6  1  0.500000  0.250000  0.750000  1
  Si  Si7  1  0.500000  0.750000  0.250000  1
  Si  Si8  1  0.217924  0.467924  0.250000  1
  Si  Si9  1  0.782076  0.032076  0.250000  1
  Si  Si10  1  0.782076  0.532076  0.750000  1
  Si  Si11  1  0.217924  0.967924  0.750000  1
  Si  Si12  1  0.951645  0.597380  0.354266  1
  Si  Si13  1  0.048355  0.402620  0.645734  1
  Si  Si14  1  0.243114  0.097380  0.145734  1
  Si  Si15  1  0.756886  0.902620  0.854266  1
  Pt  Pt16  1  0.524496  0.140175  0.384321  1
  Pt  Pt17  1  0.475504  0.859825  0.615679  1
  Pt  Pt18  1  0.755854  0.640175  0.115679  1
  Pt  Pt19  1  0.244146  0.359825  0.884321  1
