# generated using pymatgen
data_PrEu3(ZnRh)4
_symmetry_space_group_name_H-M   'P 1'
_cell_length_a   4.23096700
_cell_length_b   7.15079369
_cell_length_c   8.12212953
_cell_angle_alpha   90.05028076
_cell_angle_beta   90.00000000
_cell_angle_gamma   90.00000000
_symmetry_Int_Tables_number   1
_chemical_formula_structural   PrEu3(ZnRh)4
_chemical_formula_sum   'Pr1 Eu3 Zn4 Rh4'
_cell_volume   245.73308345
_cell_formula_units_Z   1
loop_
 _symmetry_equiv_pos_site_id
 _symmetry_equiv_pos_as_xyz
  1  'x, y, z'
loop_
 _atom_site_type_symbol
 _atom_site_label
 _atom_site_symmetry_multiplicity
 _atom_site_fract_x
 _atom_site_fract_y
 _atom_site_fract_z
 _atom_site_occupancy
  Pr  Pr0  1  0.750000  0.972005  0.683532  1
  Eu  Eu1  1  0.250000  0.527409  0.184069  1
  Eu  Eu2  1  0.750000  0.472772  0.815454  1
  Eu  Eu3  1  0.250000  0.025934  0.314252  1
  Zn  Zn4  1  0.250000  0.146630  0.936456  1
  Zn  Zn5  1  0.750000  0.858366  0.064708  1
  Zn  Zn6  1  0.250000  0.641740  0.564938  1
  Zn  Zn7  1  0.750000  0.354955  0.435317  1
  Rh  Rh8  1  0.750000  0.726745  0.383810  1
  Rh  Rh9  1  0.250000  0.267729  0.620874  1
  Rh  Rh10  1  0.750000  0.226505  0.121020  1
  Rh  Rh11  1  0.250000  0.779212  0.875570  1
