# generated using pymatgen
data_Tb2YEr5Al8
_symmetry_space_group_name_H-M   'P 1'
_cell_length_a   5.60191100
_cell_length_b   5.83846097
_cell_length_c   11.37888659
_cell_angle_alpha   90.09849133
_cell_angle_beta   90.00000000
_cell_angle_gamma   90.00000000
_symmetry_Int_Tables_number   1
_chemical_formula_structural   Tb2YEr5Al8
_chemical_formula_sum   'Tb2 Y1 Er5 Al8'
_cell_volume   372.16344489
_cell_formula_units_Z   1
loop_
 _symmetry_equiv_pos_site_id
 _symmetry_equiv_pos_as_xyz
  1  'x, y, z'
loop_
 _atom_site_type_symbol
 _atom_site_label
 _atom_site_symmetry_multiplicity
 _atom_site_fract_x
 _atom_site_fract_y
 _atom_site_fract_z
 _atom_site_occupancy
  Tb  Tb0  1  0.750000  0.163974  0.484920  1
  Tb  Tb1  1  0.250000  0.835886  0.515261  1
  Y  Y2  1  0.250000  0.161752  0.015508  1
  Er  Er3  1  0.750000  0.837363  0.984025  1
  Er  Er4  1  0.750000  0.399009  0.168093  1
  Er  Er5  1  0.250000  0.602193  0.832013  1
  Er  Er6  1  0.250000  0.398650  0.331050  1
  Er  Er7  1  0.750000  0.601527  0.669027  1
  Al  Al8  1  0.500429  0.932384  0.249478  1
  Al  Al9  1  0.000117  0.067312  0.750492  1
  Al  Al10  1  0.499883  0.067312  0.750492  1
  Al  Al11  1  0.999571  0.932384  0.249478  1
  Al  Al12  1  0.750000  0.660230  0.400753  1
  Al  Al13  1  0.250000  0.339771  0.599335  1
  Al  Al14  1  0.250000  0.660500  0.098309  1
  Al  Al15  1  0.750000  0.339754  0.901766  1
