# generated using pymatgen
data_CeY(NbSe2)6
_symmetry_space_group_name_H-M   'P 1'
_cell_length_a   6.07869900
_cell_length_b   6.07869810
_cell_length_c   14.86734200
_cell_angle_alpha   90.00000000
_cell_angle_beta   90.00000000
_cell_angle_gamma   119.99999948
_symmetry_Int_Tables_number   1
_chemical_formula_structural   CeY(NbSe2)6
_chemical_formula_sum   'Ce1 Y1 Nb6 Se12'
_cell_volume   475.75699118
_cell_formula_units_Z   1
loop_
 _symmetry_equiv_pos_site_id
 _symmetry_equiv_pos_as_xyz
  1  'x, y, z'
loop_
 _atom_site_type_symbol
 _atom_site_label
 _atom_site_symmetry_multiplicity
 _atom_site_fract_x
 _atom_site_fract_y
 _atom_site_fract_z
 _atom_site_occupancy
  Ce  Ce0  1  0.666667  0.333333  0.750000  1
  Y  Y1  1  0.333333  0.666667  0.250000  1
  Nb  Nb2  1  0.333333  0.666667  0.007550  1
  Nb  Nb3  1  0.000000  0.000000  0.005808  1
  Nb  Nb4  1  0.666667  0.333333  0.004340  1
  Nb  Nb5  1  0.333333  0.666667  0.492450  1
  Nb  Nb6  1  0.000000  0.000000  0.494192  1
  Nb  Nb7  1  0.666667  0.333333  0.495660  1
  Se  Se8  1  0.673681  0.666028  0.380993  1
  Se  Se9  1  0.665258  0.672219  0.606849  1
  Se  Se10  1  0.006964  0.672219  0.893151  1
  Se  Se11  1  0.665258  0.993036  0.893151  1
  Se  Se12  1  0.673681  0.007654  0.119007  1
  Se  Se13  1  0.333972  0.007654  0.380993  1
  Se  Se14  1  0.006964  0.334742  0.606849  1
  Se  Se15  1  0.327781  0.993036  0.606849  1
  Se  Se16  1  0.992346  0.666028  0.119007  1
  Se  Se17  1  0.327781  0.334742  0.893151  1
  Se  Se18  1  0.992346  0.326319  0.380993  1
  Se  Se19  1  0.333972  0.326319  0.119007  1
