# generated using pymatgen
data_Pr8Si12Pd3Pt
_symmetry_space_group_name_H-M   'P 1'
_cell_length_a   8.27906500
_cell_length_b   8.27906609
_cell_length_c   8.62187900
_cell_angle_alpha   90.00000000
_cell_angle_beta   90.00000000
_cell_angle_gamma   120.00000764
_symmetry_Int_Tables_number   1
_chemical_formula_structural   Pr8Si12Pd3Pt
_chemical_formula_sum   'Pr8 Si12 Pd3 Pt1'
_cell_volume   511.79396872
_cell_formula_units_Z   1
loop_
 _symmetry_equiv_pos_site_id
 _symmetry_equiv_pos_as_xyz
  1  'x, y, z'
loop_
 _atom_site_type_symbol
 _atom_site_label
 _atom_site_symmetry_multiplicity
 _atom_site_fract_x
 _atom_site_fract_y
 _atom_site_fract_z
 _atom_site_occupancy
  Pr  Pr0  1  0.499983  0.500017  0.749766  1
  Pr  Pr1  1  0.500894  0.499106  0.250174  1
  Pr  Pr2  1  0.000034  0.500017  0.749766  1
  Pr  Pr3  1  0.998214  0.499106  0.250174  1
  Pr  Pr4  1  0.499983  0.999966  0.749766  1
  Pr  Pr5  1  0.500894  0.001786  0.250174  1
  Pr  Pr6  1  0.000000  0.000000  0.749168  1
  Pr  Pr7  1  0.000000  0.000000  0.251066  1
  Si  Si8  1  0.834244  0.165756  0.000820  1
  Si  Si9  1  0.165904  0.834096  0.999283  1
  Si  Si10  1  0.331511  0.165756  0.000820  1
  Si  Si11  1  0.165372  0.834628  0.499895  1
  Si  Si12  1  0.668192  0.834096  0.999283  1
  Si  Si13  1  0.834677  0.165323  0.500139  1
  Si  Si14  1  0.834244  0.668489  0.000820  1
  Si  Si15  1  0.669256  0.834628  0.499895  1
  Si  Si16  1  0.165904  0.331808  0.999283  1
  Si  Si17  1  0.330647  0.165323  0.500139  1
  Si  Si18  1  0.165372  0.330744  0.499895  1
  Si  Si19  1  0.834677  0.669353  0.500139  1
  Pd  Pd20  1  0.333333  0.666667  0.002244  1
  Pd  Pd21  1  0.333333  0.666667  0.498927  1
  Pd  Pd22  1  0.666667  0.333333  0.501099  1
  Pt  Pt23  1  0.666667  0.333333  0.997270  1
