# generated using pymatgen
data_HoTm9(InSb)3
_symmetry_space_group_name_H-M   'P 1'
_cell_length_a   6.42237200
_cell_length_b   8.86114890
_cell_length_c   8.86114887
_cell_angle_alpha   59.94972939
_cell_angle_beta   90.00018767
_cell_angle_gamma   89.99981280
_symmetry_Int_Tables_number   1
_chemical_formula_structural   HoTm9(InSb)3
_chemical_formula_sum   'Ho1 Tm9 In3 Sb3'
_cell_volume   436.50169775
_cell_formula_units_Z   1
loop_
 _symmetry_equiv_pos_site_id
 _symmetry_equiv_pos_as_xyz
  1  'x, y, z'
loop_
 _atom_site_type_symbol
 _atom_site_label
 _atom_site_symmetry_multiplicity
 _atom_site_fract_x
 _atom_site_fract_y
 _atom_site_fract_z
 _atom_site_occupancy
  Ho  Ho0  1  0.250026  0.762690  0.237310  1
  Tm  Tm1  1  0.503406  0.333275  0.333356  1
  Tm  Tm2  1  0.503406  0.666644  0.666725  1
  Tm  Tm3  1  0.996571  0.666584  0.666685  1
  Tm  Tm4  1  0.996571  0.333315  0.333416  1
  Tm  Tm5  1  0.749977  0.238333  0.761667  1
  Tm  Tm6  1  0.750016  0.761412  0.999876  1
  Tm  Tm7  1  0.750016  0.000124  0.238588  1
  Tm  Tm8  1  0.249994  0.237835  0.999842  1
  Tm  Tm9  1  0.249994  0.000158  0.762165  1
  In  In10  1  0.749923  0.605655  0.394345  1
  In  In11  1  0.750056  0.394390  0.000008  1
  In  In12  1  0.750056  0.999992  0.605610  1
  Sb  Sb13  1  0.250043  0.394897  0.605103  1
  Sb  Sb14  1  0.249973  0.604275  0.999578  1
  Sb  Sb15  1  0.249973  0.000422  0.395725  1
