# generated using pymatgen
data_NdSm2Gd5(MoO6)4
_symmetry_space_group_name_H-M   'P 1'
_cell_length_a   10.12189818
_cell_length_b   10.08229886
_cell_length_c   5.49672980
_cell_angle_alpha   75.19493928
_cell_angle_beta   75.06120820
_cell_angle_gamma   68.28798174
_symmetry_Int_Tables_number   1
_chemical_formula_structural   NdSm2Gd5(MoO6)4
_chemical_formula_sum   'Nd1 Sm2 Gd5 Mo4 O24'
_cell_volume   495.46121454
_cell_formula_units_Z   1
loop_
 _symmetry_equiv_pos_site_id
 _symmetry_equiv_pos_as_xyz
  1  'x, y, z'
loop_
 _atom_site_type_symbol
 _atom_site_label
 _atom_site_symmetry_multiplicity
 _atom_site_fract_x
 _atom_site_fract_y
 _atom_site_fract_z
 _atom_site_occupancy
  Nd  Nd0  1  0.787040  0.554622  0.616131  1
  Sm  Sm1  1  0.214435  0.445744  0.380226  1
  Sm  Sm2  1  0.607977  0.390351  0.249868  1
  Gd  Gd3  1  0.391546  0.608662  0.749023  1
  Gd  Gd4  1  0.550615  0.786195  0.120280  1
  Gd  Gd5  1  0.135784  0.865337  0.248960  1
  Gd  Gd6  1  0.446739  0.214217  0.879297  1
  Gd  Gd7  1  0.864767  0.134444  0.751128  1
  Mo  Mo8  1  0.295920  0.010742  0.559065  1
  Mo  Mo9  1  0.703585  0.989842  0.441323  1
  Mo  Mo10  1  0.990616  0.704711  0.938409  1
  Mo  Mo11  1  0.011382  0.294939  0.061417  1
  O  O12  1  0.391569  0.424009  0.581149  1
  O  O13  1  0.569345  0.975079  0.740375  1
  O  O14  1  0.820431  0.713498  0.866968  1
  O  O15  1  0.673092  0.116315  0.136940  1
  O  O16  1  0.115193  0.673875  0.632446  1
  O  O17  1  0.326268  0.885069  0.863952  1
  O  O18  1  0.288747  0.179551  0.636637  1
  O  O19  1  0.978107  0.568417  0.234853  1
  O  O20  1  0.571154  0.610451  0.923698  1
  O  O21  1  0.429936  0.024896  0.259244  1
  O  O22  1  0.112569  0.047340  0.516815  1
  O  O23  1  0.190640  0.664886  0.082299  1
  O  O24  1  0.811639  0.333917  0.918031  1
  O  O25  1  0.335808  0.809924  0.414480  1
  O  O26  1  0.884674  0.326270  0.366712  1
  O  O27  1  0.953705  0.888133  0.983753  1
  O  O28  1  0.886999  0.952930  0.483610  1
  O  O29  1  0.663647  0.189698  0.588724  1
  O  O30  1  0.711160  0.821646  0.361375  1
  O  O31  1  0.048440  0.111562  0.016643  1
  O  O32  1  0.180071  0.286407  0.138377  1
  O  O33  1  0.604318  0.577609  0.420133  1
  O  O34  1  0.424997  0.390556  0.075727  1
  O  O35  1  0.027081  0.428158  0.761932  1
