# generated using pymatgen
data_DyPaF8
_symmetry_space_group_name_H-M   'P 1'
_cell_length_a   8.28723831
_cell_length_b   8.35680872
_cell_length_c   8.16821740
_cell_angle_alpha   63.66268712
_cell_angle_beta   64.18093767
_cell_angle_gamma   80.67020091
_symmetry_Int_Tables_number   1
_chemical_formula_structural   DyPaF8
_chemical_formula_sum   'Dy3 Pa3 F24'
_cell_volume   456.02085518
_cell_formula_units_Z   3
loop_
 _symmetry_equiv_pos_site_id
 _symmetry_equiv_pos_as_xyz
  1  'x, y, z'
loop_
 _atom_site_type_symbol
 _atom_site_label
 _atom_site_symmetry_multiplicity
 _atom_site_fract_x
 _atom_site_fract_y
 _atom_site_fract_z
 _atom_site_occupancy
  Dy  Dy0  1  0.368871  0.236427  0.334315  1
  Dy  Dy1  1  0.221936  0.361660  0.843418  1
  Dy  Dy2  1  0.780495  0.617984  0.166015  1
  Pa  Pa3  1  0.626464  0.775432  0.661657  1
  Pa  Pa4  1  0.787181  0.207276  0.757687  1
  Pa  Pa5  1  0.213293  0.786539  0.260770  1
  F  F6  1  0.313029  0.266526  0.607909  1
  F  F7  1  0.684500  0.742103  0.391613  1
  F  F8  1  0.727501  0.685503  0.888512  1
  F  F9  1  0.271030  0.317424  0.103226  1
  F  F10  1  0.824927  0.932988  0.946606  1
  F  F11  1  0.181831  0.051440  0.048585  1
  F  F12  1  0.052847  0.172962  0.553856  1
  F  F13  1  0.928972  0.830718  0.461780  1
  F  F14  1  0.410170  0.600253  0.742027  1
  F  F15  1  0.600705  0.404115  0.245038  1
  F  F16  1  0.501482  0.995491  0.498476  1
  F  F17  1  0.003921  0.507108  0.992256  1
  F  F18  1  0.512447  0.245954  0.789106  1
  F  F19  1  0.495158  0.754554  0.201500  1
  F  F20  1  0.742915  0.500047  0.713314  1
  F  F21  1  0.254570  0.515552  0.284010  1
  F  F22  1  0.400463  0.811674  0.914141  1
  F  F23  1  0.614781  0.180849  0.065213  1
  F  F24  1  0.180478  0.610687  0.568744  1
  F  F25  1  0.813053  0.392452  0.443326  1
  F  F26  1  0.721298  0.024150  0.645667  1
  F  F27  1  0.271228  0.969357  0.353546  1
  F  F28  1  0.967473  0.275027  0.849766  1
  F  F29  1  0.026983  0.727749  0.167921  1
