# generated using pymatgen
data_Ho8Ta3Ti8Si16Ru
_symmetry_space_group_name_H-M   'P 1'
_cell_length_a   7.01107014
_cell_length_b   7.01107024
_cell_length_c   12.87014430
_cell_angle_alpha   90.08685211
_cell_angle_beta   89.91314905
_cell_angle_gamma   89.80294972
_symmetry_Int_Tables_number   1
_chemical_formula_structural   Ho8Ta3Ti8Si16Ru
_chemical_formula_sum   'Ho8 Ta3 Ti8 Si16 Ru1'
_cell_volume   632.62809703
_cell_formula_units_Z   1
loop_
 _symmetry_equiv_pos_site_id
 _symmetry_equiv_pos_as_xyz
  1  'x, y, z'
loop_
 _atom_site_type_symbol
 _atom_site_label
 _atom_site_symmetry_multiplicity
 _atom_site_fract_x
 _atom_site_fract_y
 _atom_site_fract_z
 _atom_site_occupancy
  Ho  Ho0  1  0.340740  0.002862  0.467595  1
  Ho  Ho1  1  0.497468  0.841594  0.717933  1
  Ho  Ho2  1  0.501118  0.159213  0.215789  1
  Ho  Ho3  1  0.841594  0.497468  0.282067  1
  Ho  Ho4  1  0.159213  0.501118  0.784211  1
  Ho  Ho5  1  0.658677  0.999421  0.968412  1
  Ho  Ho6  1  0.002862  0.340740  0.532405  1
  Ho  Ho7  1  0.999421  0.658677  0.031588  1
  Ta  Ta8  1  0.174194  0.827542  0.248130  1
  Ta  Ta9  1  0.827542  0.174194  0.751870  1
  Ta  Ta10  1  0.673596  0.673596  0.500000  1
  Ti  Ti11  1  0.148847  0.003787  0.874849  1
  Ti  Ti12  1  0.491759  0.656966  0.125396  1
  Ti  Ti13  1  0.508567  0.348234  0.627639  1
  Ti  Ti14  1  0.656966  0.491759  0.874604  1
  Ti  Ti15  1  0.348234  0.508567  0.372361  1
  Ti  Ti16  1  0.847968  0.992497  0.374679  1
  Ti  Ti17  1  0.003787  0.148847  0.125151  1
  Ti  Ti18  1  0.992497  0.847968  0.625321  1
  Si  Si19  1  0.202641  0.132082  0.684734  1
  Si  Si20  1  0.372294  0.699475  0.933943  1
  Si  Si21  1  0.631159  0.296519  0.434333  1
  Si  Si22  1  0.699475  0.372294  0.066057  1
  Si  Si23  1  0.296519  0.631159  0.565667  1
  Si  Si24  1  0.797036  0.868019  0.184045  1
  Si  Si25  1  0.132082  0.202641  0.315266  1
  Si  Si26  1  0.868019  0.797036  0.815955  1
  Si  Si27  1  0.288860  0.954691  0.062817  1
  Si  Si28  1  0.547014  0.793381  0.314881  1
  Si  Si29  1  0.449754  0.208908  0.817693  1
  Si  Si30  1  0.793381  0.547014  0.685119  1
  Si  Si31  1  0.208908  0.449754  0.182307  1
  Si  Si32  1  0.707544  0.047301  0.564704  1
  Si  Si33  1  0.954691  0.288860  0.937183  1
  Si  Si34  1  0.047301  0.707544  0.435296  1
  Ru  Ru35  1  0.328270  0.328270  0.000000  1
