# generated using pymatgen
data_Ce2Tc2C3
_symmetry_space_group_name_H-M   'P 1'
_cell_length_a   6.25184190
_cell_length_b   6.25184253
_cell_length_c   5.70955292
_cell_angle_alpha   65.36622819
_cell_angle_beta   65.36622768
_cell_angle_gamma   30.74374123
_symmetry_Int_Tables_number   1
_chemical_formula_structural   Ce2Tc2C3
_chemical_formula_sum   'Ce2 Tc2 C3'
_cell_volume   102.87007737
_cell_formula_units_Z   1
loop_
 _symmetry_equiv_pos_site_id
 _symmetry_equiv_pos_as_xyz
  1  'x, y, z'
loop_
 _atom_site_type_symbol
 _atom_site_label
 _atom_site_symmetry_multiplicity
 _atom_site_fract_x
 _atom_site_fract_y
 _atom_site_fract_z
 _atom_site_occupancy
  Ce  Ce0  1  0.396391  0.396391  0.802517  1
  Ce  Ce1  1  0.603609  0.603609  0.197483  1
  Tc  Tc2  1  0.158306  0.158306  0.677133  1
  Tc  Tc3  1  0.841694  0.841694  0.322867  1
  C  C4  1  0.000000  0.000000  0.000000  1
  C  C5  1  0.252032  0.252032  0.263469  1
  C  C6  1  0.747968  0.747968  0.736531  1
