# generated using pymatgen
data_Li4La3HoSi8
_symmetry_space_group_name_H-M   'P 1'
_cell_length_a   3.88788900
_cell_length_b   7.78162060
_cell_length_c   10.58310399
_cell_angle_alpha   89.91125716
_cell_angle_beta   90.00000000
_cell_angle_gamma   90.00000000
_symmetry_Int_Tables_number   1
_chemical_formula_structural   Li4La3HoSi8
_chemical_formula_sum   'Li4 La3 Ho1 Si8'
_cell_volume   320.18166030
_cell_formula_units_Z   1
loop_
 _symmetry_equiv_pos_site_id
 _symmetry_equiv_pos_as_xyz
  1  'x, y, z'
loop_
 _atom_site_type_symbol
 _atom_site_label
 _atom_site_symmetry_multiplicity
 _atom_site_fract_x
 _atom_site_fract_y
 _atom_site_fract_z
 _atom_site_occupancy
  Li  Li0  1  0.250000  0.995224  0.389356  1
  Li  Li1  1  0.750000  0.002985  0.611023  1
  Li  Li2  1  0.250000  0.495893  0.107074  1
  Li  Li3  1  0.750000  0.509101  0.890196  1
  La  La4  1  0.750000  0.863864  0.135320  1
  La  La5  1  0.250000  0.636956  0.637805  1
  La  La6  1  0.750000  0.360090  0.364883  1
  Ho  Ho7  1  0.250000  0.131104  0.865010  1
  Si  Si8  1  0.750000  0.271588  0.062431  1
  Si  Si9  1  0.250000  0.737281  0.929368  1
  Si  Si10  1  0.750000  0.772359  0.429122  1
  Si  Si11  1  0.250000  0.220581  0.578080  1
  Si  Si12  1  0.750000  0.842994  0.822013  1
  Si  Si13  1  0.250000  0.166058  0.170573  1
  Si  Si14  1  0.750000  0.329065  0.684733  1
  Si  Si15  1  0.250000  0.664861  0.323013  1
