# generated using pymatgen
data_Eu2ErUO6
_symmetry_space_group_name_H-M   'P 1'
_cell_length_a   5.96968109
_cell_length_b   6.08351000
_cell_length_c   8.51218400
_cell_angle_alpha   90.00000000
_cell_angle_beta   89.98997990
_cell_angle_gamma   90.00000000
_symmetry_Int_Tables_number   1
_chemical_formula_structural   Eu2ErUO6
_chemical_formula_sum   'Eu4 Er2 U2 O12'
_cell_volume   309.13370114
_cell_formula_units_Z   2
loop_
 _symmetry_equiv_pos_site_id
 _symmetry_equiv_pos_as_xyz
  1  'x, y, z'
loop_
 _atom_site_type_symbol
 _atom_site_label
 _atom_site_symmetry_multiplicity
 _atom_site_fract_x
 _atom_site_fract_y
 _atom_site_fract_z
 _atom_site_occupancy
  Eu  Eu0  1  0.511822  0.548608  0.249709  1
  Eu  Eu1  1  0.988178  0.048606  0.250291  1
  Eu  Eu2  1  0.011821  0.951393  0.749709  1
  Eu  Eu3  1  0.488179  0.451393  0.750291  1
  Er  Er4  1  0.500000  0.000000  0.000000  1
  Er  Er5  1  0.000001  0.500000  0.500000  1
  U  U6  1  0.000000  0.500000  0.000000  1
  U  U7  1  0.500000  0.000000  0.500000  1
  O  O8  1  0.702799  0.306258  0.056770  1
  O  O9  1  0.807361  0.797635  0.059512  1
  O  O10  1  0.110520  0.456811  0.245790  1
  O  O11  1  0.389480  0.956811  0.254210  1
  O  O12  1  0.692640  0.297635  0.440488  1
  O  O13  1  0.797200  0.806259  0.443230  1
  O  O14  1  0.202799  0.193742  0.556770  1
  O  O15  1  0.307361  0.702364  0.559512  1
  O  O16  1  0.610521  0.043189  0.745789  1
  O  O17  1  0.889481  0.543189  0.754211  1
  O  O18  1  0.192640  0.202365  0.940488  1
  O  O19  1  0.297202  0.693742  0.943230  1
