# generated using pymatgen
data_Pr7NdZn(Si4Pd)3
_symmetry_space_group_name_H-M   'P 1'
_cell_length_a   8.27697601
_cell_length_b   8.27697679
_cell_length_c   8.62745400
_cell_angle_alpha   90.00175457
_cell_angle_beta   89.99824422
_cell_angle_gamma   120.00450869
_symmetry_Int_Tables_number   1
_chemical_formula_structural   Pr7NdZn(Si4Pd)3
_chemical_formula_sum   'Pr7 Nd1 Zn1 Si12 Pd3'
_cell_volume   511.84325529
_cell_formula_units_Z   1
loop_
 _symmetry_equiv_pos_site_id
 _symmetry_equiv_pos_as_xyz
  1  'x, y, z'
loop_
 _atom_site_type_symbol
 _atom_site_label
 _atom_site_symmetry_multiplicity
 _atom_site_fract_x
 _atom_site_fract_y
 _atom_site_fract_z
 _atom_site_occupancy
  Pr  Pr0  1  0.500771  0.499229  0.251140  1
  Pr  Pr1  1  0.000554  0.500293  0.748814  1
  Pr  Pr2  1  0.998455  0.499248  0.251123  1
  Pr  Pr3  1  0.499707  0.999446  0.748814  1
  Pr  Pr4  1  0.500752  0.001545  0.251123  1
  Pr  Pr5  1  0.000002  0.999998  0.748947  1
  Pr  Pr6  1  0.999995  0.000005  0.251446  1
  Nd  Nd7  1  0.499724  0.500276  0.748711  1
  Zn  Zn8  1  0.666540  0.333460  0.995495  1
  Si  Si9  1  0.835459  0.164541  0.001031  1
  Si  Si10  1  0.167485  0.832515  0.999109  1
  Si  Si11  1  0.329214  0.164764  0.000887  1
  Si  Si12  1  0.165877  0.834123  0.500044  1
  Si  Si13  1  0.664939  0.832281  0.998882  1
  Si  Si14  1  0.834132  0.165868  0.500231  1
  Si  Si15  1  0.835236  0.670786  0.000887  1
  Si  Si16  1  0.668116  0.833878  0.500240  1
  Si  Si17  1  0.167719  0.335061  0.998882  1
  Si  Si18  1  0.331842  0.166097  0.500421  1
  Si  Si19  1  0.166122  0.331884  0.500240  1
  Si  Si20  1  0.833903  0.668158  0.500421  1
  Pd  Pd21  1  0.333476  0.666524  0.002305  1
  Pd  Pd22  1  0.333473  0.666527  0.498938  1
  Pd  Pd23  1  0.666512  0.333488  0.501875  1
