# generated using pymatgen
data_GdGe2Ir3
_symmetry_space_group_name_H-M   'P 1'
_cell_length_a   6.77289759
_cell_length_b   6.77289722
_cell_length_c   6.77289800
_cell_angle_alpha   112.79150973
_cell_angle_beta   87.58638089
_cell_angle_gamma   130.89949275
_symmetry_Int_Tables_number   1
_chemical_formula_structural   GdGe2Ir3
_chemical_formula_sum   'Gd2 Ge4 Ir6'
_cell_volume   206.28551858
_cell_formula_units_Z   2
loop_
 _symmetry_equiv_pos_site_id
 _symmetry_equiv_pos_as_xyz
  1  'x, y, z'
loop_
 _atom_site_type_symbol
 _atom_site_label
 _atom_site_symmetry_multiplicity
 _atom_site_fract_x
 _atom_site_fract_y
 _atom_site_fract_z
 _atom_site_occupancy
  Gd  Gd0  1  0.034477  0.784478  0.250000  1
  Gd  Gd1  1  0.965522  0.215521  0.750000  1
  Ge  Ge2  1  0.382397  0.300668  0.081729  1
  Ge  Ge3  1  0.718940  0.300668  0.418272  1
  Ge  Ge4  1  0.281062  0.699333  0.581730  1
  Ge  Ge5  1  0.617604  0.699333  0.918272  1
  Ir  Ir6  1  0.500000  0.000000  0.000000  1
  Ir  Ir7  1  0.000000  0.223199  0.223199  1
  Ir  Ir8  1  0.500001  0.776802  0.276801  1
  Ir  Ir9  1  0.500000  0.500000  0.500001  1
  Ir  Ir10  1  0.500000  0.223199  0.723199  1
  Ir  Ir11  1  0.000000  0.776801  0.776801  1
