# generated using pymatgen
data_Tb5In4PdPt
_symmetry_space_group_name_H-M   'P 1'
_cell_length_a   18.39976800
_cell_length_b   8.15951000
_cell_length_c   3.65684500
_cell_angle_alpha   90.00000000
_cell_angle_beta   90.00000000
_cell_angle_gamma   90.00000000
_symmetry_Int_Tables_number   1
_chemical_formula_structural   Tb5In4PdPt
_chemical_formula_sum   'Tb10 In8 Pd2 Pt2'
_cell_volume   549.01344313
_cell_formula_units_Z   2
loop_
 _symmetry_equiv_pos_site_id
 _symmetry_equiv_pos_as_xyz
  1  'x, y, z'
loop_
 _atom_site_type_symbol
 _atom_site_label
 _atom_site_symmetry_multiplicity
 _atom_site_fract_x
 _atom_site_fract_y
 _atom_site_fract_z
 _atom_site_occupancy
  Tb  Tb0  1  0.000089  0.000651  0.000000  1
  Tb  Tb1  1  0.415891  0.116155  0.000000  1
  Tb  Tb2  1  0.220154  0.239378  0.000000  1
  Tb  Tb3  1  0.720154  0.260622  0.000000  1
  Tb  Tb4  1  0.915891  0.383844  0.000000  1
  Tb  Tb5  1  0.500089  0.499349  0.000000  1
  Tb  Tb6  1  0.083499  0.615670  0.000000  1
  Tb  Tb7  1  0.280802  0.746402  0.000000  1
  Tb  Tb8  1  0.780802  0.753598  0.000000  1
  Tb  Tb9  1  0.583499  0.884330  0.000000  1
  In  In10  1  0.850224  0.074736  0.499999  1
  In  In11  1  0.568782  0.208904  0.499999  1
  In  In12  1  0.068782  0.291096  0.499999  1
  In  In13  1  0.350224  0.425263  0.499999  1
  In  In14  1  0.649260  0.576626  0.499999  1
  In  In15  1  0.931642  0.710092  0.499999  1
  In  In16  1  0.431642  0.789908  0.499999  1
  In  In17  1  0.149260  0.923374  0.499999  1
  Pd  Pd18  1  0.196091  0.525673  0.499999  1
  Pd  Pd19  1  0.696091  0.974327  0.499999  1
  Pt  Pt20  1  0.303566  0.025899  0.499999  1
  Pt  Pt21  1  0.803566  0.474101  0.499999  1
