# generated using pymatgen
data_Tb3Ho2SiSn3
_symmetry_space_group_name_H-M   'P 1'
_cell_length_a   9.22733100
_cell_length_b   9.22733207
_cell_length_c   6.47404000
_cell_angle_alpha   90.00000000
_cell_angle_beta   90.00000000
_cell_angle_gamma   119.99999976
_symmetry_Int_Tables_number   1
_chemical_formula_structural   Tb3Ho2SiSn3
_chemical_formula_sum   'Tb6 Ho4 Si2 Sn6'
_cell_volume   477.37344967
_cell_formula_units_Z   2
loop_
 _symmetry_equiv_pos_site_id
 _symmetry_equiv_pos_as_xyz
  1  'x, y, z'
loop_
 _atom_site_type_symbol
 _atom_site_label
 _atom_site_symmetry_multiplicity
 _atom_site_fract_x
 _atom_site_fract_y
 _atom_site_fract_z
 _atom_site_occupancy
  Tb  Tb0  1  0.747136  0.747136  0.750000  1
  Tb  Tb1  1  0.252864  0.000000  0.750000  1
  Tb  Tb2  1  0.000000  0.252864  0.750000  1
  Tb  Tb3  1  0.252864  0.252864  0.250000  1
  Tb  Tb4  1  0.747136  0.000000  0.250000  1
  Tb  Tb5  1  0.000000  0.747136  0.250000  1
  Ho  Ho6  1  0.666667  0.333333  0.000000  1
  Ho  Ho7  1  0.333333  0.666667  0.000000  1
  Ho  Ho8  1  0.333333  0.666667  0.500000  1
  Ho  Ho9  1  0.666667  0.333333  0.500000  1
  Si  Si10  1  0.000000  0.000000  0.000000  1
  Si  Si11  1  0.000000  0.000000  0.500000  1
  Sn  Sn12  1  0.391795  0.391795  0.750000  1
  Sn  Sn13  1  0.608205  0.000000  0.750000  1
  Sn  Sn14  1  0.000000  0.608205  0.750000  1
  Sn  Sn15  1  0.608205  0.608205  0.250000  1
  Sn  Sn16  1  0.391795  0.000000  0.250000  1
  Sn  Sn17  1  0.000000  0.391795  0.250000  1
