# generated using pymatgen
data_Re3Tc(Sb7Mo)2
_symmetry_space_group_name_H-M   'P 1'
_cell_length_a   8.28532820
_cell_length_b   8.28402539
_cell_length_c   8.28402590
_cell_angle_alpha   109.33246888
_cell_angle_beta   109.49085793
_cell_angle_gamma   109.58404609
_symmetry_Int_Tables_number   1
_chemical_formula_structural   Re3Tc(Sb7Mo)2
_chemical_formula_sum   'Re3 Tc1 Sb14 Mo2'
_cell_volume   437.72645318
_cell_formula_units_Z   1
loop_
 _symmetry_equiv_pos_site_id
 _symmetry_equiv_pos_as_xyz
  1  'x, y, z'
loop_
 _atom_site_type_symbol
 _atom_site_label
 _atom_site_symmetry_multiplicity
 _atom_site_fract_x
 _atom_site_fract_y
 _atom_site_fract_z
 _atom_site_occupancy
  Re  Re0  1  0.339194  0.339134  0.000059  1
  Re  Re1  1  0.000206  0.342085  0.342210  1
  Re  Re2  1  0.000206  0.657996  0.658120  1
  Tc  Tc3  1  0.660984  0.000117  0.660868  1
  Sb  Sb4  1  0.749552  0.250053  0.499500  1
  Sb  Sb5  1  0.500055  0.250481  0.749457  1
  Sb  Sb6  1  0.500055  0.750598  0.249574  1
  Sb  Sb7  1  0.250734  0.500668  0.750065  1
  Sb  Sb8  1  0.751510  0.500590  0.250921  1
  Sb  Sb9  1  0.248878  0.749329  0.499549  1
  Sb  Sb10  1  0.326790  0.326922  0.326700  1
  Sb  Sb11  1  0.999919  0.000071  0.326091  1
  Sb  Sb12  1  0.326790  0.000090  0.999868  1
  Sb  Sb13  1  0.999374  0.326743  0.999217  1
  Sb  Sb14  1  0.673190  0.000094  0.999321  1
  Sb  Sb15  1  0.999919  0.673828  0.999847  1
  Sb  Sb16  1  0.999374  0.000157  0.672631  1
  Sb  Sb17  1  0.673190  0.673869  0.673096  1
  Mo  Mo18  1  0.342699  0.999983  0.342717  1
  Mo  Mo19  1  0.657381  0.657192  0.000187  1
