# generated using pymatgen
data_UTiMn4P3
_symmetry_space_group_name_H-M   'P 1'
_cell_length_a   3.61365200
_cell_length_b   10.90329600
_cell_length_c   12.42286500
_cell_angle_alpha   90.00000000
_cell_angle_beta   90.00000000
_cell_angle_gamma   90.00000000
_symmetry_Int_Tables_number   1
_chemical_formula_structural   UTiMn4P3
_chemical_formula_sum   'U4 Ti4 Mn16 P12'
_cell_volume   489.46979313
_cell_formula_units_Z   4
loop_
 _symmetry_equiv_pos_site_id
 _symmetry_equiv_pos_as_xyz
  1  'x, y, z'
loop_
 _atom_site_type_symbol
 _atom_site_label
 _atom_site_symmetry_multiplicity
 _atom_site_fract_x
 _atom_site_fract_y
 _atom_site_fract_z
 _atom_site_occupancy
  U  U0  1  0.250000  0.587603  0.706162  1
  U  U1  1  0.250000  0.912397  0.206162  1
  U  U2  1  0.750000  0.412397  0.293838  1
  U  U3  1  0.750000  0.087603  0.793838  1
  Ti  Ti4  1  0.250000  0.707448  0.983854  1
  Ti  Ti5  1  0.250000  0.792552  0.483854  1
  Ti  Ti6  1  0.750000  0.292552  0.016146  1
  Ti  Ti7  1  0.750000  0.207448  0.516146  1
  Mn  Mn8  1  0.250000  0.409001  0.487153  1
  Mn  Mn9  1  0.250000  0.090999  0.987153  1
  Mn  Mn10  1  0.750000  0.590999  0.512847  1
  Mn  Mn11  1  0.750000  0.909001  0.012847  1
  Mn  Mn12  1  0.250000  0.215011  0.181054  1
  Mn  Mn13  1  0.250000  0.284989  0.681054  1
  Mn  Mn14  1  0.750000  0.784989  0.818946  1
  Mn  Mn15  1  0.750000  0.715011  0.318946  1
  Mn  Mn16  1  0.250000  0.887209  0.696715  1
  Mn  Mn17  1  0.250000  0.612791  0.196715  1
  Mn  Mn18  1  0.750000  0.112791  0.303285  1
  Mn  Mn19  1  0.750000  0.387209  0.803285  1
  Mn  Mn20  1  0.250000  0.465062  0.934408  1
  Mn  Mn21  1  0.250000  0.034938  0.434408  1
  Mn  Mn22  1  0.750000  0.534938  0.065592  1
  Mn  Mn23  1  0.750000  0.965062  0.565592  1
  P  P24  1  0.250000  0.414633  0.116579  1
  P  P25  1  0.250000  0.085367  0.616579  1
  P  P26  1  0.750000  0.585367  0.883421  1
  P  P27  1  0.750000  0.914633  0.383421  1
  P  P28  1  0.250000  0.267857  0.870807  1
  P  P29  1  0.250000  0.232143  0.370807  1
  P  P30  1  0.750000  0.732143  0.129193  1
  P  P31  1  0.750000  0.767857  0.629193  1
  P  P32  1  0.250000  0.590417  0.384697  1
  P  P33  1  0.250000  0.909583  0.884697  1
  P  P34  1  0.750000  0.409583  0.615303  1
  P  P35  1  0.750000  0.090417  0.115303  1
