# generated using pymatgen
data_Ca4ZnSi6Hg
_symmetry_space_group_name_H-M   'P 1'
_cell_length_a   8.42320957
_cell_length_b   8.31287482
_cell_length_c   5.99970607
_cell_angle_alpha   69.97949956
_cell_angle_beta   68.01209790
_cell_angle_gamma   42.00840511
_symmetry_Int_Tables_number   1
_chemical_formula_structural   Ca4ZnSi6Hg
_chemical_formula_sum   'Ca4 Zn1 Si6 Hg1'
_cell_volume   259.30462936
_cell_formula_units_Z   1
loop_
 _symmetry_equiv_pos_site_id
 _symmetry_equiv_pos_as_xyz
  1  'x, y, z'
loop_
 _atom_site_type_symbol
 _atom_site_label
 _atom_site_symmetry_multiplicity
 _atom_site_fract_x
 _atom_site_fract_y
 _atom_site_fract_z
 _atom_site_occupancy
  Ca  Ca0  1  0.748971  0.748971  0.751029  1
  Ca  Ca1  1  0.756211  0.245600  0.754400  1
  Ca  Ca2  1  0.248971  0.248971  0.251029  1
  Ca  Ca3  1  0.245600  0.756211  0.243789  1
  Zn  Zn4  1  0.666699  0.666699  0.333301  1
  Si  Si5  1  0.832217  0.333859  0.167783  1
  Si  Si6  1  0.680770  0.160149  0.319230  1
  Si  Si7  1  0.160149  0.680770  0.839851  1
  Si  Si8  1  0.333859  0.832217  0.666141  1
  Si  Si9  1  0.159129  0.159129  0.840871  1
  Si  Si10  1  0.833636  0.833636  0.166364  1
  Hg  Hg11  1  0.333787  0.333787  0.666213  1
