# generated using pymatgen
data_Tb3Ho9Ni4SnPd
_symmetry_space_group_name_H-M   'P 1'
_cell_length_a   8.33285240
_cell_length_b   8.31549887
_cell_length_c   8.32192612
_cell_angle_alpha   107.02576537
_cell_angle_beta   109.64177492
_cell_angle_gamma   111.67358591
_symmetry_Int_Tables_number   1
_chemical_formula_structural   Tb3Ho9Ni4SnPd
_chemical_formula_sum   'Tb3 Ho9 Ni4 Sn1 Pd1'
_cell_volume   443.74576371
_cell_formula_units_Z   1
loop_
 _symmetry_equiv_pos_site_id
 _symmetry_equiv_pos_as_xyz
  1  'x, y, z'
loop_
 _atom_site_type_symbol
 _atom_site_label
 _atom_site_symmetry_multiplicity
 _atom_site_fract_x
 _atom_site_fract_y
 _atom_site_fract_z
 _atom_site_occupancy
  Tb  Tb0  1  0.978213  0.796193  0.181937  1
  Tb  Tb1  1  0.020035  0.202603  0.817557  1
  Tb  Tb2  1  0.386048  0.202956  0.183032  1
  Ho  Ho3  1  0.694663  0.284551  0.980090  1
  Ho  Ho4  1  0.305699  0.713864  0.019199  1
  Ho  Ho5  1  0.694909  0.714655  0.410420  1
  Ho  Ho6  1  0.305676  0.286382  0.591698  1
  Ho  Ho7  1  0.806191  0.128174  0.321648  1
  Ho  Ho8  1  0.806410  0.484611  0.678091  1
  Ho  Ho9  1  0.194083  0.871432  0.678381  1
  Ho  Ho10  1  0.194100  0.515808  0.322507  1
  Ho  Ho11  1  0.613729  0.796594  0.817285  1
  Ni  Ni12  1  0.864493  0.499086  0.364949  1
  Ni  Ni13  1  0.135811  0.501084  0.634302  1
  Ni  Ni14  1  0.999584  0.125663  0.125929  1
  Ni  Ni15  1  0.997481  0.873681  0.872017  1
  Sn  Sn16  1  0.500258  0.000635  0.500347  1
  Pd  Pd17  1  0.502615  0.502026  0.000611  1
