# generated using pymatgen
data_Zr6Sn2Ge
_symmetry_space_group_name_H-M   'P 1'
_cell_length_a   7.74089100
_cell_length_b   7.74089103
_cell_length_c   3.86431700
_cell_angle_alpha   90.00000000
_cell_angle_beta   90.00000000
_cell_angle_gamma   120.00000414
_symmetry_Int_Tables_number   1
_chemical_formula_structural   Zr6Sn2Ge
_chemical_formula_sum   'Zr6 Sn2 Ge1'
_cell_volume   200.53272948
_cell_formula_units_Z   1
loop_
 _symmetry_equiv_pos_site_id
 _symmetry_equiv_pos_as_xyz
  1  'x, y, z'
loop_
 _atom_site_type_symbol
 _atom_site_label
 _atom_site_symmetry_multiplicity
 _atom_site_fract_x
 _atom_site_fract_y
 _atom_site_fract_z
 _atom_site_occupancy
  Zr  Zr0  1  0.248735  0.000000  0.500000  1
  Zr  Zr1  1  0.000000  0.248735  0.500000  1
  Zr  Zr2  1  0.751265  0.751265  0.500000  1
  Zr  Zr3  1  0.606053  0.000000  0.000000  1
  Zr  Zr4  1  0.000000  0.606053  0.000000  1
  Zr  Zr5  1  0.393947  0.393947  0.000000  1
  Sn  Sn6  1  0.333333  0.666667  0.500000  1
  Sn  Sn7  1  0.666667  0.333333  0.500000  1
  Ge  Ge8  1  0.000000  0.000000  0.000000  1
