# generated using pymatgen
data_Nd4Sn10PtRh5
_symmetry_space_group_name_H-M   'P 1'
_cell_length_a   13.65814053
_cell_length_b   13.65814052
_cell_length_c   7.33128011
_cell_angle_alpha   90.01988297
_cell_angle_beta   89.98011693
_cell_angle_gamma   160.96412191
_symmetry_Int_Tables_number   1
_chemical_formula_structural   Nd4Sn10PtRh5
_chemical_formula_sum   'Nd4 Sn10 Pt1 Rh5'
_cell_volume   446.06059459
_cell_formula_units_Z   1
loop_
 _symmetry_equiv_pos_site_id
 _symmetry_equiv_pos_as_xyz
  1  'x, y, z'
loop_
 _atom_site_type_symbol
 _atom_site_label
 _atom_site_symmetry_multiplicity
 _atom_site_fract_x
 _atom_site_fract_y
 _atom_site_fract_z
 _atom_site_occupancy
  Nd  Nd0  1  0.477153  0.522847  0.241022  1
  Nd  Nd1  1  0.172465  0.827535  0.254950  1
  Nd  Nd2  1  0.524843  0.475157  0.738739  1
  Nd  Nd3  1  0.827283  0.172717  0.752705  1
  Sn  Sn4  1  0.704180  0.295820  0.549179  1
  Sn  Sn5  1  0.596894  0.403106  0.111347  1
  Sn  Sn6  1  0.048592  0.951408  0.402230  1
  Sn  Sn7  1  0.953035  0.046965  0.900691  1
  Sn  Sn8  1  0.709361  0.290639  0.974902  1
  Sn  Sn9  1  0.289551  0.710449  0.474772  1
  Sn  Sn10  1  0.293859  0.706141  0.048594  1
  Sn  Sn11  1  0.878504  0.121496  0.240643  1
  Sn  Sn12  1  0.121745  0.878255  0.732892  1
  Sn  Sn13  1  0.402994  0.597006  0.607060  1
  Pt  Pt14  1  0.393401  0.606599  0.981731  1
  Rh  Rh15  1  0.777316  0.222684  0.262990  1
  Rh  Rh16  1  0.223271  0.776729  0.765220  1
  Rh  Rh17  1  0.051909  0.948091  0.019778  1
  Rh  Rh18  1  0.605355  0.394645  0.483004  1
  Rh  Rh19  1  0.948290  0.051710  0.521351  1
