# generated using pymatgen
data_Tm12GaFe3Pt
_symmetry_space_group_name_H-M   'P 1'
_cell_length_a   8.07780533
_cell_length_b   8.07780629
_cell_length_c   8.07780548
_cell_angle_alpha   107.92747259
_cell_angle_beta   110.43867799
_cell_angle_gamma   110.05868670
_symmetry_Int_Tables_number   1
_chemical_formula_structural   Tm12GaFe3Pt
_chemical_formula_sum   'Tm12 Ga1 Fe3 Pt1'
_cell_volume   405.52502133
_cell_formula_units_Z   1
loop_
 _symmetry_equiv_pos_site_id
 _symmetry_equiv_pos_as_xyz
  1  'x, y, z'
loop_
 _atom_site_type_symbol
 _atom_site_label
 _atom_site_symmetry_multiplicity
 _atom_site_fract_x
 _atom_site_fract_y
 _atom_site_fract_z
 _atom_site_occupancy
  Tm  Tm0  1  0.187088  0.417935  0.230846  1
  Tm  Tm1  1  0.812912  0.582065  0.769154  1
  Tm  Tm2  1  0.187088  0.956244  0.769154  1
  Tm  Tm3  1  0.926362  0.188817  0.737542  1
  Tm  Tm4  1  0.812912  0.043756  0.230846  1
  Tm  Tm5  1  0.073638  0.811183  0.262458  1
  Tm  Tm6  1  0.451275  0.188817  0.262458  1
  Tm  Tm7  1  0.548725  0.811183  0.737542  1
  Tm  Tm8  1  0.309378  0.309161  0.618538  1
  Tm  Tm9  1  0.690622  0.690839  0.381462  1
  Tm  Tm10  1  0.690622  0.309161  0.999782  1
  Tm  Tm11  1  0.309378  0.690839  0.000218  1
  Ga  Ga12  1  0.000000  0.500000  0.500000  1
  Fe  Fe13  1  0.379734  0.379734  0.000000  1
  Fe  Fe14  1  0.620266  0.620266  0.000000  1
  Fe  Fe15  1  0.000000  0.000000  0.000000  1
  Pt  Pt16  1  0.500000  0.000000  0.500000  1
