# generated using pymatgen
data_Tb6Dy10Cd4Co3Ir
_symmetry_space_group_name_H-M   'P 1'
_cell_length_a   9.56941768
_cell_length_b   9.53323920
_cell_length_c   9.53323900
_cell_angle_alpha   59.99999721
_cell_angle_beta   60.12498105
_cell_angle_gamma   60.12498289
_symmetry_Int_Tables_number   1
_chemical_formula_structural   Tb6Dy10Cd4Co3Ir
_chemical_formula_sum   'Tb6 Dy10 Cd4 Co3 Ir1'
_cell_volume   616.12569823
_cell_formula_units_Z   1
loop_
 _symmetry_equiv_pos_site_id
 _symmetry_equiv_pos_as_xyz
  1  'x, y, z'
loop_
 _atom_site_type_symbol
 _atom_site_label
 _atom_site_symmetry_multiplicity
 _atom_site_fract_x
 _atom_site_fract_y
 _atom_site_fract_z
 _atom_site_occupancy
  Tb  Tb0  1  0.186983  0.812762  0.812762  1
  Tb  Tb1  1  0.812529  0.188167  0.188167  1
  Tb  Tb2  1  0.812529  0.188167  0.811136  1
  Tb  Tb3  1  0.186983  0.812762  0.187493  1
  Tb  Tb4  1  0.812529  0.811136  0.188167  1
  Tb  Tb5  1  0.186983  0.187493  0.812762  1
  Dy  Dy6  1  0.592791  0.600003  0.600003  1
  Dy  Dy7  1  0.592791  0.600003  0.207204  1
  Dy  Dy8  1  0.592791  0.207204  0.600003  1
  Dy  Dy9  1  0.210385  0.596539  0.596539  1
  Dy  Dy10  1  0.066892  0.437755  0.437755  1
  Dy  Dy11  1  0.437624  0.062783  0.062783  1
  Dy  Dy12  1  0.437624  0.062783  0.436810  1
  Dy  Dy13  1  0.066892  0.437755  0.057599  1
  Dy  Dy14  1  0.437624  0.436810  0.062783  1
  Dy  Dy15  1  0.066892  0.057599  0.437755  1
  Cd  Cd16  1  0.830409  0.829962  0.829962  1
  Cd  Cd17  1  0.830409  0.829962  0.509668  1
  Cd  Cd18  1  0.830409  0.509668  0.829962  1
  Cd  Cd19  1  0.509177  0.830275  0.830275  1
  Co  Co20  1  0.391173  0.391340  0.391340  1
  Co  Co21  1  0.391173  0.391340  0.826147  1
  Co  Co22  1  0.391173  0.826147  0.391340  1
  Ir  Ir23  1  0.825239  0.391587  0.391587  1
