# generated using pymatgen
data_K2AsPRu2
_symmetry_space_group_name_H-M   'P 1'
_cell_length_a   4.09367400
_cell_length_b   4.09367400
_cell_length_c   10.11575800
_cell_angle_alpha   90.00000000
_cell_angle_beta   90.00000000
_cell_angle_gamma   90.00000000
_symmetry_Int_Tables_number   1
_chemical_formula_structural   K2AsPRu2
_chemical_formula_sum   'K2 As1 P1 Ru2'
_cell_volume   169.52156006
_cell_formula_units_Z   1
loop_
 _symmetry_equiv_pos_site_id
 _symmetry_equiv_pos_as_xyz
  1  'x, y, z'
loop_
 _atom_site_type_symbol
 _atom_site_label
 _atom_site_symmetry_multiplicity
 _atom_site_fract_x
 _atom_site_fract_y
 _atom_site_fract_z
 _atom_site_occupancy
  K  K0  1  0.500000  0.000000  0.293638  1
  K  K1  1  0.000000  0.500000  0.705273  1
  As  As2  1  0.500000  0.000000  0.871821  1
  P  P3  1  0.000000  0.500000  0.115561  1
  Ru  Ru4  1  0.000000  0.000000  0.006854  1
  Ru  Ru5  1  0.500000  0.500000  0.006854  1
