# generated using pymatgen
data_TiMn3Ga2(B2Rh5)2
_symmetry_space_group_name_H-M   'P 1'
_cell_length_a   9.33692055
_cell_length_b   9.33692055
_cell_length_c   2.94908400
_cell_angle_alpha   90.00000000
_cell_angle_beta   90.00000000
_cell_angle_gamma   89.79771713
_symmetry_Int_Tables_number   1
_chemical_formula_structural   TiMn3Ga2(B2Rh5)2
_chemical_formula_sum   'Ti1 Mn3 Ga2 B4 Rh10'
_cell_volume   257.09389426
_cell_formula_units_Z   1
loop_
 _symmetry_equiv_pos_site_id
 _symmetry_equiv_pos_as_xyz
  1  'x, y, z'
loop_
 _atom_site_type_symbol
 _atom_site_label
 _atom_site_symmetry_multiplicity
 _atom_site_fract_x
 _atom_site_fract_y
 _atom_site_fract_z
 _atom_site_occupancy
  Ti  Ti0  1  0.825352  0.325352  0.000000  1
  Mn  Mn1  1  0.322643  0.175128  0.000000  1
  Mn  Mn2  1  0.675128  0.822643  0.000000  1
  Mn  Mn3  1  0.178384  0.678384  0.000000  1
  Ga  Ga4  1  0.000324  0.998398  0.000000  1
  Ga  Ga5  1  0.498398  0.500324  0.000000  1
  B  B6  1  0.624548  0.124548  0.000000  1
  B  B7  1  0.128014  0.371892  0.000000  1
  B  B8  1  0.871892  0.628014  0.000000  1
  B  B9  1  0.372478  0.872478  0.000000  1
  Rh  Rh10  1  0.065792  0.216214  0.500000  1
  Rh  Rh11  1  0.215449  0.930579  0.500000  1
  Rh  Rh12  1  0.786081  0.075615  0.500000  1
  Rh  Rh13  1  0.927940  0.784515  0.500000  1
  Rh  Rh14  1  0.430579  0.715449  0.500000  1
  Rh  Rh15  1  0.575615  0.286081  0.500000  1
  Rh  Rh16  1  0.716214  0.565792  0.500000  1
  Rh  Rh17  1  0.284515  0.427940  0.500000  1
  Rh  Rh18  1  0.500796  0.000796  0.500000  1
  Rh  Rh19  1  0.999859  0.499859  0.500000  1
