# generated using pymatgen
data_Pa2Br5O2
_symmetry_space_group_name_H-M   'P 1'
_cell_length_a   8.66347817
_cell_length_b   8.66347858
_cell_length_c   4.18526100
_cell_angle_alpha   90.00000000
_cell_angle_beta   90.00000000
_cell_angle_gamma   117.14546251
_symmetry_Int_Tables_number   1
_chemical_formula_structural   Pa2Br5O2
_chemical_formula_sum   'Pa2 Br5 O2'
_cell_volume   279.52744930
_cell_formula_units_Z   1
loop_
 _symmetry_equiv_pos_site_id
 _symmetry_equiv_pos_as_xyz
  1  'x, y, z'
loop_
 _atom_site_type_symbol
 _atom_site_label
 _atom_site_symmetry_multiplicity
 _atom_site_fract_x
 _atom_site_fract_y
 _atom_site_fract_z
 _atom_site_occupancy
  Pa  Pa0  1  0.199834  0.800166  0.000000  1
  Pa  Pa1  1  0.800166  0.199834  0.000000  1
  Br  Br2  1  0.827559  0.550769  0.000000  1
  Br  Br3  1  0.172441  0.449231  0.000000  1
  Br  Br4  1  0.000000  0.000000  0.000000  1
  Br  Br5  1  0.550769  0.827559  0.000000  1
  Br  Br6  1  0.449231  0.172441  0.000000  1
  O  O7  1  0.200186  0.799814  0.500000  1
  O  O8  1  0.799814  0.200186  0.500000  1
