# generated using pymatgen
data_CsTh3Se5
_symmetry_space_group_name_H-M   'P 1'
_cell_length_a   4.23354300
_cell_length_b   12.68257700
_cell_length_c   22.63314500
_cell_angle_alpha   90.00000000
_cell_angle_beta   90.00000000
_cell_angle_gamma   90.00000000
_symmetry_Int_Tables_number   1
_chemical_formula_structural   CsTh3Se5
_chemical_formula_sum   'Cs4 Th12 Se20'
_cell_volume   1215.22414195
_cell_formula_units_Z   4
loop_
 _symmetry_equiv_pos_site_id
 _symmetry_equiv_pos_as_xyz
  1  'x, y, z'
loop_
 _atom_site_type_symbol
 _atom_site_label
 _atom_site_symmetry_multiplicity
 _atom_site_fract_x
 _atom_site_fract_y
 _atom_site_fract_z
 _atom_site_occupancy
  Cs  Cs0  1  0.250000  0.854488  0.095362  1
  Cs  Cs1  1  0.750000  0.145512  0.904638  1
  Cs  Cs2  1  0.750000  0.354488  0.404638  1
  Cs  Cs3  1  0.250000  0.645512  0.595362  1
  Th  Th4  1  0.750000  0.786277  0.827812  1
  Th  Th5  1  0.250000  0.213723  0.172188  1
  Th  Th6  1  0.250000  0.286277  0.672188  1
  Th  Th7  1  0.750000  0.713723  0.327812  1
  Th  Th8  1  0.250000  0.968865  0.694094  1
  Th  Th9  1  0.750000  0.031135  0.305906  1
  Th  Th10  1  0.750000  0.468865  0.805906  1
  Th  Th11  1  0.250000  0.531135  0.194094  1
  Th  Th12  1  0.750000  0.395663  0.061348  1
  Th  Th13  1  0.250000  0.604337  0.938652  1
  Th  Th14  1  0.250000  0.895663  0.438652  1
  Th  Th15  1  0.750000  0.104337  0.561348  1
  Se  Se16  1  0.250000  0.935205  0.566615  1
  Se  Se17  1  0.750000  0.064795  0.433385  1
  Se  Se18  1  0.750000  0.435205  0.933385  1
  Se  Se19  1  0.250000  0.564795  0.066615  1
  Se  Se20  1  0.750000  0.765512  0.958723  1
  Se  Se21  1  0.250000  0.234488  0.041277  1
  Se  Se22  1  0.250000  0.265512  0.541277  1
  Se  Se23  1  0.750000  0.734488  0.458723  1
  Se  Se24  1  0.250000  0.951021  0.826142  1
  Se  Se25  1  0.750000  0.048979  0.173858  1
  Se  Se26  1  0.750000  0.451021  0.673858  1
  Se  Se27  1  0.250000  0.548979  0.326142  1
  Se  Se28  1  0.750000  0.130469  0.695188  1
  Se  Se29  1  0.250000  0.869531  0.304812  1
  Se  Se30  1  0.250000  0.630469  0.804812  1
  Se  Se31  1  0.750000  0.369531  0.195188  1
  Se  Se32  1  0.750000  0.693171  0.197150  1
  Se  Se33  1  0.250000  0.306829  0.802850  1
  Se  Se34  1  0.250000  0.193171  0.302850  1
  Se  Se35  1  0.750000  0.806829  0.697150  1
