# generated using pymatgen
data_CeNdFe3P7Ru9
_symmetry_space_group_name_H-M   'P 1'
_cell_length_a   9.36443300
_cell_length_b   9.36443250
_cell_length_c   3.87003800
_cell_angle_alpha   90.00000000
_cell_angle_beta   90.00000000
_cell_angle_gamma   120.00000531
_symmetry_Int_Tables_number   1
_chemical_formula_structural   CeNdFe3P7Ru9
_chemical_formula_sum   'Ce1 Nd1 Fe3 P7 Ru9'
_cell_volume   293.90622726
_cell_formula_units_Z   1
loop_
 _symmetry_equiv_pos_site_id
 _symmetry_equiv_pos_as_xyz
  1  'x, y, z'
loop_
 _atom_site_type_symbol
 _atom_site_label
 _atom_site_symmetry_multiplicity
 _atom_site_fract_x
 _atom_site_fract_y
 _atom_site_fract_z
 _atom_site_occupancy
  Ce  Ce0  1  0.333333  0.666667  0.500000  1
  Nd  Nd1  1  0.000000  0.000000  0.000000  1
  Fe  Fe2  1  0.821689  0.599894  0.000000  1
  Fe  Fe3  1  0.778205  0.178311  0.000000  1
  Fe  Fe4  1  0.400106  0.221795  0.000000  1
  P  P5  1  0.074951  0.637505  0.000000  1
  P  P6  1  0.562553  0.925049  0.000000  1
  P  P7  1  0.362495  0.437447  0.000000  1
  P  P8  1  0.778865  0.726700  0.500000  1
  P  P9  1  0.947835  0.221135  0.500000  1
  P  P10  1  0.273300  0.052165  0.500000  1
  P  P11  1  0.666667  0.333333  0.000000  1
  Ru  Ru12  1  0.089353  0.395910  0.000000  1
  Ru  Ru13  1  0.306557  0.910647  0.000000  1
  Ru  Ru14  1  0.604090  0.693443  0.000000  1
  Ru  Ru15  1  0.051788  0.768807  0.500000  1
  Ru  Ru16  1  0.717020  0.948212  0.500000  1
  Ru  Ru17  1  0.231193  0.282980  0.500000  1
  Ru  Ru18  1  0.871573  0.422236  0.500000  1
  Ru  Ru19  1  0.550663  0.128427  0.500000  1
  Ru  Ru20  1  0.577764  0.449337  0.500000  1
