# generated using pymatgen
data_Lu5SnGe2O
_symmetry_space_group_name_H-M   'P 1'
_cell_length_a   8.57504636
_cell_length_b   8.57504706
_cell_length_c   8.57504700
_cell_angle_alpha   126.23410147
_cell_angle_beta   126.23409665
_cell_angle_gamma   79.50371731
_symmetry_Int_Tables_number   1
_chemical_formula_structural   Lu5SnGe2O
_chemical_formula_sum   'Lu10 Sn2 Ge4 O2'
_cell_volume   396.45778849
_cell_formula_units_Z   2
loop_
 _symmetry_equiv_pos_site_id
 _symmetry_equiv_pos_as_xyz
  1  'x, y, z'
loop_
 _atom_site_type_symbol
 _atom_site_label
 _atom_site_symmetry_multiplicity
 _atom_site_fract_x
 _atom_site_fract_y
 _atom_site_fract_z
 _atom_site_occupancy
  Lu  Lu0  1  0.494230  0.292000  0.500000  1
  Lu  Lu1  1  0.792000  0.994230  0.500000  1
  Lu  Lu2  1  0.994230  0.494230  0.202230  1
  Lu  Lu3  1  0.292000  0.792000  0.797770  1
  Lu  Lu4  1  0.508379  0.710686  0.500000  1
  Lu  Lu5  1  0.210686  0.008379  0.500000  1
  Lu  Lu6  1  0.008379  0.508379  0.797693  1
  Lu  Lu7  1  0.710686  0.210686  0.202307  1
  Lu  Lu8  1  0.501350  0.501350  0.000000  1
  Lu  Lu9  1  0.001350  0.001350  0.000000  1
  Sn  Sn10  1  0.751067  0.751067  0.000000  1
  Sn  Sn11  1  0.251067  0.251067  0.000000  1
  Ge  Ge12  1  0.151314  0.351115  0.500000  1
  Ge  Ge13  1  0.851115  0.651314  0.500000  1
  Ge  Ge14  1  0.651314  0.151314  0.800197  1
  Ge  Ge15  1  0.351115  0.851115  0.199803  1
  O  O16  1  0.751277  0.251277  0.500000  1
  O  O17  1  0.251277  0.751277  0.500000  1
