# generated using pymatgen
data_ZrSc3(CoB4)4
_symmetry_space_group_name_H-M   'P 1'
_cell_length_a   5.78735367
_cell_length_b   11.21820429
_cell_length_c   3.23701300
_cell_angle_alpha   90.00000000
_cell_angle_beta   90.00000000
_cell_angle_gamma   89.94490554
_symmetry_Int_Tables_number   1
_chemical_formula_structural   ZrSc3(CoB4)4
_chemical_formula_sum   'Zr1 Sc3 Co4 B16'
_cell_volume   210.15881487
_cell_formula_units_Z   1
loop_
 _symmetry_equiv_pos_site_id
 _symmetry_equiv_pos_as_xyz
  1  'x, y, z'
loop_
 _atom_site_type_symbol
 _atom_site_label
 _atom_site_symmetry_multiplicity
 _atom_site_fract_x
 _atom_site_fract_y
 _atom_site_fract_z
 _atom_site_occupancy
  Zr  Zr0  1  0.628950  0.350198  0.000000  1
  Sc  Sc1  1  0.370767  0.649720  0.000000  1
  Sc  Sc2  1  0.131499  0.149731  0.000000  1
  Sc  Sc3  1  0.869605  0.850360  0.000000  1
  Co  Co4  1  0.636826  0.089559  0.000000  1
  Co  Co5  1  0.363416  0.910339  0.000000  1
  Co  Co6  1  0.135047  0.409933  0.000000  1
  Co  Co7  1  0.864355  0.590028  0.000000  1
  B  B8  1  0.789066  0.185806  0.500000  1
  B  B9  1  0.210894  0.814218  0.500000  1
  B  B10  1  0.287895  0.313079  0.500000  1
  B  B11  1  0.710294  0.686389  0.500000  1
  B  B12  1  0.865588  0.031197  0.500000  1
  B  B13  1  0.134192  0.968148  0.500000  1
  B  B14  1  0.366247  0.468223  0.500000  1
  B  B15  1  0.634059  0.533268  0.500000  1
  B  B16  1  0.887999  0.453115  0.500000  1
  B  B17  1  0.114746  0.548758  0.500000  1
  B  B18  1  0.385677  0.047182  0.500000  1
  B  B19  1  0.613145  0.952018  0.500000  1
  B  B20  1  0.978672  0.305474  0.500000  1
  B  B21  1  0.022711  0.693932  0.500000  1
  B  B22  1  0.476486  0.192779  0.500000  1
  B  B23  1  0.521863  0.806546  0.500000  1
