# generated using pymatgen
data_SmHoP7Ru12
_symmetry_space_group_name_H-M   'P 1'
_cell_length_a   9.42660100
_cell_length_b   9.42659994
_cell_length_c   3.96395600
_cell_angle_alpha   90.00000000
_cell_angle_beta   90.00000000
_cell_angle_gamma   120.00000022
_symmetry_Int_Tables_number   1
_chemical_formula_structural   SmHoP7Ru12
_chemical_formula_sum   'Sm1 Ho1 P7 Ru12'
_cell_volume   305.04903617
_cell_formula_units_Z   1
loop_
 _symmetry_equiv_pos_site_id
 _symmetry_equiv_pos_as_xyz
  1  'x, y, z'
loop_
 _atom_site_type_symbol
 _atom_site_label
 _atom_site_symmetry_multiplicity
 _atom_site_fract_x
 _atom_site_fract_y
 _atom_site_fract_z
 _atom_site_occupancy
  Sm  Sm0  1  0.333333  0.666667  0.000000  1
  Ho  Ho1  1  0.666667  0.333333  0.500000  1
  P  P2  1  0.602834  0.718752  0.500000  1
  P  P3  1  0.000000  0.000000  0.000000  1
  P  P4  1  0.281248  0.884082  0.500000  1
  P  P5  1  0.115918  0.397166  0.500000  1
  P  P6  1  0.885803  0.572528  0.000000  1
  P  P7  1  0.427472  0.313277  0.000000  1
  P  P8  1  0.686723  0.114197  0.000000  1
  Ru  Ru9  1  0.558095  0.952822  0.500000  1
  Ru  Ru10  1  0.394728  0.441905  0.500000  1
  Ru  Ru11  1  0.914805  0.120665  0.500000  1
  Ru  Ru12  1  0.205860  0.085195  0.500000  1
  Ru  Ru13  1  0.879335  0.794140  0.500000  1
  Ru  Ru14  1  0.728414  0.892795  0.000000  1
  Ru  Ru15  1  0.107205  0.835619  0.000000  1
  Ru  Ru16  1  0.164381  0.271586  0.000000  1
  Ru  Ru17  1  0.422717  0.067887  0.000000  1
  Ru  Ru18  1  0.932113  0.354831  0.000000  1
  Ru  Ru19  1  0.645169  0.577283  0.000000  1
  Ru  Ru20  1  0.047178  0.605272  0.500000  1
