# generated using pymatgen
data_Tb4Dy12MgNi4Ag3
_symmetry_space_group_name_H-M   'P 1'
_cell_length_a   9.48160631
_cell_length_b   9.49474291
_cell_length_c   9.49474300
_cell_angle_alpha   60.00000317
_cell_angle_beta   59.95416119
_cell_angle_gamma   59.95415062
_symmetry_Int_Tables_number   1
_chemical_formula_structural   Tb4Dy12MgNi4Ag3
_chemical_formula_sum   'Tb4 Dy12 Mg1 Ni4 Ag3'
_cell_volume   603.99322914
_cell_formula_units_Z   1
loop_
 _symmetry_equiv_pos_site_id
 _symmetry_equiv_pos_as_xyz
  1  'x, y, z'
loop_
 _atom_site_type_symbol
 _atom_site_label
 _atom_site_symmetry_multiplicity
 _atom_site_fract_x
 _atom_site_fract_y
 _atom_site_fract_z
 _atom_site_occupancy
  Tb  Tb0  1  0.599896  0.597656  0.597656  1
  Tb  Tb1  1  0.599896  0.597656  0.204790  1
  Tb  Tb2  1  0.599896  0.204790  0.597656  1
  Tb  Tb3  1  0.192392  0.602535  0.602535  1
  Dy  Dy4  1  0.183236  0.815685  0.815685  1
  Dy  Dy5  1  0.814646  0.184946  0.184946  1
  Dy  Dy6  1  0.814646  0.184946  0.815461  1
  Dy  Dy7  1  0.183236  0.815685  0.185394  1
  Dy  Dy8  1  0.814646  0.815461  0.184946  1
  Dy  Dy9  1  0.183236  0.185394  0.815685  1
  Dy  Dy10  1  0.059020  0.439908  0.439908  1
  Dy  Dy11  1  0.435029  0.063484  0.063484  1
  Dy  Dy12  1  0.435029  0.063484  0.438003  1
  Dy  Dy13  1  0.059020  0.439908  0.061165  1
  Dy  Dy14  1  0.435029  0.438003  0.063484  1
  Dy  Dy15  1  0.059020  0.061165  0.439908  1
  Mg  Mg16  1  0.538172  0.820610  0.820610  1
  Ni  Ni17  1  0.390192  0.393347  0.393347  1
  Ni  Ni18  1  0.390192  0.393347  0.823116  1
  Ni  Ni19  1  0.390192  0.823116  0.393347  1
  Ni  Ni20  1  0.824952  0.391683  0.391683  1
  Ag  Ag21  1  0.832808  0.834260  0.834260  1
  Ag  Ag22  1  0.832808  0.834260  0.498673  1
  Ag  Ag23  1  0.832808  0.498673  0.834260  1
