# generated using pymatgen
data_TbHo2Th(GaPd2)4
_symmetry_space_group_name_H-M   'P 1'
_cell_length_a   5.68074589
_cell_length_b   7.18766100
_cell_length_c   7.42050815
_cell_angle_alpha   90.00000000
_cell_angle_beta   89.70765662
_cell_angle_gamma   90.00000000
_symmetry_Int_Tables_number   1
_chemical_formula_structural   TbHo2Th(GaPd2)4
_chemical_formula_sum   'Tb1 Ho2 Th1 Ga4 Pd8'
_cell_volume   302.98487015
_cell_formula_units_Z   1
loop_
 _symmetry_equiv_pos_site_id
 _symmetry_equiv_pos_as_xyz
  1  'x, y, z'
loop_
 _atom_site_type_symbol
 _atom_site_label
 _atom_site_symmetry_multiplicity
 _atom_site_fract_x
 _atom_site_fract_y
 _atom_site_fract_z
 _atom_site_occupancy
  Tb  Tb0  1  0.851725  0.250000  0.467721  1
  Ho  Ho1  1  0.150119  0.750000  0.529499  1
  Ho  Ho2  1  0.652920  0.250000  0.968505  1
  Th  Th3  1  0.351481  0.750000  0.034209  1
  Ga  Ga4  1  0.650715  0.750000  0.391884  1
  Ga  Ga5  1  0.853702  0.750000  0.877217  1
  Ga  Ga6  1  0.353951  0.250000  0.617193  1
  Ga  Ga7  1  0.145728  0.250000  0.115848  1
  Pd  Pd8  1  0.911251  0.552702  0.182533  1
  Pd  Pd9  1  0.583329  0.949430  0.683875  1
  Pd  Pd10  1  0.086600  0.051390  0.816980  1
  Pd  Pd11  1  0.413649  0.448868  0.315574  1
  Pd  Pd12  1  0.086600  0.448610  0.816980  1
  Pd  Pd13  1  0.413649  0.051132  0.315574  1
  Pd  Pd14  1  0.911251  0.947298  0.182533  1
  Pd  Pd15  1  0.583329  0.550570  0.683875  1
