# generated using pymatgen
data_Tb3Ni2Rh7
_symmetry_space_group_name_H-M   'P 1'
_cell_length_a   5.28348199
_cell_length_b   5.28348117
_cell_length_c   8.95409699
_cell_angle_alpha   72.84057341
_cell_angle_beta   72.84057753
_cell_angle_gamma   60.00000488
_symmetry_Int_Tables_number   1
_chemical_formula_structural   Tb3Ni2Rh7
_chemical_formula_sum   'Tb3 Ni2 Rh7'
_cell_volume   203.51888005
_cell_formula_units_Z   1
loop_
 _symmetry_equiv_pos_site_id
 _symmetry_equiv_pos_as_xyz
  1  'x, y, z'
loop_
 _atom_site_type_symbol
 _atom_site_label
 _atom_site_symmetry_multiplicity
 _atom_site_fract_x
 _atom_site_fract_y
 _atom_site_fract_z
 _atom_site_occupancy
  Tb  Tb0  1  0.139295  0.139295  0.582115  1
  Tb  Tb1  1  0.860705  0.860705  0.417885  1
  Tb  Tb2  1  0.000000  0.000000  0.000000  1
  Ni  Ni3  1  0.333312  0.333312  0.000062  1
  Ni  Ni4  1  0.666688  0.666688  0.999938  1
  Rh  Rh5  1  0.077747  0.580910  0.760432  1
  Rh  Rh6  1  0.580910  0.580910  0.760432  1
  Rh  Rh7  1  0.580910  0.077747  0.760432  1
  Rh  Rh8  1  0.922253  0.419090  0.239568  1
  Rh  Rh9  1  0.419090  0.419090  0.239568  1
  Rh  Rh10  1  0.419090  0.922253  0.239568  1
  Rh  Rh11  1  0.500000  0.500000  0.500000  1
