# generated using pymatgen
data_FeCo6Si16Rh
_symmetry_space_group_name_H-M   'P 1'
_cell_length_a   6.52814797
_cell_length_b   6.45058541
_cell_length_c   7.81612694
_cell_angle_alpha   87.04185415
_cell_angle_beta   87.80054930
_cell_angle_gamma   106.87379523
_symmetry_Int_Tables_number   1
_chemical_formula_structural   FeCo6Si16Rh
_chemical_formula_sum   'Fe1 Co6 Si16 Rh1'
_cell_volume   314.05904208
_cell_formula_units_Z   1
loop_
 _symmetry_equiv_pos_site_id
 _symmetry_equiv_pos_as_xyz
  1  'x, y, z'
loop_
 _atom_site_type_symbol
 _atom_site_label
 _atom_site_symmetry_multiplicity
 _atom_site_fract_x
 _atom_site_fract_y
 _atom_site_fract_z
 _atom_site_occupancy
  Fe  Fe0  1  0.782637  0.224251  0.001722  1
  Co  Co1  1  0.276157  0.274812  0.273317  1
  Co  Co2  1  0.726239  0.723585  0.726498  1
  Co  Co3  1  0.764227  0.780581  0.215603  1
  Co  Co4  1  0.246165  0.745461  0.496065  1
  Co  Co5  1  0.237063  0.781084  0.991588  1
  Co  Co6  1  0.745246  0.252753  0.498918  1
  Si  Si7  1  0.385442  0.647968  0.245549  1
  Si  Si8  1  0.093306  0.838537  0.731884  1
  Si  Si9  1  0.137358  0.894396  0.255395  1
  Si  Si10  1  0.360019  0.620055  0.748489  1
  Si  Si11  1  0.622786  0.355306  0.757183  1
  Si  Si12  1  0.901047  0.147288  0.267150  1
  Si  Si13  1  0.843272  0.096025  0.734895  1
  Si  Si14  1  0.647355  0.390057  0.244960  1
  Si  Si15  1  0.143282  0.408436  0.035934  1
  Si  Si16  1  0.373722  0.122534  0.514229  1
  Si  Si17  1  0.870463  0.628307  0.477831  1
  Si  Si18  1  0.605966  0.854525  0.971546  1
  Si  Si19  1  0.863030  0.609914  0.979326  1
  Si  Si20  1  0.620220  0.871571  0.482121  1
  Si  Si21  1  0.121770  0.373153  0.512603  1
  Si  Si22  1  0.412821  0.142317  0.039412  1
  Rh  Rh23  1  0.220405  0.217083  0.797780  1
