# generated using pymatgen
data_Yb2B4Os3C
_symmetry_space_group_name_H-M   'P 1'
_cell_length_a   5.58301574
_cell_length_b   5.58301609
_cell_length_c   8.00403528
_cell_angle_alpha   57.74064707
_cell_angle_beta   57.74064455
_cell_angle_gamma   42.37167044
_symmetry_Int_Tables_number   1
_chemical_formula_structural   Yb2B4Os3C
_chemical_formula_sum   'Yb2 B4 Os3 C1'
_cell_volume   137.86401755
_cell_formula_units_Z   1
loop_
 _symmetry_equiv_pos_site_id
 _symmetry_equiv_pos_as_xyz
  1  'x, y, z'
loop_
 _atom_site_type_symbol
 _atom_site_label
 _atom_site_symmetry_multiplicity
 _atom_site_fract_x
 _atom_site_fract_y
 _atom_site_fract_z
 _atom_site_occupancy
  Yb  Yb0  1  0.382108  0.934393  0.248155  1
  Yb  Yb1  1  0.065607  0.617892  0.751845  1
  B  B2  1  0.070213  0.638446  0.310791  1
  B  B3  1  0.520577  0.532131  0.880343  1
  B  B4  1  0.361554  0.929787  0.689209  1
  B  B5  1  0.467869  0.479423  0.119657  1
  Os  Os6  1  0.861674  0.394899  0.594865  1
  Os  Os7  1  0.998971  0.001029  0.000000  1
  Os  Os8  1  0.605101  0.138326  0.405135  1
  C  C9  1  0.731326  0.268674  0.500000  1
