# generated using pymatgen
data_Nb12Zn11CuC4
_symmetry_space_group_name_H-M   'P 1'
_cell_length_a   8.34890391
_cell_length_b   8.33639234
_cell_length_c   8.33630700
_cell_angle_alpha   60.00046594
_cell_angle_beta   60.05007206
_cell_angle_gamma   60.05008434
_symmetry_Int_Tables_number   1
_chemical_formula_structural   Nb12Zn11CuC4
_chemical_formula_sum   'Nb12 Zn11 Cu1 C4'
_cell_volume   410.57845797
_cell_formula_units_Z   1
loop_
 _symmetry_equiv_pos_site_id
 _symmetry_equiv_pos_as_xyz
  1  'x, y, z'
loop_
 _atom_site_type_symbol
 _atom_site_label
 _atom_site_symmetry_multiplicity
 _atom_site_fract_x
 _atom_site_fract_y
 _atom_site_fract_z
 _atom_site_occupancy
  Nb  Nb0  1  0.431100  0.430857  0.069021  1
  Nb  Nb1  1  0.070022  0.431667  0.066638  1
  Nb  Nb2  1  0.431095  0.069022  0.069023  1
  Nb  Nb3  1  0.070023  0.066638  0.431669  1
  Nb  Nb4  1  0.431097  0.069021  0.430859  1
  Nb  Nb5  1  0.070022  0.431668  0.431673  1
  Nb  Nb6  1  0.818900  0.819143  0.180979  1
  Nb  Nb7  1  0.179978  0.818333  0.183362  1
  Nb  Nb8  1  0.818905  0.180978  0.180977  1
  Nb  Nb9  1  0.179977  0.183362  0.818331  1
  Nb  Nb10  1  0.818903  0.180979  0.819141  1
  Nb  Nb11  1  0.179978  0.818332  0.818327  1
  Zn  Zn12  1  0.835965  0.830427  0.503182  1
  Zn  Zn13  1  0.835966  0.503182  0.830427  1
  Zn  Zn14  1  0.500137  0.833288  0.833287  1
  Zn  Zn15  1  0.835965  0.830427  0.830426  1
  Zn  Zn16  1  0.414035  0.419573  0.746818  1
  Zn  Zn17  1  0.414034  0.746818  0.419573  1
  Zn  Zn18  1  0.749863  0.416712  0.416713  1
  Zn  Zn19  1  0.414035  0.419573  0.419574  1
  Zn  Zn20  1  0.625000  0.625000  0.125000  1
  Zn  Zn21  1  0.625000  0.125000  0.625000  1
  Zn  Zn22  1  0.625000  0.625000  0.625000  1
  Cu  Cu23  1  0.125000  0.625000  0.625000  1
  C  C24  1  0.125000  0.125000  0.625000  1
  C  C25  1  0.125000  0.625000  0.125000  1
  C  C26  1  0.625000  0.125000  0.125000  1
  C  C27  1  0.125000  0.125000  0.125000  1
