# generated using pymatgen
data_Nd8Zn8RuPt4Rh3
_symmetry_space_group_name_H-M   'P 1'
_cell_length_a   4.04495900
_cell_length_b   7.39268708
_cell_length_c   16.69197320
_cell_angle_alpha   90.04677213
_cell_angle_beta   90.00000000
_cell_angle_gamma   90.00000000
_symmetry_Int_Tables_number   1
_chemical_formula_structural   Nd8Zn8RuPt4Rh3
_chemical_formula_sum   'Nd8 Zn8 Ru1 Pt4 Rh3'
_cell_volume   499.14184653
_cell_formula_units_Z   1
loop_
 _symmetry_equiv_pos_site_id
 _symmetry_equiv_pos_as_xyz
  1  'x, y, z'
loop_
 _atom_site_type_symbol
 _atom_site_label
 _atom_site_symmetry_multiplicity
 _atom_site_fract_x
 _atom_site_fract_y
 _atom_site_fract_z
 _atom_site_occupancy
  Nd  Nd0  1  0.250000  0.169125  0.942986  1
  Nd  Nd1  1  0.250000  0.666281  0.560578  1
  Nd  Nd2  1  0.750000  0.328527  0.443867  1
  Nd  Nd3  1  0.750000  0.948394  0.280384  1
  Nd  Nd4  1  0.750000  0.829438  0.060359  1
  Nd  Nd5  1  0.750000  0.451433  0.213486  1
  Nd  Nd6  1  0.250000  0.053713  0.712440  1
  Nd  Nd7  1  0.250000  0.550890  0.787196  1
  Zn  Zn8  1  0.750000  0.004771  0.561173  1
  Zn  Zn9  1  0.250000  0.621714  0.346263  1
  Zn  Zn10  1  0.750000  0.376814  0.649567  1
  Zn  Zn11  1  0.250000  0.498933  0.060074  1
  Zn  Zn12  1  0.750000  0.503009  0.941285  1
  Zn  Zn13  1  0.250000  0.000952  0.440974  1
  Zn  Zn14  1  0.250000  0.121215  0.149263  1
  Zn  Zn15  1  0.750000  0.876774  0.850263  1
  Ru  Ru16  1  0.250000  0.243645  0.565511  1
  Pt  Pt17  1  0.750000  0.754218  0.433316  1
  Pt  Pt18  1  0.250000  0.246500  0.312704  1
  Pt  Pt19  1  0.750000  0.253139  0.815163  1
  Pt  Pt20  1  0.750000  0.753875  0.686623  1
  Rh  Rh21  1  0.250000  0.746585  0.185682  1
  Rh  Rh22  1  0.750000  0.254909  0.065519  1
  Rh  Rh23  1  0.250000  0.745143  0.935325  1
