# generated using pymatgen
data_GdEr9(Ga2Ru3)2
_symmetry_space_group_name_H-M   'P 1'
_cell_length_a   8.28684760
_cell_length_b   8.28684815
_cell_length_c   8.27867300
_cell_angle_alpha   109.12842817
_cell_angle_beta   109.50980269
_cell_angle_gamma   109.81583464
_symmetry_Int_Tables_number   1
_chemical_formula_structural   GdEr9(Ga2Ru3)2
_chemical_formula_sum   'Gd1 Er9 Ga4 Ru6'
_cell_volume   437.41035974
_cell_formula_units_Z   1
loop_
 _symmetry_equiv_pos_site_id
 _symmetry_equiv_pos_as_xyz
  1  'x, y, z'
loop_
 _atom_site_type_symbol
 _atom_site_label
 _atom_site_symmetry_multiplicity
 _atom_site_fract_x
 _atom_site_fract_y
 _atom_site_fract_z
 _atom_site_occupancy
  Gd  Gd0  1  0.186183  0.936183  0.250000  1
  Er  Er1  1  0.782597  0.783983  0.782864  1
  Er  Er2  1  0.317367  0.567367  0.750000  1
  Er  Er3  1  0.751901  0.320637  0.570619  1
  Er  Er4  1  0.568824  0.749138  0.318214  1
  Er  Er5  1  0.715721  0.499952  0.999785  1
  Er  Er6  1  0.000168  0.715937  0.500215  1
  Er  Er7  1  0.501119  0.999734  0.717136  1
  Er  Er8  1  0.250019  0.181282  0.929381  1
  Er  Er9  1  0.930923  0.250609  0.181786  1
  Ga  Ga10  1  0.413450  0.414103  0.413125  1
  Ga  Ga11  1  0.088490  0.498625  0.001658  1
  Ga  Ga12  1  0.996967  0.086833  0.498342  1
  Ga  Ga13  1  0.500977  0.000326  0.086875  1
  Ru  Ru14  1  0.874251  0.124251  0.750000  1
  Ru  Ru15  1  0.747494  0.872741  0.121818  1
  Ru  Ru16  1  0.123652  0.748945  0.874678  1
  Ru  Ru17  1  0.250923  0.625677  0.378182  1
  Ru  Ru18  1  0.374268  0.248974  0.625322  1
  Ru  Ru19  1  0.624703  0.374703  0.250000  1
