# generated using pymatgen
data_Th2Sb4Au
_symmetry_space_group_name_H-M   'P 1'
_cell_length_a   4.47075700
_cell_length_b   4.47075700
_cell_length_c   9.87810600
_cell_angle_alpha   90.00000000
_cell_angle_beta   90.00000000
_cell_angle_gamma   90.00000000
_symmetry_Int_Tables_number   1
_chemical_formula_structural   Th2Sb4Au
_chemical_formula_sum   'Th2 Sb4 Au1'
_cell_volume   197.44030471
_cell_formula_units_Z   1
loop_
 _symmetry_equiv_pos_site_id
 _symmetry_equiv_pos_as_xyz
  1  'x, y, z'
loop_
 _atom_site_type_symbol
 _atom_site_label
 _atom_site_symmetry_multiplicity
 _atom_site_fract_x
 _atom_site_fract_y
 _atom_site_fract_z
 _atom_site_occupancy
  Th  Th0  1  0.500000  0.000000  0.746519  1
  Th  Th1  1  0.000000  0.500000  0.253481  1
  Sb  Sb2  1  0.500000  0.500000  0.000000  1
  Sb  Sb3  1  0.000000  0.000000  0.000000  1
  Sb  Sb4  1  0.500000  0.000000  0.331235  1
  Sb  Sb5  1  0.000000  0.500000  0.668765  1
  Au  Au6  1  0.500000  0.500000  0.500000  1
