# generated using pymatgen
data_NdDyNi10
_symmetry_space_group_name_H-M   'P 1'
_cell_length_a   3.95153200
_cell_length_b   4.91049000
_cell_length_c   8.50755400
_cell_angle_alpha   90.00000000
_cell_angle_beta   90.00000000
_cell_angle_gamma   90.00000000
_symmetry_Int_Tables_number   1
_chemical_formula_structural   NdDyNi10
_chemical_formula_sum   'Nd1 Dy1 Ni10'
_cell_volume   165.08022365
_cell_formula_units_Z   1
loop_
 _symmetry_equiv_pos_site_id
 _symmetry_equiv_pos_as_xyz
  1  'x, y, z'
loop_
 _atom_site_type_symbol
 _atom_site_label
 _atom_site_symmetry_multiplicity
 _atom_site_fract_x
 _atom_site_fract_y
 _atom_site_fract_z
 _atom_site_occupancy
  Nd  Nd0  1  0.000000  0.500000  0.500000  1
  Dy  Dy1  1  0.000000  0.000000  0.000000  1
  Ni  Ni2  1  0.000000  0.000000  0.329591  1
  Ni  Ni3  1  0.000000  0.500000  0.836413  1
  Ni  Ni4  1  0.000000  0.500000  0.163587  1
  Ni  Ni5  1  0.000000  0.000000  0.670409  1
  Ni  Ni6  1  0.500000  0.500000  0.000000  1
  Ni  Ni7  1  0.500000  0.000000  0.500000  1
  Ni  Ni8  1  0.500000  0.247769  0.246395  1
  Ni  Ni9  1  0.500000  0.752231  0.753605  1
  Ni  Ni10  1  0.500000  0.752231  0.246395  1
  Ni  Ni11  1  0.500000  0.247769  0.753605  1
