# generated using pymatgen
data_Ta4MnV5As2
_symmetry_space_group_name_H-M   'P 1'
_cell_length_a   5.00338800
_cell_length_b   4.97256419
_cell_length_c   8.26161800
_cell_angle_alpha   90.00000000
_cell_angle_beta   90.00000000
_cell_angle_gamma   120.20526655
_symmetry_Int_Tables_number   1
_chemical_formula_structural   Ta4MnV5As2
_chemical_formula_sum   'Ta4 Mn1 V5 As2'
_cell_volume   177.63899450
_cell_formula_units_Z   1
loop_
 _symmetry_equiv_pos_site_id
 _symmetry_equiv_pos_as_xyz
  1  'x, y, z'
loop_
 _atom_site_type_symbol
 _atom_site_label
 _atom_site_symmetry_multiplicity
 _atom_site_fract_x
 _atom_site_fract_y
 _atom_site_fract_z
 _atom_site_occupancy
  Ta  Ta0  1  0.332920  0.665842  0.062850  1
  Ta  Ta1  1  0.666183  0.332365  0.567721  1
  Ta  Ta2  1  0.666183  0.332365  0.932279  1
  Ta  Ta3  1  0.332920  0.665842  0.437150  1
  Mn  Mn4  1  0.173025  0.346051  0.750000  1
  V  V5  1  0.827075  0.654149  0.250000  1
  V  V6  1  0.171694  0.822769  0.750000  1
  V  V7  1  0.651074  0.822769  0.750000  1
  V  V8  1  0.345490  0.172696  0.250000  1
  V  V9  1  0.827206  0.172696  0.250000  1
  As  As10  1  0.003114  0.006229  0.998139  1
  As  As11  1  0.003114  0.006229  0.501861  1
