# generated using pymatgen
data_Pr17Ho3Si15Pt
_symmetry_space_group_name_H-M   'P 1'
_cell_length_a   7.89766514
_cell_length_b   7.86543567
_cell_length_c   15.23314702
_cell_angle_alpha   89.99348540
_cell_angle_beta   89.67537999
_cell_angle_gamma   90.17126587
_symmetry_Int_Tables_number   1
_chemical_formula_structural   Pr17Ho3Si15Pt
_chemical_formula_sum   'Pr17 Ho3 Si15 Pt1'
_cell_volume   946.24199407
_cell_formula_units_Z   1
loop_
 _symmetry_equiv_pos_site_id
 _symmetry_equiv_pos_as_xyz
  1  'x, y, z'
loop_
 _atom_site_type_symbol
 _atom_site_label
 _atom_site_symmetry_multiplicity
 _atom_site_fract_x
 _atom_site_fract_y
 _atom_site_fract_z
 _atom_site_occupancy
  Pr  Pr0  1  0.694529  0.687385  0.499398  1
  Pr  Pr1  1  0.374289  0.010588  0.447592  1
  Pr  Pr2  1  0.489832  0.875056  0.699587  1
  Pr  Pr3  1  0.510834  0.124041  0.196686  1
  Pr  Pr4  1  0.876752  0.487463  0.300531  1
  Pr  Pr5  1  0.123114  0.509185  0.801427  1
  Pr  Pr6  1  0.626383  0.988490  0.948817  1
  Pr  Pr7  1  0.003648  0.374214  0.551847  1
  Pr  Pr8  1  0.989029  0.626052  0.052635  1
  Pr  Pr9  1  0.134533  0.985406  0.875525  1
  Pr  Pr10  1  0.518927  0.631561  0.125940  1
  Pr  Pr11  1  0.474206  0.366180  0.629555  1
  Pr  Pr12  1  0.627942  0.518735  0.873985  1
  Pr  Pr13  1  0.372100  0.480701  0.371880  1
  Pr  Pr14  1  0.873207  0.021736  0.376604  1
  Pr  Pr15  1  0.981018  0.127049  0.123062  1
  Pr  Pr16  1  0.022473  0.876608  0.623119  1
  Ho  Ho17  1  0.309615  0.309373  0.999658  1
  Ho  Ho18  1  0.188828  0.810346  0.250101  1
  Ho  Ho19  1  0.815275  0.188033  0.750645  1
  Si  Si20  1  0.330504  0.691112  0.953189  1
  Si  Si21  1  0.662755  0.303173  0.453386  1
  Si  Si22  1  0.693241  0.332140  0.046944  1
  Si  Si23  1  0.306504  0.669376  0.546144  1
  Si  Si24  1  0.809875  0.830612  0.204571  1
  Si  Si25  1  0.170122  0.191823  0.294959  1
  Si  Si26  1  0.832804  0.808243  0.796856  1
  Si  Si27  1  0.286999  0.924135  0.062039  1
  Si  Si28  1  0.574819  0.787994  0.309257  1
  Si  Si29  1  0.433463  0.207869  0.815830  1
  Si  Si30  1  0.785770  0.576481  0.690973  1
  Si  Si31  1  0.213428  0.424468  0.186856  1
  Si  Si32  1  0.706767  0.076782  0.562186  1
  Si  Si33  1  0.922098  0.286948  0.938996  1
  Si  Si34  1  0.082382  0.715807  0.436933  1
  Pt  Pt35  1  0.181935  0.174832  0.702289  1
