# generated using pymatgen
data_Th3Al3FeCu2
_symmetry_space_group_name_H-M   'P 1'
_cell_length_a   7.08651200
_cell_length_b   7.08651251
_cell_length_c   4.15574400
_cell_angle_alpha   90.00000000
_cell_angle_beta   90.00000000
_cell_angle_gamma   119.99999764
_symmetry_Int_Tables_number   1
_chemical_formula_structural   Th3Al3FeCu2
_chemical_formula_sum   'Th3 Al3 Fe1 Cu2'
_cell_volume   180.73593629
_cell_formula_units_Z   1
loop_
 _symmetry_equiv_pos_site_id
 _symmetry_equiv_pos_as_xyz
  1  'x, y, z'
loop_
 _atom_site_type_symbol
 _atom_site_label
 _atom_site_symmetry_multiplicity
 _atom_site_fract_x
 _atom_site_fract_y
 _atom_site_fract_z
 _atom_site_occupancy
  Th  Th0  1  0.431603  0.419331  0.500000  1
  Th  Th1  1  0.580669  0.012272  0.500000  1
  Th  Th2  1  0.987728  0.568397  0.500000  1
  Al  Al3  1  0.769226  0.763567  0.000000  1
  Al  Al4  1  0.236433  0.005659  0.000000  1
  Al  Al5  1  0.994341  0.230774  0.000000  1
  Fe  Fe6  1  0.666667  0.333333  0.000000  1
  Cu  Cu7  1  0.333333  0.666667  0.000000  1
  Cu  Cu8  1  0.000000  0.000000  0.500000  1
