# generated using pymatgen
data_Er11Tm5(C2Cl3)4
_symmetry_space_group_name_H-M   'P 1'
_cell_length_a   3.60014800
_cell_length_b   10.31577096
_cell_length_c   19.42574800
_cell_angle_alpha   90.05022657
_cell_angle_beta   90.00000000
_cell_angle_gamma   90.00000000
_symmetry_Int_Tables_number   1
_chemical_formula_structural   Er11Tm5(C2Cl3)4
_chemical_formula_sum   'Er11 Tm5 C8 Cl12'
_cell_volume   721.43902255
_cell_formula_units_Z   1
loop_
 _symmetry_equiv_pos_site_id
 _symmetry_equiv_pos_as_xyz
  1  'x, y, z'
loop_
 _atom_site_type_symbol
 _atom_site_label
 _atom_site_symmetry_multiplicity
 _atom_site_fract_x
 _atom_site_fract_y
 _atom_site_fract_z
 _atom_site_occupancy
  Er  Er0  1  0.250000  0.137568  0.573979  1
  Er  Er1  1  0.250000  0.637557  0.926100  1
  Er  Er2  1  0.750000  0.862293  0.426233  1
  Er  Er3  1  0.750000  0.362016  0.073638  1
  Er  Er4  1  0.250000  0.635179  0.756061  1
  Er  Er5  1  0.250000  0.135015  0.744183  1
  Er  Er6  1  0.750000  0.365123  0.243907  1
  Er  Er7  1  0.750000  0.864926  0.255998  1
  Er  Er8  1  0.250000  0.102665  0.332035  1
  Er  Er9  1  0.250000  0.602597  0.167876  1
  Er  Er10  1  0.750000  0.897349  0.668029  1
  Tm  Tm11  1  0.750000  0.398099  0.831633  1
  Tm  Tm12  1  0.250000  0.127375  0.165643  1
  Tm  Tm13  1  0.250000  0.627404  0.334304  1
  Tm  Tm14  1  0.750000  0.872956  0.834418  1
  Tm  Tm15  1  0.750000  0.372450  0.665924  1
  C  C16  1  0.250000  0.865517  0.347597  1
  C  C17  1  0.250000  0.365233  0.152260  1
  C  C18  1  0.750000  0.134776  0.652664  1
  C  C19  1  0.750000  0.633984  0.847454  1
  C  C20  1  0.250000  0.385793  0.750546  1
  C  C21  1  0.250000  0.885505  0.750048  1
  C  C22  1  0.750000  0.614447  0.249799  1
  C  C23  1  0.750000  0.114357  0.250119  1
  Cl  Cl24  1  0.250000  0.375290  0.952014  1
  Cl  Cl25  1  0.250000  0.875239  0.547256  1
  Cl  Cl26  1  0.750000  0.624083  0.046668  1
  Cl  Cl27  1  0.750000  0.124496  0.453319  1
  Cl  Cl28  1  0.250000  0.888333  0.943509  1
  Cl  Cl29  1  0.250000  0.388302  0.556871  1
  Cl  Cl30  1  0.750000  0.111279  0.056279  1
  Cl  Cl31  1  0.750000  0.611558  0.443651  1
  Cl  Cl32  1  0.250000  0.364048  0.354833  1
  Cl  Cl33  1  0.250000  0.863898  0.145068  1
  Cl  Cl34  1  0.750000  0.635954  0.645339  1
  Cl  Cl35  1  0.750000  0.137334  0.854743  1
