# generated using pymatgen
data_Ho4Be3(BRu2)5
_symmetry_space_group_name_H-M   'P 1'
_cell_length_a   3.11630700
_cell_length_b   8.80866480
_cell_length_c   10.30512702
_cell_angle_alpha   90.37149098
_cell_angle_beta   90.00000000
_cell_angle_gamma   90.00000000
_symmetry_Int_Tables_number   1
_chemical_formula_structural   Ho4Be3(BRu2)5
_chemical_formula_sum   'Ho4 Be3 B5 Ru10'
_cell_volume   282.87498209
_cell_formula_units_Z   1
loop_
 _symmetry_equiv_pos_site_id
 _symmetry_equiv_pos_as_xyz
  1  'x, y, z'
loop_
 _atom_site_type_symbol
 _atom_site_label
 _atom_site_symmetry_multiplicity
 _atom_site_fract_x
 _atom_site_fract_y
 _atom_site_fract_z
 _atom_site_occupancy
  Ho  Ho0  1  0.500000  0.841764  0.183236  1
  Ho  Ho1  1  0.500000  0.160402  0.816126  1
  Ho  Ho2  1  0.500000  0.660000  0.681063  1
  Ho  Ho3  1  0.500000  0.342897  0.317379  1
  Be  Be4  1  0.500000  0.964056  0.593703  1
  Be  Be5  1  0.500000  0.037496  0.406936  1
  Be  Be6  1  0.500000  0.845313  0.902548  1
  B  B7  1  0.500000  0.145826  0.098601  1
  B  B8  1  0.500000  0.653372  0.403410  1
  B  B9  1  0.500000  0.347818  0.595851  1
  B  B10  1  0.500000  0.465457  0.911831  1
  B  B11  1  0.500000  0.531862  0.089259  1
  Ru  Ru12  1  0.000000  0.644159  0.960494  1
  Ru  Ru13  1  0.000000  0.340705  0.045337  1
  Ru  Ru14  1  0.000000  0.832449  0.447862  1
  Ru  Ru15  1  0.000000  0.169901  0.548539  1
  Ru  Ru16  1  0.000000  0.008591  0.001549  1
  Ru  Ru17  1  0.000000  0.408736  0.760750  1
  Ru  Ru18  1  0.000000  0.592352  0.239320  1
  Ru  Ru19  1  0.000000  0.501024  0.499885  1
  Ru  Ru20  1  0.000000  0.904668  0.744212  1
  Ru  Ru21  1  0.000000  0.101152  0.252105  1
