# generated using pymatgen
data_HfFe4Si2Mo3P2
_symmetry_space_group_name_H-M   'P 1'
_cell_length_a   3.63191200
_cell_length_b   6.10033016
_cell_length_c   6.92533551
_cell_angle_alpha   89.68101855
_cell_angle_beta   90.00000000
_cell_angle_gamma   90.00000000
_symmetry_Int_Tables_number   1
_chemical_formula_structural   HfFe4Si2Mo3P2
_chemical_formula_sum   'Hf1 Fe4 Si2 Mo3 P2'
_cell_volume   153.43440224
_cell_formula_units_Z   1
loop_
 _symmetry_equiv_pos_site_id
 _symmetry_equiv_pos_as_xyz
  1  'x, y, z'
loop_
 _atom_site_type_symbol
 _atom_site_label
 _atom_site_symmetry_multiplicity
 _atom_site_fract_x
 _atom_site_fract_y
 _atom_site_fract_z
 _atom_site_occupancy
  Hf  Hf0  1  0.750000  0.481270  0.817201  1
  Fe  Fe1  1  0.250000  0.140905  0.934193  1
  Fe  Fe2  1  0.250000  0.642344  0.566387  1
  Fe  Fe3  1  0.750000  0.857981  0.055452  1
  Fe  Fe4  1  0.750000  0.350667  0.443161  1
  Si  Si5  1  0.750000  0.724297  0.378194  1
  Si  Si6  1  0.750000  0.223595  0.127413  1
  Mo  Mo7  1  0.250000  0.022344  0.325020  1
  Mo  Mo8  1  0.250000  0.524674  0.178242  1
  Mo  Mo9  1  0.750000  0.979965  0.675507  1
  P  P10  1  0.250000  0.269995  0.614778  1
  P  P11  1  0.250000  0.781960  0.884451  1
