# generated using pymatgen
data_Dy3Y3NiI10
_symmetry_space_group_name_H-M   'P 1'
_cell_length_a   7.70763947
_cell_length_b   9.68297422
_cell_length_c   9.71285439
_cell_angle_alpha   106.95879777
_cell_angle_beta   96.86149968
_cell_angle_gamma   104.41449985
_symmetry_Int_Tables_number   1
_chemical_formula_structural   Dy3Y3NiI10
_chemical_formula_sum   'Dy3 Y3 Ni1 I10'
_cell_volume   656.95514647
_cell_formula_units_Z   1
loop_
 _symmetry_equiv_pos_site_id
 _symmetry_equiv_pos_as_xyz
  1  'x, y, z'
loop_
 _atom_site_type_symbol
 _atom_site_label
 _atom_site_symmetry_multiplicity
 _atom_site_fract_x
 _atom_site_fract_y
 _atom_site_fract_z
 _atom_site_occupancy
  Dy  Dy0  1  0.887120  0.959019  0.234822  1
  Dy  Dy1  1  0.112463  0.041099  0.765054  1
  Dy  Dy2  1  0.032160  0.721671  0.916990  1
  Y  Y3  1  0.967747  0.279904  0.083253  1
  Y  Y4  1  0.659437  0.879688  0.838197  1
  Y  Y5  1  0.340202  0.120139  0.161671  1
  Ni  Ni6  1  0.000263  0.999569  0.000224  1
  I  I7  1  0.651852  0.550562  0.728707  1
  I  I8  1  0.349138  0.449402  0.271667  1
  I  I9  1  0.744119  0.913280  0.537969  1
  I  I10  1  0.255705  0.086411  0.461817  1
  I  I11  1  0.085658  0.372423  0.819085  1
  I  I12  1  0.914675  0.627365  0.180534  1
  I  I13  1  0.454447  0.813991  0.093266  1
  I  I14  1  0.545125  0.185725  0.906475  1
  I  I15  1  0.227183  0.745061  0.656100  1
  I  I16  1  0.772706  0.254692  0.344168  1
