# generated using pymatgen
data_Zr8TaSi16Os10Ru
_symmetry_space_group_name_H-M   'P 1'
_cell_length_a   9.98417554
_cell_length_b   10.04110774
_cell_length_c   13.45234434
_cell_angle_alpha   54.00233918
_cell_angle_beta   54.04817730
_cell_angle_gamma   31.32326980
_symmetry_Int_Tables_number   1
_chemical_formula_structural   Zr8TaSi16Os10Ru
_chemical_formula_sum   'Zr8 Ta1 Si16 Os10 Ru1'
_cell_volume   555.51358069
_cell_formula_units_Z   1
loop_
 _symmetry_equiv_pos_site_id
 _symmetry_equiv_pos_as_xyz
  1  'x, y, z'
loop_
 _atom_site_type_symbol
 _atom_site_label
 _atom_site_symmetry_multiplicity
 _atom_site_fract_x
 _atom_site_fract_y
 _atom_site_fract_z
 _atom_site_occupancy
  Zr  Zr0  1  0.041256  0.294062  0.634720  1
  Zr  Zr1  1  0.706160  0.960934  0.866397  1
  Zr  Zr2  1  0.961273  0.702971  0.364088  1
  Zr  Zr3  1  0.293308  0.032745  0.140518  1
  Zr  Zr4  1  0.298374  0.553039  0.649692  1
  Zr  Zr5  1  0.447551  0.698942  0.855822  1
  Zr  Zr6  1  0.712376  0.440847  0.340819  1
  Zr  Zr7  1  0.553917  0.300689  0.146316  1
  Ta  Ta8  1  0.749676  0.492388  0.062708  1
  Si  Si9  1  0.972514  0.251489  0.890347  1
  Si  Si10  1  0.750298  0.021832  0.608045  1
  Si  Si11  1  0.024778  0.748492  0.107015  1
  Si  Si12  1  0.254354  0.970216  0.394801  1
  Si  Si13  1  0.142666  0.395542  0.899036  1
  Si  Si14  1  0.615154  0.854938  0.605065  1
  Si  Si15  1  0.861278  0.614139  0.098924  1
  Si  Si16  1  0.386031  0.144601  0.395891  1
  Si  Si17  1  0.090130  0.568762  0.564580  1
  Si  Si18  1  0.407375  0.939746  0.931707  1
  Si  Si19  1  0.909789  0.429441  0.434174  1
  Si  Si20  1  0.569505  0.084856  0.067491  1
  Si  Si21  1  0.623961  0.380557  0.747871  1
  Si  Si22  1  0.375354  0.614698  0.254879  1
  Si  Si23  1  0.128227  0.874542  0.748307  1
  Si  Si24  1  0.870086  0.122168  0.254823  1
  Os  Os25  1  0.901215  0.139679  0.584103  1
  Os  Os26  1  0.863126  0.093506  0.915420  1
  Os  Os27  1  0.099968  0.856819  0.418799  1
  Os  Os28  1  0.135530  0.905992  0.084034  1
  Os  Os29  1  0.831268  0.643733  0.782354  1
  Os  Os30  1  0.356458  0.168818  0.718169  1
  Os  Os31  1  0.166632  0.357928  0.218101  1
  Os  Os32  1  0.641147  0.833364  0.283438  1
  Os  Os33  1  0.254690  0.518056  0.925198  1
  Os  Os34  1  0.483268  0.766028  0.570201  1
  Ru  Ru35  1  0.521301  0.223443  0.436146  1
