# generated using pymatgen
data_NdIn2NiIr8
_symmetry_space_group_name_H-M   'P 1'
_cell_length_a   5.24122100
_cell_length_b   8.78506500
_cell_length_c   8.78506500
_cell_angle_alpha   90.00000000
_cell_angle_beta   90.00000000
_cell_angle_gamma   90.00000000
_symmetry_Int_Tables_number   1
_chemical_formula_structural   NdIn2NiIr8
_chemical_formula_sum   'Nd2 In4 Ni2 Ir16'
_cell_volume   404.50363693
_cell_formula_units_Z   2
loop_
 _symmetry_equiv_pos_site_id
 _symmetry_equiv_pos_as_xyz
  1  'x, y, z'
loop_
 _atom_site_type_symbol
 _atom_site_label
 _atom_site_symmetry_multiplicity
 _atom_site_fract_x
 _atom_site_fract_y
 _atom_site_fract_z
 _atom_site_occupancy
  Nd  Nd0  1  0.000000  0.500000  0.500000  1
  Nd  Nd1  1  0.000000  0.000000  0.000000  1
  In  In2  1  0.000000  0.622580  0.122580  1
  In  In3  1  0.000000  0.377420  0.877420  1
  In  In4  1  0.000000  0.877420  0.622580  1
  In  In5  1  0.000000  0.122580  0.377420  1
  Ni  Ni6  1  0.500000  0.000000  0.500000  1
  Ni  Ni7  1  0.500000  0.500000  0.000000  1
  Ir  Ir8  1  0.758928  0.174778  0.674778  1
  Ir  Ir9  1  0.758928  0.825222  0.325222  1
  Ir  Ir10  1  0.758928  0.325222  0.174778  1
  Ir  Ir11  1  0.758928  0.674778  0.825222  1
  Ir  Ir12  1  0.241072  0.825222  0.325222  1
  Ir  Ir13  1  0.241072  0.174778  0.674778  1
  Ir  Ir14  1  0.241072  0.674778  0.825222  1
  Ir  Ir15  1  0.241072  0.325222  0.174778  1
  Ir  Ir16  1  0.500000  0.706480  0.564676  1
  Ir  Ir17  1  0.500000  0.293520  0.435324  1
  Ir  Ir18  1  0.500000  0.793520  0.064676  1
  Ir  Ir19  1  0.500000  0.206480  0.935324  1
  Ir  Ir20  1  0.500000  0.564676  0.293520  1
  Ir  Ir21  1  0.500000  0.435324  0.706480  1
  Ir  Ir22  1  0.500000  0.064676  0.206480  1
  Ir  Ir23  1  0.500000  0.935324  0.793520  1
