# generated using pymatgen
data_Y3HoIrRh3O14
_symmetry_space_group_name_H-M   'P 1'
_cell_length_a   7.23679212
_cell_length_b   7.23865757
_cell_length_c   7.23865690
_cell_angle_alpha   59.98200412
_cell_angle_beta   59.97500991
_cell_angle_gamma   59.97501743
_symmetry_Int_Tables_number   1
_chemical_formula_structural   Y3HoIrRh3O14
_chemical_formula_sum   'Y3 Ho1 Ir1 Rh3 O14'
_cell_volume   267.99330564
_cell_formula_units_Z   1
loop_
 _symmetry_equiv_pos_site_id
 _symmetry_equiv_pos_as_xyz
  1  'x, y, z'
loop_
 _atom_site_type_symbol
 _atom_site_label
 _atom_site_symmetry_multiplicity
 _atom_site_fract_x
 _atom_site_fract_y
 _atom_site_fract_z
 _atom_site_occupancy
  Y  Y0  1  0.125000  0.625000  0.125000  1
  Y  Y1  1  0.125000  0.125000  0.625000  1
  Y  Y2  1  0.125000  0.125000  0.125000  1
  Ho  Ho3  1  0.625000  0.125000  0.125000  1
  Ir  Ir4  1  0.625000  0.625000  0.625000  1
  Rh  Rh5  1  0.125000  0.625000  0.625000  1
  Rh  Rh6  1  0.625000  0.125000  0.625000  1
  Rh  Rh7  1  0.625000  0.625000  0.125000  1
  O  O8  1  0.709871  0.711094  0.292022  1
  O  O9  1  0.286812  0.286795  0.710931  1
  O  O10  1  0.709871  0.292022  0.711094  1
  O  O11  1  0.286812  0.710931  0.286795  1
  O  O12  1  0.292424  0.710119  0.710119  1
  O  O13  1  0.710649  0.286433  0.286433  1
  O  O14  1  0.540129  0.538906  0.957978  1
  O  O15  1  0.963188  0.963205  0.539069  1
  O  O16  1  0.540129  0.957978  0.538906  1
  O  O17  1  0.963188  0.539069  0.963205  1
  O  O18  1  0.957576  0.539881  0.539881  1
  O  O19  1  0.539351  0.963567  0.963567  1
  O  O20  1  0.252269  0.250073  0.250073  1
  O  O21  1  0.997731  0.999927  0.999927  1
