# generated using pymatgen
data_Ba3HoNp2O9
_symmetry_space_group_name_H-M   'P 1'
_cell_length_a   6.17914797
_cell_length_b   6.17914942
_cell_length_c   15.15471100
_cell_angle_alpha   89.58643640
_cell_angle_beta   89.58643631
_cell_angle_gamma   59.87847250
_symmetry_Int_Tables_number   1
_chemical_formula_structural   Ba3HoNp2O9
_chemical_formula_sum   'Ba6 Ho2 Np4 O18'
_cell_volume   500.48075199
_cell_formula_units_Z   2
loop_
 _symmetry_equiv_pos_site_id
 _symmetry_equiv_pos_as_xyz
  1  'x, y, z'
loop_
 _atom_site_type_symbol
 _atom_site_label
 _atom_site_symmetry_multiplicity
 _atom_site_fract_x
 _atom_site_fract_y
 _atom_site_fract_z
 _atom_site_occupancy
  Ba  Ba0  1  0.667867  0.667867  0.914721  1
  Ba  Ba1  1  0.002620  0.002620  0.255999  1
  Ba  Ba2  1  0.335652  0.335652  0.584525  1
  Ba  Ba3  1  0.997380  0.997380  0.744001  1
  Ba  Ba4  1  0.332133  0.332133  0.085279  1
  Ba  Ba5  1  0.664348  0.664348  0.415475  1
  Ho  Ho6  1  0.334006  0.334006  0.333214  1
  Ho  Ho7  1  0.665994  0.665994  0.666786  1
  Np  Np8  1  0.666576  0.666576  0.167699  1
  Np  Np9  1  0.000000  0.000000  0.500000  1
  Np  Np10  1  0.333424  0.333424  0.832301  1
  Np  Np11  1  0.000000  0.000000  0.000000  1
  O  O12  1  0.521151  0.521151  0.774065  1
  O  O13  1  0.859395  0.859395  0.104211  1
  O  O14  1  0.180047  0.180047  0.439864  1
  O  O15  1  0.140605  0.140605  0.895789  1
  O  O16  1  0.478849  0.478849  0.225935  1
  O  O17  1  0.819953  0.819953  0.560136  1
  O  O18  1  0.477261  0.968895  0.259576  1
  O  O19  1  0.813309  0.305914  0.593121  1
  O  O20  1  0.144881  0.638893  0.928992  1
  O  O21  1  0.361107  0.855119  0.071008  1
  O  O22  1  0.694086  0.186691  0.406879  1
  O  O23  1  0.031105  0.522739  0.740424  1
  O  O24  1  0.968895  0.477261  0.259576  1
  O  O25  1  0.305914  0.813309  0.593121  1
  O  O26  1  0.638893  0.144881  0.928992  1
  O  O27  1  0.855119  0.361107  0.071008  1
  O  O28  1  0.186691  0.694086  0.406879  1
  O  O29  1  0.522739  0.031105  0.740424  1
