# generated using pymatgen
data_Zr10SnBi5B2
_symmetry_space_group_name_H-M   'P 1'
_cell_length_a   8.70648110
_cell_length_b   8.67745931
_cell_length_c   5.86494100
_cell_angle_alpha   90.00000000
_cell_angle_beta   90.00000000
_cell_angle_gamma   119.88980017
_symmetry_Int_Tables_number   1
_chemical_formula_structural   Zr10SnBi5B2
_chemical_formula_sum   'Zr10 Sn1 Bi5 B2'
_cell_volume   384.15873918
_cell_formula_units_Z   1
loop_
 _symmetry_equiv_pos_site_id
 _symmetry_equiv_pos_as_xyz
  1  'x, y, z'
loop_
 _atom_site_type_symbol
 _atom_site_label
 _atom_site_symmetry_multiplicity
 _atom_site_fract_x
 _atom_site_fract_y
 _atom_site_fract_z
 _atom_site_occupancy
  Zr  Zr0  1  0.669195  0.333916  0.001588  1
  Zr  Zr1  1  0.330805  0.664723  0.001588  1
  Zr  Zr2  1  0.330805  0.664723  0.498412  1
  Zr  Zr3  1  0.669195  0.333916  0.498412  1
  Zr  Zr4  1  0.774130  0.773330  0.750000  1
  Zr  Zr5  1  0.225870  0.999200  0.750000  1
  Zr  Zr6  1  0.000000  0.228616  0.750000  1
  Zr  Zr7  1  0.223944  0.228546  0.250000  1
  Zr  Zr8  1  0.776056  0.004602  0.250000  1
  Zr  Zr9  1  0.000000  0.770117  0.250000  1
  Sn  Sn10  1  0.000000  0.399262  0.250000  1
  Bi  Bi11  1  0.398399  0.398342  0.750000  1
  Bi  Bi12  1  0.601601  0.999943  0.750000  1
  Bi  Bi13  1  0.000000  0.598256  0.750000  1
  Bi  Bi14  1  0.602290  0.602633  0.250000  1
  Bi  Bi15  1  0.397710  0.000343  0.250000  1
  B  B16  1  0.000000  0.999767  0.999952  1
  B  B17  1  0.000000  0.999767  0.500048  1
