# generated using pymatgen
data_Ac3Ce(ZnGe)4
_symmetry_space_group_name_H-M   'P 1'
_cell_length_a   4.38484400
_cell_length_b   4.38484374
_cell_length_c   17.51282400
_cell_angle_alpha   90.00000000
_cell_angle_beta   90.00000000
_cell_angle_gamma   120.00000193
_symmetry_Int_Tables_number   1
_chemical_formula_structural   Ac3Ce(ZnGe)4
_chemical_formula_sum   'Ac3 Ce1 Zn4 Ge4'
_cell_volume   291.60507303
_cell_formula_units_Z   1
loop_
 _symmetry_equiv_pos_site_id
 _symmetry_equiv_pos_as_xyz
  1  'x, y, z'
loop_
 _atom_site_type_symbol
 _atom_site_label
 _atom_site_symmetry_multiplicity
 _atom_site_fract_x
 _atom_site_fract_y
 _atom_site_fract_z
 _atom_site_occupancy
  Ac  Ac0  1  0.000000  0.000000  0.750000  1
  Ac  Ac1  1  0.000000  0.000000  0.492329  1
  Ac  Ac2  1  0.000000  0.000000  0.007671  1
  Ce  Ce3  1  0.000000  0.000000  0.250000  1
  Zn  Zn4  1  0.666667  0.333333  0.866189  1
  Zn  Zn5  1  0.666667  0.333333  0.633811  1
  Zn  Zn6  1  0.333333  0.666667  0.155790  1
  Zn  Zn7  1  0.333333  0.666667  0.344210  1
  Ge  Ge8  1  0.666667  0.333333  0.130416  1
  Ge  Ge9  1  0.666667  0.333333  0.369584  1
  Ge  Ge10  1  0.333333  0.666667  0.886439  1
  Ge  Ge11  1  0.333333  0.666667  0.613561  1
