# generated using pymatgen
data_Li3Y13Th3MgRh4
_symmetry_space_group_name_H-M   'P 1'
_cell_length_a   9.76813560
_cell_length_b   9.78416048
_cell_length_c   9.78416000
_cell_angle_alpha   59.99999484
_cell_angle_beta   59.94571182
_cell_angle_gamma   59.94571238
_symmetry_Int_Tables_number   1
_chemical_formula_structural   Li3Y13Th3MgRh4
_chemical_formula_sum   'Li3 Y13 Th3 Mg1 Rh4'
_cell_volume   660.67355744
_cell_formula_units_Z   1
loop_
 _symmetry_equiv_pos_site_id
 _symmetry_equiv_pos_as_xyz
  1  'x, y, z'
loop_
 _atom_site_type_symbol
 _atom_site_label
 _atom_site_symmetry_multiplicity
 _atom_site_fract_x
 _atom_site_fract_y
 _atom_site_fract_z
 _atom_site_occupancy
  Li  Li0  1  0.829258  0.828954  0.828954  1
  Li  Li1  1  0.829258  0.828954  0.512833  1
  Li  Li2  1  0.829258  0.512833  0.828954  1
  Y  Y3  1  0.200817  0.599728  0.599728  1
  Y  Y4  1  0.065197  0.435177  0.435177  1
  Y  Y5  1  0.434783  0.064397  0.064397  1
  Y  Y6  1  0.434783  0.064397  0.436422  1
  Y  Y7  1  0.065197  0.435177  0.064449  1
  Y  Y8  1  0.434783  0.436422  0.064397  1
  Y  Y9  1  0.065197  0.064449  0.435177  1
  Y  Y10  1  0.184014  0.815296  0.815296  1
  Y  Y11  1  0.816367  0.183848  0.183848  1
  Y  Y12  1  0.816367  0.183848  0.815937  1
  Y  Y13  1  0.184014  0.815296  0.185394  1
  Y  Y14  1  0.816367  0.815937  0.183848  1
  Y  Y15  1  0.184014  0.185394  0.815296  1
  Th  Th16  1  0.597341  0.599264  0.599264  1
  Th  Th17  1  0.597341  0.599264  0.204132  1
  Th  Th18  1  0.597341  0.204132  0.599264  1
  Mg  Mg19  1  0.510541  0.829820  0.829820  1
  Rh  Rh20  1  0.397886  0.392799  0.392799  1
  Rh  Rh21  1  0.397886  0.392799  0.816516  1
  Rh  Rh22  1  0.397886  0.816516  0.392799  1
  Rh  Rh23  1  0.814106  0.395298  0.395298  1
