# generated using pymatgen
data_Tb3Sm4Dy(B6Ru)4
_symmetry_space_group_name_H-M   'P 1'
_cell_length_a   3.70691800
_cell_length_b   9.21182802
_cell_length_c   11.60379702
_cell_angle_alpha   90.00712273
_cell_angle_beta   90.00000000
_cell_angle_gamma   90.00000000
_symmetry_Int_Tables_number   1
_chemical_formula_structural   Tb3Sm4Dy(B6Ru)4
_chemical_formula_sum   'Tb3 Sm4 Dy1 B24 Ru4'
_cell_volume   396.24055240
_cell_formula_units_Z   1
loop_
 _symmetry_equiv_pos_site_id
 _symmetry_equiv_pos_as_xyz
  1  'x, y, z'
loop_
 _atom_site_type_symbol
 _atom_site_label
 _atom_site_symmetry_multiplicity
 _atom_site_fract_x
 _atom_site_fract_y
 _atom_site_fract_z
 _atom_site_occupancy
  Tb  Tb0  1  0.000000  0.943921  0.371809  1
  Tb  Tb1  1  0.000000  0.056075  0.628212  1
  Tb  Tb2  1  0.000000  0.443973  0.128055  1
  Sm  Sm3  1  0.000000  0.323276  0.414084  1
  Sm  Sm4  1  0.000000  0.676721  0.586009  1
  Sm  Sm5  1  0.000000  0.823197  0.085868  1
  Sm  Sm6  1  0.000000  0.176816  0.914041  1
  Dy  Dy7  1  0.000000  0.556062  0.871815  1
  B  B8  1  0.500000  0.555327  0.431481  1
  B  B9  1  0.500000  0.444683  0.568553  1
  B  B10  1  0.500000  0.055318  0.068512  1
  B  B11  1  0.500000  0.944620  0.931467  1
  B  B12  1  0.500000  0.748492  0.418510  1
  B  B13  1  0.500000  0.251531  0.581497  1
  B  B14  1  0.500000  0.248502  0.081487  1
  B  B15  1  0.500000  0.751221  0.918498  1
  B  B16  1  0.500000  0.790163  0.266752  1
  B  B17  1  0.500000  0.209887  0.733274  1
  B  B18  1  0.500000  0.290169  0.233243  1
  B  B19  1  0.500000  0.709542  0.766829  1
  B  B20  1  0.500000  0.631767  0.185422  1
  B  B21  1  0.500000  0.368461  0.814692  1
  B  B22  1  0.500000  0.131784  0.314571  1
  B  B23  1  0.500000  0.868185  0.685462  1
  B  B24  1  0.500000  0.985738  0.213152  1
  B  B25  1  0.500000  0.014249  0.786847  1
  B  B26  1  0.500000  0.485728  0.286841  1
  B  B27  1  0.500000  0.514450  0.713373  1
  B  B28  1  0.500000  0.606482  0.028957  1
  B  B29  1  0.500000  0.393746  0.970552  1
  B  B30  1  0.500000  0.106608  0.470734  1
  B  B31  1  0.500000  0.893386  0.529271  1
  Ru  Ru32  1  0.000000  0.638811  0.320457  1
  Ru  Ru33  1  0.000000  0.361381  0.679680  1
  Ru  Ru34  1  0.000000  0.138831  0.179482  1
  Ru  Ru35  1  0.000000  0.860896  0.820513  1
