# generated using pymatgen
data_TbEr4(In2Ir)2
_symmetry_space_group_name_H-M   'P 1'
_cell_length_a   3.63359600
_cell_length_b   7.97848000
_cell_length_c   18.22444000
_cell_angle_alpha   90.00000000
_cell_angle_beta   90.00000000
_cell_angle_gamma   90.00000000
_symmetry_Int_Tables_number   1
_chemical_formula_structural   TbEr4(In2Ir)2
_chemical_formula_sum   'Tb2 Er8 In8 Ir4'
_cell_volume   528.33695846
_cell_formula_units_Z   2
loop_
 _symmetry_equiv_pos_site_id
 _symmetry_equiv_pos_as_xyz
  1  'x, y, z'
loop_
 _atom_site_type_symbol
 _atom_site_label
 _atom_site_symmetry_multiplicity
 _atom_site_fract_x
 _atom_site_fract_y
 _atom_site_fract_z
 _atom_site_occupancy
  Tb  Tb0  1  0.000000  0.000000  0.000000  1
  Tb  Tb1  1  0.000000  0.500000  0.500000  1
  Er  Er2  1  0.000000  0.115879  0.410741  1
  Er  Er3  1  0.000000  0.884121  0.589259  1
  Er  Er4  1  0.000000  0.384121  0.910741  1
  Er  Er5  1  0.000000  0.615879  0.089259  1
  Er  Er6  1  0.000000  0.244446  0.221356  1
  Er  Er7  1  0.000000  0.755554  0.778644  1
  Er  Er8  1  0.000000  0.255554  0.721356  1
  Er  Er9  1  0.000000  0.744446  0.278644  1
  In  In10  1  0.500000  0.425413  0.349854  1
  In  In11  1  0.500000  0.574587  0.650146  1
  In  In12  1  0.500000  0.074587  0.849854  1
  In  In13  1  0.500000  0.925413  0.150146  1
  In  In14  1  0.500000  0.294918  0.067659  1
  In  In15  1  0.500000  0.705082  0.932341  1
  In  In16  1  0.500000  0.205082  0.567659  1
  In  In17  1  0.500000  0.794918  0.432341  1
  Ir  Ir18  1  0.500000  0.022053  0.304172  1
  Ir  Ir19  1  0.500000  0.977947  0.695828  1
  Ir  Ir20  1  0.500000  0.477947  0.804172  1
  Ir  Ir21  1  0.500000  0.522053  0.195828  1
