# generated using pymatgen
data_NbCo4B4MoW2
_symmetry_space_group_name_H-M   'P 1'
_cell_length_a   3.26462500
_cell_length_b   5.75734913
_cell_length_c   6.65822688
_cell_angle_alpha   90.15276803
_cell_angle_beta   90.00000000
_cell_angle_gamma   90.00000000
_symmetry_Int_Tables_number   1
_chemical_formula_structural   NbCo4B4MoW2
_chemical_formula_sum   'Nb1 Co4 B4 Mo1 W2'
_cell_volume   125.14483053
_cell_formula_units_Z   1
loop_
 _symmetry_equiv_pos_site_id
 _symmetry_equiv_pos_as_xyz
  1  'x, y, z'
loop_
 _atom_site_type_symbol
 _atom_site_label
 _atom_site_symmetry_multiplicity
 _atom_site_fract_x
 _atom_site_fract_y
 _atom_site_fract_z
 _atom_site_occupancy
  Nb  Nb0  1  0.250000  0.027122  0.823376  1
  Co  Co1  1  0.250000  0.145743  0.440856  1
  Co  Co2  1  0.250000  0.640874  0.058578  1
  Co  Co3  1  0.750000  0.856986  0.557150  1
  Co  Co4  1  0.750000  0.357627  0.942897  1
  B  B5  1  0.250000  0.270815  0.129529  1
  B  B6  1  0.250000  0.770293  0.374968  1
  B  B7  1  0.750000  0.721820  0.876974  1
  B  B8  1  0.750000  0.236258  0.618908  1
  Mo  Mo9  1  0.750000  0.972103  0.178237  1
  W  W10  1  0.250000  0.526970  0.674587  1
  W  W11  1  0.750000  0.473388  0.323939  1
