# generated using pymatgen
data_AlNi8Mo12P3C2
_symmetry_space_group_name_H-M   'P 1'
_cell_length_a   7.70022176
_cell_length_b   7.72618878
_cell_length_c   7.70109300
_cell_angle_alpha   60.10779515
_cell_angle_beta   59.99608513
_cell_angle_gamma   60.09445324
_symmetry_Int_Tables_number   1
_chemical_formula_structural   AlNi8Mo12P3C2
_chemical_formula_sum   'Al1 Ni8 Mo12 P3 C2'
_cell_volume   324.45550235
_cell_formula_units_Z   1
loop_
 _symmetry_equiv_pos_site_id
 _symmetry_equiv_pos_as_xyz
  1  'x, y, z'
loop_
 _atom_site_type_symbol
 _atom_site_label
 _atom_site_symmetry_multiplicity
 _atom_site_fract_x
 _atom_site_fract_y
 _atom_site_fract_z
 _atom_site_occupancy
  Al  Al0  1  0.125000  0.625000  0.125000  1
  Ni  Ni1  1  0.335201  0.322776  0.006817  1
  Ni  Ni2  1  0.335196  0.322784  0.335195  1
  Ni  Ni3  1  0.243044  0.927229  0.914865  1
  Ni  Ni4  1  0.914804  0.927216  0.914805  1
  Ni  Ni5  1  0.006956  0.322771  0.335135  1
  Ni  Ni6  1  0.331891  0.004314  0.331895  1
  Ni  Ni7  1  0.914799  0.927224  0.243183  1
  Ni  Ni8  1  0.918109  0.245686  0.918105  1
  Mo  Mo9  1  0.306276  0.693743  0.693703  1
  Mo  Mo10  1  0.693714  0.693721  0.306273  1
  Mo  Mo11  1  0.694001  0.306367  0.693955  1
  Mo  Mo12  1  0.306287  0.693745  0.306268  1
  Mo  Mo13  1  0.555999  0.943633  0.556045  1
  Mo  Mo14  1  0.555999  0.943623  0.944336  1
  Mo  Mo15  1  0.943724  0.556257  0.556297  1
  Mo  Mo16  1  0.943713  0.556255  0.943732  1
  Mo  Mo17  1  0.305683  0.306352  0.693981  1
  Mo  Mo18  1  0.556286  0.556279  0.943727  1
  Mo  Mo19  1  0.944317  0.943648  0.556019  1
  Mo  Mo20  1  0.694001  0.306377  0.305664  1
  P  P21  1  0.125000  0.125000  0.625000  1
  P  P22  1  0.625000  0.125000  0.125000  1
  P  P23  1  0.125000  0.125000  0.125000  1
  C  C24  1  0.500277  0.499154  0.500277  1
  C  C25  1  0.749723  0.750846  0.749723  1
