# generated using pymatgen
data_LiIO3
_symmetry_space_group_name_H-M   'P 1'
_cell_length_a   6.20024800
_cell_length_b   9.96578300
_cell_length_c   9.96578300
_cell_angle_alpha   90.00000000
_cell_angle_beta   90.00000000
_cell_angle_gamma   90.00000000
_symmetry_Int_Tables_number   1
_chemical_formula_structural   LiIO3
_chemical_formula_sum   'Li8 I8 O24'
_cell_volume   615.78898155
_cell_formula_units_Z   8
loop_
 _symmetry_equiv_pos_site_id
 _symmetry_equiv_pos_as_xyz
  1  'x, y, z'
loop_
 _atom_site_type_symbol
 _atom_site_label
 _atom_site_symmetry_multiplicity
 _atom_site_fract_x
 _atom_site_fract_y
 _atom_site_fract_z
 _atom_site_occupancy
  Li  Li0  1  0.400224  0.431535  0.228288  1
  Li  Li1  1  0.900224  0.771712  0.931535  1
  Li  Li2  1  0.900224  0.728288  0.568465  1
  Li  Li3  1  0.400224  0.068465  0.271712  1
  Li  Li4  1  0.599776  0.568465  0.771712  1
  Li  Li5  1  0.099776  0.228288  0.068465  1
  Li  Li6  1  0.099776  0.271712  0.431535  1
  Li  Li7  1  0.599776  0.931535  0.728288  1
  I  I8  1  0.115988  0.031782  0.760969  1
  I  I9  1  0.884012  0.531782  0.260969  1
  I  I10  1  0.384012  0.739031  0.031782  1
  I  I11  1  0.384012  0.760969  0.468218  1
  I  I12  1  0.884012  0.968218  0.239031  1
  I  I13  1  0.115988  0.468218  0.739031  1
  I  I14  1  0.615988  0.260969  0.968218  1
  I  I15  1  0.615988  0.239031  0.531782  1
  O  O16  1  0.662314  0.445617  0.345892  1
  O  O17  1  0.837686  0.345892  0.054383  1
  O  O18  1  0.337686  0.945617  0.845892  1
  O  O19  1  0.337686  0.554383  0.654108  1
  O  O20  1  0.837686  0.154108  0.445617  1
  O  O21  1  0.162314  0.654108  0.945617  1
  O  O22  1  0.662314  0.054383  0.154108  1
  O  O23  1  0.055665  0.164436  0.881918  1
  O  O24  1  0.944335  0.835564  0.118082  1
  O  O25  1  0.444335  0.881918  0.335564  1
  O  O26  1  0.444335  0.618082  0.164436  1
  O  O27  1  0.944335  0.664436  0.381918  1
  O  O28  1  0.105934  0.084213  0.203298  1
  O  O29  1  0.555665  0.118082  0.664436  1
  O  O30  1  0.555665  0.381918  0.835564  1
  O  O31  1  0.055665  0.335564  0.618082  1
  O  O32  1  0.894066  0.584213  0.703298  1
  O  O33  1  0.605934  0.796702  0.584213  1
  O  O34  1  0.605934  0.703298  0.915787  1
  O  O35  1  0.105934  0.415787  0.296702  1
  O  O36  1  0.894066  0.915787  0.796702  1
  O  O37  1  0.394066  0.203298  0.415787  1
  O  O38  1  0.394066  0.296702  0.084213  1
  O  O39  1  0.162314  0.845892  0.554383  1
