# generated using pymatgen
data_YbLu6Co6Sn23
_symmetry_space_group_name_H-M   'P 1'
_cell_length_a   9.64686200
_cell_length_b   9.64686288
_cell_length_c   9.90660300
_cell_angle_alpha   90.00000000
_cell_angle_beta   90.00000000
_cell_angle_gamma   120.00000383
_symmetry_Int_Tables_number   1
_chemical_formula_structural   YbLu6Co6Sn23
_chemical_formula_sum   'Yb1 Lu6 Co6 Sn23'
_cell_volume   798.41290092
_cell_formula_units_Z   1
loop_
 _symmetry_equiv_pos_site_id
 _symmetry_equiv_pos_as_xyz
  1  'x, y, z'
loop_
 _atom_site_type_symbol
 _atom_site_label
 _atom_site_symmetry_multiplicity
 _atom_site_fract_x
 _atom_site_fract_y
 _atom_site_fract_z
 _atom_site_occupancy
  Yb  Yb0  1  0.000000  0.000000  0.000000  1
  Lu  Lu1  1  0.481562  0.518438  0.305721  1
  Lu  Lu2  1  0.518438  0.481562  0.694279  1
  Lu  Lu3  1  0.481562  0.963125  0.305721  1
  Lu  Lu4  1  0.518438  0.036875  0.694279  1
  Lu  Lu5  1  0.036875  0.518438  0.305721  1
  Lu  Lu6  1  0.963125  0.481562  0.694279  1
  Co  Co7  1  0.830163  0.169837  0.199594  1
  Co  Co8  1  0.169837  0.830163  0.800406  1
  Co  Co9  1  0.830163  0.660323  0.199594  1
  Co  Co10  1  0.169837  0.339677  0.800406  1
  Co  Co11  1  0.339677  0.169837  0.199594  1
  Co  Co12  1  0.660323  0.830163  0.800406  1
  Sn  Sn13  1  0.346382  0.000000  0.000000  1
  Sn  Sn14  1  0.653618  0.000000  0.000000  1
  Sn  Sn15  1  0.000000  0.346382  0.000000  1
  Sn  Sn16  1  0.000000  0.653618  0.000000  1
  Sn  Sn17  1  0.653618  0.653618  0.000000  1
  Sn  Sn18  1  0.346382  0.346382  0.000000  1
  Sn  Sn19  1  0.333333  0.666667  0.818107  1
  Sn  Sn20  1  0.666667  0.333333  0.181893  1
  Sn  Sn21  1  0.000000  0.000000  0.500000  1
  Sn  Sn22  1  0.780649  0.219351  0.455106  1
  Sn  Sn23  1  0.219351  0.780649  0.544894  1
  Sn  Sn24  1  0.780649  0.561298  0.455106  1
  Sn  Sn25  1  0.219351  0.438702  0.544894  1
  Sn  Sn26  1  0.438702  0.219351  0.455106  1
  Sn  Sn27  1  0.561298  0.780649  0.544894  1
  Sn  Sn28  1  0.333333  0.666667  0.125739  1
  Sn  Sn29  1  0.666667  0.333333  0.874261  1
  Sn  Sn30  1  0.118451  0.881549  0.274107  1
  Sn  Sn31  1  0.881549  0.118451  0.725893  1
  Sn  Sn32  1  0.118451  0.236904  0.274107  1
  Sn  Sn33  1  0.881549  0.763096  0.725893  1
  Sn  Sn34  1  0.763096  0.881549  0.274107  1
  Sn  Sn35  1  0.236904  0.118451  0.725893  1
