# generated using pymatgen
data_Tb4Dy16CoBi8Ru3
_symmetry_space_group_name_H-M   'P 1'
_cell_length_a   7.99425062
_cell_length_b   8.99303000
_cell_length_c   12.45619043
_cell_angle_alpha   90.00000000
_cell_angle_beta   90.22068338
_cell_angle_gamma   90.00000000
_symmetry_Int_Tables_number   1
_chemical_formula_structural   Tb4Dy16CoBi8Ru3
_chemical_formula_sum   'Tb4 Dy16 Co1 Bi8 Ru3'
_cell_volume   895.50047143
_cell_formula_units_Z   1
loop_
 _symmetry_equiv_pos_site_id
 _symmetry_equiv_pos_as_xyz
  1  'x, y, z'
loop_
 _atom_site_type_symbol
 _atom_site_label
 _atom_site_symmetry_multiplicity
 _atom_site_fract_x
 _atom_site_fract_y
 _atom_site_fract_z
 _atom_site_occupancy
  Tb  Tb0  1  0.377715  0.750000  0.694289  1
  Tb  Tb1  1  0.119328  0.750000  0.188888  1
  Tb  Tb2  1  0.944853  0.750000  0.504689  1
  Tb  Tb3  1  0.554010  0.750000  0.003523  1
  Dy  Dy4  1  0.845416  0.750000  0.799306  1
  Dy  Dy5  1  0.156481  0.250000  0.206014  1
  Dy  Dy6  1  0.343303  0.250000  0.707047  1
  Dy  Dy7  1  0.654582  0.750000  0.294795  1
  Dy  Dy8  1  0.620477  0.250000  0.306847  1
  Dy  Dy9  1  0.878360  0.250000  0.807730  1
  Dy  Dy10  1  0.054788  0.250000  0.496070  1
  Dy  Dy11  1  0.447839  0.250000  0.996751  1
  Dy  Dy12  1  0.675192  0.042469  0.563772  1
  Dy  Dy13  1  0.324013  0.957888  0.435670  1
  Dy  Dy14  1  0.175454  0.957666  0.935750  1
  Dy  Dy15  1  0.324013  0.542112  0.435670  1
  Dy  Dy16  1  0.825493  0.038098  0.062688  1
  Dy  Dy17  1  0.675192  0.457531  0.563772  1
  Dy  Dy18  1  0.825493  0.461902  0.062688  1
  Dy  Dy19  1  0.175454  0.542334  0.935750  1
  Co  Co20  1  0.931069  0.750000  0.008954  1
  Bi  Bi21  1  0.572051  0.491187  0.827607  1
  Bi  Bi22  1  0.429734  0.507327  0.172322  1
  Bi  Bi23  1  0.069686  0.507150  0.673375  1
  Bi  Bi24  1  0.429734  0.992673  0.172322  1
  Bi  Bi25  1  0.928759  0.491691  0.326566  1
  Bi  Bi26  1  0.572051  0.008813  0.827607  1
  Bi  Bi27  1  0.928759  0.008309  0.326566  1
  Bi  Bi28  1  0.069686  0.992850  0.673375  1
  Ru  Ru29  1  0.572639  0.750000  0.511028  1
  Ru  Ru30  1  0.425854  0.250000  0.489101  1
  Ru  Ru31  1  0.072523  0.250000  0.989464  1
