# generated using pymatgen
data_Tb5Tm11Tl3InRh4
_symmetry_space_group_name_H-M   'P 1'
_cell_length_a   9.61274880
_cell_length_b   9.60907650
_cell_length_c   9.60658109
_cell_angle_alpha   60.02334784
_cell_angle_beta   59.93041541
_cell_angle_gamma   59.95495370
_symmetry_Int_Tables_number   1
_chemical_formula_structural   Tb5Tm11Tl3InRh4
_chemical_formula_sum   'Tb5 Tm11 Tl3 In1 Rh4'
_cell_volume   627.02191026
_cell_formula_units_Z   1
loop_
 _symmetry_equiv_pos_site_id
 _symmetry_equiv_pos_as_xyz
  1  'x, y, z'
loop_
 _atom_site_type_symbol
 _atom_site_label
 _atom_site_symmetry_multiplicity
 _atom_site_fract_x
 _atom_site_fract_y
 _atom_site_fract_z
 _atom_site_occupancy
  Tb  Tb0  1  0.060672  0.061174  0.438255  1
  Tb  Tb1  1  0.437950  0.061730  0.437800  1
  Tb  Tb2  1  0.062137  0.437723  0.060884  1
  Tb  Tb3  1  0.050571  0.648941  0.649565  1
  Tb  Tb4  1  0.437625  0.437326  0.061285  1
  Tm  Tm5  1  0.649133  0.049473  0.649244  1
  Tm  Tm6  1  0.187237  0.813554  0.187057  1
  Tm  Tm7  1  0.187810  0.187345  0.813994  1
  Tm  Tm8  1  0.812074  0.812482  0.188677  1
  Tm  Tm9  1  0.440443  0.059333  0.057768  1
  Tm  Tm10  1  0.813304  0.187204  0.187470  1
  Tm  Tm11  1  0.059313  0.439984  0.440039  1
  Tm  Tm12  1  0.811010  0.188891  0.813003  1
  Tm  Tm13  1  0.188383  0.812138  0.813757  1
  Tm  Tm14  1  0.649336  0.648736  0.049618  1
  Tm  Tm15  1  0.650716  0.651593  0.652401  1
  Tl  Tl16  1  0.414079  0.414043  0.415401  1
  Tl  Tl17  1  0.756560  0.414875  0.416038  1
  Tl  Tl18  1  0.415761  0.756075  0.414802  1
  In  In19  1  0.418268  0.415589  0.750462  1
  Rh  Rh20  1  0.857334  0.857679  0.426960  1
  Rh  Rh21  1  0.854990  0.859049  0.859094  1
  Rh  Rh22  1  0.427872  0.858473  0.858593  1
  Rh  Rh23  1  0.857426  0.426587  0.857831  1
