# generated using pymatgen
data_Er9Tm11(Bi2Rh)4
_symmetry_space_group_name_H-M   'P 1'
_cell_length_a   7.91669320
_cell_length_b   8.96563900
_cell_length_c   12.36010931
_cell_angle_alpha   90.00000000
_cell_angle_beta   89.97424408
_cell_angle_gamma   90.00000000
_symmetry_Int_Tables_number   1
_chemical_formula_structural   Er9Tm11(Bi2Rh)4
_chemical_formula_sum   'Er9 Tm11 Bi8 Rh4'
_cell_volume   877.29838659
_cell_formula_units_Z   1
loop_
 _symmetry_equiv_pos_site_id
 _symmetry_equiv_pos_as_xyz
  1  'x, y, z'
loop_
 _atom_site_type_symbol
 _atom_site_label
 _atom_site_symmetry_multiplicity
 _atom_site_fract_x
 _atom_site_fract_y
 _atom_site_fract_z
 _atom_site_occupancy
  Er  Er0  1  0.837152  0.750000  0.207558  1
  Er  Er1  1  0.125085  0.750000  0.809142  1
  Er  Er2  1  0.874819  0.250000  0.190870  1
  Er  Er3  1  0.625198  0.250000  0.690912  1
  Er  Er4  1  0.374745  0.750000  0.309136  1
  Er  Er5  1  0.549306  0.750000  0.998587  1
  Er  Er6  1  0.450458  0.250000  0.001293  1
  Er  Er7  1  0.049553  0.250000  0.501303  1
  Er  Er8  1  0.950540  0.750000  0.498841  1
  Tm  Tm9  1  0.662607  0.750000  0.707261  1
  Tm  Tm10  1  0.337357  0.250000  0.292742  1
  Tm  Tm11  1  0.162666  0.250000  0.792724  1
  Tm  Tm12  1  0.825220  0.455970  0.933528  1
  Tm  Tm13  1  0.174901  0.543834  0.066343  1
  Tm  Tm14  1  0.325253  0.543866  0.566441  1
  Tm  Tm15  1  0.174901  0.956166  0.066343  1
  Tm  Tm16  1  0.674759  0.455981  0.433596  1
  Tm  Tm17  1  0.825220  0.044030  0.933528  1
  Tm  Tm18  1  0.674759  0.044019  0.433596  1
  Tm  Tm19  1  0.325253  0.956134  0.566441  1
  Bi  Bi20  1  0.934118  0.008936  0.673478  1
  Bi  Bi21  1  0.066043  0.991266  0.326623  1
  Bi  Bi22  1  0.434204  0.991072  0.826510  1
  Bi  Bi23  1  0.066043  0.508734  0.326623  1
  Bi  Bi24  1  0.565664  0.009106  0.173444  1
  Bi  Bi25  1  0.934118  0.491064  0.673478  1
  Bi  Bi26  1  0.565664  0.490894  0.173444  1
  Bi  Bi27  1  0.434204  0.508928  0.826510  1
  Rh  Rh28  1  0.925151  0.750000  0.990156  1
  Rh  Rh29  1  0.074986  0.250000  0.009577  1
  Rh  Rh30  1  0.425022  0.250000  0.509535  1
  Rh  Rh31  1  0.575034  0.750000  0.490435  1
