# generated using pymatgen
data_Zr2CrCo11As7
_symmetry_space_group_name_H-M   'P 1'
_cell_length_a   3.69797400
_cell_length_b   9.27223555
_cell_length_c   9.30215711
_cell_angle_alpha   119.77474655
_cell_angle_beta   90.00000000
_cell_angle_gamma   90.00000000
_symmetry_Int_Tables_number   1
_chemical_formula_structural   Zr2CrCo11As7
_chemical_formula_sum   'Zr2 Cr1 Co11 As7'
_cell_volume   276.84960330
_cell_formula_units_Z   1
loop_
 _symmetry_equiv_pos_site_id
 _symmetry_equiv_pos_as_xyz
  1  'x, y, z'
loop_
 _atom_site_type_symbol
 _atom_site_label
 _atom_site_symmetry_multiplicity
 _atom_site_fract_x
 _atom_site_fract_y
 _atom_site_fract_z
 _atom_site_occupancy
  Zr  Zr0  1  0.000000  0.667773  0.337173  1
  Zr  Zr1  1  0.500000  0.333326  0.666911  1
  Cr  Cr2  1  0.500000  0.781882  0.899696  1
  Co  Co3  1  0.000000  0.563261  0.936932  1
  Co  Co4  1  0.000000  0.373525  0.433790  1
  Co  Co5  1  0.000000  0.061294  0.624796  1
  Co  Co6  1  0.500000  0.123795  0.223960  1
  Co  Co7  1  0.500000  0.097831  0.873335  1
  Co  Co8  1  0.000000  0.878454  0.160357  1
  Co  Co9  1  0.000000  0.282151  0.123513  1
  Co  Co10  1  0.000000  0.843394  0.721889  1
  Co  Co11  1  0.500000  0.947787  0.383672  1
  Co  Co12  1  0.500000  0.433705  0.050214  1
  Co  Co13  1  0.500000  0.614351  0.562799  1
  As  As14  1  0.000000  0.004295  0.002633  1
  As  As15  1  0.500000  0.706682  0.120650  1
  As  As16  1  0.500000  0.408848  0.290518  1
  As  As17  1  0.500000  0.882270  0.591592  1
  As  As18  1  0.000000  0.585402  0.703488  1
  As  As19  1  0.000000  0.118162  0.410861  1
  As  As20  1  0.000000  0.291811  0.881222  1
