# generated using pymatgen
data_CaEuNpO6
_symmetry_space_group_name_H-M   'P 1'
_cell_length_a   5.57444900
_cell_length_b   9.44932500
_cell_length_c   10.43529300
_cell_angle_alpha   90.00000000
_cell_angle_beta   90.00000000
_cell_angle_gamma   90.00000000
_symmetry_Int_Tables_number   1
_chemical_formula_structural   CaEuNpO6
_chemical_formula_sum   'Ca4 Eu4 Np4 O24'
_cell_volume   549.67676611
_cell_formula_units_Z   4
loop_
 _symmetry_equiv_pos_site_id
 _symmetry_equiv_pos_as_xyz
  1  'x, y, z'
loop_
 _atom_site_type_symbol
 _atom_site_label
 _atom_site_symmetry_multiplicity
 _atom_site_fract_x
 _atom_site_fract_y
 _atom_site_fract_z
 _atom_site_occupancy
  Ca  Ca0  1  0.471603  0.601015  0.535515  1
  Ca  Ca1  1  0.971603  0.898985  0.464485  1
  Ca  Ca2  1  0.528397  0.101015  0.964485  1
  Ca  Ca3  1  0.028397  0.398985  0.035515  1
  Eu  Eu4  1  0.963965  0.781690  0.869151  1
  Eu  Eu5  1  0.463965  0.718310  0.130849  1
  Eu  Eu6  1  0.036035  0.281690  0.630849  1
  Eu  Eu7  1  0.536035  0.218310  0.369151  1
  Np  Np8  1  0.462109  0.993061  0.648769  1
  Np  Np9  1  0.962109  0.506939  0.351231  1
  Np  Np10  1  0.537891  0.493061  0.851231  1
  Np  Np11  1  0.037891  0.006939  0.148769  1
  O  O12  1  0.256248  0.085255  0.505695  1
  O  O13  1  0.756248  0.414745  0.494305  1
  O  O14  1  0.743752  0.585255  0.994305  1
  O  O15  1  0.243752  0.914745  0.005695  1
  O  O16  1  0.730061  0.118793  0.567941  1
  O  O17  1  0.230061  0.381207  0.432059  1
  O  O18  1  0.269939  0.618793  0.932059  1
  O  O19  1  0.769939  0.881207  0.067941  1
  O  O20  1  0.588095  0.843316  0.537287  1
  O  O21  1  0.088095  0.656684  0.462713  1
  O  O22  1  0.411905  0.343316  0.962713  1
  O  O23  1  0.911905  0.156684  0.037287  1
  O  O24  1  0.181089  0.860661  0.258543  1
  O  O25  1  0.681089  0.639339  0.741457  1
  O  O26  1  0.818911  0.360661  0.241457  1
  O  O27  1  0.318911  0.139339  0.758543  1
  O  O28  1  0.825615  0.050510  0.300986  1
  O  O29  1  0.325615  0.449490  0.699014  1
  O  O30  1  0.174385  0.550510  0.199014  1
  O  O31  1  0.674385  0.949490  0.800986  1
  O  O32  1  0.322055  0.137538  0.184153  1
  O  O33  1  0.822055  0.362462  0.815847  1
  O  O34  1  0.677945  0.637538  0.315847  1
  O  O35  1  0.177945  0.862462  0.684153  1
