# generated using pymatgen
data_Dy4Al4Pd3Rh
_symmetry_space_group_name_H-M   'P 1'
_cell_length_a   4.42514300
_cell_length_b   6.84794790
_cell_length_c   7.82751503
_cell_angle_alpha   89.94120155
_cell_angle_beta   90.00000000
_cell_angle_gamma   90.00000000
_symmetry_Int_Tables_number   1
_chemical_formula_structural   Dy4Al4Pd3Rh
_chemical_formula_sum   'Dy4 Al4 Pd3 Rh1'
_cell_volume   237.19822718
_cell_formula_units_Z   1
loop_
 _symmetry_equiv_pos_site_id
 _symmetry_equiv_pos_as_xyz
  1  'x, y, z'
loop_
 _atom_site_type_symbol
 _atom_site_label
 _atom_site_symmetry_multiplicity
 _atom_site_fract_x
 _atom_site_fract_y
 _atom_site_fract_z
 _atom_site_occupancy
  Dy  Dy0  1  0.250000  0.037430  0.323207  1
  Dy  Dy1  1  0.250000  0.534109  0.179743  1
  Dy  Dy2  1  0.750000  0.972698  0.679185  1
  Dy  Dy3  1  0.750000  0.463146  0.817806  1
  Al  Al4  1  0.250000  0.144677  0.936936  1
  Al  Al5  1  0.250000  0.637410  0.561709  1
  Al  Al6  1  0.750000  0.856931  0.060157  1
  Al  Al7  1  0.750000  0.356437  0.441246  1
  Pd  Pd8  1  0.250000  0.771851  0.880073  1
  Pd  Pd9  1  0.750000  0.729380  0.379465  1
  Pd  Pd10  1  0.750000  0.229079  0.121274  1
  Rh  Rh11  1  0.250000  0.266853  0.619199  1
