# generated using pymatgen
data_Ho7Er9TlIn2HgRh4
_symmetry_space_group_name_H-M   'P 1'
_cell_length_a   9.57768479
_cell_length_b   9.57962653
_cell_length_c   9.58417982
_cell_angle_alpha   60.05732536
_cell_angle_beta   60.00362271
_cell_angle_gamma   59.98855493
_symmetry_Int_Tables_number   1
_chemical_formula_structural   Ho7Er9TlIn2HgRh4
_chemical_formula_sum   'Ho7 Er9 Tl1 In2 Hg1 Rh4'
_cell_volume   622.02975311
_cell_formula_units_Z   1
loop_
 _symmetry_equiv_pos_site_id
 _symmetry_equiv_pos_as_xyz
  1  'x, y, z'
loop_
 _atom_site_type_symbol
 _atom_site_label
 _atom_site_symmetry_multiplicity
 _atom_site_fract_x
 _atom_site_fract_y
 _atom_site_fract_z
 _atom_site_occupancy
  Ho  Ho0  1  0.813218  0.813018  0.183837  1
  Ho  Ho1  1  0.197575  0.601597  0.602635  1
  Ho  Ho2  1  0.060187  0.438419  0.439844  1
  Ho  Ho3  1  0.061470  0.061363  0.437410  1
  Ho  Ho4  1  0.811406  0.189404  0.187617  1
  Ho  Ho5  1  0.601499  0.197247  0.602921  1
  Ho  Ho6  1  0.598200  0.598305  0.599190  1
  Er  Er7  1  0.188003  0.187677  0.812106  1
  Er  Er8  1  0.601831  0.602195  0.197380  1
  Er  Er9  1  0.438427  0.059999  0.440086  1
  Er  Er10  1  0.439349  0.439599  0.059841  1
  Er  Er11  1  0.813279  0.184756  0.813491  1
  Er  Er12  1  0.189618  0.811394  0.187493  1
  Er  Er13  1  0.436738  0.061127  0.061199  1
  Er  Er14  1  0.184736  0.813373  0.813658  1
  Er  Er15  1  0.061034  0.436970  0.060962  1
  Tl  Tl16  1  0.834464  0.834207  0.495975  1
  In  In17  1  0.501551  0.831940  0.833658  1
  In  In18  1  0.831968  0.501726  0.833434  1
  Hg  Hg19  1  0.836047  0.836210  0.838057  1
  Rh  Rh20  1  0.391934  0.822701  0.391258  1
  Rh  Rh21  1  0.393762  0.393400  0.393055  1
  Rh  Rh22  1  0.822401  0.392028  0.391240  1
  Rh  Rh23  1  0.391304  0.391348  0.823649  1
