# generated using pymatgen
data_CsKZrTe3
_symmetry_space_group_name_H-M   'P 1'
_cell_length_a   14.94191400
_cell_length_b   7.01226247
_cell_length_c   9.75195809
_cell_angle_alpha   70.68166527
_cell_angle_beta   90.00000000
_cell_angle_gamma   90.00000000
_symmetry_Int_Tables_number   1
_chemical_formula_structural   CsKZrTe3
_chemical_formula_sum   'Cs4 K4 Zr4 Te12'
_cell_volume   964.24620780
_cell_formula_units_Z   4
loop_
 _symmetry_equiv_pos_site_id
 _symmetry_equiv_pos_as_xyz
  1  'x, y, z'
loop_
 _atom_site_type_symbol
 _atom_site_label
 _atom_site_symmetry_multiplicity
 _atom_site_fract_x
 _atom_site_fract_y
 _atom_site_fract_z
 _atom_site_occupancy
  Cs  Cs0  1  0.955667  0.659661  0.664530  1
  Cs  Cs1  1  0.455667  0.840339  0.335470  1
  Cs  Cs2  1  0.044333  0.340339  0.335470  1
  Cs  Cs3  1  0.544333  0.159661  0.664530  1
  K  K4  1  0.862655  0.061200  0.896646  1
  K  K5  1  0.362655  0.438800  0.103354  1
  K  K6  1  0.137345  0.938800  0.103354  1
  K  K7  1  0.637345  0.561200  0.896646  1
  Zr  Zr8  1  0.749447  0.680989  0.285086  1
  Zr  Zr9  1  0.249447  0.819011  0.714914  1
  Zr  Zr10  1  0.250553  0.319011  0.714914  1
  Zr  Zr11  1  0.750553  0.180989  0.285086  1
  Te  Te12  1  0.909605  0.915027  0.260199  1
  Te  Te13  1  0.409605  0.584973  0.739801  1
  Te  Te14  1  0.090395  0.084973  0.739801  1
  Te  Te15  1  0.590395  0.415027  0.260199  1
  Te  Te16  1  0.807658  0.296453  0.522765  1
  Te  Te17  1  0.307658  0.203547  0.477235  1
  Te  Te18  1  0.192342  0.703547  0.477235  1
  Te  Te19  1  0.692342  0.796453  0.522765  1
  Te  Te20  1  0.843243  0.503663  0.074753  1
  Te  Te21  1  0.343243  0.996337  0.925247  1
  Te  Te22  1  0.156757  0.496337  0.925247  1
  Te  Te23  1  0.656757  0.003663  0.074753  1
