# generated using pymatgen
data_Ti3Ga3(Fe2Rh)2
_symmetry_space_group_name_H-M   'P 1'
_cell_length_a   4.20785400
_cell_length_b   5.92400005
_cell_length_c   12.54680511
_cell_angle_alpha   90.01499905
_cell_angle_beta   90.00008194
_cell_angle_gamma   90.00014545
_symmetry_Int_Tables_number   1
_chemical_formula_structural   Ti3Ga3(Fe2Rh)2
_chemical_formula_sum   'Ti6 Ga6 Fe8 Rh4'
_cell_volume   312.75830689
_cell_formula_units_Z   2
loop_
 _symmetry_equiv_pos_site_id
 _symmetry_equiv_pos_as_xyz
  1  'x, y, z'
loop_
 _atom_site_type_symbol
 _atom_site_label
 _atom_site_symmetry_multiplicity
 _atom_site_fract_x
 _atom_site_fract_y
 _atom_site_fract_z
 _atom_site_occupancy
  Ti  Ti0  1  0.999995  0.000008  0.987240  1
  Ti  Ti1  1  0.500042  0.500044  0.179478  1
  Ti  Ti2  1  0.000024  0.999959  0.345100  1
  Ti  Ti3  1  0.500002  0.499959  0.501628  1
  Ti  Ti4  1  0.999970  0.000067  0.664935  1
  Ti  Ti5  1  0.499965  0.499967  0.821662  1
  Ga  Ga6  1  0.999997  0.499995  0.990739  1
  Ga  Ga7  1  0.500044  0.999979  0.175958  1
  Ga  Ga8  1  0.000027  0.500038  0.343189  1
  Ga  Ga9  1  0.500002  0.000077  0.501555  1
  Ga  Ga10  1  0.999965  0.499905  0.665035  1
  Ga  Ga11  1  0.499965  0.000034  0.823543  1
  Fe  Fe12  1  0.500028  0.251390  0.336926  1
  Fe  Fe13  1  0.500026  0.748635  0.336890  1
  Fe  Fe14  1  0.000004  0.248420  0.502412  1
  Fe  Fe15  1  0.999996  0.751559  0.502393  1
  Fe  Fe16  1  0.499963  0.251496  0.664229  1
  Fe  Fe17  1  0.499972  0.748471  0.664199  1
  Fe  Fe18  1  0.999966  0.248596  0.829759  1
  Fe  Fe19  1  0.999967  0.751386  0.829793  1
  Rh  Rh20  1  0.500000  0.249503  0.999055  1
  Rh  Rh21  1  0.500000  0.750488  0.999073  1
  Rh  Rh22  1  0.000039  0.250499  0.167600  1
  Rh  Rh23  1  0.000039  0.749519  0.167606  1
