# generated using pymatgen
data_Sm3Er3NiBr10
_symmetry_space_group_name_H-M   'P 1'
_cell_length_a   7.34511400
_cell_length_b   9.25710436
_cell_length_c   9.33670732
_cell_angle_alpha   107.88633105
_cell_angle_beta   95.73145602
_cell_angle_gamma   105.48501547
_symmetry_Int_Tables_number   1
_chemical_formula_structural   Sm3Er3NiBr10
_chemical_formula_sum   'Sm3 Er3 Ni1 Br10'
_cell_volume   570.66796134
_cell_formula_units_Z   1
loop_
 _symmetry_equiv_pos_site_id
 _symmetry_equiv_pos_as_xyz
  1  'x, y, z'
loop_
 _atom_site_type_symbol
 _atom_site_label
 _atom_site_symmetry_multiplicity
 _atom_site_fract_x
 _atom_site_fract_y
 _atom_site_fract_z
 _atom_site_occupancy
  Sm  Sm0  1  0.872368  0.952643  0.244876  1
  Sm  Sm1  1  0.129440  0.046991  0.755677  1
  Sm  Sm2  1  0.029714  0.702719  0.906130  1
  Er  Er3  1  0.969409  0.288811  0.091084  1
  Er  Er4  1  0.651950  0.873477  0.831493  1
  Er  Er5  1  0.347620  0.130033  0.168953  1
  Ni  Ni6  1  0.001371  0.000088  0.000767  1
  Br  Br7  1  0.642592  0.554558  0.729829  1
  Br  Br8  1  0.342483  0.446171  0.266547  1
  Br  Br9  1  0.746410  0.920534  0.552462  1
  Br  Br10  1  0.255899  0.082268  0.448018  1
  Br  Br11  1  0.911680  0.621851  0.173887  1
  Br  Br12  1  0.086401  0.369374  0.831409  1
  Br  Br13  1  0.554343  0.180173  0.918766  1
  Br  Br14  1  0.450953  0.825373  0.085145  1
  Br  Br15  1  0.238609  0.749139  0.657923  1
  Br  Br16  1  0.768758  0.255798  0.337034  1
