# generated using pymatgen
data_Y8Ti12Si15Pt
_symmetry_space_group_name_H-M   'P 1'
_cell_length_a   7.10522584
_cell_length_b   7.05479320
_cell_length_c   13.01209216
_cell_angle_alpha   89.92323045
_cell_angle_beta   89.90009690
_cell_angle_gamma   90.04544136
_symmetry_Int_Tables_number   1
_chemical_formula_structural   Y8Ti12Si15Pt
_chemical_formula_sum   'Y8 Ti12 Si15 Pt1'
_cell_volume   652.24103356
_cell_formula_units_Z   1
loop_
 _symmetry_equiv_pos_site_id
 _symmetry_equiv_pos_as_xyz
  1  'x, y, z'
loop_
 _atom_site_type_symbol
 _atom_site_label
 _atom_site_symmetry_multiplicity
 _atom_site_fract_x
 _atom_site_fract_y
 _atom_site_fract_z
 _atom_site_occupancy
  Y  Y0  1  0.340406  0.001669  0.465608  1
  Y  Y1  1  0.501699  0.838459  0.717721  1
  Y  Y2  1  0.500710  0.159996  0.216690  1
  Y  Y3  1  0.841685  0.497013  0.283186  1
  Y  Y4  1  0.157228  0.502647  0.783173  1
  Y  Y5  1  0.659460  0.997679  0.967476  1
  Y  Y6  1  0.001464  0.339519  0.534367  1
  Y  Y7  1  0.998995  0.659921  0.033228  1
  Ti  Ti8  1  0.326163  0.326526  0.001134  1
  Ti  Ti9  1  0.173871  0.826378  0.249789  1
  Ti  Ti10  1  0.823374  0.172524  0.749838  1
  Ti  Ti11  1  0.673710  0.672254  0.499422  1
  Ti  Ti12  1  0.155004  0.012189  0.876814  1
  Ti  Ti13  1  0.491039  0.652002  0.126066  1
  Ti  Ti14  1  0.502950  0.344761  0.626637  1
  Ti  Ti15  1  0.654702  0.495205  0.875382  1
  Ti  Ti16  1  0.348279  0.507560  0.373239  1
  Ti  Ti17  1  0.846983  0.991746  0.375297  1
  Ti  Ti18  1  0.008593  0.152080  0.124932  1
  Ti  Ti19  1  0.987268  0.848722  0.619073  1
  Si  Si20  1  0.369474  0.702679  0.935049  1
  Si  Si21  1  0.631054  0.297201  0.434047  1
  Si  Si22  1  0.702623  0.370121  0.066343  1
  Si  Si23  1  0.300920  0.631294  0.563721  1
  Si  Si24  1  0.795750  0.869331  0.183453  1
  Si  Si25  1  0.130196  0.202760  0.315663  1
  Si  Si26  1  0.869517  0.799037  0.815772  1
  Si  Si27  1  0.291389  0.953572  0.065286  1
  Si  Si28  1  0.547783  0.790111  0.314625  1
  Si  Si29  1  0.456384  0.214066  0.818158  1
  Si  Si30  1  0.789464  0.547737  0.685945  1
  Si  Si31  1  0.208750  0.453087  0.184954  1
  Si  Si32  1  0.707420  0.047001  0.563156  1
  Si  Si33  1  0.952068  0.290789  0.936774  1
  Si  Si34  1  0.048311  0.709174  0.433535  1
  Pt  Pt35  1  0.205314  0.123189  0.684449  1
