# generated using pymatgen
data_RbVTeO6
_symmetry_space_group_name_H-M   'P 1'
_cell_length_a   7.16004439
_cell_length_b   7.16004522
_cell_length_c   7.16004571
_cell_angle_alpha   120.73671981
_cell_angle_beta   119.35229448
_cell_angle_gamma   89.92711022
_symmetry_Int_Tables_number   1
_chemical_formula_structural   RbVTeO6
_chemical_formula_sum   'Rb2 V2 Te2 O12'
_cell_volume   259.33449404
_cell_formula_units_Z   2
loop_
 _symmetry_equiv_pos_site_id
 _symmetry_equiv_pos_as_xyz
  1  'x, y, z'
loop_
 _atom_site_type_symbol
 _atom_site_label
 _atom_site_symmetry_multiplicity
 _atom_site_fract_x
 _atom_site_fract_y
 _atom_site_fract_z
 _atom_site_occupancy
  Rb  Rb0  1  0.869383  0.619383  0.250000  1
  Rb  Rb1  1  0.130617  0.380617  0.750000  1
  V  V2  1  0.500000  0.000000  0.000000  1
  V  V3  1  0.500000  0.500000  0.500000  1
  Te  Te4  1  0.500000  0.000000  0.500000  1
  Te  Te5  1  0.000000  0.000000  0.000000  1
  O  O6  1  0.830023  0.080023  0.750000  1
  O  O7  1  0.449129  0.699129  0.750000  1
  O  O8  1  0.816263  0.677438  0.740204  1
  O  O9  1  0.437233  0.076059  0.759796  1
  O  O10  1  0.816263  0.076059  0.138827  1
  O  O11  1  0.437233  0.677438  0.361173  1
  O  O12  1  0.169977  0.919977  0.250000  1
  O  O13  1  0.550871  0.300871  0.250000  1
  O  O14  1  0.183737  0.322562  0.259796  1
  O  O15  1  0.562767  0.923941  0.240204  1
  O  O16  1  0.183737  0.923941  0.861173  1
  O  O17  1  0.562767  0.322562  0.638827  1
