# generated using pymatgen
data_CsLi3Er2S5
_symmetry_space_group_name_H-M   'P 1'
_cell_length_a   4.00935800
_cell_length_b   7.62637522
_cell_length_c   16.83553500
_cell_angle_alpha   90.00000000
_cell_angle_beta   90.00000000
_cell_angle_gamma   74.76008193
_symmetry_Int_Tables_number   1
_chemical_formula_structural   CsLi3Er2S5
_chemical_formula_sum   'Cs2 Li6 Er4 S10'
_cell_volume   496.67504892
_cell_formula_units_Z   2
loop_
 _symmetry_equiv_pos_site_id
 _symmetry_equiv_pos_as_xyz
  1  'x, y, z'
loop_
 _atom_site_type_symbol
 _atom_site_label
 _atom_site_symmetry_multiplicity
 _atom_site_fract_x
 _atom_site_fract_y
 _atom_site_fract_z
 _atom_site_occupancy
  Cs  Cs0  1  0.933591  0.132821  0.250000  1
  Cs  Cs1  1  0.066410  0.867180  0.750000  1
  Li  Li2  1  0.419362  0.161274  0.040677  1
  Li  Li3  1  0.647655  0.704692  0.250000  1
  Li  Li4  1  0.419362  0.161274  0.459322  1
  Li  Li5  1  0.580638  0.838727  0.540677  1
  Li  Li6  1  0.352346  0.295307  0.750000  1
  Li  Li7  1  0.580638  0.838727  0.959322  1
  Er  Er8  1  0.195780  0.608437  0.094691  1
  Er  Er9  1  0.195780  0.608437  0.405308  1
  Er  Er10  1  0.804220  0.391564  0.594691  1
  Er  Er11  1  0.804220  0.391564  0.905309  1
  S  S12  1  0.823565  0.352872  0.066500  1
  S  S13  1  0.572190  0.855621  0.109492  1
  S  S14  1  0.233492  0.533014  0.250000  1
  S  S15  1  0.572190  0.855621  0.390507  1
  S  S16  1  0.823565  0.352872  0.433501  1
  S  S17  1  0.176435  0.647129  0.566500  1
  S  S18  1  0.427810  0.144380  0.609492  1
  S  S19  1  0.766508  0.466987  0.750000  1
  S  S20  1  0.427810  0.144380  0.890508  1
  S  S21  1  0.176435  0.647129  0.933501  1
