# generated using pymatgen
data_Tb3Nd4Tm13Pt16
_symmetry_space_group_name_H-M   'P 1'
_cell_length_a   7.46355344
_cell_length_b   7.55443241
_cell_length_c   14.74373457
_cell_angle_alpha   89.92322524
_cell_angle_beta   89.97132986
_cell_angle_gamma   89.93872009
_symmetry_Int_Tables_number   1
_chemical_formula_structural   Tb3Nd4Tm13Pt16
_chemical_formula_sum   'Tb3 Nd4 Tm13 Pt16'
_cell_volume   831.29333374
_cell_formula_units_Z   1
loop_
 _symmetry_equiv_pos_site_id
 _symmetry_equiv_pos_as_xyz
  1  'x, y, z'
loop_
 _atom_site_type_symbol
 _atom_site_label
 _atom_site_symmetry_multiplicity
 _atom_site_fract_x
 _atom_site_fract_y
 _atom_site_fract_z
 _atom_site_occupancy
  Tb  Tb0  1  0.009776  0.175957  0.095614  1
  Tb  Tb1  1  0.490210  0.676659  0.903090  1
  Tb  Tb2  1  0.989413  0.821348  0.595540  1
  Nd  Nd3  1  0.989561  0.825541  0.905528  1
  Nd  Nd4  1  0.510538  0.325843  0.092648  1
  Nd  Nd5  1  0.011194  0.172652  0.406630  1
  Nd  Nd6  1  0.511191  0.329619  0.406853  1
  Tm  Tm7  1  0.646778  0.168086  0.622327  1
  Tm  Tm8  1  0.146742  0.331276  0.877107  1
  Tm  Tm9  1  0.353639  0.831459  0.121237  1
  Tm  Tm10  1  0.856087  0.668786  0.377895  1
  Tm  Tm11  1  0.355975  0.830824  0.378316  1
  Tm  Tm12  1  0.853146  0.667532  0.122389  1
  Tm  Tm13  1  0.646497  0.167890  0.875546  1
  Tm  Tm14  1  0.148669  0.333325  0.622398  1
  Tm  Tm15  1  0.488693  0.678635  0.596279  1
  Tm  Tm16  1  0.807930  0.508982  0.748845  1
  Tm  Tm17  1  0.307910  0.990527  0.748631  1
  Tm  Tm18  1  0.191480  0.489961  0.249246  1
  Tm  Tm19  1  0.691275  0.009681  0.249486  1
  Pt  Pt20  1  0.685630  0.958140  0.461962  1
  Pt  Pt21  1  0.183047  0.532790  0.041343  1
  Pt  Pt22  1  0.317993  0.032259  0.956802  1
  Pt  Pt23  1  0.807536  0.475648  0.546007  1
  Pt  Pt24  1  0.312862  0.023497  0.546544  1
  Pt  Pt25  1  0.811220  0.466219  0.956255  1
  Pt  Pt26  1  0.689874  0.966651  0.042018  1
  Pt  Pt27  1  0.185328  0.542749  0.463280  1
  Pt  Pt28  1  0.442138  0.380651  0.749263  1
  Pt  Pt29  1  0.940053  0.121266  0.748231  1
  Pt  Pt30  1  0.559570  0.625091  0.250400  1
  Pt  Pt31  1  0.058727  0.875471  0.249187  1
  Pt  Pt32  1  0.667835  0.858168  0.747349  1
  Pt  Pt33  1  0.174054  0.639064  0.747385  1
  Pt  Pt34  1  0.326609  0.136766  0.249509  1
  Pt  Pt35  1  0.830823  0.360990  0.248855  1
