# generated using pymatgen
data_LiLaCe2In3Pd2
_symmetry_space_group_name_H-M   'P 1'
_cell_length_a   7.88206424
_cell_length_b   7.88206460
_cell_length_c   4.00499700
_cell_angle_alpha   90.00000000
_cell_angle_beta   90.00000000
_cell_angle_gamma   120.61917994
_symmetry_Int_Tables_number   1
_chemical_formula_structural   LiLaCe2In3Pd2
_chemical_formula_sum   'Li1 La1 Ce2 In3 Pd2'
_cell_volume   214.12587590
_cell_formula_units_Z   1
loop_
 _symmetry_equiv_pos_site_id
 _symmetry_equiv_pos_as_xyz
  1  'x, y, z'
loop_
 _atom_site_type_symbol
 _atom_site_label
 _atom_site_symmetry_multiplicity
 _atom_site_fract_x
 _atom_site_fract_y
 _atom_site_fract_z
 _atom_site_occupancy
  Li  Li0  1  0.999523  0.999523  0.500000  1
  La  La1  1  0.418296  0.418296  0.500000  1
  Ce  Ce2  1  0.580655  0.999842  0.500000  1
  Ce  Ce3  1  0.999842  0.580655  0.500000  1
  In  In4  1  0.247561  0.994301  0.000000  1
  In  In5  1  0.994301  0.247561  0.000000  1
  In  In6  1  0.755803  0.755803  0.000000  1
  Pd  Pd7  1  0.330436  0.673585  0.000000  1
  Pd  Pd8  1  0.673585  0.330436  0.000000  1
