# generated using pymatgen
data_Y15HoCd3AgIr4
_symmetry_space_group_name_H-M   'P 1'
_cell_length_a   9.68450222
_cell_length_b   9.68450248
_cell_length_c   9.68450165
_cell_angle_alpha   59.69638590
_cell_angle_beta   59.69638073
_cell_angle_gamma   59.69639121
_symmetry_Int_Tables_number   1
_chemical_formula_structural   Y15HoCd3AgIr4
_chemical_formula_sum   'Y15 Ho1 Cd3 Ag1 Ir4'
_cell_volume   637.83936083
_cell_formula_units_Z   1
loop_
 _symmetry_equiv_pos_site_id
 _symmetry_equiv_pos_as_xyz
  1  'x, y, z'
loop_
 _atom_site_type_symbol
 _atom_site_label
 _atom_site_symmetry_multiplicity
 _atom_site_fract_x
 _atom_site_fract_y
 _atom_site_fract_z
 _atom_site_occupancy
  Y  Y0  1  0.349854  0.349854  0.952764  1
  Y  Y1  1  0.349854  0.952764  0.349854  1
  Y  Y2  1  0.952764  0.349854  0.349854  1
  Y  Y3  1  0.809317  0.190061  0.190061  1
  Y  Y4  1  0.187423  0.809712  0.809712  1
  Y  Y5  1  0.190061  0.809317  0.190061  1
  Y  Y6  1  0.809712  0.187423  0.809712  1
  Y  Y7  1  0.190061  0.190061  0.809317  1
  Y  Y8  1  0.809712  0.809712  0.187423  1
  Y  Y9  1  0.937540  0.560741  0.560741  1
  Y  Y10  1  0.561743  0.936341  0.936341  1
  Y  Y11  1  0.560741  0.937540  0.560741  1
  Y  Y12  1  0.936341  0.561743  0.936341  1
  Y  Y13  1  0.560741  0.560741  0.937540  1
  Y  Y14  1  0.936341  0.936341  0.561743  1
  Ho  Ho15  1  0.348567  0.348567  0.348567  1
  Cd  Cd16  1  0.581333  0.581333  0.258683  1
  Cd  Cd17  1  0.581333  0.258683  0.581333  1
  Cd  Cd18  1  0.258683  0.581333  0.581333  1
  Ag  Ag19  1  0.582835  0.582835  0.582835  1
  Ir  Ir20  1  0.141556  0.141556  0.141556  1
  Ir  Ir21  1  0.144029  0.144029  0.575430  1
  Ir  Ir22  1  0.144029  0.575430  0.144029  1
  Ir  Ir23  1  0.575430  0.144029  0.144029  1
