# generated using pymatgen
data_ErZrAu6
_symmetry_space_group_name_H-M   'P 1'
_cell_length_a   4.96229200
_cell_length_b   5.04975800
_cell_length_c   6.17955800
_cell_angle_alpha   90.00000000
_cell_angle_beta   90.00000000
_cell_angle_gamma   90.00000000
_symmetry_Int_Tables_number   1
_chemical_formula_structural   ErZrAu6
_chemical_formula_sum   'Er1 Zr1 Au6'
_cell_volume   154.84967382
_cell_formula_units_Z   1
loop_
 _symmetry_equiv_pos_site_id
 _symmetry_equiv_pos_as_xyz
  1  'x, y, z'
loop_
 _atom_site_type_symbol
 _atom_site_label
 _atom_site_symmetry_multiplicity
 _atom_site_fract_x
 _atom_site_fract_y
 _atom_site_fract_z
 _atom_site_occupancy
  Er  Er0  1  0.500000  0.662024  0.500000  1
  Zr  Zr1  1  0.000000  0.342583  0.000000  1
  Au  Au2  1  0.500000  0.165392  0.759877  1
  Au  Au3  1  0.500000  0.165392  0.240123  1
  Au  Au4  1  0.000000  0.836750  0.752629  1
  Au  Au5  1  0.000000  0.836750  0.247371  1
  Au  Au6  1  0.000000  0.333626  0.500000  1
  Au  Au7  1  0.500000  0.657483  0.000000  1
