# generated using pymatgen
data_KSrMoH9
_symmetry_space_group_name_H-M   'P 1'
_cell_length_a   9.16499900
_cell_length_b   9.16499842
_cell_length_c   5.33324800
_cell_angle_alpha   90.00000000
_cell_angle_beta   90.00000000
_cell_angle_gamma   120.00000571
_symmetry_Int_Tables_number   1
_chemical_formula_structural   KSrMoH9
_chemical_formula_sum   'K3 Sr3 Mo3 H27'
_cell_volume   387.96022469
_cell_formula_units_Z   3
loop_
 _symmetry_equiv_pos_site_id
 _symmetry_equiv_pos_as_xyz
  1  'x, y, z'
loop_
 _atom_site_type_symbol
 _atom_site_label
 _atom_site_symmetry_multiplicity
 _atom_site_fract_x
 _atom_site_fract_y
 _atom_site_fract_z
 _atom_site_occupancy
  K  K0  1  0.000000  0.591232  0.000000  1
  K  K1  1  0.408768  0.408768  0.000000  1
  K  K2  1  0.591232  0.000000  0.000000  1
  Sr  Sr3  1  0.000000  0.273428  0.500000  1
  Sr  Sr4  1  0.726572  0.726572  0.500000  1
  Sr  Sr5  1  0.273428  0.000000  0.500000  1
  Mo  Mo6  1  0.666667  0.333333  0.500000  1
  Mo  Mo7  1  0.333333  0.666667  0.500000  1
  Mo  Mo8  1  0.000000  0.000000  0.000000  1
  H  H9  1  0.785979  0.306801  0.738082  1
  H  H10  1  0.693199  0.479177  0.738082  1
  H  H11  1  0.520823  0.214021  0.738082  1
  H  H12  1  0.214021  0.520823  0.261918  1
  H  H13  1  0.520823  0.214021  0.261918  1
  H  H14  1  0.785979  0.306801  0.261918  1
  H  H15  1  0.693199  0.479177  0.261918  1
  H  H16  1  0.306801  0.785979  0.738082  1
  H  H17  1  0.479177  0.693199  0.738082  1
  H  H18  1  0.189958  0.000000  0.000000  1
  H  H19  1  0.810042  0.810042  0.000000  1
  H  H20  1  0.000000  0.189958  0.000000  1
  H  H21  1  0.863047  0.000000  0.234033  1
  H  H22  1  0.136953  0.136953  0.765967  1
  H  H23  1  0.000000  0.863047  0.765967  1
  H  H24  1  0.000000  0.863047  0.234033  1
  H  H25  1  0.136953  0.136953  0.234033  1
  H  H26  1  0.863047  0.000000  0.765967  1
  H  H27  1  0.129184  0.632113  0.500000  1
  H  H28  1  0.502930  0.870816  0.500000  1
  H  H29  1  0.367887  0.497070  0.500000  1
  H  H30  1  0.497070  0.367887  0.500000  1
  H  H31  1  0.870816  0.502930  0.500000  1
  H  H32  1  0.632113  0.129184  0.500000  1
  H  H33  1  0.214021  0.520823  0.738082  1
  H  H34  1  0.306801  0.785979  0.261918  1
  H  H35  1  0.479177  0.693199  0.261918  1
