# generated using pymatgen
data_Sm3HoBi3Sb3Rh7
_symmetry_space_group_name_H-M   'P 1'
_cell_length_a   7.79567347
_cell_length_b   7.75255696
_cell_length_c   7.75255651
_cell_angle_alpha   109.30022145
_cell_angle_beta   109.50939576
_cell_angle_gamma   109.50941618
_symmetry_Int_Tables_number   1
_chemical_formula_structural   Sm3HoBi3Sb3Rh7
_chemical_formula_sum   'Sm3 Ho1 Bi3 Sb3 Rh7'
_cell_volume   361.09906311
_cell_formula_units_Z   1
loop_
 _symmetry_equiv_pos_site_id
 _symmetry_equiv_pos_as_xyz
  1  'x, y, z'
loop_
 _atom_site_type_symbol
 _atom_site_label
 _atom_site_symmetry_multiplicity
 _atom_site_fract_x
 _atom_site_fract_y
 _atom_site_fract_z
 _atom_site_occupancy
  Sm  Sm0  1  0.463564  0.000027  0.000027  1
  Sm  Sm1  1  0.003460  0.514901  0.000112  1
  Sm  Sm2  1  0.003460  0.000112  0.514901  1
  Ho  Ho3  1  0.488112  0.483827  0.483827  1
  Bi  Bi4  1  0.987887  0.297362  0.297362  1
  Bi  Bi5  1  0.688749  0.998241  0.702649  1
  Bi  Bi6  1  0.688749  0.702649  0.998241  1
  Sb  Sb7  1  0.985916  0.660861  0.660861  1
  Sb  Sb8  1  0.326602  0.001629  0.339455  1
  Sb  Sb9  1  0.326602  0.339455  0.001629  1
  Rh  Rh10  1  0.070654  0.000472  0.000472  1
  Rh  Rh11  1  0.497575  0.753275  0.256378  1
  Rh  Rh12  1  0.742230  0.501002  0.246863  1
  Rh  Rh13  1  0.243316  0.743982  0.498964  1
  Rh  Rh14  1  0.243316  0.498964  0.743982  1
  Rh  Rh15  1  0.497575  0.256378  0.753275  1
  Rh  Rh16  1  0.742230  0.246863  0.501002  1
