# generated using pymatgen
data_Y5Lu3(As3Rh4)4
_symmetry_space_group_name_H-M   'P 1'
_cell_length_a   13.39685100
_cell_length_b   13.39685099
_cell_length_c   4.03466700
_cell_angle_alpha   90.00000000
_cell_angle_beta   90.00000000
_cell_angle_gamma   120.00000249
_symmetry_Int_Tables_number   1
_chemical_formula_structural   Y5Lu3(As3Rh4)4
_chemical_formula_sum   'Y5 Lu3 As12 Rh16'
_cell_volume   627.11006489
_cell_formula_units_Z   1
loop_
 _symmetry_equiv_pos_site_id
 _symmetry_equiv_pos_as_xyz
  1  'x, y, z'
loop_
 _atom_site_type_symbol
 _atom_site_label
 _atom_site_symmetry_multiplicity
 _atom_site_fract_x
 _atom_site_fract_y
 _atom_site_fract_z
 _atom_site_occupancy
  Y  Y0  1  0.188991  0.188991  0.500000  1
  Y  Y1  1  0.811009  0.000000  0.500000  1
  Y  Y2  1  0.000000  0.811009  0.500000  1
  Y  Y3  1  0.333333  0.666667  0.000000  1
  Y  Y4  1  0.666667  0.333333  0.000000  1
  Lu  Lu5  1  0.558935  0.558935  0.000000  1
  Lu  Lu6  1  0.441065  0.000000  0.000000  1
  Lu  Lu7  1  0.000000  0.441065  0.000000  1
  As  As8  1  0.823956  0.823956  0.000000  1
  As  As9  1  0.176044  0.000000  0.000000  1
  As  As10  1  0.000000  0.176044  0.000000  1
  As  As11  1  0.173600  0.486626  0.500000  1
  As  As12  1  0.513374  0.686974  0.500000  1
  As  As13  1  0.313026  0.826400  0.500000  1
  As  As14  1  0.686974  0.513374  0.500000  1
  As  As15  1  0.826400  0.313026  0.500000  1
  As  As16  1  0.486626  0.173600  0.500000  1
  As  As17  1  0.351623  0.351623  0.000000  1
  As  As18  1  0.648377  0.000000  0.000000  1
  As  As19  1  0.000000  0.648377  0.000000  1
  Rh  Rh20  1  0.720982  0.720982  0.500000  1
  Rh  Rh21  1  0.279018  0.000000  0.500000  1
  Rh  Rh22  1  0.000000  0.279018  0.500000  1
  Rh  Rh23  1  0.176720  0.374650  0.000000  1
  Rh  Rh24  1  0.625350  0.802070  0.000000  1
  Rh  Rh25  1  0.197930  0.823280  0.000000  1
  Rh  Rh26  1  0.802070  0.625350  0.000000  1
  Rh  Rh27  1  0.823280  0.197930  0.000000  1
  Rh  Rh28  1  0.374650  0.176720  0.000000  1
  Rh  Rh29  1  0.354469  0.481131  0.500000  1
  Rh  Rh30  1  0.518869  0.873340  0.500000  1
  Rh  Rh31  1  0.126660  0.645531  0.500000  1
  Rh  Rh32  1  0.873340  0.518869  0.500000  1
  Rh  Rh33  1  0.645531  0.126660  0.500000  1
  Rh  Rh34  1  0.481131  0.354469  0.500000  1
  Rh  Rh35  1  0.000000  0.000000  0.000000  1
