# generated using pymatgen
data_Y3Er13(TmPt4)4
_symmetry_space_group_name_H-M   'P 1'
_cell_length_a   7.41952379
_cell_length_b   7.49883380
_cell_length_c   14.65259008
_cell_angle_alpha   90.04849586
_cell_angle_beta   89.93560419
_cell_angle_gamma   89.95342078
_symmetry_Int_Tables_number   1
_chemical_formula_structural   Y3Er13(TmPt4)4
_chemical_formula_sum   'Y3 Er13 Tm4 Pt16'
_cell_volume   815.23644521
_cell_formula_units_Z   1
loop_
 _symmetry_equiv_pos_site_id
 _symmetry_equiv_pos_as_xyz
  1  'x, y, z'
loop_
 _atom_site_type_symbol
 _atom_site_label
 _atom_site_symmetry_multiplicity
 _atom_site_fract_x
 _atom_site_fract_y
 _atom_site_fract_z
 _atom_site_occupancy
  Y  Y0  1  0.499674  0.321853  0.906983  1
  Y  Y1  1  0.499903  0.678187  0.407512  1
  Y  Y2  1  0.000178  0.821855  0.092597  1
  Er  Er3  1  0.655789  0.832825  0.622310  1
  Er  Er4  1  0.155069  0.667414  0.877240  1
  Er  Er5  1  0.845404  0.332256  0.377733  1
  Er  Er6  1  0.344871  0.167647  0.122233  1
  Er  Er7  1  0.345285  0.167476  0.378090  1
  Er  Er8  1  0.845077  0.332303  0.121882  1
  Er  Er9  1  0.154973  0.667841  0.622091  1
  Er  Er10  1  0.655196  0.832274  0.877876  1
  Er  Er11  1  0.999172  0.821197  0.406691  1
  Er  Er12  1  0.498331  0.679718  0.093376  1
  Er  Er13  1  0.501184  0.319854  0.593683  1
  Er  Er14  1  0.001522  0.180168  0.906543  1
  Er  Er15  1  0.000500  0.179311  0.593023  1
  Tm  Tm16  1  0.682305  0.989337  0.249942  1
  Tm  Tm17  1  0.182177  0.510792  0.249997  1
  Tm  Tm18  1  0.817420  0.489364  0.749620  1
  Tm  Tm19  1  0.317929  0.010391  0.749937  1
  Pt  Pt20  1  0.819171  0.643331  0.251165  1
  Pt  Pt21  1  0.319438  0.856521  0.249628  1
  Pt  Pt22  1  0.681592  0.143156  0.748667  1
  Pt  Pt23  1  0.179137  0.355493  0.749371  1
  Pt  Pt24  1  0.548172  0.386112  0.249627  1
  Pt  Pt25  1  0.048172  0.113896  0.250645  1
  Pt  Pt26  1  0.952292  0.887246  0.749879  1
  Pt  Pt27  1  0.451458  0.613629  0.749153  1
  Pt  Pt28  1  0.815809  0.530373  0.542889  1
  Pt  Pt29  1  0.314764  0.966997  0.957938  1
  Pt  Pt30  1  0.685666  0.033791  0.459052  1
  Pt  Pt31  1  0.185095  0.467216  0.041555  1
  Pt  Pt32  1  0.182232  0.466274  0.458788  1
  Pt  Pt33  1  0.682290  0.032295  0.041929  1
  Pt  Pt34  1  0.315042  0.969615  0.542870  1
  Pt  Pt35  1  0.817708  0.531990  0.957486  1
