# generated using pymatgen
data_CaLa15Cd4Co3Tc
_symmetry_space_group_name_H-M   'P 1'
_cell_length_a   10.04120924
_cell_length_b   9.96698946
_cell_length_c   9.91951000
_cell_angle_alpha   60.15746290
_cell_angle_beta   60.40012885
_cell_angle_gamma   60.25949854
_symmetry_Int_Tables_number   1
_chemical_formula_structural   CaLa15Cd4Co3Tc
_chemical_formula_sum   'Ca1 La15 Cd4 Co3 Tc1'
_cell_volume   706.30180621
_cell_formula_units_Z   1
loop_
 _symmetry_equiv_pos_site_id
 _symmetry_equiv_pos_as_xyz
  1  'x, y, z'
loop_
 _atom_site_type_symbol
 _atom_site_label
 _atom_site_symmetry_multiplicity
 _atom_site_fract_x
 _atom_site_fract_y
 _atom_site_fract_z
 _atom_site_occupancy
  Ca  Ca0  1  0.934339  0.942269  0.561695  1
  La  La1  1  0.561559  0.938670  0.559330  1
  La  La2  1  0.561559  0.938670  0.940442  1
  La  La3  1  0.682635  0.689190  0.314088  1
  La  La4  1  0.160206  0.152774  0.535106  1
  La  La5  1  0.303705  0.690100  0.691991  1
  La  La6  1  0.160206  0.152774  0.151912  1
  La  La7  1  0.539901  0.154151  0.152973  1
  La  La8  1  0.303705  0.690100  0.314204  1
  La  La9  1  0.308522  0.312738  0.689370  1
  La  La10  1  0.683539  0.309536  0.692520  1
  La  La11  1  0.934200  0.558852  0.558116  1
  La  La12  1  0.560336  0.559899  0.939883  1
  La  La13  1  0.161284  0.536934  0.150890  1
  La  La14  1  0.683539  0.309536  0.314405  1
  La  La15  1  0.934200  0.558852  0.948831  1
  Cd  Cd16  1  0.237733  0.920647  0.920809  1
  Cd  Cd17  1  0.922007  0.921434  0.920177  1
  Cd  Cd18  1  0.922007  0.921434  0.236382  1
  Cd  Cd19  1  0.921433  0.236217  0.921175  1
  Co  Co20  1  0.371535  0.357153  0.915712  1
  Co  Co21  1  0.373410  0.916008  0.355290  1
  Co  Co22  1  0.371535  0.357153  0.355598  1
  Tc  Tc23  1  0.906898  0.374906  0.359097  1
