# generated using pymatgen
data_CsCeGeS4
_symmetry_space_group_name_H-M   'P 1'
_cell_length_a   6.68268840
_cell_length_b   6.91621941
_cell_length_c   18.16092400
_cell_angle_alpha   90.00000000
_cell_angle_beta   90.00000000
_cell_angle_gamma   90.03947791
_symmetry_Int_Tables_number   1
_chemical_formula_structural   CsCeGeS4
_chemical_formula_sum   'Cs4 Ce4 Ge4 S16'
_cell_volume   839.37844297
_cell_formula_units_Z   4
loop_
 _symmetry_equiv_pos_site_id
 _symmetry_equiv_pos_as_xyz
  1  'x, y, z'
loop_
 _atom_site_type_symbol
 _atom_site_label
 _atom_site_symmetry_multiplicity
 _atom_site_fract_x
 _atom_site_fract_y
 _atom_site_fract_z
 _atom_site_occupancy
  Cs  Cs0  1  0.991124  0.005433  0.033116  1
  Cs  Cs1  1  0.009994  0.505434  0.467218  1
  Cs  Cs2  1  0.508876  0.994566  0.533116  1
  Cs  Cs3  1  0.490006  0.494567  0.967217  1
  Ce  Ce4  1  0.291134  0.478006  0.226730  1
  Ce  Ce5  1  0.708276  0.977683  0.273216  1
  Ce  Ce6  1  0.208867  0.521993  0.726730  1
  Ce  Ce7  1  0.791725  0.022318  0.773216  1
  Ge  Ge8  1  0.790937  0.514690  0.166012  1
  Ge  Ge9  1  0.207991  0.015327  0.334001  1
  Ge  Ge10  1  0.709064  0.485310  0.666012  1
  Ge  Ge11  1  0.292008  0.984673  0.834001  1
  S  S12  1  0.055187  0.511120  0.092769  1
  S  S13  1  0.566815  0.749408  0.145170  1
  S  S14  1  0.604200  0.246955  0.154168  1
  S  S15  1  0.103742  0.076822  0.219195  1
  S  S16  1  0.894663  0.576359  0.280869  1
  S  S17  1  0.394724  0.747827  0.345677  1
  S  S18  1  0.432208  0.250042  0.354741  1
  S  S19  1  0.943483  0.010959  0.407118  1
  S  S20  1  0.444814  0.488880  0.592769  1
  S  S21  1  0.933184  0.250593  0.645170  1
  S  S22  1  0.895801  0.753046  0.654168  1
  S  S23  1  0.396257  0.923178  0.719195  1
  S  S24  1  0.605338  0.423641  0.780869  1
  S  S25  1  0.105275  0.252173  0.845677  1
  S  S26  1  0.067793  0.749957  0.854741  1
  S  S27  1  0.556516  0.989040  0.907118  1
