# generated using pymatgen
data_Pa3Fe3Sb4
_symmetry_space_group_name_H-M   'P 1'
_cell_length_a   8.12737978
_cell_length_b   8.12737981
_cell_length_c   8.12738000
_cell_angle_alpha   109.47122361
_cell_angle_beta   109.47122367
_cell_angle_gamma   109.47121401
_symmetry_Int_Tables_number   1
_chemical_formula_structural   Pa3Fe3Sb4
_chemical_formula_sum   'Pa6 Fe6 Sb8'
_cell_volume   413.26610627
_cell_formula_units_Z   2
loop_
 _symmetry_equiv_pos_site_id
 _symmetry_equiv_pos_as_xyz
  1  'x, y, z'
loop_
 _atom_site_type_symbol
 _atom_site_label
 _atom_site_symmetry_multiplicity
 _atom_site_fract_x
 _atom_site_fract_y
 _atom_site_fract_z
 _atom_site_occupancy
  Pa  Pa0  1  0.875000  0.250000  0.125000  1
  Pa  Pa1  1  0.625000  0.750000  0.375000  1
  Pa  Pa2  1  0.250000  0.125000  0.875000  1
  Pa  Pa3  1  0.750000  0.375000  0.625000  1
  Pa  Pa4  1  0.125000  0.875000  0.250000  1
  Pa  Pa5  1  0.375000  0.625000  0.750000  1
  Fe  Fe6  1  0.375000  0.250000  0.625000  1
  Fe  Fe7  1  0.125000  0.750000  0.875000  1
  Fe  Fe8  1  0.250000  0.625000  0.375000  1
  Fe  Fe9  1  0.750000  0.875000  0.125000  1
  Fe  Fe10  1  0.625000  0.375000  0.250000  1
  Fe  Fe11  1  0.875000  0.125000  0.750000  1
  Sb  Sb12  1  0.665049  0.500000  0.000000  1
  Sb  Sb13  1  0.500000  0.000000  0.665049  1
  Sb  Sb14  1  0.000000  0.665049  0.500000  1
  Sb  Sb15  1  0.834951  0.834951  0.834951  1
  Sb  Sb16  1  0.500000  0.000000  0.165049  1
  Sb  Sb17  1  0.165049  0.500000  0.000000  1
  Sb  Sb18  1  0.000000  0.165049  0.500000  1
  Sb  Sb19  1  0.334951  0.334951  0.334951  1
