# generated using pymatgen
data_Eu11MnBe4O20
_symmetry_space_group_name_H-M   'P 1'
_cell_length_a   6.61409145
_cell_length_b   7.09941300
_cell_length_c   9.49623118
_cell_angle_alpha   90.00000000
_cell_angle_beta   88.94739891
_cell_angle_gamma   90.00000000
_symmetry_Int_Tables_number   1
_chemical_formula_structural   Eu11MnBe4O20
_chemical_formula_sum   'Eu11 Mn1 Be4 O20'
_cell_volume   445.83136916
_cell_formula_units_Z   1
loop_
 _symmetry_equiv_pos_site_id
 _symmetry_equiv_pos_as_xyz
  1  'x, y, z'
loop_
 _atom_site_type_symbol
 _atom_site_label
 _atom_site_symmetry_multiplicity
 _atom_site_fract_x
 _atom_site_fract_y
 _atom_site_fract_z
 _atom_site_occupancy
  Eu  Eu0  1  0.917255  0.521094  0.827371  1
  Eu  Eu1  1  0.416180  0.014305  0.682385  1
  Eu  Eu2  1  0.586525  0.983667  0.327386  1
  Eu  Eu3  1  0.096667  0.487513  0.165619  1
  Eu  Eu4  1  0.416180  0.485695  0.682385  1
  Eu  Eu5  1  0.085841  0.750000  0.477080  1
  Eu  Eu6  1  0.917255  0.978906  0.827371  1
  Eu  Eu7  1  0.585836  0.250000  0.020491  1
  Eu  Eu8  1  0.586525  0.516333  0.327386  1
  Eu  Eu9  1  0.912813  0.250000  0.520619  1
  Eu  Eu10  1  0.096667  0.012487  0.165619  1
  Mn  Mn11  1  0.442605  0.750000  0.990442  1
  Be  Be12  1  0.194677  0.250000  0.900622  1
  Be  Be13  1  0.800260  0.750000  0.100550  1
  Be  Be14  1  0.305021  0.250000  0.398571  1
  Be  Be15  1  0.691704  0.750000  0.601665  1
  O  O16  1  0.138964  0.250000  0.727208  1
  O  O17  1  0.308500  0.450599  0.932439  1
  O  O18  1  0.832834  0.250000  0.281039  1
  O  O19  1  0.665185  0.250000  0.779783  1
  O  O20  1  0.683176  0.942815  0.069380  1
  O  O21  1  0.308500  0.049401  0.932439  1
  O  O22  1  0.368246  0.250000  0.224081  1
  O  O23  1  0.483055  0.750000  0.509349  1
  O  O24  1  0.863514  0.750000  0.272985  1
  O  O25  1  0.337151  0.750000  0.207639  1
  O  O26  1  0.006482  0.750000  0.005930  1
  O  O27  1  0.806093  0.555913  0.571914  1
  O  O28  1  0.512542  0.250000  0.491824  1
  O  O29  1  0.153852  0.750000  0.714757  1
  O  O30  1  0.683176  0.557185  0.069380  1
  O  O31  1  0.190139  0.445275  0.425530  1
  O  O32  1  0.806093  0.944087  0.571914  1
  O  O33  1  0.627511  0.750000  0.780177  1
  O  O34  1  0.982837  0.250000  0.991141  1
  O  O35  1  0.190139  0.054725  0.425530  1
