# generated using pymatgen
data_La5Pr3(Mg3Au10)2
_symmetry_space_group_name_H-M   'P 1'
_cell_length_a   8.78676201
_cell_length_b   8.78676159
_cell_length_c   10.42061102
_cell_angle_alpha   89.99590229
_cell_angle_beta   89.99590060
_cell_angle_gamma   108.45566587
_symmetry_Int_Tables_number   1
_chemical_formula_structural   La5Pr3(Mg3Au10)2
_chemical_formula_sum   'La5 Pr3 Mg6 Au20'
_cell_volume   763.16732346
_cell_formula_units_Z   1
loop_
 _symmetry_equiv_pos_site_id
 _symmetry_equiv_pos_as_xyz
  1  'x, y, z'
loop_
 _atom_site_type_symbol
 _atom_site_label
 _atom_site_symmetry_multiplicity
 _atom_site_fract_x
 _atom_site_fract_y
 _atom_site_fract_z
 _atom_site_occupancy
  La  La0  1  0.200633  0.799367  0.500000  1
  La  La1  1  0.302169  0.301914  0.202937  1
  La  La2  1  0.698086  0.697831  0.797063  1
  La  La3  1  0.198037  0.198435  0.703427  1
  La  La4  1  0.801565  0.801963  0.296573  1
  Pr  Pr5  1  0.700528  0.299472  0.000000  1
  Pr  Pr6  1  0.299507  0.700493  0.000000  1
  Pr  Pr7  1  0.799322  0.200678  0.500000  1
  Mg  Mg8  1  0.011985  0.511614  0.249530  1
  Mg  Mg9  1  0.987602  0.487548  0.750087  1
  Mg  Mg10  1  0.488386  0.988015  0.750470  1
  Mg  Mg11  1  0.512452  0.012398  0.249913  1
  Mg  Mg12  1  0.999807  0.000193  0.000000  1
  Mg  Mg13  1  0.499781  0.500219  0.500000  1
  Au  Au14  1  0.097043  0.097658  0.403980  1
  Au  Au15  1  0.902342  0.902957  0.596020  1
  Au  Au16  1  0.402489  0.402133  0.904695  1
  Au  Au17  1  0.597867  0.597511  0.095305  1
  Au  Au18  1  0.885886  0.167563  0.205277  1
  Au  Au19  1  0.113691  0.832600  0.795318  1
  Au  Au20  1  0.613783  0.332045  0.705757  1
  Au  Au21  1  0.667955  0.386217  0.294243  1
  Au  Au22  1  0.386469  0.667350  0.294022  1
  Au  Au23  1  0.332650  0.613531  0.705978  1
  Au  Au24  1  0.832437  0.114114  0.794723  1
  Au  Au25  1  0.167400  0.886309  0.204682  1
  Au  Au26  1  0.934940  0.657648  0.023373  1
  Au  Au27  1  0.065059  0.342337  0.976817  1
  Au  Au28  1  0.565599  0.842103  0.523160  1
  Au  Au29  1  0.157897  0.434401  0.476840  1
  Au  Au30  1  0.435268  0.158651  0.476877  1
  Au  Au31  1  0.841349  0.564732  0.523123  1
  Au  Au32  1  0.342352  0.065060  0.976627  1
  Au  Au33  1  0.657663  0.934941  0.023183  1
