# generated using pymatgen
data_TmTa3Nb2(B2Ru5)2
_symmetry_space_group_name_H-M   'P 1'
_cell_length_a   9.51570799
_cell_length_b   9.51570804
_cell_length_c   3.05296700
_cell_angle_alpha   90.00000000
_cell_angle_beta   90.00000000
_cell_angle_gamma   89.96197015
_symmetry_Int_Tables_number   1
_chemical_formula_structural   TmTa3Nb2(B2Ru5)2
_chemical_formula_sum   'Tm1 Ta3 Nb2 B4 Ru10'
_cell_volume   276.44212897
_cell_formula_units_Z   1
loop_
 _symmetry_equiv_pos_site_id
 _symmetry_equiv_pos_as_xyz
  1  'x, y, z'
loop_
 _atom_site_type_symbol
 _atom_site_label
 _atom_site_symmetry_multiplicity
 _atom_site_fract_x
 _atom_site_fract_y
 _atom_site_fract_z
 _atom_site_occupancy
  Tm  Tm0  1  0.824332  0.675668  0.000000  1
  Ta  Ta1  1  0.177975  0.322025  0.000000  1
  Ta  Ta2  1  0.501328  0.501002  0.000000  1
  Ta  Ta3  1  0.998998  0.998672  0.000000  1
  Nb  Nb4  1  0.323894  0.823304  0.000000  1
  Nb  Nb5  1  0.676696  0.176106  0.000000  1
  B  B6  1  0.619363  0.880637  0.000000  1
  B  B7  1  0.377793  0.122207  0.000000  1
  B  B8  1  0.122489  0.620361  0.000000  1
  B  B9  1  0.879639  0.377511  0.000000  1
  Ru  Ru10  1  0.560848  0.723219  0.500000  1
  Ru  Ru11  1  0.425891  0.283245  0.500000  1
  Ru  Ru12  1  0.079341  0.782355  0.500000  1
  Ru  Ru13  1  0.931509  0.216582  0.500000  1
  Ru  Ru14  1  0.283418  0.568491  0.500000  1
  Ru  Ru15  1  0.717645  0.420659  0.500000  1
  Ru  Ru16  1  0.216755  0.074109  0.500000  1
  Ru  Ru17  1  0.776781  0.939152  0.500000  1
  Ru  Ru18  1  0.496669  0.003331  0.500000  1
  Ru  Ru19  1  0.008639  0.491361  0.500000  1
