# generated using pymatgen
data_TmU3(Co5P3)4
_symmetry_space_group_name_H-M   'P 1'
_cell_length_a   3.68052000
_cell_length_b   10.36495683
_cell_length_c   11.68010100
_cell_angle_alpha   90.34545414
_cell_angle_beta   90.00000000
_cell_angle_gamma   90.00000000
_symmetry_Int_Tables_number   1
_chemical_formula_structural   TmU3(Co5P3)4
_chemical_formula_sum   'Tm1 U3 Co20 P12'
_cell_volume   445.56942706
_cell_formula_units_Z   1
loop_
 _symmetry_equiv_pos_site_id
 _symmetry_equiv_pos_as_xyz
  1  'x, y, z'
loop_
 _atom_site_type_symbol
 _atom_site_label
 _atom_site_symmetry_multiplicity
 _atom_site_fract_x
 _atom_site_fract_y
 _atom_site_fract_z
 _atom_site_occupancy
  Tm  Tm0  1  0.750000  0.083811  0.796415  1
  U  U1  1  0.250000  0.585035  0.703022  1
  U  U2  1  0.250000  0.915797  0.202426  1
  U  U3  1  0.750000  0.414501  0.297610  1
  Co  Co4  1  0.250000  0.717476  0.988696  1
  Co  Co5  1  0.250000  0.784004  0.490476  1
  Co  Co6  1  0.750000  0.284680  0.006742  1
  Co  Co7  1  0.750000  0.216177  0.507915  1
  Co  Co8  1  0.250000  0.408415  0.482683  1
  Co  Co9  1  0.250000  0.093482  0.985902  1
  Co  Co10  1  0.750000  0.590809  0.518941  1
  Co  Co11  1  0.750000  0.908760  0.017322  1
  Co  Co12  1  0.250000  0.218744  0.176920  1
  Co  Co13  1  0.250000  0.279988  0.676028  1
  Co  Co14  1  0.750000  0.783116  0.825369  1
  Co  Co15  1  0.750000  0.716710  0.324739  1
  Co  Co16  1  0.250000  0.884971  0.698972  1
  Co  Co17  1  0.250000  0.616394  0.199166  1
  Co  Co18  1  0.750000  0.115240  0.300373  1
  Co  Co19  1  0.750000  0.385261  0.801057  1
  Co  Co20  1  0.250000  0.468323  0.930117  1
  Co  Co21  1  0.250000  0.028440  0.429775  1
  Co  Co22  1  0.750000  0.529384  0.068950  1
  Co  Co23  1  0.750000  0.969917  0.567921  1
  P  P24  1  0.250000  0.416636  0.112584  1
  P  P25  1  0.250000  0.082560  0.612670  1
  P  P26  1  0.750000  0.585142  0.887686  1
  P  P27  1  0.750000  0.914668  0.387918  1
  P  P28  1  0.250000  0.270539  0.869263  1
  P  P29  1  0.250000  0.224283  0.369395  1
  P  P30  1  0.750000  0.725689  0.130612  1
  P  P31  1  0.750000  0.775707  0.632971  1
  P  P32  1  0.250000  0.604691  0.391684  1
  P  P33  1  0.250000  0.901474  0.890896  1
  P  P34  1  0.750000  0.393957  0.609568  1
  P  P35  1  0.750000  0.105221  0.107214  1
