# generated using pymatgen
data_HoTm2U5(ReB6)4
_symmetry_space_group_name_H-M   'P 1'
_cell_length_a   3.62797900
_cell_length_b   9.28292011
_cell_length_c   11.39163704
_cell_angle_alpha   89.94140783
_cell_angle_beta   90.00000000
_cell_angle_gamma   90.00000000
_symmetry_Int_Tables_number   1
_chemical_formula_structural   HoTm2U5(ReB6)4
_chemical_formula_sum   'Ho1 Tm2 U5 Re4 B24'
_cell_volume   383.65007681
_cell_formula_units_Z   1
loop_
 _symmetry_equiv_pos_site_id
 _symmetry_equiv_pos_as_xyz
  1  'x, y, z'
loop_
 _atom_site_type_symbol
 _atom_site_label
 _atom_site_symmetry_multiplicity
 _atom_site_fract_x
 _atom_site_fract_y
 _atom_site_fract_z
 _atom_site_occupancy
  Ho  Ho0  1  0.000000  0.835502  0.093083  1
  Tm  Tm1  1  0.000000  0.336969  0.407732  1
  Tm  Tm2  1  0.000000  0.663342  0.591736  1
  U  U3  1  0.000000  0.163358  0.907131  1
  U  U4  1  0.000000  0.956200  0.396972  1
  U  U5  1  0.000000  0.042827  0.603336  1
  U  U6  1  0.000000  0.457675  0.104140  1
  U  U7  1  0.000000  0.543895  0.896936  1
  Re  Re8  1  0.000000  0.645024  0.319479  1
  Re  Re9  1  0.000000  0.353091  0.683053  1
  Re  Re10  1  0.000000  0.145993  0.178236  1
  Re  Re11  1  0.000000  0.856919  0.819408  1
  B  B12  1  0.500000  0.550850  0.431869  1
  B  B13  1  0.500000  0.448559  0.569039  1
  B  B14  1  0.500000  0.052073  0.067503  1
  B  B15  1  0.500000  0.950158  0.930583  1
  B  B16  1  0.500000  0.742545  0.423707  1
  B  B17  1  0.500000  0.257570  0.576175  1
  B  B18  1  0.500000  0.242769  0.075838  1
  B  B19  1  0.500000  0.756599  0.922921  1
  B  B20  1  0.500000  0.802240  0.275152  1
  B  B21  1  0.500000  0.196646  0.726218  1
  B  B22  1  0.500000  0.302510  0.225288  1
  B  B23  1  0.500000  0.697674  0.774492  1
  B  B24  1  0.500000  0.643937  0.188887  1
  B  B25  1  0.500000  0.355064  0.811951  1
  B  B26  1  0.500000  0.144563  0.311114  1
  B  B27  1  0.500000  0.854777  0.688161  1
  B  B28  1  0.500000  0.988829  0.219405  1
  B  B29  1  0.500000  0.013113  0.781007  1
  B  B30  1  0.500000  0.487905  0.281281  1
  B  B31  1  0.500000  0.512090  0.719112  1
  B  B32  1  0.500000  0.641178  0.039033  1
  B  B33  1  0.500000  0.357387  0.960416  1
  B  B34  1  0.500000  0.141291  0.460451  1
  B  B35  1  0.500000  0.858879  0.539158  1
