# generated using pymatgen
data_Ho3Tm2SnSb2
_symmetry_space_group_name_H-M   'P 1'
_cell_length_a   8.89105910
_cell_length_b   8.87815789
_cell_length_c   6.35431100
_cell_angle_alpha   90.00000000
_cell_angle_beta   90.00000000
_cell_angle_gamma   119.95201669
_symmetry_Int_Tables_number   1
_chemical_formula_structural   Ho3Tm2SnSb2
_chemical_formula_sum   'Ho6 Tm4 Sn2 Sb4'
_cell_volume   434.59551822
_cell_formula_units_Z   2
loop_
 _symmetry_equiv_pos_site_id
 _symmetry_equiv_pos_as_xyz
  1  'x, y, z'
loop_
 _atom_site_type_symbol
 _atom_site_label
 _atom_site_symmetry_multiplicity
 _atom_site_fract_x
 _atom_site_fract_y
 _atom_site_fract_z
 _atom_site_occupancy
  Ho  Ho0  1  0.755543  0.999284  0.750000  1
  Ho  Ho1  1  0.755543  0.756260  0.250000  1
  Ho  Ho2  1  0.000912  0.243830  0.250000  1
  Ho  Ho3  1  0.000912  0.757082  0.750000  1
  Ho  Ho4  1  0.243816  0.242291  0.750000  1
  Ho  Ho5  1  0.243816  0.001526  0.250000  1
  Tm  Tm6  1  0.333800  0.666901  0.000000  1
  Tm  Tm7  1  0.665061  0.332531  0.500000  1
  Tm  Tm8  1  0.665061  0.332531  0.000000  1
  Tm  Tm9  1  0.333800  0.666901  0.500000  1
  Sn  Sn10  1  0.392367  0.999033  0.750000  1
  Sn  Sn11  1  0.392367  0.393333  0.250000  1
  Sb  Sb12  1  0.999374  0.608661  0.250000  1
  Sb  Sb13  1  0.999374  0.390714  0.750000  1
  Sb  Sb14  1  0.609125  0.608790  0.750000  1
  Sb  Sb15  1  0.609125  0.000335  0.250000  1
