# generated using pymatgen
data_Sr2Cd(SiPd2)6
_symmetry_space_group_name_H-M   'P 1'
_cell_length_a   10.29926800
_cell_length_b   10.29926737
_cell_length_c   3.85334400
_cell_angle_alpha   90.00000000
_cell_angle_beta   90.00000000
_cell_angle_gamma   120.00000203
_symmetry_Int_Tables_number   1
_chemical_formula_structural   Sr2Cd(SiPd2)6
_chemical_formula_sum   'Sr2 Cd1 Si6 Pd12'
_cell_volume   353.98193273
_cell_formula_units_Z   1
loop_
 _symmetry_equiv_pos_site_id
 _symmetry_equiv_pos_as_xyz
  1  'x, y, z'
loop_
 _atom_site_type_symbol
 _atom_site_label
 _atom_site_symmetry_multiplicity
 _atom_site_fract_x
 _atom_site_fract_y
 _atom_site_fract_z
 _atom_site_occupancy
  Sr  Sr0  1  0.666667  0.333333  0.245556  1
  Sr  Sr1  1  0.000000  0.000000  0.754315  1
  Cd  Cd2  1  0.333333  0.666667  0.450881  1
  Si  Si3  1  0.733720  0.775958  0.255191  1
  Si  Si4  1  0.042238  0.266280  0.255191  1
  Si  Si5  1  0.224042  0.957762  0.255191  1
  Si  Si6  1  0.933422  0.559635  0.744467  1
  Si  Si7  1  0.626215  0.066578  0.744467  1
  Si  Si8  1  0.440365  0.373785  0.744467  1
  Pd  Pd9  1  0.775489  0.048504  0.252177  1
  Pd  Pd10  1  0.273016  0.224511  0.252177  1
  Pd  Pd11  1  0.951496  0.726984  0.252177  1
  Pd  Pd12  1  0.890711  0.281634  0.747157  1
  Pd  Pd13  1  0.390922  0.109289  0.747157  1
  Pd  Pd14  1  0.718366  0.609078  0.747157  1
  Pd  Pd15  1  0.492403  0.539010  0.239966  1
  Pd  Pd16  1  0.046605  0.507597  0.239966  1
  Pd  Pd17  1  0.460990  0.953395  0.239966  1
  Pd  Pd18  1  0.180115  0.790390  0.761297  1
  Pd  Pd19  1  0.610275  0.819885  0.761297  1
  Pd  Pd20  1  0.209610  0.389725  0.761297  1
