# generated using pymatgen
data_Ba2PaSe5
_symmetry_space_group_name_H-M   'P 1'
_cell_length_a   8.24683900
_cell_length_b   9.05568600
_cell_length_c   13.17235900
_cell_angle_alpha   90.00000000
_cell_angle_beta   90.00000000
_cell_angle_gamma   90.00000000
_symmetry_Int_Tables_number   1
_chemical_formula_structural   Ba2PaSe5
_chemical_formula_sum   'Ba8 Pa4 Se20'
_cell_volume   983.72210353
_cell_formula_units_Z   4
loop_
 _symmetry_equiv_pos_site_id
 _symmetry_equiv_pos_as_xyz
  1  'x, y, z'
loop_
 _atom_site_type_symbol
 _atom_site_label
 _atom_site_symmetry_multiplicity
 _atom_site_fract_x
 _atom_site_fract_y
 _atom_site_fract_z
 _atom_site_occupancy
  Ba  Ba0  1  0.416406  0.501272  0.674244  1
  Ba  Ba1  1  0.916406  0.498728  0.825756  1
  Ba  Ba2  1  0.583594  0.001272  0.325756  1
  Ba  Ba3  1  0.083594  0.998728  0.174244  1
  Ba  Ba4  1  0.916406  0.001272  0.825756  1
  Ba  Ba5  1  0.416406  0.998728  0.674244  1
  Ba  Ba6  1  0.083594  0.501272  0.174244  1
  Ba  Ba7  1  0.583594  0.498728  0.325756  1
  Pa  Pa8  1  0.954338  0.750000  0.508310  1
  Pa  Pa9  1  0.454338  0.250000  0.991690  1
  Pa  Pa10  1  0.045662  0.250000  0.491690  1
  Pa  Pa11  1  0.545662  0.750000  0.008310  1
  Se  Se12  1  0.307672  0.966436  0.941003  1
  Se  Se13  1  0.807672  0.033564  0.558997  1
  Se  Se14  1  0.692328  0.466436  0.058997  1
  Se  Se15  1  0.192328  0.533564  0.441003  1
  Se  Se16  1  0.692328  0.033564  0.058997  1
  Se  Se17  1  0.192328  0.966436  0.441003  1
  Se  Se18  1  0.307672  0.533564  0.941003  1
  Se  Se19  1  0.807672  0.466436  0.558997  1
  Se  Se20  1  0.383151  0.750000  0.193281  1
  Se  Se21  1  0.883151  0.250000  0.306719  1
  Se  Se22  1  0.616849  0.250000  0.806719  1
  Se  Se23  1  0.116849  0.750000  0.693281  1
  Se  Se24  1  0.107280  0.250000  0.980855  1
  Se  Se25  1  0.607280  0.750000  0.519145  1
  Se  Se26  1  0.892720  0.750000  0.019145  1
  Se  Se27  1  0.392720  0.250000  0.480855  1
  Se  Se28  1  0.621418  0.750000  0.804215  1
  Se  Se29  1  0.121418  0.250000  0.695785  1
  Se  Se30  1  0.378582  0.250000  0.195785  1
  Se  Se31  1  0.878582  0.750000  0.304215  1
