# generated using pymatgen
data_AgHg3(BrO3)8
_symmetry_space_group_name_H-M   'P 1'
_cell_length_a   6.00886741
_cell_length_b   8.60055063
_cell_length_c   14.85641987
_cell_angle_alpha   66.27719888
_cell_angle_beta   89.25907703
_cell_angle_gamma   89.20220617
_symmetry_Int_Tables_number   1
_chemical_formula_structural   AgHg3(BrO3)8
_chemical_formula_sum   'Ag1 Hg3 Br8 O24'
_cell_volume   702.80781794
_cell_formula_units_Z   1
loop_
 _symmetry_equiv_pos_site_id
 _symmetry_equiv_pos_as_xyz
  1  'x, y, z'
loop_
 _atom_site_type_symbol
 _atom_site_label
 _atom_site_symmetry_multiplicity
 _atom_site_fract_x
 _atom_site_fract_y
 _atom_site_fract_z
 _atom_site_occupancy
  Ag  Ag0  1  0.255023  0.489631  0.506978  1
  Hg  Hg1  1  0.899295  0.080163  0.951478  1
  Hg  Hg2  1  0.096125  0.102612  0.459506  1
  Hg  Hg3  1  0.739421  0.500587  0.008690  1
  Br  Br4  1  0.454202  0.273871  0.850932  1
  Br  Br5  1  0.991706  0.727634  0.619744  1
  Br  Br6  1  0.016505  0.735698  0.135443  1
  Br  Br7  1  0.547491  0.292539  0.360184  1
  Br  Br8  1  0.098916  0.218704  0.175252  1
  Br  Br9  1  0.573009  0.771683  0.328933  1
  Br  Br10  1  0.428284  0.771180  0.829006  1
  Br  Br11  1  0.887123  0.212235  0.674982  1
  O  O12  1  0.705339  0.315321  0.898876  1
  O  O13  1  0.202542  0.592325  0.621133  1
  O  O14  1  0.811875  0.600654  0.145790  1
  O  O15  1  0.298344  0.351526  0.407132  1
  O  O16  1  0.543576  0.101767  0.834663  1
  O  O17  1  0.111686  0.874265  0.649473  1
  O  O18  1  0.904877  0.897848  0.155420  1
  O  O19  1  0.433878  0.119383  0.353699  1
  O  O20  1  0.944645  0.194789  0.274773  1
  O  O21  1  0.387130  0.812736  0.240632  1
  O  O22  1  0.625507  0.801354  0.745254  1
  O  O23  1  0.051951  0.175453  0.771868  1
  O  O24  1  0.251281  0.391632  0.145028  1
  O  O25  1  0.703945  0.588033  0.348095  1
  O  O26  1  0.304304  0.587409  0.852311  1
  O  O27  1  0.753913  0.395515  0.648352  1
  O  O28  1  0.284658  0.207201  0.948243  1
  O  O29  1  0.935176  0.849454  0.497054  1
  O  O30  1  0.067080  0.837643  0.007337  1
  O  O31  1  0.713787  0.219864  0.457527  1
  O  O32  1  0.899221  0.265074  0.079926  1
  O  O33  1  0.417575  0.724755  0.436551  1
  O  O34  1  0.577475  0.731430  0.940469  1
  O  O35  1  0.083135  0.253073  0.578983  1
