# generated using pymatgen
data_CeHo3(InNi2)2
_symmetry_space_group_name_H-M   'P 1'
_cell_length_a   7.38921812
_cell_length_b   7.38921812
_cell_length_c   3.64640600
_cell_angle_alpha   90.00000000
_cell_angle_beta   90.00000000
_cell_angle_gamma   91.53982981
_symmetry_Int_Tables_number   1
_chemical_formula_structural   CeHo3(InNi2)2
_chemical_formula_sum   'Ce1 Ho3 In2 Ni4'
_cell_volume   199.02385643
_cell_formula_units_Z   1
loop_
 _symmetry_equiv_pos_site_id
 _symmetry_equiv_pos_as_xyz
  1  'x, y, z'
loop_
 _atom_site_type_symbol
 _atom_site_label
 _atom_site_symmetry_multiplicity
 _atom_site_fract_x
 _atom_site_fract_y
 _atom_site_fract_z
 _atom_site_occupancy
  Ce  Ce0  1  0.673759  0.173759  0.500000  1
  Ho  Ho1  1  0.324113  0.824113  0.500000  1
  Ho  Ho2  1  0.174774  0.328929  0.500000  1
  Ho  Ho3  1  0.828929  0.674774  0.500000  1
  In  In4  1  0.498038  0.504356  0.000000  1
  In  In5  1  0.004356  0.998038  0.000000  1
  Ni  Ni6  1  0.116580  0.616580  0.000000  1
  Ni  Ni7  1  0.872183  0.372183  0.000000  1
  Ni  Ni8  1  0.622154  0.885114  0.000000  1
  Ni  Ni9  1  0.385114  0.122154  0.000000  1
