# generated using pymatgen
data_Rb(OsO4)2
_symmetry_space_group_name_H-M   'P 1'
_cell_length_a   8.13173072
_cell_length_b   8.12541992
_cell_length_c   8.84919079
_cell_angle_alpha   100.48549181
_cell_angle_beta   103.75163996
_cell_angle_gamma   123.11217737
_symmetry_Int_Tables_number   1
_chemical_formula_structural   Rb(OsO4)2
_chemical_formula_sum   'Rb2 Os4 O16'
_cell_volume   439.37567715
_cell_formula_units_Z   2
loop_
 _symmetry_equiv_pos_site_id
 _symmetry_equiv_pos_as_xyz
  1  'x, y, z'
loop_
 _atom_site_type_symbol
 _atom_site_label
 _atom_site_symmetry_multiplicity
 _atom_site_fract_x
 _atom_site_fract_y
 _atom_site_fract_z
 _atom_site_occupancy
  Rb  Rb0  1  0.857885  0.608099  0.749793  1
  Rb  Rb1  1  0.142115  0.391901  0.250207  1
  Os  Os2  1  0.166919  0.287088  0.724550  1
  Os  Os3  1  0.562674  0.942379  0.775222  1
  Os  Os4  1  0.833081  0.712912  0.275450  1
  Os  Os5  1  0.437326  0.057621  0.224778  1
  O  O6  1  0.388920  0.389692  0.673224  1
  O  O7  1  0.717685  0.216488  0.827116  1
  O  O8  1  0.611080  0.610308  0.326776  1
  O  O9  1  0.282315  0.783512  0.172884  1
  O  O10  1  0.998370  0.328424  0.605320  1
  O  O11  1  0.724016  0.893755  0.894271  1
  O  O12  1  0.001630  0.671576  0.394680  1
  O  O13  1  0.275984  0.106245  0.105729  1
  O  O14  1  0.244717  0.418204  0.936712  1
  O  O15  1  0.480029  0.806741  0.563026  1
  O  O16  1  0.755283  0.581796  0.063288  1
  O  O17  1  0.519971  0.193259  0.436974  1
  O  O18  1  0.033256  0.016808  0.683647  1
  O  O19  1  0.333638  0.849959  0.815845  1
  O  O20  1  0.966744  0.983192  0.316353  1
  O  O21  1  0.666362  0.150041  0.184155  1
