# generated using pymatgen
data_Ac3GeI3
_symmetry_space_group_name_H-M   'P 1'
_cell_length_a   11.46045866
_cell_length_b   11.46046007
_cell_length_c   11.46046000
_cell_angle_alpha   109.47121875
_cell_angle_beta   109.47122124
_cell_angle_gamma   109.47121753
_symmetry_Int_Tables_number   1
_chemical_formula_structural   Ac3GeI3
_chemical_formula_sum   'Ac12 Ge4 I12'
_cell_volume   1158.73528849
_cell_formula_units_Z   4
loop_
 _symmetry_equiv_pos_site_id
 _symmetry_equiv_pos_as_xyz
  1  'x, y, z'
loop_
 _atom_site_type_symbol
 _atom_site_label
 _atom_site_symmetry_multiplicity
 _atom_site_fract_x
 _atom_site_fract_y
 _atom_site_fract_z
 _atom_site_occupancy
  Ac  Ac0  1  0.469141  0.484571  0.234571  1
  Ac  Ac1  1  0.750000  0.234571  0.265429  1
  Ac  Ac2  1  0.750000  0.015429  0.484571  1
  Ac  Ac3  1  0.234571  0.469141  0.484571  1
  Ac  Ac4  1  0.265429  0.750000  0.234571  1
  Ac  Ac5  1  0.030859  0.265429  0.015429  1
  Ac  Ac6  1  0.015429  0.030859  0.265429  1
  Ac  Ac7  1  0.484571  0.750000  0.015429  1
  Ac  Ac8  1  0.484571  0.234571  0.469141  1
  Ac  Ac9  1  0.015429  0.484571  0.750000  1
  Ac  Ac10  1  0.265429  0.015429  0.030859  1
  Ac  Ac11  1  0.234571  0.265429  0.750000  1
  Ge  Ge12  1  0.250000  0.250000  0.250000  1
  Ge  Ge13  1  0.500000  0.000000  0.250000  1
  Ge  Ge14  1  0.000000  0.250000  0.500000  1
  Ge  Ge15  1  0.250000  0.500000  0.000000  1
  I  I16  1  0.250000  0.757296  0.742704  1
  I  I17  1  0.514593  0.507296  0.757296  1
  I  I18  1  0.985407  0.742704  0.992704  1
  I  I19  1  0.742704  0.250000  0.757296  1
  I  I20  1  0.992704  0.985407  0.742704  1
  I  I21  1  0.250000  0.992704  0.507296  1
  I  I22  1  0.757296  0.514593  0.507296  1
  I  I23  1  0.507296  0.250000  0.992704  1
  I  I24  1  0.757296  0.742704  0.250000  1
  I  I25  1  0.742704  0.992704  0.985407  1
  I  I26  1  0.992704  0.507296  0.250000  1
  I  I27  1  0.507296  0.757296  0.514593  1
