# generated using pymatgen
data_Nd6Co15Ni(P6Ru)2
_symmetry_space_group_name_H-M   'P 1'
_cell_length_a   3.78035500
_cell_length_b   10.60479500
_cell_length_c   12.42056400
_cell_angle_alpha   90.00000000
_cell_angle_beta   90.00000000
_cell_angle_gamma   90.00000000
_symmetry_Int_Tables_number   1
_chemical_formula_structural   Nd6Co15Ni(P6Ru)2
_chemical_formula_sum   'Nd6 Co15 Ni1 P12 Ru2'
_cell_volume   497.93904204
_cell_formula_units_Z   1
loop_
 _symmetry_equiv_pos_site_id
 _symmetry_equiv_pos_as_xyz
  1  'x, y, z'
loop_
 _atom_site_type_symbol
 _atom_site_label
 _atom_site_symmetry_multiplicity
 _atom_site_fract_x
 _atom_site_fract_y
 _atom_site_fract_z
 _atom_site_occupancy
  Nd  Nd0  1  0.000000  0.500000  0.521873  1
  Nd  Nd1  1  0.500000  0.000000  0.476508  1
  Nd  Nd2  1  0.500000  0.816802  0.207034  1
  Nd  Nd3  1  0.500000  0.183198  0.207034  1
  Nd  Nd4  1  0.000000  0.685147  0.794085  1
  Nd  Nd5  1  0.000000  0.314853  0.794085  1
  Co  Co6  1  0.000000  0.000000  0.294296  1
  Co  Co7  1  0.000000  0.500000  0.987267  1
  Co  Co8  1  0.500000  0.000000  0.013157  1
  Co  Co9  1  0.500000  0.331861  0.992286  1
  Co  Co10  1  0.500000  0.668139  0.992286  1
  Co  Co11  1  0.000000  0.167602  0.007881  1
  Co  Co12  1  0.000000  0.832398  0.007881  1
  Co  Co13  1  0.500000  0.299257  0.428648  1
  Co  Co14  1  0.500000  0.700743  0.428648  1
  Co  Co15  1  0.000000  0.200614  0.570987  1
  Co  Co16  1  0.000000  0.799386  0.570987  1
  Co  Co17  1  0.500000  0.881890  0.710623  1
  Co  Co18  1  0.500000  0.118110  0.710623  1
  Co  Co19  1  0.000000  0.618042  0.289391  1
  Co  Co20  1  0.000000  0.381958  0.289391  1
  Ni  Ni21  1  0.500000  0.500000  0.705009  1
  P  P22  1  0.500000  0.500000  0.887591  1
  P  P23  1  0.000000  0.000000  0.114175  1
  P  P24  1  0.500000  0.500000  0.344655  1
  P  P25  1  0.000000  0.000000  0.654881  1
  P  P26  1  0.500000  0.304767  0.612934  1
  P  P27  1  0.500000  0.695233  0.612934  1
  P  P28  1  0.000000  0.193816  0.385923  1
  P  P29  1  0.000000  0.806184  0.385923  1
  P  P30  1  0.500000  0.848450  0.896259  1
  P  P31  1  0.500000  0.151550  0.896259  1
  P  P32  1  0.000000  0.652415  0.104270  1
  P  P33  1  0.000000  0.347585  0.104270  1
  Ru  Ru34  1  0.500000  0.500000  0.157184  1
  Ru  Ru35  1  0.000000  0.000000  0.842761  1
