# generated using pymatgen
data_Mg3Ta7B20
_symmetry_space_group_name_H-M   'P 1'
_cell_length_a   6.14071116
_cell_length_b   7.01154453
_cell_length_c   7.45407162
_cell_angle_alpha   94.71468911
_cell_angle_beta   101.89771835
_cell_angle_gamma   115.88693236
_symmetry_Int_Tables_number   1
_chemical_formula_structural   Mg3Ta7B20
_chemical_formula_sum   'Mg3 Ta7 B20'
_cell_volume   277.07622989
_cell_formula_units_Z   1
loop_
 _symmetry_equiv_pos_site_id
 _symmetry_equiv_pos_as_xyz
  1  'x, y, z'
loop_
 _atom_site_type_symbol
 _atom_site_label
 _atom_site_symmetry_multiplicity
 _atom_site_fract_x
 _atom_site_fract_y
 _atom_site_fract_z
 _atom_site_occupancy
  Mg  Mg0  1  0.999218  0.996829  0.997807  1
  Mg  Mg1  1  0.497114  0.997375  0.998031  1
  Mg  Mg2  1  0.004283  0.606601  0.804713  1
  Ta  Ta3  1  0.498244  0.796058  0.400566  1
  Ta  Ta4  1  0.999083  0.395646  0.203253  1
  Ta  Ta5  1  0.502920  0.204329  0.598290  1
  Ta  Ta6  1  0.999737  0.799363  0.400401  1
  Ta  Ta7  1  0.501539  0.601699  0.800198  1
  Ta  Ta8  1  0.497025  0.395897  0.199375  1
  Ta  Ta9  1  0.000733  0.205616  0.596967  1
  B  B10  1  0.332720  0.232170  0.867717  1
  B  B11  1  0.331010  0.632195  0.066556  1
  B  B12  1  0.166297  0.366324  0.933769  1
  B  B13  1  0.332296  0.031005  0.264785  1
  B  B14  1  0.166254  0.764838  0.134566  1
  B  B15  1  0.832737  0.233766  0.864671  1
  B  B16  1  0.165819  0.164696  0.331180  1
  B  B17  1  0.834509  0.632797  0.066220  1
  B  B18  1  0.333878  0.434043  0.465889  1
  B  B19  1  0.667072  0.365899  0.934212  1
  B  B20  1  0.831213  0.030207  0.264534  1
  B  B21  1  0.666801  0.766582  0.132510  1
  B  B22  1  0.333595  0.835836  0.667093  1
  B  B23  1  0.167322  0.568069  0.537570  1
  B  B24  1  0.665092  0.164484  0.332730  1
  B  B25  1  0.834327  0.434881  0.468927  1
  B  B26  1  0.166799  0.969042  0.730680  1
  B  B27  1  0.835149  0.835353  0.667568  1
  B  B28  1  0.669231  0.568516  0.536307  1
  B  B29  1  0.667982  0.969880  0.732915  1
