# generated using pymatgen
data_BaSiRh3Pb
_symmetry_space_group_name_H-M   'P 1'
_cell_length_a   6.04428700
_cell_length_b   7.20251202
_cell_length_c   7.20251038
_cell_angle_alpha   63.75014018
_cell_angle_beta   65.24069796
_cell_angle_gamma   65.24069191
_symmetry_Int_Tables_number   1
_chemical_formula_structural   BaSiRh3Pb
_chemical_formula_sum   'Ba2 Si2 Rh6 Pb2'
_cell_volume   244.64026058
_cell_formula_units_Z   2
loop_
 _symmetry_equiv_pos_site_id
 _symmetry_equiv_pos_as_xyz
  1  'x, y, z'
loop_
 _atom_site_type_symbol
 _atom_site_label
 _atom_site_symmetry_multiplicity
 _atom_site_fract_x
 _atom_site_fract_y
 _atom_site_fract_z
 _atom_site_occupancy
  Ba  Ba0  1  0.491010  0.760445  0.760445  1
  Ba  Ba1  1  0.508990  0.239555  0.239555  1
  Si  Si2  1  0.148696  0.100872  0.100872  1
  Si  Si3  1  0.851304  0.899128  0.899128  1
  Rh  Rh4  1  0.500000  0.198832  0.801168  1
  Rh  Rh5  1  0.000000  0.800600  0.199400  1
  Rh  Rh6  1  0.500000  0.801168  0.198832  1
  Rh  Rh7  1  0.000000  0.199400  0.800600  1
  Rh  Rh8  1  0.000000  0.500000  0.000000  1
  Rh  Rh9  1  0.000000  0.000000  0.500000  1
  Pb  Pb10  1  0.184561  0.566162  0.566162  1
  Pb  Pb11  1  0.815439  0.433838  0.433838  1
