# generated using pymatgen
data_Er3Cu4Si3Ge
_symmetry_space_group_name_H-M   'P 1'
_cell_length_a   7.82107814
_cell_length_b   7.82107826
_cell_length_c   7.82107797
_cell_angle_alpha   149.46011657
_cell_angle_beta   130.60261068
_cell_angle_gamma   59.19722430
_symmetry_Int_Tables_number   1
_chemical_formula_structural   Er3Cu4Si3Ge
_chemical_formula_sum   'Er3 Cu4 Si3 Ge1'
_cell_volume   183.10949928
_cell_formula_units_Z   1
loop_
 _symmetry_equiv_pos_site_id
 _symmetry_equiv_pos_as_xyz
  1  'x, y, z'
loop_
 _atom_site_type_symbol
 _atom_site_label
 _atom_site_symmetry_multiplicity
 _atom_site_fract_x
 _atom_site_fract_y
 _atom_site_fract_z
 _atom_site_occupancy
  Er  Er0  1  0.870209  0.371357  0.498853  1
  Er  Er1  1  0.127496  0.628643  0.498853  1
  Er  Er2  1  0.502363  0.500000  0.002363  1
  Cu  Cu3  1  0.133349  0.824440  0.308908  1
  Cu  Cu4  1  0.522075  0.830023  0.692052  1
  Cu  Cu5  1  0.862028  0.169977  0.692052  1
  Cu  Cu6  1  0.484468  0.175560  0.308908  1
  Si  Si7  1  0.810614  0.000000  0.810614  1
  Si  Si8  1  0.282930  0.283991  0.998939  1
  Si  Si9  1  0.714948  0.716009  0.998939  1
  Ge  Ge10  1  0.189520  0.000000  0.189520  1
