# generated using pymatgen
data_Tb6Tm4Sn5Sb
_symmetry_space_group_name_H-M   'P 1'
_cell_length_a   8.96656700
_cell_length_b   8.95731070
_cell_length_c   6.47875000
_cell_angle_alpha   90.00000000
_cell_angle_beta   90.00000000
_cell_angle_gamma   120.03418611
_symmetry_Int_Tables_number   1
_chemical_formula_structural   Tb6Tm4Sn5Sb
_chemical_formula_sum   'Tb6 Tm4 Sn5 Sb1'
_cell_volume   450.48048361
_cell_formula_units_Z   1
loop_
 _symmetry_equiv_pos_site_id
 _symmetry_equiv_pos_as_xyz
  1  'x, y, z'
loop_
 _atom_site_type_symbol
 _atom_site_label
 _atom_site_symmetry_multiplicity
 _atom_site_fract_x
 _atom_site_fract_y
 _atom_site_fract_z
 _atom_site_occupancy
  Tb  Tb0  1  0.999108  0.759411  0.750000  1
  Tb  Tb1  1  0.002277  0.241288  0.250000  1
  Tb  Tb2  1  0.760989  0.758712  0.250000  1
  Tb  Tb3  1  0.759271  0.000000  0.750000  1
  Tb  Tb4  1  0.239697  0.240589  0.750000  1
  Tb  Tb5  1  0.239894  0.000000  0.250000  1
  Tm  Tm6  1  0.332458  0.665794  0.500101  1
  Tm  Tm7  1  0.666665  0.334206  0.999899  1
  Tm  Tm8  1  0.666665  0.334206  0.500101  1
  Tm  Tm9  1  0.332458  0.665794  0.999899  1
  Sn  Sn10  1  0.395609  0.000000  0.750000  1
  Sn  Sn11  1  0.397384  0.397048  0.250000  1
  Sn  Sn12  1  0.000336  0.602952  0.250000  1
  Sn  Sn13  1  0.998882  0.395973  0.750000  1
  Sn  Sn14  1  0.602909  0.604027  0.750000  1
  Sb  Sb15  1  0.605398  0.000000  0.250000  1
