# generated using pymatgen
data_ErTm11Ir3Os
_symmetry_space_group_name_H-M   'P 1'
_cell_length_a   7.20965034
_cell_length_b   8.93142900
_cell_length_c   6.37468796
_cell_angle_alpha   90.00000000
_cell_angle_beta   90.00871286
_cell_angle_gamma   90.00000000
_symmetry_Int_Tables_number   1
_chemical_formula_structural   ErTm11Ir3Os
_chemical_formula_sum   'Er1 Tm11 Ir3 Os1'
_cell_volume   410.48196270
_cell_formula_units_Z   1
loop_
 _symmetry_equiv_pos_site_id
 _symmetry_equiv_pos_as_xyz
  1  'x, y, z'
loop_
 _atom_site_type_symbol
 _atom_site_label
 _atom_site_symmetry_multiplicity
 _atom_site_fract_x
 _atom_site_fract_y
 _atom_site_fract_z
 _atom_site_occupancy
  Er  Er0  1  0.964986  0.750000  0.377697  1
  Tm  Tm1  1  0.034598  0.250000  0.620679  1
  Tm  Tm2  1  0.464879  0.750000  0.124631  1
  Tm  Tm3  1  0.534665  0.250000  0.877986  1
  Tm  Tm4  1  0.176060  0.062130  0.172803  1
  Tm  Tm5  1  0.823011  0.941543  0.829796  1
  Tm  Tm6  1  0.322552  0.939640  0.673643  1
  Tm  Tm7  1  0.823011  0.558457  0.829796  1
  Tm  Tm8  1  0.678821  0.062308  0.324058  1
  Tm  Tm9  1  0.176060  0.437870  0.172803  1
  Tm  Tm10  1  0.678821  0.437692  0.324058  1
  Tm  Tm11  1  0.322552  0.560360  0.673643  1
  Ir  Ir12  1  0.387119  0.250000  0.465453  1
  Ir  Ir13  1  0.612375  0.750000  0.537099  1
  Ir  Ir14  1  0.114178  0.750000  0.964236  1
  Os  Os15  1  0.886310  0.250000  0.031622  1
