# generated using pymatgen
data_MnCrAg6F14
_symmetry_space_group_name_H-M   'P 1'
_cell_length_a   7.72078279
_cell_length_b   7.74367384
_cell_length_c   7.68727648
_cell_angle_alpha   117.19928115
_cell_angle_beta   121.23225651
_cell_angle_gamma   91.54185705
_symmetry_Int_Tables_number   1
_chemical_formula_structural   MnCrAg6F14
_chemical_formula_sum   'Mn1 Cr1 Ag6 F14'
_cell_volume   327.81578974
_cell_formula_units_Z   1
loop_
 _symmetry_equiv_pos_site_id
 _symmetry_equiv_pos_as_xyz
  1  'x, y, z'
loop_
 _atom_site_type_symbol
 _atom_site_label
 _atom_site_symmetry_multiplicity
 _atom_site_fract_x
 _atom_site_fract_y
 _atom_site_fract_z
 _atom_site_occupancy
  Mn  Mn0  1  0.500000  0.500000  0.500000  1
  Cr  Cr1  1  0.500000  0.000000  0.000000  1
  Ag  Ag2  1  0.000000  0.500000  0.500000  1
  Ag  Ag3  1  0.500000  0.000000  0.500000  1
  Ag  Ag4  1  0.500000  0.500000  0.000000  1
  Ag  Ag5  1  0.000000  0.000000  0.000000  1
  Ag  Ag6  1  0.000000  0.500000  0.000000  1
  Ag  Ag7  1  0.000000  0.000000  0.500000  1
  F  F8  1  0.857449  0.603509  0.249061  1
  F  F9  1  0.145112  0.892356  0.249856  1
  F  F10  1  0.189278  0.868970  0.810041  1
  F  F11  1  0.442583  0.623866  0.321633  1
  F  F12  1  0.441766  0.121496  0.810686  1
  F  F13  1  0.197851  0.379322  0.321765  1
  F  F14  1  0.802149  0.620678  0.678235  1
  F  F15  1  0.558234  0.878504  0.189314  1
  F  F16  1  0.557417  0.376134  0.678367  1
  F  F17  1  0.810722  0.131030  0.189959  1
  F  F18  1  0.491311  0.239769  0.231117  1
  F  F19  1  0.142551  0.396491  0.750939  1
  F  F20  1  0.854888  0.107644  0.750144  1
  F  F21  1  0.508689  0.760231  0.768883  1
