# generated using pymatgen
data_NdBi3(As4O9)2
_symmetry_space_group_name_H-M   'P 1'
_cell_length_a   7.01513512
_cell_length_b   7.67035809
_cell_length_c   10.05967700
_cell_angle_alpha   94.99101893
_cell_angle_beta   104.56228825
_cell_angle_gamma   104.19490896
_symmetry_Int_Tables_number   1
_chemical_formula_structural   NdBi3(As4O9)2
_chemical_formula_sum   'Nd1 Bi3 As8 O18'
_cell_volume   501.49686527
_cell_formula_units_Z   1
loop_
 _symmetry_equiv_pos_site_id
 _symmetry_equiv_pos_as_xyz
  1  'x, y, z'
loop_
 _atom_site_type_symbol
 _atom_site_label
 _atom_site_symmetry_multiplicity
 _atom_site_fract_x
 _atom_site_fract_y
 _atom_site_fract_z
 _atom_site_occupancy
  Nd  Nd0  1  0.279840  0.458332  0.592568  1
  Bi  Bi1  1  0.241445  0.921391  0.622205  1
  Bi  Bi2  1  0.762671  0.080893  0.375163  1
  Bi  Bi3  1  0.709007  0.545218  0.407603  1
  As  As4  1  0.671572  0.770618  0.064570  1
  As  As5  1  0.327099  0.228952  0.935862  1
  As  As6  1  0.179021  0.758157  0.913928  1
  As  As7  1  0.820976  0.240653  0.083597  1
  As  As8  1  0.746270  0.911454  0.706070  1
  As  As9  1  0.253135  0.088242  0.293540  1
  As  As10  1  0.807452  0.344331  0.699616  1
  As  As11  1  0.189518  0.656151  0.299803  1
  O  O12  1  0.725054  0.742440  0.239699  1
  O  O13  1  0.281943  0.266176  0.763871  1
  O  O14  1  0.317700  0.983594  0.882226  1
  O  O15  1  0.679038  0.015537  0.113835  1
  O  O16  1  0.608541  0.321929  0.992237  1
  O  O17  1  0.390034  0.680554  0.012662  1
  O  O18  1  0.142842  0.665000  0.738517  1
  O  O19  1  0.867292  0.330998  0.261198  1
  O  O20  1  0.833494  0.856881  0.557647  1
  O  O21  1  0.166800  0.143254  0.441868  1
  O  O22  1  0.492058  0.769959  0.666122  1
  O  O23  1  0.509096  0.228352  0.331810  1
  O  O24  1  0.370048  0.541621  0.375019  1
  O  O25  1  0.627136  0.455711  0.621471  1
  O  O26  1  0.093838  0.664984  0.453062  1
  O  O27  1  0.910493  0.329104  0.550873  1
  O  O28  1  0.357768  0.897900  0.355703  1
  O  O29  1  0.638819  0.101615  0.647658  1
