# generated using pymatgen
data_TbSb5(ClO4)2
_symmetry_space_group_name_H-M   'P 1'
_cell_length_a   5.66965000
_cell_length_b   5.66842440
_cell_length_c   9.01722879
_cell_angle_alpha   87.23712074
_cell_angle_beta   90.00000000
_cell_angle_gamma   90.00000000
_symmetry_Int_Tables_number   1
_chemical_formula_structural   TbSb5(ClO4)2
_chemical_formula_sum   'Tb1 Sb5 Cl2 O8'
_cell_volume   289.45867508
_cell_formula_units_Z   1
loop_
 _symmetry_equiv_pos_site_id
 _symmetry_equiv_pos_as_xyz
  1  'x, y, z'
loop_
 _atom_site_type_symbol
 _atom_site_label
 _atom_site_symmetry_multiplicity
 _atom_site_fract_x
 _atom_site_fract_y
 _atom_site_fract_z
 _atom_site_occupancy
  Tb  Tb0  1  0.771376  0.750000  0.500000  1
  Sb  Sb1  1  0.691417  0.299844  0.789559  1
  Sb  Sb2  1  0.165235  0.250000  0.500000  1
  Sb  Sb3  1  0.691417  0.200156  0.210441  1
  Sb  Sb4  1  0.308451  0.693037  0.212087  1
  Sb  Sb5  1  0.308451  0.806963  0.787913  1
  Cl  Cl6  1  0.755140  0.750000  0.000000  1
  Cl  Cl7  1  0.257613  0.250000  0.000000  1
  O  O8  1  0.074144  0.913589  0.632662  1
  O  O9  1  0.074144  0.586411  0.367338  1
  O  O10  1  0.913881  0.094130  0.374814  1
  O  O11  1  0.913881  0.405870  0.625186  1
  O  O12  1  0.486756  0.552877  0.675806  1
  O  O13  1  0.550669  0.473366  0.319110  1
  O  O14  1  0.486756  0.947123  0.324194  1
  O  O15  1  0.550669  0.026634  0.680890  1
