# generated using pymatgen
data_Tb2Er2GaCo4
_symmetry_space_group_name_H-M   'P 1'
_cell_length_a   5.45392225
_cell_length_b   5.45392106
_cell_length_c   8.88816914
_cell_angle_alpha   70.98408989
_cell_angle_beta   70.98409229
_cell_angle_gamma   43.30665148
_symmetry_Int_Tables_number   1
_chemical_formula_structural   Tb2Er2GaCo4
_chemical_formula_sum   'Tb2 Er2 Ga1 Co4'
_cell_volume   169.83123713
_cell_formula_units_Z   1
loop_
 _symmetry_equiv_pos_site_id
 _symmetry_equiv_pos_as_xyz
  1  'x, y, z'
loop_
 _atom_site_type_symbol
 _atom_site_label
 _atom_site_symmetry_multiplicity
 _atom_site_fract_x
 _atom_site_fract_y
 _atom_site_fract_z
 _atom_site_occupancy
  Tb  Tb0  1  0.745765  0.745765  0.663483  1
  Tb  Tb1  1  0.254235  0.254235  0.336517  1
  Er  Er2  1  0.391908  0.391908  0.886043  1
  Er  Er3  1  0.608092  0.608092  0.113957  1
  Ga  Ga4  1  0.500000  0.500000  0.500000  1
  Co  Co5  1  0.035501  0.035501  0.646530  1
  Co  Co6  1  0.964499  0.964499  0.353470  1
  Co  Co7  1  0.092427  0.092427  0.881264  1
  Co  Co8  1  0.907573  0.907573  0.118736  1
