# generated using pymatgen
data_Tb8Al2OsRh
_symmetry_space_group_name_H-M   'P 1'
_cell_length_a   9.58809692
_cell_length_b   9.65516735
_cell_length_c   9.58811875
_cell_angle_alpha   59.76840956
_cell_angle_beta   59.47248061
_cell_angle_gamma   59.76832684
_symmetry_Int_Tables_number   1
_chemical_formula_structural   Tb8Al2OsRh
_chemical_formula_sum   'Tb16 Al4 Os2 Rh2'
_cell_volume   622.91952152
_cell_formula_units_Z   2
loop_
 _symmetry_equiv_pos_site_id
 _symmetry_equiv_pos_as_xyz
  1  'x, y, z'
loop_
 _atom_site_type_symbol
 _atom_site_label
 _atom_site_symmetry_multiplicity
 _atom_site_fract_x
 _atom_site_fract_y
 _atom_site_fract_z
 _atom_site_occupancy
  Tb  Tb0  1  0.808256  0.802973  0.193485  1
  Tb  Tb1  1  0.806208  0.193795  0.806202  1
  Tb  Tb2  1  0.193486  0.195285  0.808254  1
  Tb  Tb3  1  0.648337  0.054445  0.648339  1
  Tb  Tb4  1  0.061881  0.059409  0.442962  1
  Tb  Tb5  1  0.442962  0.435747  0.061881  1
  Tb  Tb6  1  0.648337  0.648880  0.648339  1
  Tb  Tb7  1  0.808256  0.195286  0.193485  1
  Tb  Tb8  1  0.193486  0.802975  0.808254  1
  Tb  Tb9  1  0.051403  0.649777  0.649042  1
  Tb  Tb10  1  0.442962  0.059410  0.061881  1
  Tb  Tb11  1  0.436325  0.063679  0.436317  1
  Tb  Tb12  1  0.058140  0.441863  0.058134  1
  Tb  Tb13  1  0.649039  0.649778  0.051404  1
  Tb  Tb14  1  0.195882  0.804117  0.195884  1
  Tb  Tb15  1  0.061881  0.435749  0.442962  1
  Al  Al16  1  0.423937  0.422961  0.423933  1
  Al  Al17  1  0.423254  0.422970  0.730805  1
  Al  Al18  1  0.423937  0.729169  0.423933  1
  Al  Al19  1  0.730806  0.422969  0.423254  1
  Os  Os20  1  0.856858  0.422271  0.856864  1
  Os  Os21  1  0.856858  0.864008  0.856864  1
  Rh  Rh22  1  0.856187  0.861243  0.421330  1
  Rh  Rh23  1  0.421325  0.861242  0.856194  1
