# generated using pymatgen
data_DyHo2(CdGa)3
_symmetry_space_group_name_H-M   'P 1'
_cell_length_a   7.26206768
_cell_length_b   7.25661171
_cell_length_c   4.40479300
_cell_angle_alpha   90.00000000
_cell_angle_beta   90.00000000
_cell_angle_gamma   119.97515656
_symmetry_Int_Tables_number   1
_chemical_formula_structural   DyHo2(CdGa)3
_chemical_formula_sum   'Dy1 Ho2 Cd3 Ga3'
_cell_volume   201.07541762
_cell_formula_units_Z   1
loop_
 _symmetry_equiv_pos_site_id
 _symmetry_equiv_pos_as_xyz
  1  'x, y, z'
loop_
 _atom_site_type_symbol
 _atom_site_label
 _atom_site_symmetry_multiplicity
 _atom_site_fract_x
 _atom_site_fract_y
 _atom_site_fract_z
 _atom_site_occupancy
  Dy  Dy0  1  0.000000  0.576277  0.500000  1
  Ho  Ho1  1  0.423704  0.423587  0.500000  1
  Ho  Ho2  1  0.576296  0.999882  0.500000  1
  Cd  Cd3  1  0.750964  0.751079  0.000000  1
  Cd  Cd4  1  0.249036  0.000114  0.000000  1
  Cd  Cd5  1  0.000000  0.248749  0.000000  1
  Ga  Ga6  1  0.666270  0.333141  0.000000  1
  Ga  Ga7  1  0.333730  0.666871  0.000000  1
  Ga  Ga8  1  0.000000  0.000300  0.500000  1
