# generated using pymatgen
data_Cs8La3PrI20
_symmetry_space_group_name_H-M   'P 1'
_cell_length_a   9.75419984
_cell_length_b   10.35408900
_cell_length_c   15.60128626
_cell_angle_alpha   90.00000000
_cell_angle_beta   89.92215745
_cell_angle_gamma   90.00000000
_symmetry_Int_Tables_number   1
_chemical_formula_structural   Cs8La3PrI20
_chemical_formula_sum   'Cs8 La3 Pr1 I20'
_cell_volume   1575.66376427
_cell_formula_units_Z   1
loop_
 _symmetry_equiv_pos_site_id
 _symmetry_equiv_pos_as_xyz
  1  'x, y, z'
loop_
 _atom_site_type_symbol
 _atom_site_label
 _atom_site_symmetry_multiplicity
 _atom_site_fract_x
 _atom_site_fract_y
 _atom_site_fract_z
 _atom_site_occupancy
  Cs  Cs0  1  0.435135  0.506259  0.672241  1
  Cs  Cs1  1  0.934716  0.493249  0.827994  1
  Cs  Cs2  1  0.564910  0.006613  0.327839  1
  Cs  Cs3  1  0.065251  0.993781  0.171997  1
  Cs  Cs4  1  0.564910  0.493387  0.327839  1
  Cs  Cs5  1  0.065251  0.506219  0.171997  1
  Cs  Cs6  1  0.435135  0.993741  0.672241  1
  Cs  Cs7  1  0.934716  0.006751  0.827994  1
  La  La8  1  0.926037  0.750000  0.504170  1
  La  La9  1  0.573886  0.750000  0.004205  1
  La  La10  1  0.073958  0.250000  0.495838  1
  Pr  Pr11  1  0.425112  0.250000  0.995977  1
  I  I12  1  0.590863  0.750000  0.510105  1
  I  I13  1  0.337495  0.957623  0.932114  1
  I  I14  1  0.836711  0.044514  0.568306  1
  I  I15  1  0.662381  0.454359  0.067675  1
  I  I16  1  0.093250  0.250000  0.989633  1
  I  I17  1  0.649526  0.750000  0.803479  1
  I  I18  1  0.908627  0.750000  0.010288  1
  I  I19  1  0.409172  0.250000  0.489878  1
  I  I20  1  0.110180  0.750000  0.675184  1
  I  I21  1  0.149718  0.250000  0.696413  1
  I  I22  1  0.351166  0.250000  0.195488  1
  I  I23  1  0.850163  0.750000  0.303469  1
  I  I24  1  0.662381  0.045641  0.067675  1
  I  I25  1  0.609055  0.250000  0.826257  1
  I  I26  1  0.889993  0.250000  0.324834  1
  I  I27  1  0.389510  0.750000  0.175188  1
  I  I28  1  0.836711  0.455486  0.568306  1
  I  I29  1  0.337495  0.542377  0.932114  1
  I  I30  1  0.163293  0.955503  0.431632  1
  I  I31  1  0.163293  0.544497  0.431632  1
