# generated using pymatgen
data_SrDy2(NiRh2)3
_symmetry_space_group_name_H-M   'P 1'
_cell_length_a   5.30536063
_cell_length_b   5.30536054
_cell_length_c   8.76693500
_cell_angle_alpha   72.38749454
_cell_angle_beta   72.38749486
_cell_angle_gamma   59.99999915
_symmetry_Int_Tables_number   1
_chemical_formula_structural   SrDy2(NiRh2)3
_chemical_formula_sum   'Sr1 Dy2 Ni3 Rh6'
_cell_volume   200.23402402
_cell_formula_units_Z   1
loop_
 _symmetry_equiv_pos_site_id
 _symmetry_equiv_pos_as_xyz
  1  'x, y, z'
loop_
 _atom_site_type_symbol
 _atom_site_label
 _atom_site_symmetry_multiplicity
 _atom_site_fract_x
 _atom_site_fract_y
 _atom_site_fract_z
 _atom_site_occupancy
  Sr  Sr0  1  0.000000  0.000000  0.000000  1
  Dy  Dy1  1  0.140174  0.140174  0.579479  1
  Dy  Dy2  1  0.859826  0.859826  0.420521  1
  Ni  Ni3  1  0.332663  0.332663  0.002010  1
  Ni  Ni4  1  0.667337  0.667337  0.997990  1
  Ni  Ni5  1  0.500000  0.500000  0.500000  1
  Rh  Rh6  1  0.082089  0.584000  0.749912  1
  Rh  Rh7  1  0.584000  0.584000  0.749912  1
  Rh  Rh8  1  0.584000  0.082089  0.749912  1
  Rh  Rh9  1  0.917911  0.416000  0.250088  1
  Rh  Rh10  1  0.416000  0.416000  0.250088  1
  Rh  Rh11  1  0.416000  0.917911  0.250088  1
