# generated using pymatgen
data_NdEr7(CdPt)2
_symmetry_space_group_name_H-M   'P 1'
_cell_length_a   9.66964818
_cell_length_b   9.66964938
_cell_length_c   9.64267600
_cell_angle_alpha   60.09222589
_cell_angle_beta   60.09222182
_cell_angle_gamma   59.81553733
_symmetry_Int_Tables_number   1
_chemical_formula_structural   NdEr7(CdPt)2
_chemical_formula_sum   'Nd2 Er14 Cd4 Pt4'
_cell_volume   637.52495323
_cell_formula_units_Z   2
loop_
 _symmetry_equiv_pos_site_id
 _symmetry_equiv_pos_as_xyz
  1  'x, y, z'
loop_
 _atom_site_type_symbol
 _atom_site_label
 _atom_site_symmetry_multiplicity
 _atom_site_fract_x
 _atom_site_fract_y
 _atom_site_fract_z
 _atom_site_occupancy
  Nd  Nd0  1  0.568577  0.568577  0.931423  1
  Nd  Nd1  1  0.931423  0.931423  0.568577  1
  Er  Er2  1  0.351916  0.351916  0.351043  1
  Er  Er3  1  0.351916  0.351916  0.945124  1
  Er  Er4  1  0.351043  0.945124  0.351916  1
  Er  Er5  1  0.945124  0.351043  0.351916  1
  Er  Er6  1  0.810842  0.189158  0.189158  1
  Er  Er7  1  0.189158  0.810842  0.810842  1
  Er  Er8  1  0.189158  0.810842  0.189158  1
  Er  Er9  1  0.810842  0.189158  0.810842  1
  Er  Er10  1  0.189207  0.189207  0.810793  1
  Er  Er11  1  0.810793  0.810793  0.189207  1
  Er  Er12  1  0.938683  0.561317  0.561317  1
  Er  Er13  1  0.561317  0.938683  0.938683  1
  Er  Er14  1  0.561317  0.938683  0.561317  1
  Er  Er15  1  0.938683  0.561317  0.938683  1
  Cd  Cd16  1  0.582797  0.582797  0.577787  1
  Cd  Cd17  1  0.582797  0.582797  0.256616  1
  Cd  Cd18  1  0.577787  0.256616  0.582797  1
  Cd  Cd19  1  0.256616  0.577787  0.582797  1
  Pt  Pt20  1  0.144401  0.144401  0.140244  1
  Pt  Pt21  1  0.144401  0.144401  0.570953  1
  Pt  Pt22  1  0.140244  0.570953  0.144401  1
  Pt  Pt23  1  0.570953  0.140244  0.144401  1
