# generated using pymatgen
data_SmTh7PdSe17
_symmetry_space_group_name_H-M   'P 1'
_cell_length_a   8.44850821
_cell_length_b   8.44216405
_cell_length_c   11.18961800
_cell_angle_alpha   80.54749073
_cell_angle_beta   80.50957859
_cell_angle_gamma   64.81519113
_symmetry_Int_Tables_number   1
_chemical_formula_structural   SmTh7PdSe17
_chemical_formula_sum   'Sm1 Th7 Pd1 Se17'
_cell_volume   708.36698805
_cell_formula_units_Z   1
loop_
 _symmetry_equiv_pos_site_id
 _symmetry_equiv_pos_as_xyz
  1  'x, y, z'
loop_
 _atom_site_type_symbol
 _atom_site_label
 _atom_site_symmetry_multiplicity
 _atom_site_fract_x
 _atom_site_fract_y
 _atom_site_fract_z
 _atom_site_occupancy
  Sm  Sm0  1  0.816826  0.308408  0.298286  1
  Th  Th1  1  0.304353  0.818143  0.294744  1
  Th  Th2  1  0.181707  0.695219  0.702887  1
  Th  Th3  1  0.695176  0.183299  0.702055  1
  Th  Th4  1  0.204738  0.203787  0.543770  1
  Th  Th5  1  0.795475  0.796096  0.452590  1
  Th  Th6  1  0.679553  0.674718  0.980368  1
  Th  Th7  1  0.320732  0.322049  0.023009  1
  Pd  Pd8  1  0.000402  0.999934  0.001011  1
  Se  Se9  1  0.823435  0.431311  0.535916  1
  Se  Se10  1  0.432431  0.819783  0.534040  1
  Se  Se11  1  0.178688  0.567401  0.465306  1
  Se  Se12  1  0.569136  0.176860  0.467752  1
  Se  Se13  1  0.955525  0.323636  0.024849  1
  Se  Se14  1  0.327888  0.955360  0.023719  1
  Se  Se15  1  0.045061  0.674671  0.974068  1
  Se  Se16  1  0.672731  0.045375  0.973826  1
  Se  Se17  1  0.215648  0.209234  0.280183  1
  Se  Se18  1  0.787546  0.787652  0.720280  1
  Se  Se19  1  0.052191  0.051563  0.775797  1
  Se  Se20  1  0.946877  0.951751  0.225969  1
  Se  Se21  1  0.300761  0.301205  0.755939  1
  Se  Se22  1  0.696246  0.702559  0.242702  1
  Se  Se23  1  0.517303  0.518853  0.831574  1
  Se  Se24  1  0.477700  0.485483  0.165754  1
  Se  Se25  1  0.001871  0.995647  0.503602  1
