# generated using pymatgen
data_HoSc4(Hg2Pt)2
_symmetry_space_group_name_H-M   'P 1'
_cell_length_a   3.40683900
_cell_length_b   7.80383197
_cell_length_c   17.67690450
_cell_angle_alpha   89.53945008
_cell_angle_beta   90.00000000
_cell_angle_gamma   90.00000000
_symmetry_Int_Tables_number   1
_chemical_formula_structural   HoSc4(Hg2Pt)2
_chemical_formula_sum   'Ho2 Sc8 Hg8 Pt4'
_cell_volume   469.95005559
_cell_formula_units_Z   2
loop_
 _symmetry_equiv_pos_site_id
 _symmetry_equiv_pos_as_xyz
  1  'x, y, z'
loop_
 _atom_site_type_symbol
 _atom_site_label
 _atom_site_symmetry_multiplicity
 _atom_site_fract_x
 _atom_site_fract_y
 _atom_site_fract_z
 _atom_site_occupancy
  Ho  Ho0  1  0.000000  0.258773  0.716249  1
  Ho  Ho1  1  0.000000  0.741227  0.283751  1
  Sc  Sc2  1  0.000000  0.116344  0.417224  1
  Sc  Sc3  1  0.000000  0.883656  0.582776  1
  Sc  Sc4  1  0.000000  0.385290  0.917769  1
  Sc  Sc5  1  0.000000  0.614710  0.082231  1
  Sc  Sc6  1  0.000000  0.242028  0.216679  1
  Sc  Sc7  1  0.000000  0.757972  0.783321  1
  Sc  Sc8  1  0.000000  0.000000  0.000000  1
  Sc  Sc9  1  0.000000  0.500000  0.500000  1
  Hg  Hg10  1  0.500000  0.418012  0.356606  1
  Hg  Hg11  1  0.500000  0.581988  0.643394  1
  Hg  Hg12  1  0.500000  0.075481  0.856798  1
  Hg  Hg13  1  0.500000  0.924519  0.143202  1
  Hg  Hg14  1  0.500000  0.287082  0.060517  1
  Hg  Hg15  1  0.500000  0.712918  0.939483  1
  Hg  Hg16  1  0.500000  0.209036  0.558765  1
  Hg  Hg17  1  0.500000  0.790964  0.441235  1
  Pt  Pt18  1  0.500000  0.038992  0.304520  1
  Pt  Pt19  1  0.500000  0.961008  0.695480  1
  Pt  Pt20  1  0.500000  0.477474  0.806876  1
  Pt  Pt21  1  0.500000  0.522526  0.193124  1
