# generated using pymatgen
data_Dy3TmNi4(SnH)4
_symmetry_space_group_name_H-M   'P 1'
_cell_length_a   4.23619200
_cell_length_b   7.08449304
_cell_length_c   8.25951403
_cell_angle_alpha   89.98893501
_cell_angle_beta   90.00000000
_cell_angle_gamma   90.00000000
_symmetry_Int_Tables_number   1
_chemical_formula_structural   Dy3TmNi4(SnH)4
_chemical_formula_sum   'Dy3 Tm1 Ni4 Sn4 H4'
_cell_volume   247.87852365
_cell_formula_units_Z   1
loop_
 _symmetry_equiv_pos_site_id
 _symmetry_equiv_pos_as_xyz
  1  'x, y, z'
loop_
 _atom_site_type_symbol
 _atom_site_label
 _atom_site_symmetry_multiplicity
 _atom_site_fract_x
 _atom_site_fract_y
 _atom_site_fract_z
 _atom_site_occupancy
  Dy  Dy0  1  0.750000  0.516603  0.813929  1
  Dy  Dy1  1  0.250000  0.483382  0.185363  1
  Dy  Dy2  1  0.250000  0.983263  0.314292  1
  Tm  Tm3  1  0.750000  0.016591  0.684512  1
  Ni  Ni4  1  0.750000  0.271357  0.392901  1
  Ni  Ni5  1  0.250000  0.730761  0.609242  1
  Ni  Ni6  1  0.250000  0.225806  0.889639  1
  Ni  Ni7  1  0.750000  0.772036  0.109081  1
  Sn  Sn8  1  0.750000  0.156721  0.069030  1
  Sn  Sn9  1  0.250000  0.843416  0.928800  1
  Sn  Sn10  1  0.250000  0.342637  0.570271  1
  Sn  Sn11  1  0.750000  0.657187  0.430532  1
  H  H12  1  0.250000  0.953123  0.580040  1
  H  H13  1  0.750000  0.048939  0.422944  1
  H  H14  1  0.750000  0.549042  0.078865  1
  H  H15  1  0.250000  0.449135  0.920559  1
