# generated using pymatgen
data_ThPa2(Al3Os)4
_symmetry_space_group_name_H-M   'P 1'
_cell_length_a   8.88077800
_cell_length_b   8.88077894
_cell_length_c   9.44335600
_cell_angle_alpha   90.00000000
_cell_angle_beta   90.00000000
_cell_angle_gamma   119.84792218
_symmetry_Int_Tables_number   1
_chemical_formula_structural   ThPa2(Al3Os)4
_chemical_formula_sum   'Th2 Pa4 Al24 Os8'
_cell_volume   645.98518567
_cell_formula_units_Z   2
loop_
 _symmetry_equiv_pos_site_id
 _symmetry_equiv_pos_as_xyz
  1  'x, y, z'
loop_
 _atom_site_type_symbol
 _atom_site_label
 _atom_site_symmetry_multiplicity
 _atom_site_fract_x
 _atom_site_fract_y
 _atom_site_fract_z
 _atom_site_occupancy
  Th  Th0  1  0.194488  0.805512  0.250000  1
  Th  Th1  1  0.805512  0.194488  0.750000  1
  Pa  Pa2  1  0.197577  0.393854  0.250000  1
  Pa  Pa3  1  0.802423  0.606146  0.750000  1
  Pa  Pa4  1  0.606146  0.802423  0.250000  1
  Pa  Pa5  1  0.393854  0.197577  0.750000  1
  Al  Al6  1  0.333429  0.666571  0.016920  1
  Al  Al7  1  0.666571  0.333429  0.983080  1
  Al  Al8  1  0.666571  0.333429  0.516920  1
  Al  Al9  1  0.333429  0.666571  0.483080  1
  Al  Al10  1  0.163748  0.325059  0.577421  1
  Al  Al11  1  0.836252  0.674941  0.422579  1
  Al  Al12  1  0.674941  0.836252  0.577421  1
  Al  Al13  1  0.836252  0.674941  0.077421  1
  Al  Al14  1  0.325059  0.163748  0.422579  1
  Al  Al15  1  0.163748  0.325059  0.922579  1
  Al  Al16  1  0.161745  0.838255  0.581089  1
  Al  Al17  1  0.325059  0.163748  0.077421  1
  Al  Al18  1  0.838255  0.161745  0.418911  1
  Al  Al19  1  0.674941  0.836252  0.922579  1
  Al  Al20  1  0.838255  0.161745  0.081089  1
  Al  Al21  1  0.161745  0.838255  0.918911  1
  Al  Al22  1  0.563823  0.126265  0.250000  1
  Al  Al23  1  0.436177  0.873735  0.750000  1
  Al  Al24  1  0.873735  0.436177  0.250000  1
  Al  Al25  1  0.126265  0.563823  0.750000  1
  Al  Al26  1  0.562875  0.437125  0.250000  1
  Al  Al27  1  0.437125  0.562875  0.750000  1
  Al  Al28  1  0.996855  0.003145  0.250000  1
  Al  Al29  1  0.003145  0.996855  0.750000  1
  Os  Os30  1  0.500000  0.000000  0.000000  1
  Os  Os31  1  0.000000  0.500000  0.000000  1
  Os  Os32  1  0.500000  0.000000  0.500000  1
  Os  Os33  1  0.500000  0.500000  0.000000  1
  Os  Os34  1  0.000000  0.500000  0.500000  1
  Os  Os35  1  0.500000  0.500000  0.500000  1
  Os  Os36  1  0.000000  0.000000  0.000000  1
  Os  Os37  1  0.000000  0.000000  0.500000  1
