# generated using pymatgen
data_Ho10Ir2PdPt3
_symmetry_space_group_name_H-M   'P 1'
_cell_length_a   11.05299556
_cell_length_b   11.05151400
_cell_length_c   6.30572832
_cell_angle_alpha   90.00000000
_cell_angle_beta   90.03653351
_cell_angle_gamma   90.00000000
_symmetry_Int_Tables_number   1
_chemical_formula_structural   Ho10Ir2PdPt3
_chemical_formula_sum   'Ho20 Ir4 Pd2 Pt6'
_cell_volume   770.25928285
_cell_formula_units_Z   2
loop_
 _symmetry_equiv_pos_site_id
 _symmetry_equiv_pos_as_xyz
  1  'x, y, z'
loop_
 _atom_site_type_symbol
 _atom_site_label
 _atom_site_symmetry_multiplicity
 _atom_site_fract_x
 _atom_site_fract_y
 _atom_site_fract_z
 _atom_site_occupancy
  Ho  Ho0  1  0.295161  0.087653  0.372749  1
  Ho  Ho1  1  0.295161  0.912347  0.872749  1
  Ho  Ho2  1  0.702443  0.089178  0.870284  1
  Ho  Ho3  1  0.702443  0.910822  0.370284  1
  Ho  Ho4  1  0.584813  0.794285  0.873977  1
  Ho  Ho5  1  0.584813  0.205715  0.373977  1
  Ho  Ho6  1  0.412124  0.795172  0.373427  1
  Ho  Ho7  1  0.412124  0.204828  0.873427  1
  Ho  Ho8  1  0.204990  0.412477  0.626421  1
  Ho  Ho9  1  0.204990  0.587523  0.126421  1
  Ho  Ho10  1  0.794459  0.414940  0.126063  1
  Ho  Ho11  1  0.794459  0.585060  0.626063  1
  Ho  Ho12  1  0.913106  0.703433  0.130355  1
  Ho  Ho13  1  0.913106  0.296567  0.630355  1
  Ho  Ho14  1  0.089816  0.703825  0.626580  1
  Ho  Ho15  1  0.089816  0.296175  0.126580  1
  Ho  Ho16  1  0.002011  0.000022  0.499946  1
  Ho  Ho17  1  0.002011  0.999978  0.999946  1
  Ho  Ho18  1  0.499963  0.500076  0.000040  1
  Ho  Ho19  1  0.499963  0.499924  0.500040  1
  Ir  Ir20  1  0.500967  0.999989  0.120093  1
  Ir  Ir21  1  0.500967  0.000011  0.620093  1
  Ir  Ir22  1  0.999688  0.500337  0.879942  1
  Ir  Ir23  1  0.999688  0.499663  0.379942  1
  Pd  Pd24  1  0.846148  0.153888  0.249862  1
  Pd  Pd25  1  0.846148  0.846112  0.749862  1
  Pt  Pt26  1  0.153794  0.153894  0.750261  1
  Pt  Pt27  1  0.153794  0.846106  0.250261  1
  Pt  Pt28  1  0.654161  0.346022  0.749843  1
  Pt  Pt29  1  0.654161  0.653978  0.249843  1
  Pt  Pt30  1  0.346355  0.346198  0.250157  1
  Pt  Pt31  1  0.346355  0.653802  0.750157  1
