# generated using pymatgen
data_Ta18Al8CuGe
_symmetry_space_group_name_H-M   'P 1'
_cell_length_a   9.93595709
_cell_length_b   9.93593734
_cell_length_c   9.93595043
_cell_angle_alpha   93.82805864
_cell_angle_beta   93.82760938
_cell_angle_gamma   150.05151036
_symmetry_Int_Tables_number   1
_chemical_formula_structural   Ta18Al8CuGe
_chemical_formula_sum   'Ta18 Al8 Cu1 Ge1'
_cell_volume   473.06296656
_cell_formula_units_Z   1
loop_
 _symmetry_equiv_pos_site_id
 _symmetry_equiv_pos_as_xyz
  1  'x, y, z'
loop_
 _atom_site_type_symbol
 _atom_site_label
 _atom_site_symmetry_multiplicity
 _atom_site_fract_x
 _atom_site_fract_y
 _atom_site_fract_z
 _atom_site_occupancy
  Ta  Ta0  1  0.566539  0.792553  0.355462  1
  Ta  Ta1  1  0.078857  0.152120  0.237796  1
  Ta  Ta2  1  0.585662  0.347879  0.926721  1
  Ta  Ta3  1  0.658919  0.585678  0.237792  1
  Ta  Ta4  1  0.347908  0.421172  0.762233  1
  Ta  Ta5  1  0.792537  0.437090  0.225998  1
  Ta  Ta6  1  0.421138  0.658917  0.073228  1
  Ta  Ta7  1  0.152094  0.914310  0.073226  1
  Ta  Ta8  1  0.707482  0.933483  0.644593  1
  Ta  Ta9  1  0.437105  0.211107  0.644589  1
  Ta  Ta10  1  0.914321  0.841080  0.762233  1
  Ta  Ta11  1  0.062904  0.707460  0.773984  1
  Ta  Ta12  1  0.211094  0.566514  0.773986  1
  Ta  Ta13  1  0.250012  0.750006  0.500021  1
  Ta  Ta14  1  0.288923  0.062913  0.355462  1
  Ta  Ta15  1  0.750015  0.250006  0.500019  1
  Ta  Ta16  1  0.841056  0.078834  0.926716  1
  Ta  Ta17  1  0.933468  0.288895  0.225997  1
  Al  Al18  1  0.372313  0.872314  0.244630  1
  Al  Al19  1  0.872305  0.627677  0.499984  1
  Al  Al20  1  0.499602  0.000404  0.000005  1
  Al  Al21  1  0.127676  0.372311  0.499984  1
  Al  Al22  1  0.627684  0.127684  0.755366  1
  Al  Al23  1  0.000401  0.499602  0.000005  1
  Al  Al24  1  0.499586  0.499587  0.499174  1
  Al  Al25  1  0.000386  0.000387  0.500768  1
  Cu  Cu26  1  0.750019  0.750018  0.000035  1
  Ge  Ge27  1  0.249992  0.250001  0.999995  1
