# generated using pymatgen
data_Pm2Pt3Rh
_symmetry_space_group_name_H-M   'P 1'
_cell_length_a   5.47953939
_cell_length_b   5.48044894
_cell_length_c   5.48851376
_cell_angle_alpha   60.04985749
_cell_angle_beta   60.04866998
_cell_angle_gamma   60.00447758
_symmetry_Int_Tables_number   1
_chemical_formula_structural   Pm2Pt3Rh
_chemical_formula_sum   'Pm2 Pt3 Rh1'
_cell_volume   116.63735118
_cell_formula_units_Z   1
loop_
 _symmetry_equiv_pos_site_id
 _symmetry_equiv_pos_as_xyz
  1  'x, y, z'
loop_
 _atom_site_type_symbol
 _atom_site_label
 _atom_site_symmetry_multiplicity
 _atom_site_fract_x
 _atom_site_fract_y
 _atom_site_fract_z
 _atom_site_occupancy
  Pm  Pm0  1  0.749948  0.749922  0.750157  1
  Pm  Pm1  1  0.000052  0.000078  0.999843  1
  Pt  Pt2  1  0.875000  0.375000  0.375000  1
  Pt  Pt3  1  0.375000  0.875000  0.375000  1
  Pt  Pt4  1  0.375000  0.375000  0.375000  1
  Rh  Rh5  1  0.375000  0.375000  0.875000  1
