# generated using pymatgen
data_Er2Sc5Sn23Ru6
_symmetry_space_group_name_H-M   'P 1'
_cell_length_a   9.74609530
_cell_length_b   9.80880635
_cell_length_c   9.88530077
_cell_angle_alpha   89.99999948
_cell_angle_beta   89.88465913
_cell_angle_gamma   120.21308579
_symmetry_Int_Tables_number   1
_chemical_formula_structural   Er2Sc5Sn23Ru6
_chemical_formula_sum   'Er2 Sc5 Sn23 Ru6'
_cell_volume   816.63808566
_cell_formula_units_Z   1
loop_
 _symmetry_equiv_pos_site_id
 _symmetry_equiv_pos_as_xyz
  1  'x, y, z'
loop_
 _atom_site_type_symbol
 _atom_site_label
 _atom_site_symmetry_multiplicity
 _atom_site_fract_x
 _atom_site_fract_y
 _atom_site_fract_z
 _atom_site_occupancy
  Er  Er0  1  0.974484  0.487241  0.693813  1
  Er  Er1  1  0.001351  0.000675  0.001422  1
  Sc  Sc2  1  0.490262  0.508115  0.302630  1
  Sc  Sc3  1  0.510322  0.491684  0.696766  1
  Sc  Sc4  1  0.490262  0.982147  0.302630  1
  Sc  Sc5  1  0.510322  0.018637  0.696766  1
  Sc  Sc6  1  0.019456  0.509728  0.306024  1
  Sn  Sn7  1  0.121487  0.877661  0.278260  1
  Sn  Sn8  1  0.879322  0.119170  0.721645  1
  Sn  Sn9  1  0.121487  0.243826  0.278260  1
  Sn  Sn10  1  0.879322  0.760151  0.721645  1
  Sn  Sn11  1  0.753693  0.876847  0.276061  1
  Sn  Sn12  1  0.247381  0.123690  0.724418  1
  Sn  Sn13  1  0.774828  0.221572  0.466092  1
  Sn  Sn14  1  0.227482  0.779178  0.530174  1
  Sn  Sn15  1  0.774828  0.553256  0.466092  1
  Sn  Sn16  1  0.227482  0.448304  0.530174  1
  Sn  Sn17  1  0.448391  0.224196  0.468241  1
  Sn  Sn18  1  0.553158  0.776579  0.531376  1
  Sn  Sn19  1  0.350355  0.000774  0.000352  1
  Sn  Sn20  1  0.650230  0.999473  0.000138  1
  Sn  Sn21  1  0.000381  0.349499  0.000719  1
  Sn  Sn22  1  0.000381  0.650882  0.000719  1
  Sn  Sn23  1  0.650230  0.650756  0.000138  1
  Sn  Sn24  1  0.350355  0.349582  0.000352  1
  Sn  Sn25  1  0.333398  0.666699  0.147912  1
  Sn  Sn26  1  0.656796  0.328397  0.856909  1
  Sn  Sn27  1  0.333058  0.666530  0.826428  1
  Sn  Sn28  1  0.667918  0.333958  0.174099  1
  Sn  Sn29  1  0.001166  0.000583  0.499283  1
  Ru  Ru30  1  0.827770  0.170584  0.204910  1
  Ru  Ru31  1  0.173022  0.830393  0.794960  1
  Ru  Ru32  1  0.827770  0.657187  0.204910  1
  Ru  Ru33  1  0.173022  0.342628  0.794960  1
  Ru  Ru34  1  0.342329  0.171165  0.205514  1
  Ru  Ru35  1  0.656504  0.828251  0.795208  1
