# generated using pymatgen
data_Ti4Si2Ir7Rh3
_symmetry_space_group_name_H-M   'P 1'
_cell_length_a   3.95153900
_cell_length_b   5.43852701
_cell_length_c   10.63632988
_cell_angle_alpha   90.09818021
_cell_angle_beta   90.00000000
_cell_angle_gamma   90.00000000
_symmetry_Int_Tables_number   1
_chemical_formula_structural   Ti4Si2Ir7Rh3
_chemical_formula_sum   'Ti4 Si2 Ir7 Rh3'
_cell_volume   228.58026028
_cell_formula_units_Z   1
loop_
 _symmetry_equiv_pos_site_id
 _symmetry_equiv_pos_as_xyz
  1  'x, y, z'
loop_
 _atom_site_type_symbol
 _atom_site_label
 _atom_site_symmetry_multiplicity
 _atom_site_fract_x
 _atom_site_fract_y
 _atom_site_fract_z
 _atom_site_occupancy
  Ti  Ti0  1  0.500000  0.324990  0.139920  1
  Ti  Ti1  1  0.500000  0.675314  0.859889  1
  Ti  Ti2  1  0.500000  0.825364  0.359902  1
  Ti  Ti3  1  0.500000  0.175580  0.640909  1
  Si  Si4  1  0.000000  0.999785  0.999033  1
  Si  Si5  1  0.000000  0.500430  0.499930  1
  Ir  Ir6  1  0.000000  0.072225  0.243996  1
  Ir  Ir7  1  0.000000  0.927336  0.757019  1
  Ir  Ir8  1  0.000000  0.572227  0.255851  1
  Ir  Ir9  1  0.000000  0.426883  0.743388  1
  Ir  Ir10  1  0.500000  0.317075  0.393835  1
  Ir  Ir11  1  0.500000  0.683264  0.605542  1
  Ir  Ir12  1  0.500000  0.817635  0.106059  1
  Rh  Rh13  1  0.000000  0.000834  0.500450  1
  Rh  Rh14  1  0.000000  0.498700  0.999613  1
  Rh  Rh15  1  0.500000  0.182358  0.894663  1
