# generated using pymatgen
data_Dy4Al4OsPt3
_symmetry_space_group_name_H-M   'P 1'
_cell_length_a   4.36725800
_cell_length_b   6.86785876
_cell_length_c   7.88131890
_cell_angle_alpha   89.79031343
_cell_angle_beta   90.00000000
_cell_angle_gamma   90.00000000
_symmetry_Int_Tables_number   1
_chemical_formula_structural   Dy4Al4OsPt3
_chemical_formula_sum   'Dy4 Al4 Os1 Pt3'
_cell_volume   236.38841915
_cell_formula_units_Z   1
loop_
 _symmetry_equiv_pos_site_id
 _symmetry_equiv_pos_as_xyz
  1  'x, y, z'
loop_
 _atom_site_type_symbol
 _atom_site_label
 _atom_site_symmetry_multiplicity
 _atom_site_fract_x
 _atom_site_fract_y
 _atom_site_fract_z
 _atom_site_occupancy
  Dy  Dy0  1  0.250000  0.471463  0.181554  1
  Dy  Dy1  1  0.750000  0.532533  0.813922  1
  Dy  Dy2  1  0.750000  0.021121  0.679527  1
  Dy  Dy3  1  0.250000  0.967466  0.321667  1
  Al  Al4  1  0.250000  0.854860  0.935537  1
  Al  Al5  1  0.750000  0.143484  0.062176  1
  Al  Al6  1  0.750000  0.646384  0.439700  1
  Al  Al7  1  0.250000  0.359485  0.563439  1
  Os  Os8  1  0.250000  0.732037  0.620049  1
  Pt  Pt9  1  0.750000  0.271299  0.380018  1
  Pt  Pt10  1  0.750000  0.771480  0.118659  1
  Pt  Pt11  1  0.250000  0.228388  0.883753  1
