# generated using pymatgen
data_Nd3DyTc4F28
_symmetry_space_group_name_H-M   'P 1'
_cell_length_a   5.70689326
_cell_length_b   9.11671414
_cell_length_c   12.27122186
_cell_angle_alpha   62.31360111
_cell_angle_beta   89.93262221
_cell_angle_gamma   90.00028707
_symmetry_Int_Tables_number   1
_chemical_formula_structural   Nd3DyTc4F28
_chemical_formula_sum   'Nd3 Dy1 Tc4 F28'
_cell_volume   565.34819747
_cell_formula_units_Z   1
loop_
 _symmetry_equiv_pos_site_id
 _symmetry_equiv_pos_as_xyz
  1  'x, y, z'
loop_
 _atom_site_type_symbol
 _atom_site_label
 _atom_site_symmetry_multiplicity
 _atom_site_fract_x
 _atom_site_fract_y
 _atom_site_fract_z
 _atom_site_occupancy
  Nd  Nd0  1  0.758826  0.809795  0.765210  1
  Nd  Nd1  1  0.258829  0.188948  0.734691  1
  Nd  Nd2  1  0.241486  0.184974  0.235178  1
  Dy  Dy3  1  0.739854  0.810330  0.264737  1
  Tc  Tc4  1  0.755840  0.270013  0.958936  1
  Tc  Tc5  1  0.256972  0.727582  0.539228  1
  Tc  Tc6  1  0.241828  0.727628  0.046644  1
  Tc  Tc7  1  0.743171  0.277001  0.455212  1
  F  F8  1  0.441673  0.708296  0.923562  1
  F  F9  1  0.940416  0.294446  0.579275  1
  F  F10  1  0.558359  0.291230  0.081551  1
  F  F11  1  0.053661  0.709390  0.417155  1
  F  F12  1  0.454927  0.282588  0.541597  1
  F  F13  1  0.957146  0.720028  0.958348  1
  F  F14  1  0.545749  0.722666  0.450703  1
  F  F15  1  0.044418  0.278532  0.043881  1
  F  F16  1  0.770400  0.512906  0.862534  1
  F  F17  1  0.272418  0.485795  0.636189  1
  F  F18  1  0.229035  0.485069  0.141024  1
  F  F19  1  0.730783  0.521106  0.359383  1
  F  F20  1  0.756320  0.027977  0.054464  1
  F  F21  1  0.255797  0.969623  0.447698  1
  F  F22  1  0.242617  0.969096  0.950800  1
  F  F23  1  0.743109  0.034898  0.549784  1
  F  F24  1  0.980108  0.728296  0.634256  1
  F  F25  1  0.476961  0.270593  0.865608  1
  F  F26  1  0.021125  0.272390  0.362575  1
  F  F27  1  0.519561  0.731192  0.141175  1
  F  F28  1  0.041193  0.747610  0.171260  1
  F  F29  1  0.550729  0.257945  0.329247  1
  F  F30  1  0.947821  0.253972  0.831597  1
  F  F31  1  0.451187  0.744586  0.666119  1
  F  F32  1  0.425653  0.964095  0.232405  1
  F  F33  1  0.912151  0.020771  0.268142  1
  F  F34  1  0.590258  0.031953  0.769493  1
  F  F35  1  0.089620  0.966681  0.730336  1
