# generated using pymatgen
data_Er7LuRe2(B12Os)2
_symmetry_space_group_name_H-M   'P 1'
_cell_length_a   3.63969900
_cell_length_b   9.10824466
_cell_length_c   11.48576008
_cell_angle_alpha   90.14293421
_cell_angle_beta   90.00000000
_cell_angle_gamma   90.00000000
_symmetry_Int_Tables_number   1
_chemical_formula_structural   Er7LuRe2(B12Os)2
_chemical_formula_sum   'Er7 Lu1 Re2 B24 Os2'
_cell_volume   380.76633705
_cell_formula_units_Z   1
loop_
 _symmetry_equiv_pos_site_id
 _symmetry_equiv_pos_as_xyz
  1  'x, y, z'
loop_
 _atom_site_type_symbol
 _atom_site_label
 _atom_site_symmetry_multiplicity
 _atom_site_fract_x
 _atom_site_fract_y
 _atom_site_fract_z
 _atom_site_occupancy
  Er  Er0  1  0.000000  0.320536  0.412439  1
  Er  Er1  1  0.000000  0.679393  0.587823  1
  Er  Er2  1  0.000000  0.824133  0.084489  1
  Er  Er3  1  0.000000  0.175784  0.915195  1
  Er  Er4  1  0.000000  0.943378  0.370764  1
  Er  Er5  1  0.000000  0.056662  0.629458  1
  Er  Er6  1  0.000000  0.442812  0.128177  1
  Lu  Lu7  1  0.000000  0.557458  0.871144  1
  Re  Re8  1  0.000000  0.138379  0.179444  1
  Re  Re9  1  0.000000  0.860734  0.820486  1
  B  B10  1  0.500000  0.553497  0.433468  1
  B  B11  1  0.500000  0.446646  0.566887  1
  B  B12  1  0.500000  0.052849  0.066532  1
  B  B13  1  0.500000  0.946562  0.933269  1
  B  B14  1  0.500000  0.748976  0.419051  1
  B  B15  1  0.500000  0.251309  0.581153  1
  B  B16  1  0.500000  0.249178  0.080567  1
  B  B17  1  0.500000  0.749890  0.919191  1
  B  B18  1  0.500000  0.791057  0.265589  1
  B  B19  1  0.500000  0.209352  0.734542  1
  B  B20  1  0.500000  0.292210  0.234783  1
  B  B21  1  0.500000  0.707003  0.765406  1
  B  B22  1  0.500000  0.630670  0.185459  1
  B  B23  1  0.500000  0.370169  0.814771  1
  B  B24  1  0.500000  0.131168  0.315169  1
  B  B25  1  0.500000  0.868561  0.684994  1
  B  B26  1  0.500000  0.982053  0.212432  1
  B  B27  1  0.500000  0.017693  0.787672  1
  B  B28  1  0.500000  0.482360  0.287908  1
  B  B29  1  0.500000  0.518105  0.712603  1
  B  B30  1  0.500000  0.602344  0.027732  1
  B  B31  1  0.500000  0.398514  0.970640  1
  B  B32  1  0.500000  0.103246  0.471702  1
  B  B33  1  0.500000  0.896771  0.528499  1
  Os  Os34  1  0.000000  0.637384  0.321738  1
  Os  Os35  1  0.000000  0.363167  0.678823  1
