# generated using pymatgen
data_Tb2Ga4PtAu
_symmetry_space_group_name_H-M   'P 1'
_cell_length_a   5.58950820
_cell_length_b   5.58950790
_cell_length_c   6.70285300
_cell_angle_alpha   90.00000000
_cell_angle_beta   90.00000000
_cell_angle_gamma   132.69457318
_symmetry_Int_Tables_number   1
_chemical_formula_structural   Tb2Ga4PtAu
_chemical_formula_sum   'Tb2 Ga4 Pt1 Au1'
_cell_volume   153.91526455
_cell_formula_units_Z   1
loop_
 _symmetry_equiv_pos_site_id
 _symmetry_equiv_pos_as_xyz
  1  'x, y, z'
loop_
 _atom_site_type_symbol
 _atom_site_label
 _atom_site_symmetry_multiplicity
 _atom_site_fract_x
 _atom_site_fract_y
 _atom_site_fract_z
 _atom_site_occupancy
  Tb  Tb0  1  0.091910  0.908090  0.750000  1
  Tb  Tb1  1  0.910396  0.089604  0.250000  1
  Ga  Ga2  1  0.373346  0.626654  0.546848  1
  Ga  Ga3  1  0.625737  0.374263  0.056167  1
  Ga  Ga4  1  0.625737  0.374263  0.443833  1
  Ga  Ga5  1  0.373346  0.626654  0.953152  1
  Pt  Pt6  1  0.199119  0.800881  0.250000  1
  Au  Au7  1  0.800408  0.199592  0.750000  1
