# generated using pymatgen
data_Hf2Nb2Pb4O13
_symmetry_space_group_name_H-M   'P 1'
_cell_length_a   7.62190241
_cell_length_b   7.62190114
_cell_length_c   7.62190175
_cell_angle_alpha   119.91202033
_cell_angle_beta   120.02200015
_cell_angle_gamma   90.05717651
_symmetry_Int_Tables_number   1
_chemical_formula_structural   Hf2Nb2Pb4O13
_chemical_formula_sum   'Hf2 Nb2 Pb4 O13'
_cell_volume   313.24980556
_cell_formula_units_Z   1
loop_
 _symmetry_equiv_pos_site_id
 _symmetry_equiv_pos_as_xyz
  1  'x, y, z'
loop_
 _atom_site_type_symbol
 _atom_site_label
 _atom_site_symmetry_multiplicity
 _atom_site_fract_x
 _atom_site_fract_y
 _atom_site_fract_z
 _atom_site_occupancy
  Hf  Hf0  1  0.749010  0.999438  0.749572  1
  Hf  Hf1  1  0.249866  0.999438  0.250428  1
  Nb  Nb2  1  0.749189  0.999880  0.250691  1
  Nb  Nb3  1  0.749189  0.498498  0.749309  1
  Pb  Pb4  1  0.249865  0.499437  0.750427  1
  Pb  Pb5  1  0.749010  0.499437  0.249573  1
  Pb  Pb6  1  0.249544  0.498000  0.248454  1
  Pb  Pb7  1  0.249544  0.001090  0.751546  1
  O  O8  1  0.079218  0.079218  0.000000  1
  O  O9  1  0.683778  0.683778  0.000000  1
  O  O10  1  0.681777  0.075757  0.009535  1
  O  O11  1  0.066222  0.672242  0.990465  1
  O  O12  1  0.066222  0.075757  0.393981  1
  O  O13  1  0.681777  0.672242  0.606019  1
  O  O14  1  0.425373  0.925373  0.500000  1
  O  O15  1  0.813809  0.313809  0.500000  1
  O  O16  1  0.814796  0.927418  0.490377  1
  O  O17  1  0.437042  0.324419  0.509623  1
  O  O18  1  0.437042  0.927418  0.112623  1
  O  O19  1  0.814796  0.324419  0.887377  1
  O  O20  1  0.377931  0.377931  0.000000  1
