# generated using pymatgen
data_Li(TbPb)4
_symmetry_space_group_name_H-M   'P 1'
_cell_length_a   7.68705300
_cell_length_b   8.33574800
_cell_length_c   15.89160400
_cell_angle_alpha   90.00000000
_cell_angle_beta   90.00000000
_cell_angle_gamma   90.00000000
_symmetry_Int_Tables_number   1
_chemical_formula_structural   Li(TbPb)4
_chemical_formula_sum   'Li4 Tb16 Pb16'
_cell_volume   1018.29165974
_cell_formula_units_Z   4
loop_
 _symmetry_equiv_pos_site_id
 _symmetry_equiv_pos_as_xyz
  1  'x, y, z'
loop_
 _atom_site_type_symbol
 _atom_site_label
 _atom_site_symmetry_multiplicity
 _atom_site_fract_x
 _atom_site_fract_y
 _atom_site_fract_z
 _atom_site_occupancy
  Li  Li0  1  0.671060  0.014110  0.250000  1
  Li  Li1  1  0.171060  0.485890  0.250000  1
  Li  Li2  1  0.828940  0.514110  0.750000  1
  Li  Li3  1  0.328940  0.985890  0.750000  1
  Tb  Tb4  1  0.837858  0.663122  0.127515  1
  Tb  Tb5  1  0.337858  0.836878  0.372485  1
  Tb  Tb6  1  0.662142  0.163122  0.872485  1
  Tb  Tb7  1  0.162142  0.336878  0.627515  1
  Tb  Tb8  1  0.162142  0.336878  0.872485  1
  Tb  Tb9  1  0.662142  0.163122  0.627515  1
  Tb  Tb10  1  0.337858  0.836878  0.127515  1
  Tb  Tb11  1  0.837858  0.663122  0.372485  1
  Tb  Tb12  1  0.005210  0.189084  0.093056  1
  Tb  Tb13  1  0.505210  0.310916  0.406944  1
  Tb  Tb14  1  0.494790  0.689084  0.906944  1
  Tb  Tb15  1  0.994790  0.810916  0.593056  1
  Tb  Tb16  1  0.994790  0.810916  0.906944  1
  Tb  Tb17  1  0.494790  0.689084  0.593056  1
  Tb  Tb18  1  0.505210  0.310916  0.093056  1
  Tb  Tb19  1  0.005210  0.189084  0.406944  1
  Pb  Pb20  1  0.019343  0.903301  0.250000  1
  Pb  Pb21  1  0.519343  0.596699  0.250000  1
  Pb  Pb22  1  0.480657  0.403301  0.750000  1
  Pb  Pb23  1  0.980657  0.096699  0.750000  1
  Pb  Pb24  1  0.811666  0.343959  0.250000  1
  Pb  Pb25  1  0.311666  0.156041  0.250000  1
  Pb  Pb26  1  0.688334  0.843959  0.750000  1
  Pb  Pb27  1  0.188334  0.656041  0.750000  1
  Pb  Pb28  1  0.810228  0.461597  0.958769  1
  Pb  Pb29  1  0.310228  0.038403  0.541231  1
  Pb  Pb30  1  0.689772  0.961597  0.041231  1
  Pb  Pb31  1  0.189772  0.538403  0.458769  1
  Pb  Pb32  1  0.189772  0.538403  0.041231  1
  Pb  Pb33  1  0.689772  0.961597  0.458769  1
  Pb  Pb34  1  0.310228  0.038403  0.958769  1
  Pb  Pb35  1  0.810228  0.461597  0.541231  1
