# generated using pymatgen
data_Y19ErCd5InNi2
_symmetry_space_group_name_H-M   'P 1'
_cell_length_a   9.68737145
_cell_length_b   9.68755008
_cell_length_c   9.74836705
_cell_angle_alpha   90.00956728
_cell_angle_beta   89.99048319
_cell_angle_gamma   120.13411899
_symmetry_Int_Tables_number   1
_chemical_formula_structural   Y19ErCd5InNi2
_chemical_formula_sum   'Y19 Er1 Cd5 In1 Ni2'
_cell_volume   791.21385766
_cell_formula_units_Z   1
loop_
 _symmetry_equiv_pos_site_id
 _symmetry_equiv_pos_as_xyz
  1  'x, y, z'
loop_
 _atom_site_type_symbol
 _atom_site_label
 _atom_site_symmetry_multiplicity
 _atom_site_fract_x
 _atom_site_fract_y
 _atom_site_fract_z
 _atom_site_occupancy
  Y  Y0  1  0.001784  0.998210  0.998778  1
  Y  Y1  1  0.542833  0.457169  0.249914  1
  Y  Y2  1  0.540310  0.087664  0.249949  1
  Y  Y3  1  0.912327  0.459686  0.249953  1
  Y  Y4  1  0.456032  0.543970  0.750026  1
  Y  Y5  1  0.456770  0.912798  0.750092  1
  Y  Y6  1  0.087205  0.543226  0.750092  1
  Y  Y7  1  0.209635  0.790369  0.437439  1
  Y  Y8  1  0.208940  0.418284  0.436547  1
  Y  Y9  1  0.581716  0.791059  0.436549  1
  Y  Y10  1  0.790543  0.209455  0.562676  1
  Y  Y11  1  0.790046  0.580601  0.564070  1
  Y  Y12  1  0.419404  0.209960  0.564081  1
  Y  Y13  1  0.789978  0.210017  0.937226  1
  Y  Y14  1  0.789444  0.579407  0.935839  1
  Y  Y15  1  0.420611  0.210557  0.935834  1
  Y  Y16  1  0.210286  0.789722  0.062667  1
  Y  Y17  1  0.209472  0.419479  0.063568  1
  Y  Y18  1  0.580514  0.790529  0.063569  1
  Er  Er19  1  0.001787  0.998213  0.501317  1
  Cd  Cd20  1  0.885235  0.769880  0.250812  1
  Cd  Cd21  1  0.230120  0.114764  0.250812  1
  Cd  Cd22  1  0.116483  0.883518  0.749142  1
  Cd  Cd23  1  0.114841  0.230790  0.749195  1
  Cd  Cd24  1  0.769209  0.885156  0.749192  1
  In  In25  1  0.884460  0.115536  0.250675  1
  Ni  Ni26  1  0.332913  0.667098  0.250042  1
  Ni  Ni27  1  0.667103  0.332883  0.749945  1
