# generated using pymatgen
data_Ho12Th8Sn15Pb
_symmetry_space_group_name_H-M   'P 1'
_cell_length_a   8.13085700
_cell_length_b   8.22409002
_cell_length_c   15.49419100
_cell_angle_alpha   90.02154142
_cell_angle_beta   90.15564084
_cell_angle_gamma   90.01864037
_symmetry_Int_Tables_number   1
_chemical_formula_structural   Ho12Th8Sn15Pb
_chemical_formula_sum   'Ho12 Th8 Sn15 Pb1'
_cell_volume   1036.07555586
_cell_formula_units_Z   1
loop_
 _symmetry_equiv_pos_site_id
 _symmetry_equiv_pos_as_xyz
  1  'x, y, z'
loop_
 _atom_site_type_symbol
 _atom_site_label
 _atom_site_symmetry_multiplicity
 _atom_site_fract_x
 _atom_site_fract_y
 _atom_site_fract_z
 _atom_site_occupancy
  Ho  Ho0  1  0.357590  0.836454  0.874651  1
  Ho  Ho1  1  0.855962  0.663885  0.624179  1
  Ho  Ho2  1  0.644766  0.163151  0.375609  1
  Ho  Ho3  1  0.142144  0.340166  0.125164  1
  Ho  Ho4  1  0.645617  0.161827  0.124609  1
  Ho  Ho5  1  0.144564  0.336713  0.375573  1
  Ho  Ho6  1  0.355625  0.837157  0.624584  1
  Ho  Ho7  1  0.857326  0.662993  0.875242  1
  Ho  Ho8  1  0.185186  0.498363  0.749660  1
  Ho  Ho9  1  0.685150  0.002548  0.749744  1
  Ho  Ho10  1  0.814655  0.501790  0.250606  1
  Ho  Ho11  1  0.315054  0.997635  0.251937  1
  Th  Th12  1  0.517064  0.323451  0.903540  1
  Th  Th13  1  0.014811  0.178358  0.595101  1
  Th  Th14  1  0.485703  0.677672  0.405362  1
  Th  Th15  1  0.980844  0.818602  0.096532  1
  Th  Th16  1  0.485293  0.675665  0.095781  1
  Th  Th17  1  0.985246  0.821538  0.405154  1
  Th  Th18  1  0.514295  0.321600  0.594872  1
  Th  Th19  1  0.012924  0.180392  0.903093  1
  Sn  Sn20  1  0.803716  0.459217  0.458110  1
  Sn  Sn21  1  0.696881  0.959831  0.542035  1
  Sn  Sn22  1  0.198323  0.540472  0.957658  1
  Sn  Sn23  1  0.698820  0.959680  0.957345  1
  Sn  Sn24  1  0.196808  0.540744  0.542053  1
  Sn  Sn25  1  0.303278  0.040688  0.458408  1
  Sn  Sn26  1  0.801878  0.458645  0.041905  1
  Sn  Sn27  1  0.551847  0.621604  0.749494  1
  Sn  Sn28  1  0.051397  0.879254  0.749972  1
  Sn  Sn29  1  0.448857  0.377583  0.249640  1
  Sn  Sn30  1  0.949391  0.120710  0.249990  1
  Sn  Sn31  1  0.320474  0.144788  0.749862  1
  Sn  Sn32  1  0.820087  0.356540  0.748783  1
  Sn  Sn33  1  0.678408  0.855137  0.250581  1
  Sn  Sn34  1  0.179870  0.644746  0.250762  1
  Pb  Pb35  1  0.300150  0.040402  0.042404  1
