# generated using pymatgen
data_Dy2Tm6Re(B8Ir)3
_symmetry_space_group_name_H-M   'P 1'
_cell_length_a   3.63425400
_cell_length_b   9.12470398
_cell_length_c   11.46297300
_cell_angle_alpha   90.13915793
_cell_angle_beta   90.00000000
_cell_angle_gamma   90.00000000
_symmetry_Int_Tables_number   1
_chemical_formula_structural   Dy2Tm6Re(B8Ir)3
_chemical_formula_sum   'Dy2 Tm6 Re1 B24 Ir3'
_cell_volume   380.12816542
_cell_formula_units_Z   1
loop_
 _symmetry_equiv_pos_site_id
 _symmetry_equiv_pos_as_xyz
  1  'x, y, z'
loop_
 _atom_site_type_symbol
 _atom_site_label
 _atom_site_symmetry_multiplicity
 _atom_site_fract_x
 _atom_site_fract_y
 _atom_site_fract_z
 _atom_site_occupancy
  Dy  Dy0  1  0.000000  0.320361  0.413684  1
  Dy  Dy1  1  0.000000  0.683194  0.590337  1
  Tm  Tm2  1  0.000000  0.820022  0.082315  1
  Tm  Tm3  1  0.000000  0.176295  0.912312  1
  Tm  Tm4  1  0.000000  0.943829  0.372893  1
  Tm  Tm5  1  0.000000  0.053698  0.626685  1
  Tm  Tm6  1  0.000000  0.443434  0.125713  1
  Tm  Tm7  1  0.000000  0.557521  0.875322  1
  Re  Re8  1  0.000000  0.862993  0.821959  1
  B  B9  1  0.500000  0.553933  0.433841  1
  B  B10  1  0.500000  0.447292  0.566984  1
  B  B11  1  0.500000  0.053295  0.065786  1
  B  B12  1  0.500000  0.947099  0.933924  1
  B  B13  1  0.500000  0.751222  0.419950  1
  B  B14  1  0.500000  0.249577  0.579678  1
  B  B15  1  0.500000  0.249213  0.078486  1
  B  B16  1  0.500000  0.751699  0.920558  1
  B  B17  1  0.500000  0.792729  0.264199  1
  B  B18  1  0.500000  0.207278  0.734266  1
  B  B19  1  0.500000  0.292822  0.234500  1
  B  B20  1  0.500000  0.708092  0.766692  1
  B  B21  1  0.500000  0.631043  0.183731  1
  B  B22  1  0.500000  0.368270  0.816495  1
  B  B23  1  0.500000  0.131329  0.315461  1
  B  B24  1  0.500000  0.869597  0.685621  1
  B  B25  1  0.500000  0.980953  0.212460  1
  B  B26  1  0.500000  0.018209  0.787007  1
  B  B27  1  0.500000  0.481224  0.286611  1
  B  B28  1  0.500000  0.518115  0.714905  1
  B  B29  1  0.500000  0.607877  0.030918  1
  B  B30  1  0.500000  0.389733  0.970372  1
  B  B31  1  0.500000  0.107057  0.469974  1
  B  B32  1  0.500000  0.893811  0.528064  1
  Ir  Ir33  1  0.000000  0.638087  0.321437  1
  Ir  Ir34  1  0.000000  0.362054  0.678986  1
  Ir  Ir35  1  0.000000  0.137046  0.177872  1
