# generated using pymatgen
data_Na5ReN4
_symmetry_space_group_name_H-M   'P 1'
_cell_length_a   5.67157300
_cell_length_b   7.32316600
_cell_length_c   7.67506200
_cell_angle_alpha   90.00000000
_cell_angle_beta   90.00000000
_cell_angle_gamma   90.00000000
_symmetry_Int_Tables_number   1
_chemical_formula_structural   Na5ReN4
_chemical_formula_sum   'Na10 Re2 N8'
_cell_volume   318.77503165
_cell_formula_units_Z   2
loop_
 _symmetry_equiv_pos_site_id
 _symmetry_equiv_pos_as_xyz
  1  'x, y, z'
loop_
 _atom_site_type_symbol
 _atom_site_label
 _atom_site_symmetry_multiplicity
 _atom_site_fract_x
 _atom_site_fract_y
 _atom_site_fract_z
 _atom_site_occupancy
  Na  Na0  1  0.760918  0.235247  0.309311  1
  Na  Na1  1  0.760918  0.235247  0.690689  1
  Na  Na2  1  0.760918  0.764753  0.309311  1
  Na  Na3  1  0.760918  0.764753  0.690689  1
  Na  Na4  1  0.239082  0.264753  0.190689  1
  Na  Na5  1  0.239082  0.264753  0.809311  1
  Na  Na6  1  0.239082  0.735247  0.190689  1
  Na  Na7  1  0.239082  0.735247  0.809311  1
  Na  Na8  1  0.328228  0.500000  0.500000  1
  Na  Na9  1  0.671772  0.000000  0.000000  1
  Re  Re10  1  0.284784  0.000000  0.500000  1
  Re  Re11  1  0.715216  0.500000  0.000000  1
  N  N12  1  0.101952  0.790543  0.500000  1
  N  N13  1  0.101952  0.209457  0.500000  1
  N  N14  1  0.898048  0.709457  0.000000  1
  N  N15  1  0.898048  0.290543  0.000000  1
  N  N16  1  0.533800  0.500000  0.201139  1
  N  N17  1  0.533800  0.500000  0.798861  1
  N  N18  1  0.466200  0.000000  0.298861  1
  N  N19  1  0.466200  0.000000  0.701139  1
