# generated using pymatgen
data_Tb5Y3Cd2PdPt
_symmetry_space_group_name_H-M   'P 1'
_cell_length_a   9.73163208
_cell_length_b   9.73163174
_cell_length_c   9.73845500
_cell_angle_alpha   59.97680707
_cell_angle_beta   59.97680823
_cell_angle_gamma   59.95729031
_symmetry_Int_Tables_number   1
_chemical_formula_structural   Tb5Y3Cd2PdPt
_chemical_formula_sum   'Tb10 Y6 Cd4 Pd2 Pt2'
_cell_volume   651.70912315
_cell_formula_units_Z   2
loop_
 _symmetry_equiv_pos_site_id
 _symmetry_equiv_pos_as_xyz
  1  'x, y, z'
loop_
 _atom_site_type_symbol
 _atom_site_label
 _atom_site_symmetry_multiplicity
 _atom_site_fract_x
 _atom_site_fract_y
 _atom_site_fract_z
 _atom_site_occupancy
  Tb  Tb0  1  0.352588  0.352588  0.353047  1
  Tb  Tb1  1  0.352588  0.352588  0.941777  1
  Tb  Tb2  1  0.353216  0.939463  0.353660  1
  Tb  Tb3  1  0.939463  0.353216  0.353660  1
  Tb  Tb4  1  0.812153  0.189367  0.190232  1
  Tb  Tb5  1  0.189367  0.812153  0.808248  1
  Tb  Tb6  1  0.189367  0.812153  0.190232  1
  Tb  Tb7  1  0.812153  0.189367  0.808248  1
  Tb  Tb8  1  0.190281  0.190281  0.809719  1
  Tb  Tb9  1  0.810709  0.810709  0.189291  1
  Y  Y10  1  0.935319  0.563999  0.565852  1
  Y  Y11  1  0.563999  0.935319  0.934830  1
  Y  Y12  1  0.563999  0.935319  0.565852  1
  Y  Y13  1  0.935319  0.563999  0.934830  1
  Y  Y14  1  0.565895  0.565895  0.934105  1
  Y  Y15  1  0.936163  0.936163  0.563837  1
  Cd  Cd16  1  0.581702  0.581702  0.582532  1
  Cd  Cd17  1  0.581702  0.581702  0.254064  1
  Cd  Cd18  1  0.581832  0.253279  0.582444  1
  Cd  Cd19  1  0.253279  0.581832  0.582444  1
  Pd  Pd20  1  0.143361  0.567853  0.144392  1
  Pd  Pd21  1  0.567853  0.143361  0.144392  1
  Pt  Pt22  1  0.143846  0.143846  0.144897  1
  Pt  Pt23  1  0.143846  0.143846  0.567410  1
