# generated using pymatgen
data_Sc12Co3Si12Ni
_symmetry_space_group_name_H-M   'P 1'
_cell_length_a   3.99811700
_cell_length_b   10.02489061
_cell_length_c   11.65745792
_cell_angle_alpha   90.01148886
_cell_angle_beta   90.00000000
_cell_angle_gamma   90.00000000
_symmetry_Int_Tables_number   1
_chemical_formula_structural   Sc12Co3Si12Ni
_chemical_formula_sum   'Sc12 Co3 Si12 Ni1'
_cell_volume   467.23889608
_cell_formula_units_Z   1
loop_
 _symmetry_equiv_pos_site_id
 _symmetry_equiv_pos_as_xyz
  1  'x, y, z'
loop_
 _atom_site_type_symbol
 _atom_site_label
 _atom_site_symmetry_multiplicity
 _atom_site_fract_x
 _atom_site_fract_y
 _atom_site_fract_z
 _atom_site_occupancy
  Sc  Sc0  1  0.250000  0.881126  0.025258  1
  Sc  Sc1  1  0.250000  0.619101  0.524122  1
  Sc  Sc2  1  0.750000  0.121180  0.976514  1
  Sc  Sc3  1  0.750000  0.380869  0.474418  1
  Sc  Sc4  1  0.250000  0.919935  0.599564  1
  Sc  Sc5  1  0.250000  0.580207  0.099303  1
  Sc  Sc6  1  0.750000  0.079275  0.400959  1
  Sc  Sc7  1  0.750000  0.420869  0.902117  1
  Sc  Sc8  1  0.250000  0.656194  0.800854  1
  Sc  Sc9  1  0.250000  0.842130  0.300974  1
  Sc  Sc10  1  0.750000  0.342008  0.199200  1
  Sc  Sc11  1  0.750000  0.161600  0.698175  1
  Co  Co12  1  0.250000  0.388020  0.677252  1
  Co  Co13  1  0.250000  0.111349  0.177910  1
  Co  Co14  1  0.750000  0.610815  0.322595  1
  Si  Si15  1  0.250000  0.009834  0.822447  1
  Si  Si16  1  0.250000  0.494600  0.320871  1
  Si  Si17  1  0.750000  0.994986  0.178152  1
  Si  Si18  1  0.750000  0.503586  0.678760  1
  Si  Si19  1  0.250000  0.253199  0.837777  1
  Si  Si20  1  0.250000  0.247493  0.337002  1
  Si  Si21  1  0.750000  0.748331  0.162916  1
  Si  Si22  1  0.750000  0.749078  0.660468  1
  Si  Si23  1  0.250000  0.199541  0.544514  1
  Si  Si24  1  0.250000  0.300670  0.046203  1
  Si  Si25  1  0.750000  0.799788  0.454163  1
  Si  Si26  1  0.750000  0.696667  0.956171  1
  Ni  Ni27  1  0.750000  0.887546  0.821341  1
