# generated using pymatgen
data_Dy2Tm3In4IrPt
_symmetry_space_group_name_H-M   'P 1'
_cell_length_a   3.60749600
_cell_length_b   8.09655838
_cell_length_c   18.15494567
_cell_angle_alpha   89.75548551
_cell_angle_beta   90.00000000
_cell_angle_gamma   90.00000000
_symmetry_Int_Tables_number   1
_chemical_formula_structural   Dy2Tm3In4IrPt
_chemical_formula_sum   'Dy4 Tm6 In8 Ir2 Pt2'
_cell_volume   530.27030693
_cell_formula_units_Z   2
loop_
 _symmetry_equiv_pos_site_id
 _symmetry_equiv_pos_as_xyz
  1  'x, y, z'
loop_
 _atom_site_type_symbol
 _atom_site_label
 _atom_site_symmetry_multiplicity
 _atom_site_fract_x
 _atom_site_fract_y
 _atom_site_fract_z
 _atom_site_occupancy
  Dy  Dy0  1  0.000000  0.248679  0.720206  1
  Dy  Dy1  1  0.000000  0.751321  0.279794  1
  Dy  Dy2  1  0.000000  0.000000  0.000000  1
  Dy  Dy3  1  0.000000  0.500000  0.500000  1
  Tm  Tm4  1  0.000000  0.115245  0.411630  1
  Tm  Tm5  1  0.000000  0.884755  0.588370  1
  Tm  Tm6  1  0.000000  0.383504  0.913218  1
  Tm  Tm7  1  0.000000  0.616496  0.086782  1
  Tm  Tm8  1  0.000000  0.237161  0.222270  1
  Tm  Tm9  1  0.000000  0.762839  0.777730  1
  In  In10  1  0.500000  0.422547  0.351078  1
  In  In11  1  0.500000  0.577453  0.648922  1
  In  In12  1  0.500000  0.072958  0.850869  1
  In  In13  1  0.500000  0.927042  0.149131  1
  In  In14  1  0.500000  0.293319  0.066787  1
  In  In15  1  0.500000  0.706681  0.933213  1
  In  In16  1  0.500000  0.205283  0.567373  1
  In  In17  1  0.500000  0.794717  0.432627  1
  Ir  Ir18  1  0.500000  0.024185  0.303882  1
  Ir  Ir19  1  0.500000  0.975815  0.696118  1
  Pt  Pt20  1  0.500000  0.478436  0.803774  1
  Pt  Pt21  1  0.500000  0.521564  0.196226  1
