# generated using pymatgen
data_TbLu3(HfRh)4
_symmetry_space_group_name_H-M   'P 1'
_cell_length_a   4.57101800
_cell_length_b   6.92760924
_cell_length_c   8.21470569
_cell_angle_alpha   90.10625442
_cell_angle_beta   90.00000000
_cell_angle_gamma   90.00000000
_symmetry_Int_Tables_number   1
_chemical_formula_structural   TbLu3(HfRh)4
_chemical_formula_sum   'Tb1 Lu3 Hf4 Rh4'
_cell_volume   260.12828391
_cell_formula_units_Z   1
loop_
 _symmetry_equiv_pos_site_id
 _symmetry_equiv_pos_as_xyz
  1  'x, y, z'
loop_
 _atom_site_type_symbol
 _atom_site_label
 _atom_site_symmetry_multiplicity
 _atom_site_fract_x
 _atom_site_fract_y
 _atom_site_fract_z
 _atom_site_occupancy
  Tb  Tb0  1  0.250000  0.014660  0.322375  1
  Lu  Lu1  1  0.250000  0.516627  0.176349  1
  Lu  Lu2  1  0.750000  0.483334  0.822921  1
  Lu  Lu3  1  0.750000  0.983698  0.678681  1
  Hf  Hf4  1  0.250000  0.641166  0.575596  1
  Hf  Hf5  1  0.750000  0.360338  0.426104  1
  Hf  Hf6  1  0.750000  0.857482  0.070902  1
  Hf  Hf7  1  0.250000  0.142454  0.924767  1
  Rh  Rh8  1  0.250000  0.764833  0.909122  1
  Rh  Rh9  1  0.750000  0.235809  0.089435  1
  Rh  Rh10  1  0.750000  0.733002  0.410692  1
  Rh  Rh11  1  0.250000  0.266598  0.593056  1
