# generated using pymatgen
data_Er20Co4SnBi7
_symmetry_space_group_name_H-M   'P 1'
_cell_length_a   7.91286757
_cell_length_b   8.85353885
_cell_length_c   12.29499247
_cell_angle_alpha   90.06917880
_cell_angle_beta   90.06775351
_cell_angle_gamma   90.02718795
_symmetry_Int_Tables_number   1
_chemical_formula_structural   Er20Co4SnBi7
_chemical_formula_sum   'Er20 Co4 Sn1 Bi7'
_cell_volume   861.34748968
_cell_formula_units_Z   1
loop_
 _symmetry_equiv_pos_site_id
 _symmetry_equiv_pos_as_xyz
  1  'x, y, z'
loop_
 _atom_site_type_symbol
 _atom_site_label
 _atom_site_symmetry_multiplicity
 _atom_site_fract_x
 _atom_site_fract_y
 _atom_site_fract_z
 _atom_site_occupancy
  Er  Er0  1  0.656052  0.753634  0.700688  1
  Er  Er1  1  0.348216  0.249142  0.302459  1
  Er  Er2  1  0.149623  0.246400  0.797719  1
  Er  Er3  1  0.848485  0.748723  0.199039  1
  Er  Er4  1  0.111785  0.753962  0.810896  1
  Er  Er5  1  0.884291  0.250156  0.186757  1
  Er  Er6  1  0.623022  0.246322  0.687529  1
  Er  Er7  1  0.384005  0.750638  0.313163  1
  Er  Er8  1  0.553162  0.749075  0.996899  1
  Er  Er9  1  0.445255  0.250919  0.002889  1
  Er  Er10  1  0.048738  0.246089  0.505348  1
  Er  Er11  1  0.947990  0.753528  0.498904  1
  Er  Er12  1  0.824406  0.462917  0.935823  1
  Er  Er13  1  0.174292  0.537533  0.063078  1
  Er  Er14  1  0.326340  0.535379  0.564499  1
  Er  Er15  1  0.173765  0.964451  0.063781  1
  Er  Er16  1  0.675384  0.465242  0.436620  1
  Er  Er17  1  0.826282  0.036010  0.931637  1
  Er  Er18  1  0.675607  0.035833  0.438815  1
  Er  Er19  1  0.322015  0.964883  0.565101  1
  Co  Co20  1  0.933518  0.750257  0.991840  1
  Co  Co21  1  0.065686  0.250650  0.006927  1
  Co  Co22  1  0.438259  0.250415  0.508565  1
  Co  Co23  1  0.563580  0.750179  0.493035  1
  Sn  Sn24  1  0.929997  0.006393  0.671437  1
  Bi  Bi25  1  0.070171  0.991736  0.325843  1
  Bi  Bi26  1  0.428172  0.991781  0.827706  1
  Bi  Bi27  1  0.071212  0.507658  0.328243  1
  Bi  Bi28  1  0.571251  0.008320  0.172710  1
  Bi  Bi29  1  0.929865  0.492736  0.672747  1
  Bi  Bi30  1  0.569586  0.491520  0.173882  1
  Bi  Bi31  1  0.429989  0.507519  0.825418  1
