# generated using pymatgen
data_Dy5Y5(Pb3S)2
_symmetry_space_group_name_H-M   'P 1'
_cell_length_a   9.15271283
_cell_length_b   9.15268821
_cell_length_c   6.72822200
_cell_angle_alpha   90.00000000
_cell_angle_beta   90.00000000
_cell_angle_gamma   119.98937906
_symmetry_Int_Tables_number   1
_chemical_formula_structural   Dy5Y5(Pb3S)2
_chemical_formula_sum   'Dy5 Y5 Pb6 S2'
_cell_volume   488.17543155
_cell_formula_units_Z   1
loop_
 _symmetry_equiv_pos_site_id
 _symmetry_equiv_pos_as_xyz
  1  'x, y, z'
loop_
 _atom_site_type_symbol
 _atom_site_label
 _atom_site_symmetry_multiplicity
 _atom_site_fract_x
 _atom_site_fract_y
 _atom_site_fract_z
 _atom_site_occupancy
  Dy  Dy0  1  0.243428  0.000480  0.750000  1
  Dy  Dy1  1  0.000518  0.243446  0.750000  1
  Dy  Dy2  1  0.242682  0.242701  0.250000  1
  Dy  Dy3  1  0.756684  0.999687  0.250000  1
  Dy  Dy4  1  0.999710  0.756700  0.250000  1
  Y  Y5  1  0.756936  0.756960  0.750000  1
  Y  Y6  1  0.666668  0.333065  0.000046  1
  Y  Y7  1  0.333068  0.666665  0.000041  1
  Y  Y8  1  0.333068  0.666665  0.499959  1
  Y  Y9  1  0.666668  0.333065  0.499954  1
  Pb  Pb10  1  0.397332  0.397325  0.750000  1
  Pb  Pb11  1  0.603301  0.000087  0.750000  1
  Pb  Pb12  1  0.000084  0.603302  0.750000  1
  Pb  Pb13  1  0.602635  0.602639  0.250000  1
  Pb  Pb14  1  0.396654  0.999870  0.250000  1
  Pb  Pb15  1  0.999895  0.396672  0.250000  1
  S  S16  1  0.000335  0.000336  0.000207  1
  S  S17  1  0.000335  0.000336  0.499793  1
