# generated using pymatgen
data_Ce3TiPb5
_symmetry_space_group_name_H-M   'P 1'
_cell_length_a   9.55492400
_cell_length_b   9.55450867
_cell_length_c   6.37553200
_cell_angle_alpha   90.00000000
_cell_angle_beta   90.00000000
_cell_angle_gamma   119.99855160
_symmetry_Int_Tables_number   1
_chemical_formula_structural   Ce3TiPb5
_chemical_formula_sum   'Ce6 Ti2 Pb10'
_cell_volume   504.06784700
_cell_formula_units_Z   2
loop_
 _symmetry_equiv_pos_site_id
 _symmetry_equiv_pos_as_xyz
  1  'x, y, z'
loop_
 _atom_site_type_symbol
 _atom_site_label
 _atom_site_symmetry_multiplicity
 _atom_site_fract_x
 _atom_site_fract_y
 _atom_site_fract_z
 _atom_site_occupancy
  Ce  Ce0  1  0.615915  0.999999  0.250000  1
  Ce  Ce1  1  0.384085  0.000001  0.750000  1
  Ce  Ce2  1  0.000000  0.615926  0.250000  1
  Ce  Ce3  1  0.000000  0.384074  0.750000  1
  Ce  Ce4  1  0.384085  0.384084  0.250000  1
  Ce  Ce5  1  0.615915  0.615916  0.750000  1
  Ti  Ti6  1  0.000000  0.000000  0.000000  1
  Ti  Ti7  1  0.000000  0.000000  0.500000  1
  Pb  Pb8  1  0.259810  0.000016  0.250000  1
  Pb  Pb9  1  0.740190  0.999984  0.750000  1
  Pb  Pb10  1  0.000000  0.259777  0.250000  1
  Pb  Pb11  1  0.000000  0.740223  0.750000  1
  Pb  Pb12  1  0.740190  0.740205  0.250000  1
  Pb  Pb13  1  0.259810  0.259795  0.750000  1
  Pb  Pb14  1  0.333360  0.666680  0.000000  1
  Pb  Pb15  1  0.666640  0.333320  0.000000  1
  Pb  Pb16  1  0.666640  0.333320  0.500000  1
  Pb  Pb17  1  0.333360  0.666680  0.500000  1
