# generated using pymatgen
data_Ce19Er(Ir2Os)4
_symmetry_space_group_name_H-M   'P 1'
_cell_length_a   11.08448518
_cell_length_b   11.13448233
_cell_length_c   6.17924958
_cell_angle_alpha   90.00470887
_cell_angle_beta   89.75586051
_cell_angle_gamma   91.62438073
_symmetry_Int_Tables_number   1
_chemical_formula_structural   Ce19Er(Ir2Os)4
_chemical_formula_sum   'Ce19 Er1 Ir8 Os4'
_cell_volume   762.32961524
_cell_formula_units_Z   1
loop_
 _symmetry_equiv_pos_site_id
 _symmetry_equiv_pos_as_xyz
  1  'x, y, z'
loop_
 _atom_site_type_symbol
 _atom_site_label
 _atom_site_symmetry_multiplicity
 _atom_site_fract_x
 _atom_site_fract_y
 _atom_site_fract_z
 _atom_site_occupancy
  Ce  Ce0  1  0.293435  0.090495  0.368750  1
  Ce  Ce1  1  0.289477  0.911779  0.868104  1
  Ce  Ce2  1  0.710427  0.089348  0.870820  1
  Ce  Ce3  1  0.708849  0.910230  0.365996  1
  Ce  Ce4  1  0.588605  0.790376  0.867734  1
  Ce  Ce5  1  0.590662  0.211006  0.371279  1
  Ce  Ce6  1  0.409933  0.788779  0.369501  1
  Ce  Ce7  1  0.408446  0.209779  0.870860  1
  Ce  Ce8  1  0.206960  0.407483  0.630059  1
  Ce  Ce9  1  0.207436  0.585834  0.130180  1
  Ce  Ce10  1  0.794055  0.410955  0.129809  1
  Ce  Ce11  1  0.789871  0.590613  0.632825  1
  Ce  Ce12  1  0.909486  0.710580  0.131834  1
  Ce  Ce13  1  0.914271  0.290333  0.628983  1
  Ce  Ce14  1  0.088899  0.710517  0.630045  1
  Ce  Ce15  1  0.998436  0.999234  0.476662  1
  Ce  Ce16  1  0.000429  0.999892  0.017580  1
  Ce  Ce17  1  0.498449  0.497901  0.981370  1
  Ce  Ce18  1  0.501546  0.500535  0.525815  1
  Er  Er19  1  0.088298  0.291203  0.129181  1
  Ir  Ir20  1  0.842093  0.161095  0.247455  1
  Ir  Ir21  1  0.846451  0.848188  0.749969  1
  Ir  Ir22  1  0.152245  0.149861  0.745307  1
  Ir  Ir23  1  0.161515  0.840910  0.250932  1
  Ir  Ir24  1  0.662109  0.338695  0.752359  1
  Ir  Ir25  1  0.650594  0.652498  0.249182  1
  Ir  Ir26  1  0.349756  0.345896  0.255526  1
  Ir  Ir27  1  0.338688  0.659903  0.751666  1
  Os  Os28  1  0.500076  0.000224  0.115948  1
  Os  Os29  1  0.500775  0.999928  0.616152  1
  Os  Os30  1  0.999535  0.502075  0.883434  1
  Os  Os31  1  0.998194  0.503854  0.384686  1
