# generated using pymatgen
data_LaDy2ThSe6
_symmetry_space_group_name_H-M   'P 1'
_cell_length_a   11.30312200
_cell_length_b   4.14950700
_cell_length_c   10.98646000
_cell_angle_alpha   90.00000000
_cell_angle_beta   90.00000000
_cell_angle_gamma   90.00000000
_symmetry_Int_Tables_number   1
_chemical_formula_structural   LaDy2ThSe6
_chemical_formula_sum   'La2 Dy4 Th2 Se12'
_cell_volume   515.29116419
_cell_formula_units_Z   2
loop_
 _symmetry_equiv_pos_site_id
 _symmetry_equiv_pos_as_xyz
  1  'x, y, z'
loop_
 _atom_site_type_symbol
 _atom_site_label
 _atom_site_symmetry_multiplicity
 _atom_site_fract_x
 _atom_site_fract_y
 _atom_site_fract_z
 _atom_site_occupancy
  La  La0  1  0.697435  0.750000  0.497240  1
  La  La1  1  0.197435  0.750000  0.002760  1
  Dy  Dy2  1  0.485235  0.250000  0.188628  1
  Dy  Dy3  1  0.985235  0.250000  0.311372  1
  Dy  Dy4  1  0.514256  0.750000  0.813552  1
  Dy  Dy5  1  0.014256  0.750000  0.686448  1
  Th  Th6  1  0.304723  0.250000  0.497427  1
  Th  Th7  1  0.804723  0.250000  0.002573  1
  Se  Se8  1  0.542174  0.250000  0.630810  1
  Se  Se9  1  0.042174  0.250000  0.869190  1
  Se  Se10  1  0.451035  0.750000  0.369905  1
  Se  Se11  1  0.951035  0.750000  0.130095  1
  Se  Se12  1  0.616241  0.750000  0.054445  1
  Se  Se13  1  0.116241  0.750000  0.445555  1
  Se  Se14  1  0.387281  0.250000  0.944998  1
  Se  Se15  1  0.887281  0.250000  0.555002  1
  Se  Se16  1  0.727677  0.250000  0.290949  1
  Se  Se17  1  0.227677  0.250000  0.209051  1
  Se  Se18  1  0.273944  0.750000  0.699716  1
  Se  Se19  1  0.773944  0.750000  0.800284  1
