# generated using pymatgen
data_Er5Th5Ru6
_symmetry_space_group_name_H-M   'P 1'
_cell_length_a   8.27515714
_cell_length_b   8.17923565
_cell_length_c   6.45215300
_cell_angle_alpha   90.00000000
_cell_angle_beta   90.00000000
_cell_angle_gamma   119.61729139
_symmetry_Int_Tables_number   1
_chemical_formula_structural   Er5Th5Ru6
_chemical_formula_sum   'Er5 Th5 Ru6'
_cell_volume   379.65244288
_cell_formula_units_Z   1
loop_
 _symmetry_equiv_pos_site_id
 _symmetry_equiv_pos_as_xyz
  1  'x, y, z'
loop_
 _atom_site_type_symbol
 _atom_site_label
 _atom_site_symmetry_multiplicity
 _atom_site_fract_x
 _atom_site_fract_y
 _atom_site_fract_z
 _atom_site_occupancy
  Er  Er0  1  0.668286  0.336484  0.500973  1
  Er  Er1  1  0.331714  0.668199  0.500973  1
  Er  Er2  1  0.331714  0.668199  0.999027  1
  Er  Er3  1  0.668286  0.336484  0.999027  1
  Er  Er4  1  0.000000  0.742402  0.750000  1
  Th  Th5  1  0.750712  0.748795  0.250000  1
  Th  Th6  1  0.249288  0.998084  0.250000  1
  Th  Th7  1  0.000000  0.252785  0.250000  1
  Th  Th8  1  0.250303  0.246657  0.750000  1
  Th  Th9  1  0.749697  0.996354  0.750000  1
  Ru  Ru10  1  0.376328  0.378886  0.250000  1
  Ru  Ru11  1  0.623672  0.002558  0.250000  1
  Ru  Ru12  1  0.000000  0.619391  0.250000  1
  Ru  Ru13  1  0.605391  0.616303  0.750000  1
  Ru  Ru14  1  0.394609  0.010913  0.750000  1
  Ru  Ru15  1  0.000000  0.377507  0.750000  1
