# generated using pymatgen
data_Er11In9Co4
_symmetry_space_group_name_H-M   'P 1'
_cell_length_a   12.83625502
_cell_length_b   12.83625508
_cell_length_c   3.59645800
_cell_angle_alpha   90.00000000
_cell_angle_beta   90.00000000
_cell_angle_gamma   110.82912020
_symmetry_Int_Tables_number   1
_chemical_formula_structural   Er11In9Co4
_chemical_formula_sum   'Er11 In9 Co4'
_cell_volume   553.85794541
_cell_formula_units_Z   1
loop_
 _symmetry_equiv_pos_site_id
 _symmetry_equiv_pos_as_xyz
  1  'x, y, z'
loop_
 _atom_site_type_symbol
 _atom_site_label
 _atom_site_symmetry_multiplicity
 _atom_site_fract_x
 _atom_site_fract_y
 _atom_site_fract_z
 _atom_site_occupancy
  Er  Er0  1  0.419041  0.080841  0.000000  1
  Er  Er1  1  0.580959  0.919159  0.000000  1
  Er  Er2  1  0.080841  0.419041  0.000000  1
  Er  Er3  1  0.919159  0.580959  0.000000  1
  Er  Er4  1  0.159875  0.840125  0.000000  1
  Er  Er5  1  0.840125  0.159875  0.000000  1
  Er  Er6  1  0.375873  0.624127  0.000000  1
  Er  Er7  1  0.624127  0.375873  0.000000  1
  Er  Er8  1  0.314894  0.314894  0.000000  1
  Er  Er9  1  0.685106  0.685106  0.000000  1
  Er  Er10  1  0.000000  0.000000  0.000000  1
  In  In11  1  0.368810  0.839248  0.500000  1
  In  In12  1  0.631190  0.160752  0.500000  1
  In  In13  1  0.839248  0.368810  0.500000  1
  In  In14  1  0.160752  0.631190  0.500000  1
  In  In15  1  0.221193  0.079619  0.500000  1
  In  In16  1  0.778807  0.920381  0.500000  1
  In  In17  1  0.079619  0.221193  0.500000  1
  In  In18  1  0.920381  0.778807  0.500000  1
  In  In19  1  0.500000  0.500000  0.500000  1
  Co  Co20  1  0.449954  0.245766  0.500000  1
  Co  Co21  1  0.550046  0.754234  0.500000  1
  Co  Co22  1  0.245766  0.449954  0.500000  1
  Co  Co23  1  0.754234  0.550046  0.500000  1
