# generated using pymatgen
data_Hf4MnNi(As2Ru)2
_symmetry_space_group_name_H-M   'P 1'
_cell_length_a   3.87488700
_cell_length_b   6.54261139
_cell_length_c   7.58006800
_cell_angle_alpha   89.98009095
_cell_angle_beta   90.00000000
_cell_angle_gamma   90.00000000
_symmetry_Int_Tables_number   1
_chemical_formula_structural   Hf4MnNi(As2Ru)2
_chemical_formula_sum   'Hf4 Mn1 Ni1 As4 Ru2'
_cell_volume   192.16896127
_cell_formula_units_Z   1
loop_
 _symmetry_equiv_pos_site_id
 _symmetry_equiv_pos_as_xyz
  1  'x, y, z'
loop_
 _atom_site_type_symbol
 _atom_site_label
 _atom_site_symmetry_multiplicity
 _atom_site_fract_x
 _atom_site_fract_y
 _atom_site_fract_z
 _atom_site_occupancy
  Hf  Hf0  1  0.250000  0.469431  0.179287  1
  Hf  Hf1  1  0.750000  0.534259  0.816696  1
  Hf  Hf2  1  0.750000  0.028446  0.679951  1
  Hf  Hf3  1  0.250000  0.968182  0.322167  1
  Mn  Mn4  1  0.250000  0.857688  0.938796  1
  Ni  Ni5  1  0.250000  0.352534  0.561278  1
  As  As6  1  0.250000  0.740528  0.628105  1
  As  As7  1  0.750000  0.262750  0.379081  1
  As  As8  1  0.750000  0.763138  0.124839  1
  As  As9  1  0.250000  0.240625  0.868534  1
  Ru  Ru10  1  0.750000  0.142055  0.060464  1
  Ru  Ru11  1  0.750000  0.640365  0.440800  1
