# generated using pymatgen
data_LaSeBr
_symmetry_space_group_name_H-M   'P 1'
_cell_length_a   7.42048700
_cell_length_b   7.37074822
_cell_length_c   7.33610118
_cell_angle_alpha   79.32053675
_cell_angle_beta   90.00000000
_cell_angle_gamma   90.00000000
_symmetry_Int_Tables_number   1
_chemical_formula_structural   LaSeBr
_chemical_formula_sum   'La4 Se4 Br4'
_cell_volume   394.29484345
_cell_formula_units_Z   4
loop_
 _symmetry_equiv_pos_site_id
 _symmetry_equiv_pos_as_xyz
  1  'x, y, z'
loop_
 _atom_site_type_symbol
 _atom_site_label
 _atom_site_symmetry_multiplicity
 _atom_site_fract_x
 _atom_site_fract_y
 _atom_site_fract_z
 _atom_site_occupancy
  La  La0  1  0.959722  0.793782  0.310138  1
  La  La1  1  0.040278  0.206218  0.689862  1
  La  La2  1  0.459722  0.706218  0.689862  1
  La  La3  1  0.540278  0.293782  0.310138  1
  Se  Se4  1  0.741651  0.990076  0.557165  1
  Se  Se5  1  0.258349  0.009924  0.442835  1
  Se  Se6  1  0.241651  0.509924  0.442835  1
  Se  Se7  1  0.758349  0.490076  0.557165  1
  Br  Br8  1  0.628582  0.695447  0.078873  1
  Br  Br9  1  0.371418  0.304553  0.921127  1
  Br  Br10  1  0.128582  0.804553  0.921127  1
  Br  Br11  1  0.871418  0.195447  0.078873  1
