# generated using pymatgen
data_CeLuB6Mo
_symmetry_space_group_name_H-M   'P 1'
_cell_length_a   3.71064800
_cell_length_b   9.20149300
_cell_length_c   11.60664600
_cell_angle_alpha   90.00000000
_cell_angle_beta   90.00000000
_cell_angle_gamma   90.00000000
_symmetry_Int_Tables_number   1
_chemical_formula_structural   CeLuB6Mo
_chemical_formula_sum   'Ce4 Lu4 B24 Mo4'
_cell_volume   396.29153624
_cell_formula_units_Z   4
loop_
 _symmetry_equiv_pos_site_id
 _symmetry_equiv_pos_as_xyz
  1  'x, y, z'
loop_
 _atom_site_type_symbol
 _atom_site_label
 _atom_site_symmetry_multiplicity
 _atom_site_fract_x
 _atom_site_fract_y
 _atom_site_fract_z
 _atom_site_occupancy
  Ce  Ce0  1  0.000000  0.321787  0.414264  1
  Ce  Ce1  1  0.000000  0.678213  0.585736  1
  Ce  Ce2  1  0.000000  0.821787  0.085736  1
  Ce  Ce3  1  0.000000  0.178213  0.914264  1
  Lu  Lu4  1  0.000000  0.943764  0.370941  1
  Lu  Lu5  1  0.000000  0.056236  0.629059  1
  Lu  Lu6  1  0.000000  0.443764  0.129059  1
  Lu  Lu7  1  0.000000  0.556236  0.870941  1
  B  B8  1  0.500000  0.553741  0.432515  1
  B  B9  1  0.500000  0.446259  0.567485  1
  B  B10  1  0.500000  0.053741  0.067485  1
  B  B11  1  0.500000  0.946259  0.932515  1
  B  B12  1  0.500000  0.752257  0.418438  1
  B  B13  1  0.500000  0.247743  0.581562  1
  B  B14  1  0.500000  0.252257  0.081562  1
  B  B15  1  0.500000  0.747743  0.918438  1
  B  B16  1  0.500000  0.794143  0.264625  1
  B  B17  1  0.500000  0.205857  0.735375  1
  B  B18  1  0.500000  0.294143  0.235375  1
  B  B19  1  0.500000  0.705857  0.764625  1
  B  B20  1  0.500000  0.630232  0.183854  1
  B  B21  1  0.500000  0.369768  0.816146  1
  B  B22  1  0.500000  0.130232  0.316146  1
  B  B23  1  0.500000  0.869768  0.683854  1
  B  B24  1  0.500000  0.981396  0.213387  1
  B  B25  1  0.500000  0.018604  0.786613  1
  B  B26  1  0.500000  0.481396  0.286613  1
  B  B27  1  0.500000  0.518604  0.713387  1
  B  B28  1  0.500000  0.598282  0.027232  1
  B  B29  1  0.500000  0.401718  0.972768  1
  B  B30  1  0.500000  0.098282  0.472768  1
  B  B31  1  0.500000  0.901718  0.527232  1
  Mo  Mo32  1  0.000000  0.640069  0.319755  1
  Mo  Mo33  1  0.000000  0.359931  0.680245  1
  Mo  Mo34  1  0.000000  0.140069  0.180245  1
  Mo  Mo35  1  0.000000  0.859931  0.819755  1
