# generated using pymatgen
data_Hf5AlSnBi
_symmetry_space_group_name_H-M   'P 1'
_cell_length_a   5.56368291
_cell_length_b   8.36791700
_cell_length_c   8.37768591
_cell_angle_alpha   83.66229421
_cell_angle_beta   70.60652035
_cell_angle_gamma   70.58298200
_symmetry_Int_Tables_number   1
_chemical_formula_structural   Hf5AlSnBi
_chemical_formula_sum   'Hf10 Al2 Sn2 Bi2'
_cell_volume   346.97981565
_cell_formula_units_Z   2
loop_
 _symmetry_equiv_pos_site_id
 _symmetry_equiv_pos_as_xyz
  1  'x, y, z'
loop_
 _atom_site_type_symbol
 _atom_site_label
 _atom_site_symmetry_multiplicity
 _atom_site_fract_x
 _atom_site_fract_y
 _atom_site_fract_z
 _atom_site_occupancy
  Hf  Hf0  1  0.071292  0.142153  0.715263  1
  Hf  Hf1  1  0.928708  0.857847  0.284737  1
  Hf  Hf2  1  0.787423  0.290920  0.134234  1
  Hf  Hf3  1  0.421657  0.290920  0.865766  1
  Hf  Hf4  1  0.212577  0.709080  0.865766  1
  Hf  Hf5  1  0.578343  0.709080  0.134234  1
  Hf  Hf6  1  0.713445  0.857847  0.715263  1
  Hf  Hf7  1  0.286555  0.142153  0.284737  1
  Hf  Hf8  1  0.246156  0.500000  0.500000  1
  Hf  Hf9  1  0.753844  0.500000  0.500000  1
  Al  Al10  1  0.250000  0.000000  0.000000  1
  Al  Al11  1  0.750000  0.000000  0.000000  1
  Sn  Sn12  1  0.163782  0.500000  0.172436  1
  Sn  Sn13  1  0.836218  0.500000  0.827564  1
  Bi  Bi14  1  0.333962  0.832075  0.500000  1
  Bi  Bi15  1  0.666038  0.167925  0.500000  1
