# generated using pymatgen
data_TbDy3Al3ZnPt4
_symmetry_space_group_name_H-M   'P 1'
_cell_length_a   4.43461000
_cell_length_b   6.83253387
_cell_length_c   7.81534249
_cell_angle_alpha   89.83474091
_cell_angle_beta   90.00000000
_cell_angle_gamma   90.00000000
_symmetry_Int_Tables_number   1
_chemical_formula_structural   TbDy3Al3ZnPt4
_chemical_formula_sum   'Tb1 Dy3 Al3 Zn1 Pt4'
_cell_volume   236.80094629
_cell_formula_units_Z   1
loop_
 _symmetry_equiv_pos_site_id
 _symmetry_equiv_pos_as_xyz
  1  'x, y, z'
loop_
 _atom_site_type_symbol
 _atom_site_label
 _atom_site_symmetry_multiplicity
 _atom_site_fract_x
 _atom_site_fract_y
 _atom_site_fract_z
 _atom_site_occupancy
  Tb  Tb0  1  0.750000  0.533071  0.821000  1
  Dy  Dy1  1  0.250000  0.471904  0.181905  1
  Dy  Dy2  1  0.750000  0.029342  0.683235  1
  Dy  Dy3  1  0.250000  0.971166  0.314375  1
  Al  Al4  1  0.750000  0.145484  0.063123  1
  Al  Al5  1  0.750000  0.644154  0.439336  1
  Al  Al6  1  0.250000  0.351241  0.561896  1
  Zn  Zn7  1  0.250000  0.849804  0.934025  1
  Pt  Pt8  1  0.250000  0.726000  0.608395  1
  Pt  Pt9  1  0.750000  0.271553  0.382986  1
  Pt  Pt10  1  0.750000  0.771183  0.126226  1
  Pt  Pt11  1  0.250000  0.235099  0.883498  1
