# generated using pymatgen
data_PrTm4P12Ir10Ru9
_symmetry_space_group_name_H-M   'P 1'
_cell_length_a   12.64869013
_cell_length_b   12.64868951
_cell_length_c   3.95176400
_cell_angle_alpha   90.00000000
_cell_angle_beta   90.00000000
_cell_angle_gamma   119.98387242
_symmetry_Int_Tables_number   1
_chemical_formula_structural   PrTm4P12Ir10Ru9
_chemical_formula_sum   'Pr1 Tm4 P12 Ir10 Ru9'
_cell_volume   547.62500782
_cell_formula_units_Z   1
loop_
 _symmetry_equiv_pos_site_id
 _symmetry_equiv_pos_as_xyz
  1  'x, y, z'
loop_
 _atom_site_type_symbol
 _atom_site_label
 _atom_site_symmetry_multiplicity
 _atom_site_fract_x
 _atom_site_fract_y
 _atom_site_fract_z
 _atom_site_occupancy
  Pr  Pr0  1  0.187595  0.187595  0.000000  1
  Tm  Tm1  1  0.333737  0.666744  0.500000  1
  Tm  Tm2  1  0.666744  0.333737  0.500000  1
  Tm  Tm3  1  0.811517  0.999600  0.000000  1
  Tm  Tm4  1  0.999600  0.811517  0.000000  1
  P  P5  1  0.308285  0.825926  0.000000  1
  P  P6  1  0.173212  0.481198  0.000000  1
  P  P7  1  0.519396  0.692641  0.000000  1
  P  P8  1  0.825926  0.308285  0.000000  1
  P  P9  1  0.481198  0.173212  0.000000  1
  P  P10  1  0.692641  0.519396  0.000000  1
  P  P11  1  0.366427  0.366427  0.500000  1
  P  P12  1  0.637437  0.999971  0.500000  1
  P  P13  1  0.999971  0.637437  0.500000  1
  P  P14  1  0.817912  0.817912  0.500000  1
  P  P15  1  0.180175  0.996798  0.500000  1
  P  P16  1  0.996798  0.180175  0.500000  1
  Ir  Ir17  1  0.130553  0.635912  0.000000  1
  Ir  Ir18  1  0.364754  0.495394  0.000000  1
  Ir  Ir19  1  0.506124  0.869527  0.000000  1
  Ir  Ir20  1  0.635912  0.130553  0.000000  1
  Ir  Ir21  1  0.495394  0.364754  0.000000  1
  Ir  Ir22  1  0.869527  0.506124  0.000000  1
  Ir  Ir23  1  0.714114  0.714114  0.000000  1
  Ir  Ir24  1  0.286601  0.998195  0.000000  1
  Ir  Ir25  1  0.998195  0.286601  0.000000  1
  Ir  Ir26  1  0.996926  0.996926  0.500000  1
  Ru  Ru27  1  0.195316  0.816828  0.500000  1
  Ru  Ru28  1  0.181623  0.381667  0.500000  1
  Ru  Ru29  1  0.622396  0.804636  0.500000  1
  Ru  Ru30  1  0.816828  0.195316  0.500000  1
  Ru  Ru31  1  0.381667  0.181623  0.500000  1
  Ru  Ru32  1  0.804636  0.622396  0.500000  1
  Ru  Ru33  1  0.548734  0.548734  0.500000  1
  Ru  Ru34  1  0.453096  0.999031  0.500000  1
  Ru  Ru35  1  0.999031  0.453096  0.500000  1
