# generated using pymatgen
data_Tb2Er3In4AgPt
_symmetry_space_group_name_H-M   'P 1'
_cell_length_a   3.63438500
_cell_length_b   8.18362140
_cell_length_c   18.40535756
_cell_angle_alpha   90.04764109
_cell_angle_beta   90.00000000
_cell_angle_gamma   90.00000000
_symmetry_Int_Tables_number   1
_chemical_formula_structural   Tb2Er3In4AgPt
_chemical_formula_sum   'Tb4 Er6 In8 Ag2 Pt2'
_cell_volume   547.41988553
_cell_formula_units_Z   2
loop_
 _symmetry_equiv_pos_site_id
 _symmetry_equiv_pos_as_xyz
  1  'x, y, z'
loop_
 _atom_site_type_symbol
 _atom_site_label
 _atom_site_symmetry_multiplicity
 _atom_site_fract_x
 _atom_site_fract_y
 _atom_site_fract_z
 _atom_site_occupancy
  Tb  Tb0  1  0.000000  0.122375  0.421500  1
  Tb  Tb1  1  0.000000  0.877625  0.578500  1
  Tb  Tb2  1  0.000000  0.000000  0.000000  1
  Tb  Tb3  1  0.000000  0.500000  0.500000  1
  Er  Er4  1  0.000000  0.383601  0.915982  1
  Er  Er5  1  0.000000  0.616399  0.084018  1
  Er  Er6  1  0.000000  0.256816  0.215762  1
  Er  Er7  1  0.000000  0.743184  0.784238  1
  Er  Er8  1  0.000000  0.274203  0.721184  1
  Er  Er9  1  0.000000  0.725797  0.278816  1
  In  In10  1  0.500000  0.420604  0.351608  1
  In  In11  1  0.500000  0.579396  0.648392  1
  In  In12  1  0.500000  0.077163  0.851554  1
  In  In13  1  0.500000  0.922837  0.148446  1
  In  In14  1  0.500000  0.293107  0.065564  1
  In  In15  1  0.500000  0.706893  0.934436  1
  In  In16  1  0.500000  0.209209  0.569615  1
  In  In17  1  0.500000  0.790791  0.430385  1
  Ag  Ag18  1  0.500000  0.025807  0.301313  1
  Ag  Ag19  1  0.500000  0.974193  0.698687  1
  Pt  Pt20  1  0.500000  0.472926  0.804120  1
  Pt  Pt21  1  0.500000  0.527074  0.195880  1
