# generated using pymatgen
data_DyLu2Al12Ru3Rh
_symmetry_space_group_name_H-M   'P 1'
_cell_length_a   8.75718838
_cell_length_b   8.75718899
_cell_length_c   9.55853700
_cell_angle_alpha   90.00000000
_cell_angle_beta   90.00000000
_cell_angle_gamma   119.83992760
_symmetry_Int_Tables_number   1
_chemical_formula_structural   DyLu2Al12Ru3Rh
_chemical_formula_sum   'Dy2 Lu4 Al24 Ru6 Rh2'
_cell_volume   635.84275849
_cell_formula_units_Z   2
loop_
 _symmetry_equiv_pos_site_id
 _symmetry_equiv_pos_as_xyz
  1  'x, y, z'
loop_
 _atom_site_type_symbol
 _atom_site_label
 _atom_site_symmetry_multiplicity
 _atom_site_fract_x
 _atom_site_fract_y
 _atom_site_fract_z
 _atom_site_occupancy
  Dy  Dy0  1  0.811583  0.615845  0.750000  1
  Dy  Dy1  1  0.384155  0.188417  0.750000  1
  Lu  Lu2  1  0.195726  0.804274  0.250000  1
  Lu  Lu3  1  0.189919  0.387902  0.250000  1
  Lu  Lu4  1  0.612098  0.810081  0.250000  1
  Lu  Lu5  1  0.804192  0.195808  0.750000  1
  Al  Al6  1  0.560566  0.439434  0.250000  1
  Al  Al7  1  0.560929  0.123395  0.250000  1
  Al  Al8  1  0.876605  0.439071  0.250000  1
  Al  Al9  1  0.438478  0.561522  0.750000  1
  Al  Al10  1  0.439531  0.875529  0.750000  1
  Al  Al11  1  0.124471  0.560469  0.750000  1
  Al  Al12  1  0.324655  0.161380  0.420241  1
  Al  Al13  1  0.837150  0.162850  0.421642  1
  Al  Al14  1  0.838620  0.675345  0.420241  1
  Al  Al15  1  0.674818  0.838545  0.577172  1
  Al  Al16  1  0.163759  0.836241  0.576363  1
  Al  Al17  1  0.161455  0.325182  0.577172  1
  Al  Al18  1  0.674818  0.838545  0.922828  1
  Al  Al19  1  0.163759  0.836241  0.923637  1
  Al  Al20  1  0.161455  0.325182  0.922828  1
  Al  Al21  1  0.324655  0.161380  0.079759  1
  Al  Al22  1  0.837150  0.162850  0.078358  1
  Al  Al23  1  0.838620  0.675345  0.079759  1
  Al  Al24  1  0.667371  0.332629  0.520873  1
  Al  Al25  1  0.332953  0.667047  0.476291  1
  Al  Al26  1  0.332953  0.667047  0.023709  1
  Al  Al27  1  0.667371  0.332629  0.979127  1
  Al  Al28  1  0.999732  0.000268  0.250000  1
  Al  Al29  1  0.998580  0.001420  0.750000  1
  Ru  Ru30  1  0.000276  0.999724  0.500058  1
  Ru  Ru31  1  0.000276  0.999724  0.999942  1
  Ru  Ru32  1  0.500428  0.999178  0.499096  1
  Ru  Ru33  1  0.000822  0.499572  0.499096  1
  Ru  Ru34  1  0.500428  0.999178  0.000904  1
  Ru  Ru35  1  0.000822  0.499572  0.000904  1
  Rh  Rh36  1  0.499411  0.500589  0.498195  1
  Rh  Rh37  1  0.499411  0.500589  0.001805  1
