# generated using pymatgen
data_TbLu2Ga6(CuNi2)3
_symmetry_space_group_name_H-M   'P 1'
_cell_length_a   8.75043200
_cell_length_b   8.75043201
_cell_length_c   4.10716400
_cell_angle_alpha   90.00000000
_cell_angle_beta   90.00000000
_cell_angle_gamma   119.99999239
_symmetry_Int_Tables_number   1
_chemical_formula_structural   TbLu2Ga6(CuNi2)3
_chemical_formula_sum   'Tb1 Lu2 Ga6 Cu3 Ni6'
_cell_volume   272.35270866
_cell_formula_units_Z   1
loop_
 _symmetry_equiv_pos_site_id
 _symmetry_equiv_pos_as_xyz
  1  'x, y, z'
loop_
 _atom_site_type_symbol
 _atom_site_label
 _atom_site_symmetry_multiplicity
 _atom_site_fract_x
 _atom_site_fract_y
 _atom_site_fract_z
 _atom_site_occupancy
  Tb  Tb0  1  0.666667  0.333333  0.500000  1
  Lu  Lu1  1  0.333333  0.666667  0.500000  1
  Lu  Lu2  1  0.000000  0.000000  0.000000  1
  Ga  Ga3  1  0.484133  0.484146  0.000000  1
  Ga  Ga4  1  0.515854  0.999987  0.000000  1
  Ga  Ga5  1  0.000013  0.515867  0.000000  1
  Ga  Ga6  1  0.722936  0.723560  0.500000  1
  Ga  Ga7  1  0.276440  0.999375  0.500000  1
  Ga  Ga8  1  0.000625  0.277064  0.500000  1
  Cu  Cu9  1  0.293879  0.295007  0.500000  1
  Cu  Cu10  1  0.704993  0.998872  0.500000  1
  Cu  Cu11  1  0.001128  0.706121  0.500000  1
  Ni  Ni12  1  0.827035  0.196740  0.000000  1
  Ni  Ni13  1  0.803260  0.630295  0.000000  1
  Ni  Ni14  1  0.369705  0.172965  0.000000  1
  Ni  Ni15  1  0.198657  0.825252  0.000000  1
  Ni  Ni16  1  0.626595  0.801343  0.000000  1
  Ni  Ni17  1  0.174748  0.373405  0.000000  1
