# generated using pymatgen
data_Tc(NiSb4)3
_symmetry_space_group_name_H-M   'P 1'
_cell_length_a   8.06128569
_cell_length_b   8.06128592
_cell_length_c   8.02875600
_cell_angle_alpha   109.38949713
_cell_angle_beta   109.38949771
_cell_angle_gamma   109.55281921
_symmetry_Int_Tables_number   1
_chemical_formula_structural   Tc(NiSb4)3
_chemical_formula_sum   'Tc1 Ni3 Sb12'
_cell_volume   402.04256569
_cell_formula_units_Z   1
loop_
 _symmetry_equiv_pos_site_id
 _symmetry_equiv_pos_as_xyz
  1  'x, y, z'
loop_
 _atom_site_type_symbol
 _atom_site_label
 _atom_site_symmetry_multiplicity
 _atom_site_fract_x
 _atom_site_fract_y
 _atom_site_fract_z
 _atom_site_occupancy
  Tc  Tc0  1  0.000000  0.000000  0.500000  1
  Ni  Ni1  1  0.500000  0.000000  0.000000  1
  Ni  Ni2  1  0.000000  0.500000  0.000000  1
  Ni  Ni3  1  0.500000  0.500000  0.500000  1
  Sb  Sb4  1  0.158759  0.818411  0.664890  1
  Sb  Sb5  1  0.841241  0.181589  0.335110  1
  Sb  Sb6  1  0.838916  0.502595  0.661172  1
  Sb  Sb7  1  0.161084  0.497405  0.338828  1
  Sb  Sb8  1  0.818411  0.659653  0.153521  1
  Sb  Sb9  1  0.181589  0.340347  0.846479  1
  Sb  Sb10  1  0.502595  0.663677  0.841421  1
  Sb  Sb11  1  0.497405  0.336323  0.158579  1
  Sb  Sb12  1  0.663677  0.161084  0.822256  1
  Sb  Sb13  1  0.336323  0.838916  0.177744  1
  Sb  Sb14  1  0.659653  0.841241  0.506133  1
  Sb  Sb15  1  0.340347  0.158759  0.493867  1
