# generated using pymatgen
data_SmHo3IrRh3O14
_symmetry_space_group_name_H-M   'P 1'
_cell_length_a   7.26592090
_cell_length_b   7.26592145
_cell_length_c   7.26592100
_cell_angle_alpha   59.60525297
_cell_angle_beta   59.60525043
_cell_angle_gamma   59.60525097
_symmetry_Int_Tables_number   1
_chemical_formula_structural   SmHo3IrRh3O14
_chemical_formula_sum   'Sm1 Ho3 Ir1 Rh3 O14'
_cell_volume   268.80850909
_cell_formula_units_Z   1
loop_
 _symmetry_equiv_pos_site_id
 _symmetry_equiv_pos_as_xyz
  1  'x, y, z'
loop_
 _atom_site_type_symbol
 _atom_site_label
 _atom_site_symmetry_multiplicity
 _atom_site_fract_x
 _atom_site_fract_y
 _atom_site_fract_z
 _atom_site_occupancy
  Sm  Sm0  1  0.125000  0.125000  0.125000  1
  Ho  Ho1  1  0.125000  0.625000  0.125000  1
  Ho  Ho2  1  0.625000  0.125000  0.125000  1
  Ho  Ho3  1  0.125000  0.125000  0.625000  1
  Ir  Ir4  1  0.625000  0.625000  0.625000  1
  Rh  Rh5  1  0.625000  0.625000  0.125000  1
  Rh  Rh6  1  0.125000  0.625000  0.625000  1
  Rh  Rh7  1  0.625000  0.125000  0.625000  1
  O  O8  1  0.253069  0.253069  0.253069  1
  O  O9  1  0.286829  0.706457  0.286829  1
  O  O10  1  0.963171  0.963171  0.543543  1
  O  O11  1  0.539154  0.958411  0.539154  1
  O  O12  1  0.710846  0.710846  0.291589  1
  O  O13  1  0.958411  0.539154  0.539154  1
  O  O14  1  0.710846  0.291589  0.710846  1
  O  O15  1  0.286829  0.286829  0.706457  1
  O  O16  1  0.706457  0.286829  0.286829  1
  O  O17  1  0.291589  0.710846  0.710846  1
  O  O18  1  0.963171  0.543543  0.963171  1
  O  O19  1  0.539154  0.539154  0.958411  1
  O  O20  1  0.996931  0.996931  0.996931  1
  O  O21  1  0.543543  0.963171  0.963171  1
