# generated using pymatgen
data_Th2(PPd)3
_symmetry_space_group_name_H-M   'P 1'
_cell_length_a   4.04129900
_cell_length_b   11.12808100
_cell_length_c   13.62743300
_cell_angle_alpha   90.00000000
_cell_angle_beta   90.00000000
_cell_angle_gamma   90.00000000
_symmetry_Int_Tables_number   1
_chemical_formula_structural   Th2(PPd)3
_chemical_formula_sum   'Th8 P12 Pd12'
_cell_volume   612.85158980
_cell_formula_units_Z   4
loop_
 _symmetry_equiv_pos_site_id
 _symmetry_equiv_pos_as_xyz
  1  'x, y, z'
loop_
 _atom_site_type_symbol
 _atom_site_label
 _atom_site_symmetry_multiplicity
 _atom_site_fract_x
 _atom_site_fract_y
 _atom_site_fract_z
 _atom_site_occupancy
  Th  Th0  1  0.250000  0.934821  0.789516  1
  Th  Th1  1  0.750000  0.434821  0.710484  1
  Th  Th2  1  0.250000  0.565179  0.289516  1
  Th  Th3  1  0.750000  0.065179  0.210484  1
  Th  Th4  1  0.250000  0.833406  0.502008  1
  Th  Th5  1  0.750000  0.333406  0.997992  1
  Th  Th6  1  0.250000  0.666594  0.002008  1
  Th  Th7  1  0.750000  0.166594  0.497992  1
  P  P8  1  0.250000  0.246592  0.645251  1
  P  P9  1  0.750000  0.746592  0.854749  1
  P  P10  1  0.250000  0.253408  0.145251  1
  P  P11  1  0.750000  0.753408  0.354749  1
  P  P12  1  0.250000  0.597692  0.600775  1
  P  P13  1  0.750000  0.097692  0.899225  1
  P  P14  1  0.250000  0.902308  0.100775  1
  P  P15  1  0.750000  0.402308  0.399225  1
  P  P16  1  0.250000  0.052703  0.374464  1
  P  P17  1  0.750000  0.552703  0.125536  1
  P  P18  1  0.250000  0.447297  0.874464  1
  P  P19  1  0.750000  0.947297  0.625536  1
  Pd  Pd20  1  0.250000  0.402408  0.510118  1
  Pd  Pd21  1  0.750000  0.902408  0.989882  1
  Pd  Pd22  1  0.250000  0.097592  0.010118  1
  Pd  Pd23  1  0.750000  0.597592  0.489882  1
  Pd  Pd24  1  0.250000  0.268405  0.335996  1
  Pd  Pd25  1  0.750000  0.768405  0.164004  1
  Pd  Pd26  1  0.250000  0.231595  0.835996  1
  Pd  Pd27  1  0.750000  0.731595  0.664004  1
  Pd  Pd28  1  0.250000  0.860804  0.283152  1
  Pd  Pd29  1  0.750000  0.360804  0.216848  1
  Pd  Pd30  1  0.250000  0.639196  0.783152  1
  Pd  Pd31  1  0.750000  0.139196  0.716848  1
