# generated using pymatgen
data_Np6Be3BRu10
_symmetry_space_group_name_H-M   'P 1'
_cell_length_a   9.81694749
_cell_length_b   9.81694825
_cell_length_c   3.22802900
_cell_angle_alpha   90.00000000
_cell_angle_beta   90.00000000
_cell_angle_gamma   90.69818732
_symmetry_Int_Tables_number   1
_chemical_formula_structural   Np6Be3BRu10
_chemical_formula_sum   'Np6 Be3 B1 Ru10'
_cell_volume   311.07001633
_cell_formula_units_Z   1
loop_
 _symmetry_equiv_pos_site_id
 _symmetry_equiv_pos_as_xyz
  1  'x, y, z'
loop_
 _atom_site_type_symbol
 _atom_site_label
 _atom_site_symmetry_multiplicity
 _atom_site_fract_x
 _atom_site_fract_y
 _atom_site_fract_z
 _atom_site_occupancy
  Np  Np0  1  0.827214  0.670622  0.000000  1
  Np  Np1  1  0.170622  0.327214  0.000000  1
  Np  Np2  1  0.327470  0.827470  0.000000  1
  Np  Np3  1  0.673909  0.173909  0.000000  1
  Np  Np4  1  0.498506  0.500315  0.000000  1
  Np  Np5  1  0.000315  0.998506  0.000000  1
  Be  Be6  1  0.622570  0.877886  0.000000  1
  Be  Be7  1  0.377886  0.122570  0.000000  1
  Be  Be8  1  0.122046  0.622046  0.000000  1
  B  B9  1  0.879333  0.379333  0.000000  1
  Ru  Ru10  1  0.572620  0.708930  0.500000  1
  Ru  Ru11  1  0.429528  0.290842  0.500000  1
  Ru  Ru12  1  0.071061  0.785355  0.500000  1
  Ru  Ru13  1  0.924808  0.221097  0.500000  1
  Ru  Ru14  1  0.285355  0.571061  0.500000  1
  Ru  Ru15  1  0.721097  0.424808  0.500000  1
  Ru  Ru16  1  0.208930  0.072620  0.500000  1
  Ru  Ru17  1  0.790842  0.929528  0.500000  1
  Ru  Ru18  1  0.499865  0.999865  0.500000  1
  Ru  Ru19  1  0.996026  0.496026  0.500000  1
