# generated using pymatgen
data_Y3CoSn3PtRh
_symmetry_space_group_name_H-M   'P 1'
_cell_length_a   7.56900500
_cell_length_b   7.56900422
_cell_length_c   3.82019900
_cell_angle_alpha   90.00000000
_cell_angle_beta   90.00000000
_cell_angle_gamma   119.99999904
_symmetry_Int_Tables_number   1
_chemical_formula_structural   Y3CoSn3PtRh
_chemical_formula_sum   'Y3 Co1 Sn3 Pt1 Rh1'
_cell_volume   189.53706970
_cell_formula_units_Z   1
loop_
 _symmetry_equiv_pos_site_id
 _symmetry_equiv_pos_as_xyz
  1  'x, y, z'
loop_
 _atom_site_type_symbol
 _atom_site_label
 _atom_site_symmetry_multiplicity
 _atom_site_fract_x
 _atom_site_fract_y
 _atom_site_fract_z
 _atom_site_occupancy
  Y  Y0  1  0.406972  0.004745  0.500000  1
  Y  Y1  1  0.995255  0.402227  0.500000  1
  Y  Y2  1  0.597773  0.593028  0.500000  1
  Co  Co3  1  0.000000  0.000000  0.500000  1
  Sn  Sn4  1  0.750608  0.004041  0.000000  1
  Sn  Sn5  1  0.995959  0.746568  0.000000  1
  Sn  Sn6  1  0.253432  0.249392  0.000000  1
  Pt  Pt7  1  0.333333  0.666667  0.000000  1
  Rh  Rh8  1  0.666667  0.333333  0.000000  1
