# generated using pymatgen
data_Cs2Zr3Ti4CI18
_symmetry_space_group_name_H-M   'P 1'
_cell_length_a   11.86576323
_cell_length_b   11.92634660
_cell_length_c   11.75433974
_cell_angle_alpha   55.83467789
_cell_angle_beta   55.60511761
_cell_angle_gamma   54.70289602
_symmetry_Int_Tables_number   1
_chemical_formula_structural   Cs2Zr3Ti4CI18
_chemical_formula_sum   'Cs2 Zr3 Ti4 C1 I18'
_cell_volume   1049.74055440
_cell_formula_units_Z   1
loop_
 _symmetry_equiv_pos_site_id
 _symmetry_equiv_pos_as_xyz
  1  'x, y, z'
loop_
 _atom_site_type_symbol
 _atom_site_label
 _atom_site_symmetry_multiplicity
 _atom_site_fract_x
 _atom_site_fract_y
 _atom_site_fract_z
 _atom_site_occupancy
  Cs  Cs0  1  0.224384  0.222800  0.222015  1
  Cs  Cs1  1  0.777724  0.776192  0.775044  1
  Zr  Zr2  1  0.502529  0.496759  0.501641  1
  Zr  Zr3  1  0.146533  0.910819  0.807580  1
  Zr  Zr4  1  0.808432  0.147097  0.909859  1
  Ti  Ti5  1  0.078287  0.172244  0.868229  1
  Ti  Ti6  1  0.867281  0.080134  0.173046  1
  Ti  Ti7  1  0.173871  0.867263  0.079088  1
  Ti  Ti8  1  0.921578  0.828390  0.130179  1
  C  C9  1  0.999080  0.001091  0.994052  1
  I  I10  1  0.326640  0.050572  0.935599  1
  I  I11  1  0.930537  0.325288  0.057234  1
  I  I12  1  0.054244  0.933322  0.327843  1
  I  I13  1  0.667688  0.938419  0.072649  1
  I  I14  1  0.063743  0.662478  0.951670  1
  I  I15  1  0.943147  0.070234  0.652579  1
  I  I16  1  0.217086  0.483902  0.644270  1
  I  I17  1  0.638972  0.214187  0.484283  1
  I  I18  1  0.479454  0.641774  0.219336  1
  I  I19  1  0.783129  0.516514  0.367882  1
  I  I20  1  0.356219  0.787086  0.531976  1
  I  I21  1  0.525931  0.354158  0.795637  1
  I  I22  1  0.408221  0.716429  0.883420  1
  I  I23  1  0.881006  0.404958  0.719493  1
  I  I24  1  0.727772  0.882205  0.392976  1
  I  I25  1  0.595069  0.279088  0.133527  1
  I  I26  1  0.124238  0.607290  0.271091  1
  I  I27  1  0.277201  0.129304  0.597804  1
