# generated using pymatgen
data_Zr5Ta(SiTc)6
_symmetry_space_group_name_H-M   'P 1'
_cell_length_a   7.76371447
_cell_length_b   7.76326598
_cell_length_c   7.76371370
_cell_angle_alpha   126.49761946
_cell_angle_beta   127.89932967
_cell_angle_gamma   77.93372022
_symmetry_Int_Tables_number   1
_chemical_formula_structural   Zr5Ta(SiTc)6
_chemical_formula_sum   'Zr5 Ta1 Si6 Tc6'
_cell_volume   287.67238301
_cell_formula_units_Z   1
loop_
 _symmetry_equiv_pos_site_id
 _symmetry_equiv_pos_as_xyz
  1  'x, y, z'
loop_
 _atom_site_type_symbol
 _atom_site_label
 _atom_site_symmetry_multiplicity
 _atom_site_fract_x
 _atom_site_fract_y
 _atom_site_fract_z
 _atom_site_occupancy
  Zr  Zr0  1  0.950319  0.909389  0.459070  1
  Zr  Zr1  1  0.046538  0.498833  0.952295  1
  Zr  Zr2  1  0.548818  0.508694  0.459875  1
  Zr  Zr3  1  0.454096  0.907357  0.953261  1
  Zr  Zr4  1  0.749639  0.097919  0.848281  1
  Ta  Ta5  1  0.250450  0.099966  0.349517  1
  Si  Si6  1  0.749526  0.503364  0.253837  1
  Si  Si7  1  0.250427  0.500703  0.750277  1
  Si  Si8  1  0.659704  0.169329  0.499313  1
  Si  Si9  1  0.328639  0.839743  0.498004  1
  Si  Si10  1  0.170015  0.169329  0.009625  1
  Si  Si11  1  0.841739  0.839743  0.011104  1
  Tc  Tc12  1  0.495141  0.757992  0.253114  1
  Tc  Tc13  1  0.004878  0.757992  0.762851  1
  Tc  Tc14  1  0.876361  0.248702  0.376444  1
  Tc  Tc15  1  0.126862  0.500020  0.375432  1
  Tc  Tc16  1  0.372258  0.248702  0.872340  1
  Tc  Tc17  1  0.624588  0.500020  0.873159  1
