# generated using pymatgen
data_Ho4Er8Ir3Os
_symmetry_space_group_name_H-M   'P 1'
_cell_length_a   6.38897300
_cell_length_b   7.26889200
_cell_length_c   9.03587500
_cell_angle_alpha   90.00000000
_cell_angle_beta   90.00000000
_cell_angle_gamma   89.99815554
_symmetry_Int_Tables_number   1
_chemical_formula_structural   Ho4Er8Ir3Os
_chemical_formula_sum   'Ho4 Er8 Ir3 Os1'
_cell_volume   419.63285463
_cell_formula_units_Z   1
loop_
 _symmetry_equiv_pos_site_id
 _symmetry_equiv_pos_as_xyz
  1  'x, y, z'
loop_
 _atom_site_type_symbol
 _atom_site_label
 _atom_site_symmetry_multiplicity
 _atom_site_fract_x
 _atom_site_fract_y
 _atom_site_fract_z
 _atom_site_occupancy
  Ho  Ho0  1  0.874505  0.534502  0.250000  1
  Ho  Ho1  1  0.624019  0.035671  0.250000  1
  Ho  Ho2  1  0.128429  0.464901  0.750000  1
  Ho  Ho3  1  0.374551  0.963541  0.750000  1
  Er  Er4  1  0.324995  0.678884  0.064023  1
  Er  Er5  1  0.171752  0.175258  0.436719  1
  Er  Er6  1  0.672887  0.323010  0.562270  1
  Er  Er7  1  0.830482  0.823581  0.940245  1
  Er  Er8  1  0.672887  0.323010  0.937730  1
  Er  Er9  1  0.830482  0.823581  0.559755  1
  Er  Er10  1  0.324995  0.678884  0.435977  1
  Er  Er11  1  0.171752  0.175258  0.063281  1
  Ir  Ir12  1  0.460100  0.386441  0.250000  1
  Ir  Ir13  1  0.961209  0.114841  0.750000  1
  Ir  Ir14  1  0.542248  0.613830  0.750000  1
  Os  Os15  1  0.034707  0.884807  0.250000  1
