# generated using pymatgen
data_Tb2U(AlRu)3
_symmetry_space_group_name_H-M   'P 1'
_cell_length_a   6.85542035
_cell_length_b   6.85542064
_cell_length_c   4.07748300
_cell_angle_alpha   90.00000000
_cell_angle_beta   90.00000000
_cell_angle_gamma   116.46409697
_symmetry_Int_Tables_number   1
_chemical_formula_structural   Tb2U(AlRu)3
_chemical_formula_sum   'Tb2 U1 Al3 Ru3'
_cell_volume   171.54857606
_cell_formula_units_Z   1
loop_
 _symmetry_equiv_pos_site_id
 _symmetry_equiv_pos_as_xyz
  1  'x, y, z'
loop_
 _atom_site_type_symbol
 _atom_site_label
 _atom_site_symmetry_multiplicity
 _atom_site_fract_x
 _atom_site_fract_y
 _atom_site_fract_z
 _atom_site_occupancy
  Tb  Tb0  1  0.419477  0.008489  0.500000  1
  Tb  Tb1  1  0.008489  0.419477  0.500000  1
  U  U2  1  0.608044  0.608044  0.500000  1
  Al  Al3  1  0.754470  0.021705  0.000000  1
  Al  Al4  1  0.021705  0.754470  0.000000  1
  Al  Al5  1  0.208299  0.208299  0.000000  1
  Ru  Ru6  1  0.381175  0.637010  0.000000  1
  Ru  Ru7  1  0.637010  0.381175  0.000000  1
  Ru  Ru8  1  0.961331  0.961331  0.500000  1
