# generated using pymatgen
data_ScAl7Cu5
_symmetry_space_group_name_H-M   'P 1'
_cell_length_a   5.10673258
_cell_length_b   6.59711681
_cell_length_c   6.59711780
_cell_angle_alpha   98.44076350
_cell_angle_beta   112.77061762
_cell_angle_gamma   67.22938806
_symmetry_Int_Tables_number   1
_chemical_formula_structural   ScAl7Cu5
_chemical_formula_sum   'Sc1 Al7 Cu5'
_cell_volume   188.95954530
_cell_formula_units_Z   1
loop_
 _symmetry_equiv_pos_site_id
 _symmetry_equiv_pos_as_xyz
  1  'x, y, z'
loop_
 _atom_site_type_symbol
 _atom_site_label
 _atom_site_symmetry_multiplicity
 _atom_site_fract_x
 _atom_site_fract_y
 _atom_site_fract_z
 _atom_site_occupancy
  Sc  Sc0  1  0.997060  0.002940  0.997060  1
  Al  Al1  1  0.650889  0.349111  0.650889  1
  Al  Al2  1  0.340225  0.659775  0.340225  1
  Al  Al3  1  0.993546  0.351033  0.338125  1
  Al  Al4  1  0.993546  0.661875  0.648967  1
  Al  Al5  1  0.273480  0.226520  0.773480  1
  Al  Al6  1  0.508032  0.787964  0.804030  1
  Al  Al7  1  0.508032  0.195970  0.212036  1
  Cu  Cu8  1  0.500398  0.000283  0.505195  1
  Cu  Cu9  1  0.004514  0.000283  0.505195  1
  Cu  Cu10  1  0.500398  0.494805  0.999717  1
  Cu  Cu11  1  0.004514  0.494805  0.999717  1
  Cu  Cu12  1  0.725363  0.774637  0.225363  1
