# generated using pymatgen
data_Y3Ho7Si6N
_symmetry_space_group_name_H-M   'P 1'
_cell_length_a   8.39474100
_cell_length_b   8.39474028
_cell_length_c   6.31269100
_cell_angle_alpha   90.00000000
_cell_angle_beta   90.00000000
_cell_angle_gamma   119.99999101
_symmetry_Int_Tables_number   1
_chemical_formula_structural   Y3Ho7Si6N
_chemical_formula_sum   'Y3 Ho7 Si6 N1'
_cell_volume   385.26518793
_cell_formula_units_Z   1
loop_
 _symmetry_equiv_pos_site_id
 _symmetry_equiv_pos_as_xyz
  1  'x, y, z'
loop_
 _atom_site_type_symbol
 _atom_site_label
 _atom_site_symmetry_multiplicity
 _atom_site_fract_x
 _atom_site_fract_y
 _atom_site_fract_z
 _atom_site_occupancy
  Y  Y0  1  0.000000  0.234004  0.733793  1
  Y  Y1  1  0.765996  0.765996  0.733793  1
  Y  Y2  1  0.234004  0.000000  0.733793  1
  Ho  Ho3  1  0.333333  0.666667  0.499717  1
  Ho  Ho4  1  0.666667  0.333333  0.499717  1
  Ho  Ho5  1  0.666667  0.333333  0.000333  1
  Ho  Ho6  1  0.333333  0.666667  0.000333  1
  Ho  Ho7  1  0.000000  0.767329  0.267372  1
  Ho  Ho8  1  0.232671  0.232671  0.267372  1
  Ho  Ho9  1  0.767329  0.000000  0.267372  1
  Si  Si10  1  0.000000  0.399730  0.251574  1
  Si  Si11  1  0.600270  0.600270  0.251574  1
  Si  Si12  1  0.399730  0.000000  0.251574  1
  Si  Si13  1  0.000000  0.599918  0.748346  1
  Si  Si14  1  0.400082  0.400082  0.748346  1
  Si  Si15  1  0.599918  0.000000  0.748346  1
  N  N16  1  0.000000  0.000000  0.496647  1
