# generated using pymatgen
data_Dy12InCo4Au
_symmetry_space_group_name_H-M   'P 1'
_cell_length_a   8.35658874
_cell_length_b   8.35658855
_cell_length_c   8.35658851
_cell_angle_alpha   111.11823912
_cell_angle_beta   110.39989231
_cell_angle_gamma   106.92597671
_symmetry_Int_Tables_number   1
_chemical_formula_structural   Dy12InCo4Au
_chemical_formula_sum   'Dy12 In1 Co4 Au1'
_cell_volume   448.54663735
_cell_formula_units_Z   1
loop_
 _symmetry_equiv_pos_site_id
 _symmetry_equiv_pos_as_xyz
  1  'x, y, z'
loop_
 _atom_site_type_symbol
 _atom_site_label
 _atom_site_symmetry_multiplicity
 _atom_site_fract_x
 _atom_site_fract_y
 _atom_site_fract_z
 _atom_site_occupancy
  Dy  Dy0  1  0.423940  0.219607  0.204334  1
  Dy  Dy1  1  0.576060  0.780393  0.795666  1
  Dy  Dy2  1  0.015273  0.219607  0.795666  1
  Dy  Dy3  1  0.984727  0.780393  0.204334  1
  Dy  Dy4  1  0.186413  0.292827  0.479240  1
  Dy  Dy5  1  0.813587  0.707173  0.520760  1
  Dy  Dy6  1  0.186413  0.707173  0.893587  1
  Dy  Dy7  1  0.813587  0.292827  0.106413  1
  Dy  Dy8  1  0.315807  0.620154  0.304347  1
  Dy  Dy9  1  0.684193  0.379846  0.695653  1
  Dy  Dy10  1  0.315807  0.011460  0.695653  1
  Dy  Dy11  1  0.684193  0.988540  0.304347  1
  In  In12  1  0.500000  0.500000  0.000000  1
  Co  Co13  1  0.379160  0.000000  0.379160  1
  Co  Co14  1  0.620840  0.000000  0.620840  1
  Co  Co15  1  0.111933  0.611933  0.500000  1
  Co  Co16  1  0.888067  0.388067  0.500000  1
  Au  Au17  1  0.000000  0.000000  0.000000  1
