# generated using pymatgen
data_Pr(OsO3)3
_symmetry_space_group_name_H-M   'P 1'
_cell_length_a   7.50115500
_cell_length_b   5.37414954
_cell_length_c   8.23341508
_cell_angle_alpha   85.45166888
_cell_angle_beta   90.00000000
_cell_angle_gamma   90.00000000
_symmetry_Int_Tables_number   1
_chemical_formula_structural   Pr(OsO3)3
_chemical_formula_sum   'Pr2 Os6 O18'
_cell_volume   330.86288884
_cell_formula_units_Z   2
loop_
 _symmetry_equiv_pos_site_id
 _symmetry_equiv_pos_as_xyz
  1  'x, y, z'
loop_
 _atom_site_type_symbol
 _atom_site_label
 _atom_site_symmetry_multiplicity
 _atom_site_fract_x
 _atom_site_fract_y
 _atom_site_fract_z
 _atom_site_occupancy
  Pr  Pr0  1  0.250000  0.972381  0.425292  1
  Pr  Pr1  1  0.750000  0.027619  0.574708  1
  Os  Os2  1  0.495375  0.534197  0.693574  1
  Os  Os3  1  0.004625  0.534197  0.693574  1
  Os  Os4  1  0.995375  0.465803  0.306426  1
  Os  Os5  1  0.000000  0.000000  0.000000  1
  Os  Os6  1  0.504625  0.465803  0.306426  1
  Os  Os7  1  0.500000  0.000000  0.000000  1
  O  O8  1  0.966991  0.695617  0.124671  1
  O  O9  1  0.033009  0.304383  0.875329  1
  O  O10  1  0.057591  0.158147  0.208582  1
  O  O11  1  0.750000  0.368382  0.324066  1
  O  O12  1  0.033856  0.268579  0.527036  1
  O  O13  1  0.442409  0.158147  0.208582  1
  O  O14  1  0.533009  0.695617  0.124671  1
  O  O15  1  0.533856  0.731421  0.472964  1
  O  O16  1  0.750000  0.067179  0.014427  1
  O  O17  1  0.942409  0.841853  0.791418  1
  O  O18  1  0.750000  0.432558  0.687085  1
  O  O19  1  0.557591  0.841853  0.791418  1
  O  O20  1  0.250000  0.567442  0.312915  1
  O  O21  1  0.466991  0.304383  0.875329  1
  O  O22  1  0.966144  0.731421  0.472964  1
  O  O23  1  0.466144  0.268579  0.527036  1
  O  O24  1  0.250000  0.631618  0.675934  1
  O  O25  1  0.250000  0.932821  0.985573  1
