# generated using pymatgen
data_Eu2BN2F
_symmetry_space_group_name_H-M   'P 1'
_cell_length_a   3.86510100
_cell_length_b   9.78711500
_cell_length_c   10.16317000
_cell_angle_alpha   90.00000000
_cell_angle_beta   90.00000000
_cell_angle_gamma   90.00000000
_symmetry_Int_Tables_number   1
_chemical_formula_structural   Eu2BN2F
_chemical_formula_sum   'Eu8 B4 N8 F4'
_cell_volume   384.45430517
_cell_formula_units_Z   4
loop_
 _symmetry_equiv_pos_site_id
 _symmetry_equiv_pos_as_xyz
  1  'x, y, z'
loop_
 _atom_site_type_symbol
 _atom_site_label
 _atom_site_symmetry_multiplicity
 _atom_site_fract_x
 _atom_site_fract_y
 _atom_site_fract_z
 _atom_site_occupancy
  Eu  Eu0  1  0.250000  0.682317  0.020490  1
  Eu  Eu1  1  0.750000  0.817683  0.520490  1
  Eu  Eu2  1  0.250000  0.182317  0.479510  1
  Eu  Eu3  1  0.750000  0.317683  0.979510  1
  Eu  Eu4  1  0.250000  0.527425  0.658610  1
  Eu  Eu5  1  0.750000  0.472575  0.341390  1
  Eu  Eu6  1  0.250000  0.027425  0.841390  1
  Eu  Eu7  1  0.750000  0.972575  0.158610  1
  B  B8  1  0.250000  0.728512  0.326312  1
  B  B9  1  0.750000  0.271488  0.673688  1
  B  B10  1  0.250000  0.228512  0.173688  1
  B  B11  1  0.750000  0.771488  0.826312  1
  N  N12  1  0.250000  0.647693  0.435785  1
  N  N13  1  0.750000  0.352307  0.564215  1
  N  N14  1  0.250000  0.147693  0.064215  1
  N  N15  1  0.750000  0.182125  0.773955  1
  N  N16  1  0.250000  0.317875  0.273955  1
  N  N17  1  0.750000  0.682125  0.726045  1
  N  N18  1  0.250000  0.817875  0.226045  1
  N  N19  1  0.750000  0.852307  0.935785  1
  F  F20  1  0.750000  0.545339  0.101809  1
  F  F21  1  0.750000  0.045339  0.398191  1
  F  F22  1  0.250000  0.454661  0.898191  1
  F  F23  1  0.250000  0.954661  0.601809  1
