# generated using pymatgen
data_Ba6Lu3ScTeWO18
_symmetry_space_group_name_H-M   'P 1'
_cell_length_a   5.98318800
_cell_length_b   5.98318680
_cell_length_c   14.67349900
_cell_angle_alpha   90.00000000
_cell_angle_beta   90.00000000
_cell_angle_gamma   119.99999555
_symmetry_Int_Tables_number   1
_chemical_formula_structural   Ba6Lu3ScTeWO18
_chemical_formula_sum   'Ba6 Lu3 Sc1 Te1 W1 O18'
_cell_volume   454.91425877
_cell_formula_units_Z   1
loop_
 _symmetry_equiv_pos_site_id
 _symmetry_equiv_pos_as_xyz
  1  'x, y, z'
loop_
 _atom_site_type_symbol
 _atom_site_label
 _atom_site_symmetry_multiplicity
 _atom_site_fract_x
 _atom_site_fract_y
 _atom_site_fract_z
 _atom_site_occupancy
  Ba  Ba0  1  0.333333  0.666667  0.086457  1
  Ba  Ba1  1  0.666667  0.333333  0.910000  1
  Ba  Ba2  1  0.333333  0.666667  0.590439  1
  Ba  Ba3  1  0.666667  0.333333  0.409242  1
  Ba  Ba4  1  0.000000  0.000000  0.248756  1
  Ba  Ba5  1  0.000000  0.000000  0.752729  1
  Lu  Lu6  1  0.666667  0.333333  0.167096  1
  Lu  Lu7  1  0.333333  0.666667  0.331812  1
  Lu  Lu8  1  0.666667  0.333333  0.669628  1
  Sc  Sc9  1  0.333333  0.666667  0.827649  1
  Te  Te10  1  0.000000  0.000000  0.501545  1
  W  W11  1  0.000000  0.000000  0.997147  1
  O  O12  1  0.855118  0.689760  0.578517  1
  O  O13  1  0.000252  0.519985  0.250089  1
  O  O14  1  0.166425  0.312905  0.921596  1
  O  O15  1  0.856147  0.166101  0.074741  1
  O  O16  1  0.834642  0.144882  0.578517  1
  O  O17  1  0.833899  0.690044  0.074741  1
  O  O18  1  0.689732  0.833736  0.425247  1
  O  O19  1  0.486576  0.995254  0.752310  1
  O  O20  1  0.508678  0.513424  0.752310  1
  O  O21  1  0.310240  0.165358  0.578517  1
  O  O22  1  0.144004  0.310268  0.425247  1
  O  O23  1  0.166264  0.855996  0.425247  1
  O  O24  1  0.309956  0.143853  0.074741  1
  O  O25  1  0.519732  0.999748  0.250089  1
  O  O26  1  0.480015  0.480268  0.250089  1
  O  O27  1  0.004746  0.491322  0.752310  1
  O  O28  1  0.146479  0.833575  0.921596  1
  O  O29  1  0.687095  0.853521  0.921596  1
