# generated using pymatgen
data_Cs2SmCl5
_symmetry_space_group_name_H-M   'P 1'
_cell_length_a   7.70829400
_cell_length_b   9.92080500
_cell_length_c   15.55762200
_cell_angle_alpha   90.00000000
_cell_angle_beta   90.00000000
_cell_angle_gamma   90.00000000
_symmetry_Int_Tables_number   1
_chemical_formula_structural   Cs2SmCl5
_chemical_formula_sum   'Cs8 Sm4 Cl20'
_cell_volume   1189.72996302
_cell_formula_units_Z   4
loop_
 _symmetry_equiv_pos_site_id
 _symmetry_equiv_pos_as_xyz
  1  'x, y, z'
loop_
 _atom_site_type_symbol
 _atom_site_label
 _atom_site_symmetry_multiplicity
 _atom_site_fract_x
 _atom_site_fract_y
 _atom_site_fract_z
 _atom_site_occupancy
  Cs  Cs0  1  0.250000  0.663715  0.917025  1
  Cs  Cs1  1  0.750000  0.336285  0.082975  1
  Cs  Cs2  1  0.750000  0.836285  0.417025  1
  Cs  Cs3  1  0.250000  0.163715  0.582975  1
  Cs  Cs4  1  0.250000  0.976279  0.212048  1
  Cs  Cs5  1  0.750000  0.023721  0.787952  1
  Cs  Cs6  1  0.750000  0.523721  0.712048  1
  Cs  Cs7  1  0.250000  0.476279  0.287952  1
  Sm  Sm8  1  0.250000  0.679239  0.565125  1
  Sm  Sm9  1  0.750000  0.320761  0.434875  1
  Sm  Sm10  1  0.750000  0.820761  0.065125  1
  Sm  Sm11  1  0.250000  0.179239  0.934875  1
  Cl  Cl12  1  0.250000  0.520856  0.703231  1
  Cl  Cl13  1  0.750000  0.479144  0.296769  1
  Cl  Cl14  1  0.750000  0.979144  0.203231  1
  Cl  Cl15  1  0.250000  0.020856  0.796769  1
  Cl  Cl16  1  0.505999  0.834650  0.618044  1
  Cl  Cl17  1  0.494001  0.165350  0.381956  1
  Cl  Cl18  1  0.494001  0.665350  0.118044  1
  Cl  Cl19  1  0.005999  0.165350  0.381956  1
  Cl  Cl20  1  0.505999  0.334650  0.881956  1
  Cl  Cl21  1  0.994001  0.834650  0.618044  1
  Cl  Cl22  1  0.994001  0.334650  0.881956  1
  Cl  Cl23  1  0.005999  0.665350  0.118044  1
  Cl  Cl24  1  0.250000  0.786850  0.404314  1
  Cl  Cl25  1  0.750000  0.213150  0.595686  1
  Cl  Cl26  1  0.750000  0.713150  0.904314  1
  Cl  Cl27  1  0.250000  0.286850  0.095686  1
  Cl  Cl28  1  0.000000  0.500000  0.500000  1
  Cl  Cl29  1  0.000000  0.000000  0.000000  1
  Cl  Cl30  1  0.500000  0.500000  0.500000  1
  Cl  Cl31  1  0.500000  0.000000  0.000000  1
