# generated using pymatgen
data_La11PrRu3PtBr12
_symmetry_space_group_name_H-M   'P 1'
_cell_length_a   10.66350960
_cell_length_b   10.65488475
_cell_length_c   10.61005547
_cell_angle_alpha   109.03034129
_cell_angle_beta   109.72186534
_cell_angle_gamma   109.51734835
_symmetry_Int_Tables_number   1
_chemical_formula_structural   La11PrRu3PtBr12
_chemical_formula_sum   'La11 Pr1 Ru3 Pt1 Br12'
_cell_volume   929.61292305
_cell_formula_units_Z   1
loop_
 _symmetry_equiv_pos_site_id
 _symmetry_equiv_pos_as_xyz
  1  'x, y, z'
loop_
 _atom_site_type_symbol
 _atom_site_label
 _atom_site_symmetry_multiplicity
 _atom_site_fract_x
 _atom_site_fract_y
 _atom_site_fract_z
 _atom_site_occupancy
  La  La0  1  0.476092  0.739078  0.011170  1
  La  La1  1  0.233688  0.467696  0.483413  1
  La  La2  1  0.015729  0.030761  0.265659  1
  La  La3  1  0.233265  0.265567  0.748520  1
  La  La4  1  0.017141  0.485677  0.752564  1
  La  La5  1  0.477117  0.237084  0.466162  1
  La  La6  1  0.262757  0.021739  0.033563  1
  La  La7  1  0.761314  0.238372  0.271021  1
  La  La8  1  0.758592  0.021870  0.488356  1
  La  La9  1  0.467718  0.484973  0.233126  1
  La  La10  1  0.034036  0.267564  0.016701  1
  Pr  Pr11  1  0.262483  0.742640  0.231874  1
  Ru  Ru12  1  0.251221  0.499366  0.998113  1
  Ru  Ru13  1  0.997336  0.248588  0.498029  1
  Ru  Ru14  1  0.251301  0.248652  0.250427  1
  Pt  Pt15  1  0.499750  0.000426  0.250263  1
  Br  Br16  1  0.248832  0.994208  0.502738  1
  Br  Br17  1  0.510970  0.505497  0.755299  1
  Br  Br18  1  0.248567  0.753566  0.745399  1
  Br  Br19  1  0.992424  0.745812  0.997409  1
  Br  Br20  1  0.995398  0.506568  0.250036  1
  Br  Br21  1  0.746748  0.995321  0.992260  1
  Br  Br22  1  0.753975  0.745856  0.250189  1
  Br  Br23  1  0.503475  0.753547  0.507372  1
  Br  Br24  1  0.504959  0.251463  0.997411  1
  Br  Br25  1  0.753848  0.507523  0.503829  1
  Br  Br26  1  0.746919  0.251305  0.754424  1
  Br  Br27  1  0.994341  0.989288  0.744673  1
