# generated using pymatgen
data_Dy13Er3In3HgRh4
_symmetry_space_group_name_H-M   'P 1'
_cell_length_a   9.63686250
_cell_length_b   9.63686266
_cell_length_c   9.61190898
_cell_angle_alpha   59.91406907
_cell_angle_beta   59.91407681
_cell_angle_gamma   59.99999943
_symmetry_Int_Tables_number   1
_chemical_formula_structural   Dy13Er3In3HgRh4
_chemical_formula_sum   'Dy13 Er3 In3 Hg1 Rh4'
_cell_volume   630.37749973
_cell_formula_units_Z   1
loop_
 _symmetry_equiv_pos_site_id
 _symmetry_equiv_pos_as_xyz
  1  'x, y, z'
loop_
 _atom_site_type_symbol
 _atom_site_label
 _atom_site_symmetry_multiplicity
 _atom_site_fract_x
 _atom_site_fract_y
 _atom_site_fract_z
 _atom_site_occupancy
  Dy  Dy0  1  0.937004  0.937004  0.559853  1
  Dy  Dy1  1  0.149698  0.149698  0.550905  1
  Dy  Dy2  1  0.566138  0.937004  0.559853  1
  Dy  Dy3  1  0.149134  0.149134  0.149591  1
  Dy  Dy4  1  0.311241  0.311241  0.688527  1
  Dy  Dy5  1  0.937004  0.566138  0.559853  1
  Dy  Dy6  1  0.563104  0.563104  0.936510  1
  Dy  Dy7  1  0.563104  0.937284  0.936510  1
  Dy  Dy8  1  0.937284  0.563104  0.936510  1
  Dy  Dy9  1  0.149134  0.552138  0.149591  1
  Dy  Dy10  1  0.311241  0.688993  0.688527  1
  Dy  Dy11  1  0.688993  0.311241  0.688527  1
  Dy  Dy12  1  0.552138  0.149134  0.149591  1
  Er  Er13  1  0.688225  0.312502  0.311047  1
  Er  Er14  1  0.688225  0.688225  0.311047  1
  Er  Er15  1  0.312502  0.688225  0.311047  1
  In  In16  1  0.248149  0.916750  0.918350  1
  In  In17  1  0.916750  0.248149  0.918350  1
  In  In18  1  0.916750  0.916750  0.918350  1
  Hg  Hg19  1  0.914502  0.914502  0.256496  1
  Rh  Rh20  1  0.357750  0.357750  0.357030  1
  Rh  Rh21  1  0.927472  0.357750  0.357030  1
  Rh  Rh22  1  0.356709  0.356709  0.929874  1
  Rh  Rh23  1  0.357750  0.927472  0.357030  1
