# generated using pymatgen
data_Y2ZrPt9
_symmetry_space_group_name_H-M   'P 1'
_cell_length_a   4.10000000
_cell_length_b   4.10000000
_cell_length_c   12.31565800
_cell_angle_alpha   90.00000000
_cell_angle_beta   90.00000000
_cell_angle_gamma   90.00000000
_symmetry_Int_Tables_number   1
_chemical_formula_structural   Y2ZrPt9
_chemical_formula_sum   'Y2 Zr1 Pt9'
_cell_volume   207.02621098
_cell_formula_units_Z   1
loop_
 _symmetry_equiv_pos_site_id
 _symmetry_equiv_pos_as_xyz
  1  'x, y, z'
loop_
 _atom_site_type_symbol
 _atom_site_label
 _atom_site_symmetry_multiplicity
 _atom_site_fract_x
 _atom_site_fract_y
 _atom_site_fract_z
 _atom_site_occupancy
  Y  Y0  1  0.000000  0.000000  0.332522  1
  Y  Y1  1  0.000000  0.000000  0.667478  1
  Zr  Zr2  1  0.000000  0.000000  0.000000  1
  Pt  Pt3  1  0.500000  0.500000  0.000000  1
  Pt  Pt4  1  0.500000  0.500000  0.329798  1
  Pt  Pt5  1  0.500000  0.500000  0.670202  1
  Pt  Pt6  1  0.500000  0.000000  0.159633  1
  Pt  Pt7  1  0.500000  0.000000  0.500000  1
  Pt  Pt8  1  0.500000  0.000000  0.840367  1
  Pt  Pt9  1  0.000000  0.500000  0.159633  1
  Pt  Pt10  1  0.000000  0.500000  0.500000  1
  Pt  Pt11  1  0.000000  0.500000  0.840367  1
