# generated using pymatgen
data_Tb2TmAl3ZnSiNi
_symmetry_space_group_name_H-M   'P 1'
_cell_length_a   6.85131800
_cell_length_b   6.84203420
_cell_length_c   4.14293800
_cell_angle_alpha   90.00000000
_cell_angle_beta   90.00000000
_cell_angle_gamma   120.04489531
_symmetry_Int_Tables_number   1
_chemical_formula_structural   Tb2TmAl3ZnSiNi
_chemical_formula_sum   'Tb2 Tm1 Al3 Zn1 Si1 Ni1'
_cell_volume   168.11318699
_cell_formula_units_Z   1
loop_
 _symmetry_equiv_pos_site_id
 _symmetry_equiv_pos_as_xyz
  1  'x, y, z'
loop_
 _atom_site_type_symbol
 _atom_site_label
 _atom_site_symmetry_multiplicity
 _atom_site_fract_x
 _atom_site_fract_y
 _atom_site_fract_z
 _atom_site_occupancy
  Tb  Tb0  1  0.001804  0.410445  0.000000  1
  Tb  Tb1  1  0.588623  0.591973  0.000000  1
  Tm  Tm2  1  0.406155  0.998086  0.000000  1
  Al  Al3  1  0.766904  0.001188  0.499999  1
  Al  Al4  1  0.233666  0.231802  0.499999  1
  Al  Al5  1  0.000036  0.767040  0.499999  1
  Zn  Zn6  1  0.663966  0.329360  0.499999  1
  Si  Si7  1  0.334690  0.670384  0.499999  1
  Ni  Ni8  1  0.004159  0.999721  0.000000  1
