# generated using pymatgen
data_TiMn5(AlRu2)6
_symmetry_space_group_name_H-M   'P 1'
_cell_length_a   4.23574200
_cell_length_b   6.00877200
_cell_length_c   12.69774600
_cell_angle_alpha   90.00049609
_cell_angle_beta   89.99980604
_cell_angle_gamma   90.00013438
_symmetry_Int_Tables_number   1
_chemical_formula_structural   TiMn5(AlRu2)6
_chemical_formula_sum   'Ti1 Mn5 Al6 Ru12'
_cell_volume   323.17805276
_cell_formula_units_Z   1
loop_
 _symmetry_equiv_pos_site_id
 _symmetry_equiv_pos_as_xyz
  1  'x, y, z'
loop_
 _atom_site_type_symbol
 _atom_site_label
 _atom_site_symmetry_multiplicity
 _atom_site_fract_x
 _atom_site_fract_y
 _atom_site_fract_z
 _atom_site_occupancy
  Ti  Ti0  1  0.000000  0.499992  0.000034  1
  Mn  Mn1  1  0.499859  0.999982  0.167023  1
  Mn  Mn2  1  0.999829  0.500021  0.333615  1
  Mn  Mn3  1  0.499989  0.000068  0.500099  1
  Mn  Mn4  1  0.000170  0.499996  0.666349  1
  Mn  Mn5  1  0.500153  0.999998  0.832869  1
  Al  Al6  1  0.999998  0.999997  0.000052  1
  Al  Al7  1  0.499860  0.499989  0.167121  1
  Al  Al8  1  0.999792  0.000004  0.334506  1
  Al  Al9  1  0.499999  0.500002  0.500004  1
  Al  Al10  1  0.000210  0.999987  0.665456  1
  Al  Al11  1  0.500156  0.500001  0.832897  1
  Ru  Ru12  1  0.500001  0.243762  0.999975  1
  Ru  Ru13  1  0.499999  0.756226  0.999974  1
  Ru  Ru14  1  0.999863  0.247047  0.169493  1
  Ru  Ru15  1  0.999864  0.752946  0.169492  1
  Ru  Ru16  1  0.499826  0.250221  0.334155  1
  Ru  Ru17  1  0.499826  0.749773  0.334157  1
  Ru  Ru18  1  0.999997  0.250058  0.499987  1
  Ru  Ru19  1  0.999996  0.749947  0.499987  1
  Ru  Ru20  1  0.500155  0.250157  0.665853  1
  Ru  Ru21  1  0.500150  0.749842  0.665851  1
  Ru  Ru22  1  0.000152  0.246987  0.830524  1
  Ru  Ru23  1  0.000151  0.753003  0.830525  1
