# generated using pymatgen
data_Ho8Ta4Ti7Si16Ir
_symmetry_space_group_name_H-M   'P 1'
_cell_length_a   7.01614250
_cell_length_b   7.01794493
_cell_length_c   12.86694807
_cell_angle_alpha   90.17610373
_cell_angle_beta   89.86310211
_cell_angle_gamma   89.67311096
_symmetry_Int_Tables_number   1
_chemical_formula_structural   Ho8Ta4Ti7Si16Ir
_chemical_formula_sum   'Ho8 Ta4 Ti7 Si16 Ir1'
_cell_volume   633.53925183
_cell_formula_units_Z   1
loop_
 _symmetry_equiv_pos_site_id
 _symmetry_equiv_pos_as_xyz
  1  'x, y, z'
loop_
 _atom_site_type_symbol
 _atom_site_label
 _atom_site_symmetry_multiplicity
 _atom_site_fract_x
 _atom_site_fract_y
 _atom_site_fract_z
 _atom_site_occupancy
  Ho  Ho0  1  0.341168  0.002549  0.467420  1
  Ho  Ho1  1  0.496941  0.841935  0.718598  1
  Ho  Ho2  1  0.501620  0.158441  0.215737  1
  Ho  Ho3  1  0.842247  0.497268  0.281554  1
  Ho  Ho4  1  0.158330  0.502038  0.784530  1
  Ho  Ho5  1  0.656560  0.998296  0.968606  1
  Ho  Ho6  1  0.002730  0.341164  0.532163  1
  Ho  Ho7  1  0.997531  0.658241  0.031577  1
  Ta  Ta8  1  0.174108  0.827141  0.247608  1
  Ta  Ta9  1  0.827170  0.174218  0.752319  1
  Ta  Ta10  1  0.673985  0.673280  0.499853  1
  Ta  Ta11  1  0.148197  0.002169  0.875080  1
  Ti  Ti12  1  0.493098  0.657629  0.125024  1
  Ti  Ti13  1  0.507511  0.349128  0.628299  1
  Ti  Ti14  1  0.657767  0.492206  0.874936  1
  Ti  Ti15  1  0.349243  0.507808  0.372171  1
  Ti  Ti16  1  0.848429  0.992493  0.374535  1
  Ti  Ti17  1  0.002823  0.147757  0.124534  1
  Ti  Ti18  1  0.992344  0.847698  0.625858  1
  Si  Si19  1  0.203886  0.133779  0.683672  1
  Si  Si20  1  0.372867  0.701097  0.933513  1
  Si  Si21  1  0.631345  0.296507  0.434357  1
  Si  Si22  1  0.700403  0.371053  0.066446  1
  Si  Si23  1  0.296877  0.631583  0.565460  1
  Si  Si24  1  0.797089  0.867254  0.183933  1
  Si  Si25  1  0.132863  0.202601  0.315146  1
  Si  Si26  1  0.864228  0.795697  0.816551  1
  Si  Si27  1  0.289320  0.951417  0.062807  1
  Si  Si28  1  0.547122  0.793191  0.314874  1
  Si  Si29  1  0.449499  0.210668  0.817747  1
  Si  Si30  1  0.793628  0.546731  0.684581  1
  Si  Si31  1  0.209889  0.449052  0.181814  1
  Si  Si32  1  0.708086  0.047786  0.564687  1
  Si  Si33  1  0.951739  0.290310  0.938259  1
  Si  Si34  1  0.047824  0.707907  0.435167  1
  Ir  Ir35  1  0.331530  0.331907  0.000586  1
