# generated using pymatgen
data_K2LiTbBi2
_symmetry_space_group_name_H-M   'P 1'
_cell_length_a   11.15010576
_cell_length_b   11.15010642
_cell_length_c   7.23182900
_cell_angle_alpha   90.00000000
_cell_angle_beta   90.00000000
_cell_angle_gamma   98.62669204
_symmetry_Int_Tables_number   1
_chemical_formula_structural   K2LiTbBi2
_chemical_formula_sum   'K8 Li4 Tb4 Bi8'
_cell_volume   888.92434437
_cell_formula_units_Z   4
loop_
 _symmetry_equiv_pos_site_id
 _symmetry_equiv_pos_as_xyz
  1  'x, y, z'
loop_
 _atom_site_type_symbol
 _atom_site_label
 _atom_site_symmetry_multiplicity
 _atom_site_fract_x
 _atom_site_fract_y
 _atom_site_fract_z
 _atom_site_occupancy
  K  K0  1  0.571781  0.928219  0.750000  1
  K  K1  1  0.928219  0.571781  0.250000  1
  K  K2  1  0.428219  0.071781  0.250000  1
  K  K3  1  0.071781  0.428219  0.750000  1
  K  K4  1  0.674756  0.325244  0.775478  1
  K  K5  1  0.825244  0.174756  0.275478  1
  K  K6  1  0.325244  0.674756  0.224522  1
  K  K7  1  0.174756  0.825244  0.724522  1
  Li  Li8  1  0.620327  0.620327  0.000000  1
  Li  Li9  1  0.879673  0.879673  0.500000  1
  Li  Li10  1  0.379673  0.379673  0.000000  1
  Li  Li11  1  0.120327  0.120327  0.500000  1
  Tb  Tb12  1  0.869497  0.869497  0.000000  1
  Tb  Tb13  1  0.630503  0.630503  0.500000  1
  Tb  Tb14  1  0.130503  0.130503  0.000000  1
  Tb  Tb15  1  0.369497  0.369497  0.500000  1
  Bi  Bi16  1  0.354197  0.145803  0.750000  1
  Bi  Bi17  1  0.145803  0.354197  0.250000  1
  Bi  Bi18  1  0.645803  0.854197  0.250000  1
  Bi  Bi19  1  0.854197  0.645803  0.750000  1
  Bi  Bi20  1  0.898719  0.101281  0.756321  1
  Bi  Bi21  1  0.601281  0.398719  0.256321  1
  Bi  Bi22  1  0.101281  0.898719  0.243679  1
  Bi  Bi23  1  0.398719  0.601281  0.743679  1
