# generated using pymatgen
data_Dy12Co4BiIr
_symmetry_space_group_name_H-M   'P 1'
_cell_length_a   8.35109565
_cell_length_b   8.35109544
_cell_length_c   8.35109637
_cell_angle_alpha   111.17072167
_cell_angle_beta   110.48840885
_cell_angle_gamma   106.78816232
_symmetry_Int_Tables_number   1
_chemical_formula_structural   Dy12Co4BiIr
_chemical_formula_sum   'Dy12 Co4 Bi1 Ir1'
_cell_volume   447.59135426
_cell_formula_units_Z   1
loop_
 _symmetry_equiv_pos_site_id
 _symmetry_equiv_pos_as_xyz
  1  'x, y, z'
loop_
 _atom_site_type_symbol
 _atom_site_label
 _atom_site_symmetry_multiplicity
 _atom_site_fract_x
 _atom_site_fract_y
 _atom_site_fract_z
 _atom_site_occupancy
  Dy  Dy0  1  0.818135  0.713528  0.531663  1
  Dy  Dy1  1  0.181865  0.286472  0.468337  1
  Dy  Dy2  1  0.181865  0.713528  0.895392  1
  Dy  Dy3  1  0.818135  0.286472  0.104608  1
  Dy  Dy4  1  0.687720  0.378172  0.690452  1
  Dy  Dy5  1  0.312280  0.621828  0.309548  1
  Dy  Dy6  1  0.687720  0.997268  0.309548  1
  Dy  Dy7  1  0.312280  0.002732  0.690452  1
  Dy  Dy8  1  0.592097  0.789255  0.802841  1
  Dy  Dy9  1  0.407903  0.210745  0.197159  1
  Dy  Dy10  1  0.986414  0.789255  0.197159  1
  Dy  Dy11  1  0.013586  0.210745  0.802841  1
  Co  Co12  1  0.622721  0.000000  0.622721  1
  Co  Co13  1  0.377279  0.000000  0.377279  1
  Co  Co14  1  0.110592  0.610592  0.500000  1
  Co  Co15  1  0.889408  0.389408  0.500000  1
  Bi  Bi16  1  0.500000  0.500000  0.000000  1
  Ir  Ir17  1  0.000000  0.000000  0.000000  1
