# generated using pymatgen
data_NdY3Ho(In2Pt)2
_symmetry_space_group_name_H-M   'P 1'
_cell_length_a   3.64419100
_cell_length_b   8.20680352
_cell_length_c   18.42875060
_cell_angle_alpha   90.14431929
_cell_angle_beta   90.00000000
_cell_angle_gamma   90.00000000
_symmetry_Int_Tables_number   1
_chemical_formula_structural   NdY3Ho(In2Pt)2
_chemical_formula_sum   'Nd2 Y6 Ho2 In8 Pt4'
_cell_volume   551.14983535
_cell_formula_units_Z   2
loop_
 _symmetry_equiv_pos_site_id
 _symmetry_equiv_pos_as_xyz
  1  'x, y, z'
loop_
 _atom_site_type_symbol
 _atom_site_label
 _atom_site_symmetry_multiplicity
 _atom_site_fract_x
 _atom_site_fract_y
 _atom_site_fract_z
 _atom_site_occupancy
  Nd  Nd0  1  0.000000  0.000000  0.000000  1
  Nd  Nd1  1  0.000000  0.500000  0.500000  1
  Y  Y2  1  0.000000  0.119247  0.414354  1
  Y  Y3  1  0.000000  0.880753  0.585646  1
  Y  Y4  1  0.000000  0.380620  0.914325  1
  Y  Y5  1  0.000000  0.619380  0.085675  1
  Y  Y6  1  0.000000  0.241948  0.219695  1
  Y  Y7  1  0.000000  0.758052  0.780305  1
  Ho  Ho8  1  0.000000  0.257702  0.719960  1
  Ho  Ho9  1  0.000000  0.742298  0.280040  1
  In  In10  1  0.500000  0.422292  0.348369  1
  In  In11  1  0.500000  0.577708  0.651631  1
  In  In12  1  0.500000  0.078185  0.848286  1
  In  In13  1  0.500000  0.921815  0.151714  1
  In  In14  1  0.500000  0.298527  0.067820  1
  In  In15  1  0.500000  0.701473  0.932180  1
  In  In16  1  0.500000  0.201600  0.567942  1
  In  In17  1  0.500000  0.798400  0.432058  1
  Pt  Pt18  1  0.500000  0.022797  0.303282  1
  Pt  Pt19  1  0.500000  0.977203  0.696718  1
  Pt  Pt20  1  0.500000  0.474734  0.802984  1
  Pt  Pt21  1  0.500000  0.525266  0.197016  1
