# generated using pymatgen
data_Th3MgAl2Pt3
_symmetry_space_group_name_H-M   'P 1'
_cell_length_a   7.35108014
_cell_length_b   7.35108005
_cell_length_c   4.19550500
_cell_angle_alpha   90.00000000
_cell_angle_beta   90.00000000
_cell_angle_gamma   119.23189230
_symmetry_Int_Tables_number   1
_chemical_formula_structural   Th3MgAl2Pt3
_chemical_formula_sum   'Th3 Mg1 Al2 Pt3'
_cell_volume   197.84580123
_cell_formula_units_Z   1
loop_
 _symmetry_equiv_pos_site_id
 _symmetry_equiv_pos_as_xyz
  1  'x, y, z'
loop_
 _atom_site_type_symbol
 _atom_site_label
 _atom_site_symmetry_multiplicity
 _atom_site_fract_x
 _atom_site_fract_y
 _atom_site_fract_z
 _atom_site_occupancy
  Th  Th0  1  0.414256  0.414256  0.500000  1
  Th  Th1  1  0.579486  0.999949  0.500000  1
  Th  Th2  1  0.999949  0.579486  0.500000  1
  Mg  Mg3  1  0.765215  0.765215  0.000000  1
  Al  Al4  1  0.233535  0.999227  0.000000  1
  Al  Al5  1  0.999227  0.233535  0.000000  1
  Pt  Pt6  1  0.667920  0.327388  0.000000  1
  Pt  Pt7  1  0.327388  0.667920  0.000000  1
  Pt  Pt8  1  0.013024  0.013024  0.500000  1
