# generated using pymatgen
data_YTh3(ZnGe)4
_symmetry_space_group_name_H-M   'P 1'
_cell_length_a   4.21561600
_cell_length_b   4.21561689
_cell_length_c   16.80153900
_cell_angle_alpha   90.00000000
_cell_angle_beta   90.00000000
_cell_angle_gamma   120.00000870
_symmetry_Int_Tables_number   1
_chemical_formula_structural   YTh3(ZnGe)4
_chemical_formula_sum   'Y1 Th3 Zn4 Ge4'
_cell_volume   258.58411247
_cell_formula_units_Z   1
loop_
 _symmetry_equiv_pos_site_id
 _symmetry_equiv_pos_as_xyz
  1  'x, y, z'
loop_
 _atom_site_type_symbol
 _atom_site_label
 _atom_site_symmetry_multiplicity
 _atom_site_fract_x
 _atom_site_fract_y
 _atom_site_fract_z
 _atom_site_occupancy
  Y  Y0  1  0.000000  0.000000  0.250000  1
  Th  Th1  1  0.000000  0.000000  0.750000  1
  Th  Th2  1  0.000000  0.000000  0.496503  1
  Th  Th3  1  0.000000  0.000000  0.003497  1
  Zn  Zn4  1  0.666667  0.333333  0.871474  1
  Zn  Zn5  1  0.666667  0.333333  0.628526  1
  Zn  Zn6  1  0.333333  0.666667  0.142853  1
  Zn  Zn7  1  0.333333  0.666667  0.357147  1
  Ge  Ge8  1  0.666667  0.333333  0.122503  1
  Ge  Ge9  1  0.666667  0.333333  0.377497  1
  Ge  Ge10  1  0.333333  0.666667  0.880364  1
  Ge  Ge11  1  0.333333  0.666667  0.619636  1
