# generated using pymatgen
data_CsNd(YSe2)2
_symmetry_space_group_name_H-M   'P 1'
_cell_length_a   4.18522400
_cell_length_b   4.18522497
_cell_length_c   15.33629900
_cell_angle_alpha   90.00000000
_cell_angle_beta   90.00000000
_cell_angle_gamma   119.99997654
_symmetry_Int_Tables_number   1
_chemical_formula_structural   CsNd(YSe2)2
_chemical_formula_sum   'Cs1 Nd1 Y2 Se4'
_cell_volume   232.64237140
_cell_formula_units_Z   1
loop_
 _symmetry_equiv_pos_site_id
 _symmetry_equiv_pos_as_xyz
  1  'x, y, z'
loop_
 _atom_site_type_symbol
 _atom_site_label
 _atom_site_symmetry_multiplicity
 _atom_site_fract_x
 _atom_site_fract_y
 _atom_site_fract_z
 _atom_site_occupancy
  Cs  Cs0  1  0.666667  0.333333  0.750000  1
  Nd  Nd1  1  0.333333  0.666667  0.250000  1
  Y  Y2  1  0.000000  0.000000  0.024337  1
  Y  Y3  1  0.000000  0.000000  0.475663  1
  Se  Se4  1  0.333333  0.666667  0.578638  1
  Se  Se5  1  0.666667  0.333333  0.130079  1
  Se  Se6  1  0.666667  0.333333  0.369921  1
  Se  Se7  1  0.333333  0.666667  0.921362  1
