# generated using pymatgen
data_LaCe3(SnRu)4
_symmetry_space_group_name_H-M   'P 1'
_cell_length_a   6.38768631
_cell_length_b   6.38768620
_cell_length_c   10.15484767
_cell_angle_alpha   77.51989614
_cell_angle_beta   77.51989763
_cell_angle_gamma   44.61638110
_symmetry_Int_Tables_number   1
_chemical_formula_structural   LaCe3(SnRu)4
_chemical_formula_sum   'La1 Ce3 Sn4 Ru4'
_cell_volume   282.96647593
_cell_formula_units_Z   1
loop_
 _symmetry_equiv_pos_site_id
 _symmetry_equiv_pos_as_xyz
  1  'x, y, z'
loop_
 _atom_site_type_symbol
 _atom_site_label
 _atom_site_symmetry_multiplicity
 _atom_site_fract_x
 _atom_site_fract_y
 _atom_site_fract_z
 _atom_site_occupancy
  La  La0  1  0.125539  0.125539  0.592031  1
  Ce  Ce1  1  0.865885  0.865885  0.413406  1
  Ce  Ce2  1  0.862398  0.862398  0.915973  1
  Ce  Ce3  1  0.138156  0.138156  0.088400  1
  Sn  Sn4  1  0.420819  0.420819  0.154210  1
  Sn  Sn5  1  0.408929  0.408929  0.655205  1
  Sn  Sn6  1  0.582418  0.582418  0.846253  1
  Sn  Sn7  1  0.588489  0.588489  0.347625  1
  Ru  Ru8  1  0.816233  0.816233  0.158819  1
  Ru  Ru9  1  0.192670  0.192670  0.307660  1
  Ru  Ru10  1  0.189605  0.189605  0.848774  1
  Ru  Ru11  1  0.808859  0.808859  0.671645  1
