# generated using pymatgen
data_Hf2Zr8Sn7Hg
_symmetry_space_group_name_H-M   'P 1'
_cell_length_a   8.83527900
_cell_length_b   8.83527869
_cell_length_c   5.96119500
_cell_angle_alpha   90.00000000
_cell_angle_beta   90.00000000
_cell_angle_gamma   119.99999740
_symmetry_Int_Tables_number   1
_chemical_formula_structural   Hf2Zr8Sn7Hg
_chemical_formula_sum   'Hf2 Zr8 Sn7 Hg1'
_cell_volume   402.99948670
_cell_formula_units_Z   1
loop_
 _symmetry_equiv_pos_site_id
 _symmetry_equiv_pos_as_xyz
  1  'x, y, z'
loop_
 _atom_site_type_symbol
 _atom_site_label
 _atom_site_symmetry_multiplicity
 _atom_site_fract_x
 _atom_site_fract_y
 _atom_site_fract_z
 _atom_site_occupancy
  Hf  Hf0  1  0.666667  0.333333  0.000000  1
  Hf  Hf1  1  0.333333  0.666667  0.500000  1
  Zr  Zr2  1  0.333333  0.666667  0.000000  1
  Zr  Zr3  1  0.666667  0.333333  0.500000  1
  Zr  Zr4  1  0.281028  0.000014  0.252077  1
  Zr  Zr5  1  0.281028  0.281014  0.747923  1
  Zr  Zr6  1  0.999986  0.718972  0.747923  1
  Zr  Zr7  1  0.999986  0.281014  0.252077  1
  Zr  Zr8  1  0.718986  0.718972  0.252077  1
  Zr  Zr9  1  0.718986  0.000014  0.747923  1
  Sn  Sn10  1  0.000000  0.000000  0.500000  1
  Sn  Sn11  1  0.616067  0.999909  0.249024  1
  Sn  Sn12  1  0.616067  0.616158  0.750976  1
  Sn  Sn13  1  0.000091  0.383933  0.750976  1
  Sn  Sn14  1  0.000091  0.616158  0.249024  1
  Sn  Sn15  1  0.383842  0.383933  0.249024  1
  Sn  Sn16  1  0.383842  0.999909  0.750976  1
  Hg  Hg17  1  0.000000  0.000000  0.000000  1
