# generated using pymatgen
data_Dy8Ti11NbSi15Ge
_symmetry_space_group_name_H-M   'P 1'
_cell_length_a   7.07353374
_cell_length_b   7.06234824
_cell_length_c   12.99705808
_cell_angle_alpha   90.05975839
_cell_angle_beta   89.93547886
_cell_angle_gamma   90.03058158
_symmetry_Int_Tables_number   1
_chemical_formula_structural   Dy8Ti11NbSi15Ge
_chemical_formula_sum   'Dy8 Ti11 Nb1 Si15 Ge1'
_cell_volume   649.27703849
_cell_formula_units_Z   1
loop_
 _symmetry_equiv_pos_site_id
 _symmetry_equiv_pos_as_xyz
  1  'x, y, z'
loop_
 _atom_site_type_symbol
 _atom_site_label
 _atom_site_symmetry_multiplicity
 _atom_site_fract_x
 _atom_site_fract_y
 _atom_site_fract_z
 _atom_site_occupancy
  Dy  Dy0  1  0.997414  0.659801  0.033351  1
  Dy  Dy1  1  0.001740  0.339604  0.533940  1
  Dy  Dy2  1  0.659795  0.997290  0.966669  1
  Dy  Dy3  1  0.160028  0.502390  0.783280  1
  Dy  Dy4  1  0.839172  0.496651  0.282602  1
  Dy  Dy5  1  0.502361  0.159965  0.216680  1
  Dy  Dy6  1  0.498356  0.841048  0.716621  1
  Dy  Dy7  1  0.342232  0.002750  0.466825  1
  Ti  Ti8  1  0.351433  0.507462  0.374471  1
  Ti  Ti9  1  0.844346  0.994047  0.375775  1
  Ti  Ti10  1  0.008184  0.152387  0.123759  1
  Ti  Ti11  1  0.990506  0.847545  0.624831  1
  Ti  Ti12  1  0.508954  0.348467  0.625592  1
  Ti  Ti13  1  0.152476  0.008186  0.876234  1
  Ti  Ti14  1  0.826441  0.173292  0.750272  1
  Ti  Ti15  1  0.174480  0.827638  0.248142  1
  Ti  Ti16  1  0.326971  0.327187  0.999971  1
  Ti  Ti17  1  0.491113  0.651816  0.126025  1
  Ti  Ti18  1  0.651752  0.491259  0.874001  1
  Nb  Nb19  1  0.669763  0.672786  0.500456  1
  Si  Si20  1  0.953084  0.290789  0.935194  1
  Si  Si21  1  0.709170  0.047766  0.565201  1
  Si  Si22  1  0.208860  0.453192  0.185072  1
  Si  Si23  1  0.792057  0.545937  0.686490  1
  Si  Si24  1  0.453133  0.208939  0.814951  1
  Si  Si25  1  0.546066  0.791832  0.313399  1
  Si  Si26  1  0.290882  0.953231  0.064646  1
  Si  Si27  1  0.798064  0.870289  0.184640  1
  Si  Si28  1  0.300049  0.628721  0.567463  1
  Si  Si29  1  0.702216  0.370087  0.065192  1
  Si  Si30  1  0.630401  0.296853  0.434367  1
  Si  Si31  1  0.370065  0.702049  0.934782  1
  Si  Si32  1  0.129737  0.202059  0.315173  1
  Si  Si33  1  0.202227  0.129633  0.684899  1
  Si  Si34  1  0.870133  0.797985  0.815587  1
  Ge  Ge35  1  0.046336  0.709065  0.433447  1
