# generated using pymatgen
data_Sm2Nb3P7Rh9
_symmetry_space_group_name_H-M   'P 1'
_cell_length_a   3.94822000
_cell_length_b   9.67239804
_cell_length_c   9.67165629
_cell_angle_alpha   119.99639383
_cell_angle_beta   90.00001377
_cell_angle_gamma   90.00018527
_symmetry_Int_Tables_number   1
_chemical_formula_structural   Sm2Nb3P7Rh9
_chemical_formula_sum   'Sm2 Nb3 P7 Rh9'
_cell_volume   319.87682057
_cell_formula_units_Z   1
loop_
 _symmetry_equiv_pos_site_id
 _symmetry_equiv_pos_as_xyz
  1  'x, y, z'
loop_
 _atom_site_type_symbol
 _atom_site_label
 _atom_site_symmetry_multiplicity
 _atom_site_fract_x
 _atom_site_fract_y
 _atom_site_fract_z
 _atom_site_occupancy
  Sm  Sm0  1  0.261347  0.666623  0.333440  1
  Sm  Sm1  1  0.762178  0.333360  0.666606  1
  Nb  Nb2  1  0.762107  0.095134  0.874314  1
  Nb  Nb3  1  0.762106  0.125596  0.220721  1
  Nb  Nb4  1  0.762102  0.779037  0.904711  1
  P  P5  1  0.262423  0.000030  0.999985  1
  P  P6  1  0.761576  0.878943  0.591843  1
  P  P7  1  0.761563  0.408291  0.287073  1
  P  P8  1  0.761566  0.712962  0.121273  1
  P  P9  1  0.262316  0.115338  0.414738  1
  P  P10  1  0.262318  0.585247  0.700649  1
  P  P11  1  0.262314  0.299418  0.884687  1
  Rh  Rh12  1  0.261870  0.884119  0.162059  1
  Rh  Rh13  1  0.261873  0.837826  0.722085  1
  Rh  Rh14  1  0.261869  0.278038  0.115935  1
  Rh  Rh15  1  0.761785  0.610536  0.558047  1
  Rh  Rh16  1  0.761784  0.441848  0.052299  1
  Rh  Rh17  1  0.761787  0.947648  0.389512  1
  Rh  Rh18  1  0.261701  0.367983  0.437591  1
  Rh  Rh19  1  0.261708  0.562329  0.930317  1
  Rh  Rh20  1  0.261705  0.069697  0.632111  1
