# generated using pymatgen
data_Pr20Ga3Si8P
_symmetry_space_group_name_H-M   'P 1'
_cell_length_a   7.82304200
_cell_length_b   7.82304200
_cell_length_c   14.51588700
_cell_angle_alpha   90.00000000
_cell_angle_beta   90.00000000
_cell_angle_gamma   90.00000000
_symmetry_Int_Tables_number   1
_chemical_formula_structural   Pr20Ga3Si8P
_chemical_formula_sum   'Pr20 Ga3 Si8 P1'
_cell_volume   888.37208312
_cell_formula_units_Z   1
loop_
 _symmetry_equiv_pos_site_id
 _symmetry_equiv_pos_as_xyz
  1  'x, y, z'
loop_
 _atom_site_type_symbol
 _atom_site_label
 _atom_site_symmetry_multiplicity
 _atom_site_fract_x
 _atom_site_fract_y
 _atom_site_fract_z
 _atom_site_occupancy
  Pr  Pr0  1  0.820581  0.821938  0.605287  1
  Pr  Pr1  1  0.186383  0.830552  0.110097  1
  Pr  Pr2  1  0.165045  0.807438  0.394345  1
  Pr  Pr3  1  0.000000  0.500000  0.736895  1
  Pr  Pr4  1  0.834955  0.192562  0.394345  1
  Pr  Pr5  1  0.692562  0.665045  0.394345  1
  Pr  Pr6  1  0.678062  0.320581  0.605287  1
  Pr  Pr7  1  0.321938  0.679419  0.605287  1
  Pr  Pr8  1  0.000000  0.500000  0.222786  1
  Pr  Pr9  1  0.669448  0.686383  0.110097  1
  Pr  Pr10  1  0.684348  0.328493  0.889669  1
  Pr  Pr11  1  0.828493  0.815652  0.889669  1
  Pr  Pr12  1  0.307438  0.334955  0.394345  1
  Pr  Pr13  1  0.179419  0.178062  0.605287  1
  Pr  Pr14  1  0.813617  0.169448  0.110097  1
  Pr  Pr15  1  0.315652  0.671507  0.889669  1
  Pr  Pr16  1  0.330552  0.313617  0.110097  1
  Pr  Pr17  1  0.500000  0.000000  0.273062  1
  Pr  Pr18  1  0.171507  0.184348  0.889669  1
  Pr  Pr19  1  0.500000  0.000000  0.766344  1
  Ga  Ga20  1  0.500000  0.000000  0.494688  1
  Ga  Ga21  1  0.500000  0.000000  0.993460  1
  Ga  Ga22  1  0.000000  0.500000  0.002175  1
  Si  Si23  1  0.613112  0.385881  0.253020  1
  Si  Si24  1  0.114582  0.888389  0.745894  1
  Si  Si25  1  0.388389  0.385418  0.745894  1
  Si  Si26  1  0.386888  0.614119  0.253020  1
  Si  Si27  1  0.885881  0.886888  0.253020  1
  Si  Si28  1  0.611611  0.614582  0.745894  1
  Si  Si29  1  0.885418  0.111611  0.745894  1
  Si  Si30  1  0.114119  0.113112  0.253020  1
  P  P31  1  0.000000  0.500000  0.517344  1
