# generated using pymatgen
data_Lu12AlNi4Ru
_symmetry_space_group_name_H-M   'P 1'
_cell_length_a   8.08356068
_cell_length_b   8.08356170
_cell_length_c   8.08356057
_cell_angle_alpha   111.40072130
_cell_angle_beta   110.25239920
_cell_angle_gamma   106.79540915
_symmetry_Int_Tables_number   1
_chemical_formula_structural   Lu12AlNi4Ru
_chemical_formula_sum   'Lu12 Al1 Ni4 Ru1'
_cell_volume   405.91361133
_cell_formula_units_Z   1
loop_
 _symmetry_equiv_pos_site_id
 _symmetry_equiv_pos_as_xyz
  1  'x, y, z'
loop_
 _atom_site_type_symbol
 _atom_site_label
 _atom_site_symmetry_multiplicity
 _atom_site_fract_x
 _atom_site_fract_y
 _atom_site_fract_z
 _atom_site_occupancy
  Lu  Lu0  1  0.417004  0.227149  0.189857  1
  Lu  Lu1  1  0.582996  0.772851  0.810143  1
  Lu  Lu2  1  0.037292  0.227149  0.810143  1
  Lu  Lu3  1  0.962708  0.772851  0.189857  1
  Lu  Lu4  1  0.181697  0.280192  0.461889  1
  Lu  Lu5  1  0.818303  0.719808  0.538111  1
  Lu  Lu6  1  0.181697  0.719808  0.901505  1
  Lu  Lu7  1  0.818303  0.280192  0.098495  1
  Lu  Lu8  1  0.323358  0.627258  0.303900  1
  Lu  Lu9  1  0.676642  0.372742  0.696100  1
  Lu  Lu10  1  0.323358  0.019458  0.696100  1
  Lu  Lu11  1  0.676642  0.980542  0.303900  1
  Al  Al12  1  0.500000  0.500000  0.000000  1
  Ni  Ni13  1  0.353564  0.000000  0.353564  1
  Ni  Ni14  1  0.646436  0.000000  0.646436  1
  Ni  Ni15  1  0.121405  0.621405  0.500000  1
  Ni  Ni16  1  0.878595  0.378595  0.500000  1
  Ru  Ru17  1  0.000000  0.000000  0.000000  1
