# generated using pymatgen
data_Lu12ZnInSi4
_symmetry_space_group_name_H-M   'P 1'
_cell_length_a   8.27420650
_cell_length_b   8.27420662
_cell_length_c   8.27420740
_cell_angle_alpha   111.50963738
_cell_angle_beta   112.55174811
_cell_angle_gamma   104.46713142
_symmetry_Int_Tables_number   1
_chemical_formula_structural   Lu12ZnInSi4
_chemical_formula_sum   'Lu12 Zn1 In1 Si4'
_cell_volume   433.56586341
_cell_formula_units_Z   1
loop_
 _symmetry_equiv_pos_site_id
 _symmetry_equiv_pos_as_xyz
  1  'x, y, z'
loop_
 _atom_site_type_symbol
 _atom_site_label
 _atom_site_symmetry_multiplicity
 _atom_site_fract_x
 _atom_site_fract_y
 _atom_site_fract_z
 _atom_site_occupancy
  Lu  Lu0  1  0.432927  0.236836  0.196091  1
  Lu  Lu1  1  0.567073  0.763164  0.803909  1
  Lu  Lu2  1  0.040745  0.236836  0.803909  1
  Lu  Lu3  1  0.959255  0.763164  0.196091  1
  Lu  Lu4  1  0.181206  0.271492  0.452699  1
  Lu  Lu5  1  0.818794  0.728508  0.547301  1
  Lu  Lu6  1  0.181206  0.728508  0.909715  1
  Lu  Lu7  1  0.818794  0.271492  0.090285  1
  Lu  Lu8  1  0.319218  0.616146  0.296926  1
  Lu  Lu9  1  0.680782  0.383854  0.703074  1
  Lu  Lu10  1  0.319218  0.022292  0.703074  1
  Lu  Lu11  1  0.680782  0.977708  0.296926  1
  Zn  Zn12  1  0.000000  0.000000  0.000000  1
  In  In13  1  0.500000  0.500000  0.000000  1
  Si  Si14  1  0.359931  0.000000  0.359931  1
  Si  Si15  1  0.640069  0.000000  0.640069  1
  Si  Si16  1  0.118295  0.618295  0.500000  1
  Si  Si17  1  0.881705  0.381705  0.500000  1
