# generated using pymatgen
data_Dy8Er12Si15As
_symmetry_space_group_name_H-M   'P 1'
_cell_length_a   7.43366890
_cell_length_b   7.62263514
_cell_length_c   14.51790066
_cell_angle_alpha   89.90416955
_cell_angle_beta   86.85234477
_cell_angle_gamma   90.06077883
_symmetry_Int_Tables_number   1
_chemical_formula_structural   Dy8Er12Si15As
_chemical_formula_sum   'Dy8 Er12 Si15 As1'
_cell_volume   821.40165713
_cell_formula_units_Z   1
loop_
 _symmetry_equiv_pos_site_id
 _symmetry_equiv_pos_as_xyz
  1  'x, y, z'
loop_
 _atom_site_type_symbol
 _atom_site_label
 _atom_site_symmetry_multiplicity
 _atom_site_fract_x
 _atom_site_fract_y
 _atom_site_fract_z
 _atom_site_occupancy
  Dy  Dy0  1  0.022454  0.183111  0.099471  1
  Dy  Dy1  1  0.977849  0.817938  0.900012  1
  Dy  Dy2  1  0.478194  0.682226  0.900483  1
  Dy  Dy3  1  0.996877  0.820632  0.597879  1
  Dy  Dy4  1  0.521986  0.318294  0.099661  1
  Dy  Dy5  1  0.000257  0.177667  0.401328  1
  Dy  Dy6  1  0.502287  0.316635  0.400751  1
  Dy  Dy7  1  0.503154  0.681687  0.598643  1
  Er  Er8  1  0.166904  0.507037  0.748946  1
  Er  Er9  1  0.832395  0.493429  0.254261  1
  Er  Er10  1  0.331505  0.007367  0.253423  1
  Er  Er11  1  0.668815  0.992902  0.746923  1
  Er  Er12  1  0.350999  0.166144  0.622286  1
  Er  Er13  1  0.650418  0.832137  0.378163  1
  Er  Er14  1  0.149122  0.667712  0.380598  1
  Er  Er15  1  0.673275  0.822046  0.122760  1
  Er  Er16  1  0.848432  0.332216  0.619784  1
  Er  Er17  1  0.326908  0.177743  0.876656  1
  Er  Er18  1  0.826754  0.321848  0.876747  1
  Er  Er19  1  0.172683  0.678492  0.122640  1
  Si  Si20  1  0.041262  0.109616  0.750830  1
  Si  Si21  1  0.958655  0.891090  0.248268  1
  Si  Si22  1  0.457084  0.608832  0.248619  1
  Si  Si23  1  0.541401  0.391551  0.750727  1
  Si  Si24  1  0.285897  0.869769  0.751629  1
  Si  Si25  1  0.715709  0.128742  0.247790  1
  Si  Si26  1  0.214909  0.372249  0.248663  1
  Si  Si27  1  0.786321  0.628872  0.751096  1
  Si  Si28  1  0.796144  0.535510  0.457227  1
  Si  Si29  1  0.305032  0.964092  0.458580  1
  Si  Si30  1  0.851381  0.530146  0.040391  1
  Si  Si31  1  0.694146  0.035843  0.542117  1
  Si  Si32  1  0.148123  0.470751  0.958983  1
  Si  Si33  1  0.647677  0.029683  0.958791  1
  Si  Si34  1  0.352167  0.971326  0.041258  1
  As  As35  1  0.202822  0.464670  0.543615  1
