# generated using pymatgen
data_Ca2Pr15Lu3Sn16
_symmetry_space_group_name_H-M   'P 1'
_cell_length_a   8.14670226
_cell_length_b   8.46479772
_cell_length_c   16.07934400
_cell_angle_alpha   90.17741500
_cell_angle_beta   89.43702720
_cell_angle_gamma   90.19496744
_symmetry_Int_Tables_number   1
_chemical_formula_structural   Ca2Pr15Lu3Sn16
_chemical_formula_sum   'Ca2 Pr15 Lu3 Sn16'
_cell_volume   1108.76941733
_cell_formula_units_Z   1
loop_
 _symmetry_equiv_pos_site_id
 _symmetry_equiv_pos_as_xyz
  1  'x, y, z'
loop_
 _atom_site_type_symbol
 _atom_site_label
 _atom_site_symmetry_multiplicity
 _atom_site_fract_x
 _atom_site_fract_y
 _atom_site_fract_z
 _atom_site_occupancy
  Ca  Ca0  1  0.828099  0.502004  0.250574  1
  Ca  Ca1  1  0.328382  0.995588  0.249503  1
  Pr  Pr2  1  0.842181  0.668184  0.627706  1
  Pr  Pr3  1  0.654603  0.167146  0.378510  1
  Pr  Pr4  1  0.159167  0.329381  0.119379  1
  Pr  Pr5  1  0.660256  0.168052  0.121247  1
  Pr  Pr6  1  0.155456  0.331033  0.377780  1
  Pr  Pr7  1  0.343238  0.833582  0.626502  1
  Pr  Pr8  1  0.841282  0.668393  0.875224  1
  Pr  Pr9  1  0.500018  0.322620  0.901998  1
  Pr  Pr10  1  0.003668  0.179386  0.598987  1
  Pr  Pr11  1  0.501299  0.682599  0.405438  1
  Pr  Pr12  1  0.002816  0.815362  0.095037  1
  Pr  Pr13  1  0.501083  0.680959  0.093097  1
  Pr  Pr14  1  0.000668  0.817337  0.404812  1
  Pr  Pr15  1  0.502041  0.320232  0.600010  1
  Pr  Pr16  1  0.999648  0.180573  0.902160  1
  Lu  Lu17  1  0.335947  0.834117  0.871226  1
  Lu  Lu18  1  0.174170  0.498753  0.750773  1
  Lu  Lu19  1  0.671822  0.002529  0.750211  1
  Sn  Sn20  1  0.321195  0.032318  0.032296  1
  Sn  Sn21  1  0.814593  0.462249  0.463502  1
  Sn  Sn22  1  0.688001  0.964654  0.544383  1
  Sn  Sn23  1  0.187123  0.541872  0.954057  1
  Sn  Sn24  1  0.666014  0.963560  0.953374  1
  Sn  Sn25  1  0.184981  0.535508  0.544211  1
  Sn  Sn26  1  0.311868  0.037913  0.462813  1
  Sn  Sn27  1  0.819136  0.463393  0.038153  1
  Sn  Sn28  1  0.530651  0.616404  0.753582  1
  Sn  Sn29  1  0.036281  0.891768  0.753444  1
  Sn  Sn30  1  0.458644  0.391420  0.249023  1
  Sn  Sn31  1  0.959453  0.106056  0.248753  1
  Sn  Sn32  1  0.306895  0.147961  0.752585  1
  Sn  Sn33  1  0.806579  0.350396  0.751580  1
  Sn  Sn34  1  0.701584  0.857387  0.249252  1
  Sn  Sn35  1  0.201157  0.639312  0.248822  1
