# generated using pymatgen
data_Ti3Tl2V(PO4)6
_symmetry_space_group_name_H-M   'P 1'
_cell_length_a   9.27118346
_cell_length_b   8.46769820
_cell_length_c   8.46769800
_cell_angle_alpha   60.00000716
_cell_angle_beta   62.82771839
_cell_angle_gamma   62.82772002
_symmetry_Int_Tables_number   1
_chemical_formula_structural   Ti3Tl2V(PO4)6
_chemical_formula_sum   'Ti3 Tl2 V1 P6 O24'
_cell_volume   489.15557052
_cell_formula_units_Z   1
loop_
 _symmetry_equiv_pos_site_id
 _symmetry_equiv_pos_as_xyz
  1  'x, y, z'
loop_
 _atom_site_type_symbol
 _atom_site_label
 _atom_site_symmetry_multiplicity
 _atom_site_fract_x
 _atom_site_fract_y
 _atom_site_fract_z
 _atom_site_occupancy
  Ti  Ti0  1  0.046343  0.651219  0.651219  1
  Ti  Ti1  1  0.452085  0.849305  0.849305  1
  Ti  Ti2  1  0.951433  0.349522  0.349522  1
  Tl  Tl3  1  0.996909  0.001031  0.001031  1
  Tl  Tl4  1  0.499554  0.500148  0.500148  1
  V  V5  1  0.544404  0.151865  0.151865  1
  P  P6  1  0.250934  0.250059  0.530151  1
  P  P7  1  0.250934  0.968857  0.250059  1
  P  P8  1  0.250934  0.530151  0.968857  1
  P  P9  1  0.748450  0.468098  0.031688  1
  P  P10  1  0.748450  0.031688  0.751764  1
  P  P11  1  0.748450  0.751764  0.468098  1
  O  O12  1  0.096300  0.149401  0.245596  1
  O  O13  1  0.096300  0.508704  0.149401  1
  O  O14  1  0.096300  0.245596  0.508704  1
  O  O15  1  0.302468  0.066949  0.697505  1
  O  O16  1  0.407418  0.257266  0.349568  1
  O  O17  1  0.199504  0.430653  0.570195  1
  O  O18  1  0.302468  0.933078  0.066949  1
  O  O19  1  0.199504  0.799647  0.430653  1
  O  O20  1  0.595213  0.650458  0.011195  1
  O  O21  1  0.199504  0.570195  0.799647  1
  O  O22  1  0.698258  0.299784  0.067470  1
  O  O23  1  0.595213  0.011195  0.743135  1
  O  O24  1  0.407418  0.985746  0.257266  1
  O  O25  1  0.302468  0.697505  0.933078  1
  O  O26  1  0.800693  0.426749  0.201071  1
  O  O27  1  0.407418  0.349568  0.985746  1
  O  O28  1  0.800693  0.201071  0.571487  1
  O  O29  1  0.698258  0.067470  0.934488  1
  O  O30  1  0.800693  0.571487  0.426749  1
  O  O31  1  0.595213  0.743135  0.650458  1
  O  O32  1  0.698258  0.934488  0.299784  1
  O  O33  1  0.903854  0.755589  0.489620  1
  O  O34  1  0.903854  0.489620  0.850937  1
  O  O35  1  0.903854  0.850937  0.755589  1
