# generated using pymatgen
data_Zr3TiOs2N
_symmetry_space_group_name_H-M   'P 1'
_cell_length_a   8.65563989
_cell_length_b   8.65563961
_cell_length_c   8.65564000
_cell_angle_alpha   59.99999850
_cell_angle_beta   59.99999958
_cell_angle_gamma   59.99999864
_symmetry_Int_Tables_number   1
_chemical_formula_structural   Zr3TiOs2N
_chemical_formula_sum   'Zr12 Ti4 Os8 N4'
_cell_volume   458.54559096
_cell_formula_units_Z   4
loop_
 _symmetry_equiv_pos_site_id
 _symmetry_equiv_pos_as_xyz
  1  'x, y, z'
loop_
 _atom_site_type_symbol
 _atom_site_label
 _atom_site_symmetry_multiplicity
 _atom_site_fract_x
 _atom_site_fract_y
 _atom_site_fract_z
 _atom_site_occupancy
  Zr  Zr0  1  0.811024  0.811024  0.188976  1
  Zr  Zr1  1  0.188976  0.188976  0.811024  1
  Zr  Zr2  1  0.811024  0.188976  0.811024  1
  Zr  Zr3  1  0.188976  0.811024  0.188976  1
  Zr  Zr4  1  0.188976  0.811024  0.811024  1
  Zr  Zr5  1  0.811024  0.188976  0.188976  1
  Zr  Zr6  1  0.438976  0.438976  0.061024  1
  Zr  Zr7  1  0.061024  0.061024  0.438976  1
  Zr  Zr8  1  0.438976  0.061024  0.438976  1
  Zr  Zr9  1  0.061024  0.438976  0.061024  1
  Zr  Zr10  1  0.061024  0.438976  0.438976  1
  Zr  Zr11  1  0.438976  0.061024  0.061024  1
  Ti  Ti12  1  0.125000  0.625000  0.625000  1
  Ti  Ti13  1  0.625000  0.125000  0.625000  1
  Ti  Ti14  1  0.625000  0.625000  0.125000  1
  Ti  Ti15  1  0.625000  0.625000  0.625000  1
  Os  Os16  1  0.746377  0.417874  0.417874  1
  Os  Os17  1  0.417874  0.746377  0.417874  1
  Os  Os18  1  0.417874  0.417874  0.746377  1
  Os  Os19  1  0.417874  0.417874  0.417874  1
  Os  Os20  1  0.503623  0.832126  0.832126  1
  Os  Os21  1  0.832126  0.503623  0.832126  1
  Os  Os22  1  0.832126  0.832126  0.503623  1
  Os  Os23  1  0.832126  0.832126  0.832126  1
  N  N24  1  0.625000  0.125000  0.125000  1
  N  N25  1  0.125000  0.625000  0.125000  1
  N  N26  1  0.125000  0.125000  0.625000  1
  N  N27  1  0.125000  0.125000  0.125000  1
