# generated using pymatgen
data_Y2Al4Ga8Pd
_symmetry_space_group_name_H-M   'P 1'
_cell_length_a   6.02114200
_cell_length_b   6.02114200
_cell_length_c   15.69887300
_cell_angle_alpha   90.00000000
_cell_angle_beta   90.00000000
_cell_angle_gamma   90.00000000
_symmetry_Int_Tables_number   1
_chemical_formula_structural   Y2Al4Ga8Pd
_chemical_formula_sum   'Y4 Al8 Ga16 Pd2'
_cell_volume   569.14931202
_cell_formula_units_Z   2
loop_
 _symmetry_equiv_pos_site_id
 _symmetry_equiv_pos_as_xyz
  1  'x, y, z'
loop_
 _atom_site_type_symbol
 _atom_site_label
 _atom_site_symmetry_multiplicity
 _atom_site_fract_x
 _atom_site_fract_y
 _atom_site_fract_z
 _atom_site_occupancy
  Y  Y0  1  0.750000  0.250000  0.252182  1
  Y  Y1  1  0.250000  0.750000  0.252182  1
  Y  Y2  1  0.250000  0.750000  0.747818  1
  Y  Y3  1  0.750000  0.250000  0.747818  1
  Al  Al4  1  0.500097  0.000097  0.910987  1
  Al  Al5  1  0.000097  0.999903  0.910987  1
  Al  Al6  1  0.499903  0.500097  0.910987  1
  Al  Al7  1  0.999903  0.499903  0.910987  1
  Al  Al8  1  0.499903  0.999903  0.089013  1
  Al  Al9  1  0.999903  0.000097  0.089013  1
  Al  Al10  1  0.500097  0.499903  0.089013  1
  Al  Al11  1  0.000097  0.500097  0.089013  1
  Ga  Ga12  1  0.250000  0.250000  0.188086  1
  Ga  Ga13  1  0.750000  0.750000  0.188086  1
  Ga  Ga14  1  0.750000  0.750000  0.811914  1
  Ga  Ga15  1  0.250000  0.250000  0.811914  1
  Ga  Ga16  1  0.250000  0.250000  0.343406  1
  Ga  Ga17  1  0.750000  0.750000  0.343406  1
  Ga  Ga18  1  0.750000  0.750000  0.656594  1
  Ga  Ga19  1  0.250000  0.250000  0.656594  1
  Ga  Ga20  1  0.580068  0.080068  0.430913  1
  Ga  Ga21  1  0.080068  0.919932  0.430913  1
  Ga  Ga22  1  0.419932  0.580068  0.430913  1
  Ga  Ga23  1  0.919932  0.419932  0.430913  1
  Ga  Ga24  1  0.419932  0.919932  0.569087  1
  Ga  Ga25  1  0.919932  0.080068  0.569087  1
  Ga  Ga26  1  0.580068  0.419932  0.569087  1
  Ga  Ga27  1  0.080068  0.580068  0.569087  1
  Pd  Pd28  1  0.750000  0.250000  0.000000  1
  Pd  Pd29  1  0.250000  0.750000  0.000000  1
