# generated using pymatgen
data_SrTa6TlS12
_symmetry_space_group_name_H-M   'P 1'
_cell_length_a   5.81443600
_cell_length_b   5.81443612
_cell_length_c   15.26359300
_cell_angle_alpha   90.00000000
_cell_angle_beta   90.00000000
_cell_angle_gamma   119.99998794
_symmetry_Int_Tables_number   1
_chemical_formula_structural   SrTa6TlS12
_chemical_formula_sum   'Sr1 Ta6 Tl1 S12'
_cell_volume   446.89208174
_cell_formula_units_Z   1
loop_
 _symmetry_equiv_pos_site_id
 _symmetry_equiv_pos_as_xyz
  1  'x, y, z'
loop_
 _atom_site_type_symbol
 _atom_site_label
 _atom_site_symmetry_multiplicity
 _atom_site_fract_x
 _atom_site_fract_y
 _atom_site_fract_z
 _atom_site_occupancy
  Sr  Sr0  1  0.000000  0.000000  0.500000  1
  Ta  Ta1  1  0.000000  0.000000  0.255488  1
  Ta  Ta2  1  0.000000  0.000000  0.744512  1
  Ta  Ta3  1  0.333333  0.666667  0.255344  1
  Ta  Ta4  1  0.666667  0.333333  0.744656  1
  Ta  Ta5  1  0.666667  0.333333  0.255344  1
  Ta  Ta6  1  0.333333  0.666667  0.744656  1
  Tl  Tl7  1  0.000000  0.000000  0.000000  1
  S  S8  1  0.335777  0.000000  0.154731  1
  S  S9  1  0.000000  0.335777  0.154731  1
  S  S10  1  0.664223  0.664223  0.154731  1
  S  S11  1  0.336857  0.336857  0.642384  1
  S  S12  1  0.663143  0.663143  0.357616  1
  S  S13  1  0.663143  0.000000  0.642384  1
  S  S14  1  0.000000  0.663143  0.642384  1
  S  S15  1  0.000000  0.664223  0.845269  1
  S  S16  1  0.335777  0.335777  0.845269  1
  S  S17  1  0.000000  0.336857  0.357616  1
  S  S18  1  0.336857  0.000000  0.357616  1
  S  S19  1  0.664223  0.000000  0.845269  1
