# generated using pymatgen
data_Tb4Tm5Lu3Co5Bi
_symmetry_space_group_name_H-M   'P 1'
_cell_length_a   8.21875523
_cell_length_b   8.22082948
_cell_length_c   8.21875508
_cell_angle_alpha   111.32235591
_cell_angle_beta   110.51894978
_cell_angle_gamma   106.60096206
_symmetry_Int_Tables_number   1
_chemical_formula_structural   Tb4Tm5Lu3Co5Bi
_chemical_formula_sum   'Tb4 Tm5 Lu3 Co5 Bi1'
_cell_volume   426.70288895
_cell_formula_units_Z   1
loop_
 _symmetry_equiv_pos_site_id
 _symmetry_equiv_pos_as_xyz
  1  'x, y, z'
loop_
 _atom_site_type_symbol
 _atom_site_label
 _atom_site_symmetry_multiplicity
 _atom_site_fract_x
 _atom_site_fract_y
 _atom_site_fract_z
 _atom_site_occupancy
  Tb  Tb0  1  0.595951  0.791918  0.804370  1
  Tb  Tb1  1  0.403690  0.208146  0.195230  1
  Tb  Tb2  1  0.987548  0.791918  0.195966  1
  Tb  Tb3  1  0.012916  0.208146  0.804457  1
  Tm  Tm4  1  0.817564  0.710523  0.527595  1
  Tm  Tm5  1  0.182242  0.289610  0.472129  1
  Tm  Tm6  1  0.182928  0.710523  0.892960  1
  Tm  Tm7  1  0.817481  0.289610  0.107367  1
  Tm  Tm8  1  0.687070  0.377168  0.690099  1
  Lu  Lu9  1  0.313078  0.623629  0.310552  1
  Lu  Lu10  1  0.686828  0.997236  0.310408  1
  Lu  Lu11  1  0.312961  0.002325  0.689364  1
  Co  Co12  1  0.623185  0.999510  0.623236  1
  Co  Co13  1  0.376274  0.999510  0.376326  1
  Co  Co14  1  0.112024  0.612082  0.500059  1
  Co  Co15  1  0.888368  0.388166  0.499799  1
  Co  Co16  1  0.999983  0.999908  0.999925  1
  Bi  Bi17  1  0.499909  0.500069  0.000160  1
