# generated using pymatgen
data_Nd20Si15Br
_symmetry_space_group_name_H-M   'P 1'
_cell_length_a   7.85785313
_cell_length_b   7.93972931
_cell_length_c   15.22389748
_cell_angle_alpha   89.58653373
_cell_angle_beta   85.14591039
_cell_angle_gamma   89.87093271
_symmetry_Int_Tables_number   1
_chemical_formula_structural   Nd20Si15Br
_chemical_formula_sum   'Nd20 Si15 Br1'
_cell_volume   946.37470543
_cell_formula_units_Z   1
loop_
 _symmetry_equiv_pos_site_id
 _symmetry_equiv_pos_as_xyz
  1  'x, y, z'
loop_
 _atom_site_type_symbol
 _atom_site_label
 _atom_site_symmetry_multiplicity
 _atom_site_fract_x
 _atom_site_fract_y
 _atom_site_fract_z
 _atom_site_occupancy
  Nd  Nd0  1  0.161931  0.510049  0.744967  1
  Nd  Nd1  1  0.862957  0.330424  0.621515  1
  Nd  Nd2  1  0.461463  0.690597  0.894507  1
  Nd  Nd3  1  0.961478  0.810429  0.895767  1
  Nd  Nd4  1  0.181857  0.676701  0.120794  1
  Nd  Nd5  1  0.681769  0.818254  0.120517  1
  Nd  Nd6  1  0.319778  0.180125  0.880298  1
  Nd  Nd7  1  0.148229  0.667053  0.382871  1
  Nd  Nd8  1  0.038306  0.186473  0.103987  1
  Nd  Nd9  1  0.361582  0.167973  0.616975  1
  Nd  Nd10  1  0.838256  0.492068  0.244180  1
  Nd  Nd11  1  0.335674  0.003941  0.252244  1
  Nd  Nd12  1  0.486339  0.309232  0.394905  1
  Nd  Nd13  1  0.819636  0.322567  0.879309  1
  Nd  Nd14  1  0.011096  0.833784  0.606393  1
  Nd  Nd15  1  0.490990  0.691660  0.607194  1
  Nd  Nd16  1  0.000164  0.170231  0.396773  1
  Nd  Nd17  1  0.637151  0.842545  0.382384  1
  Nd  Nd18  1  0.663037  0.996260  0.746476  1
  Nd  Nd19  1  0.538367  0.308680  0.103824  1
  Si  Si20  1  0.457697  0.601070  0.252191  1
  Si  Si21  1  0.226550  0.374852  0.249513  1
  Si  Si22  1  0.543333  0.399867  0.751623  1
  Si  Si23  1  0.635809  0.024677  0.956909  1
  Si  Si24  1  0.043372  0.106733  0.753078  1
  Si  Si25  1  0.770423  0.624078  0.751361  1
  Si  Si26  1  0.726597  0.121377  0.249244  1
  Si  Si27  1  0.293420  0.968796  0.454947  1
  Si  Si28  1  0.955489  0.893939  0.250031  1
  Si  Si29  1  0.367613  0.973694  0.043241  1
  Si  Si30  1  0.714595  0.031987  0.542674  1
  Si  Si31  1  0.135827  0.474424  0.957071  1
  Si  Si32  1  0.209376  0.470755  0.544198  1
  Si  Si33  1  0.867450  0.522415  0.043289  1
  Si  Si34  1  0.271459  0.880990  0.752763  1
  Br  Br35  1  0.780928  0.521299  0.451987  1
