# generated using pymatgen
data_Zr4Co6Si6Tc
_symmetry_space_group_name_H-M   'P 1'
_cell_length_a   6.73656474
_cell_length_b   6.73656349
_cell_length_c   6.73656400
_cell_angle_alpha   109.47122817
_cell_angle_beta   109.47122442
_cell_angle_gamma   109.47121210
_symmetry_Int_Tables_number   1
_chemical_formula_structural   Zr4Co6Si6Tc
_chemical_formula_sum   'Zr4 Co6 Si6 Tc1'
_cell_volume   235.33874325
_cell_formula_units_Z   1
loop_
 _symmetry_equiv_pos_site_id
 _symmetry_equiv_pos_as_xyz
  1  'x, y, z'
loop_
 _atom_site_type_symbol
 _atom_site_label
 _atom_site_symmetry_multiplicity
 _atom_site_fract_x
 _atom_site_fract_y
 _atom_site_fract_z
 _atom_site_occupancy
  Zr  Zr0  1  0.500000  0.500000  0.500000  1
  Zr  Zr1  1  0.000000  0.000000  0.500000  1
  Zr  Zr2  1  0.000000  0.500000  0.000000  1
  Zr  Zr3  1  0.500000  0.000000  0.000000  1
  Co  Co4  1  0.500000  0.750000  0.250000  1
  Co  Co5  1  0.250000  0.500000  0.750000  1
  Co  Co6  1  0.750000  0.250000  0.500000  1
  Co  Co7  1  0.750000  0.500000  0.250000  1
  Co  Co8  1  0.500000  0.250000  0.750000  1
  Co  Co9  1  0.250000  0.750000  0.500000  1
  Si  Si10  1  0.000000  0.329559  0.329559  1
  Si  Si11  1  0.329559  0.000000  0.329559  1
  Si  Si12  1  0.329559  0.329559  0.000000  1
  Si  Si13  1  0.000000  0.670441  0.670441  1
  Si  Si14  1  0.670441  0.000000  0.670441  1
  Si  Si15  1  0.670441  0.670441  0.000000  1
  Tc  Tc16  1  0.000000  0.000000  0.000000  1
