# generated using pymatgen
data_La17Nd3Ir5Pt7
_symmetry_space_group_name_H-M   'P 1'
_cell_length_a   11.60378782
_cell_length_b   11.60419746
_cell_length_c   6.60111039
_cell_angle_alpha   89.98070231
_cell_angle_beta   89.96559818
_cell_angle_gamma   90.05419212
_symmetry_Int_Tables_number   1
_chemical_formula_structural   La17Nd3Ir5Pt7
_chemical_formula_sum   'La17 Nd3 Ir5 Pt7'
_cell_volume   888.85636695
_cell_formula_units_Z   1
loop_
 _symmetry_equiv_pos_site_id
 _symmetry_equiv_pos_as_xyz
  1  'x, y, z'
loop_
 _atom_site_type_symbol
 _atom_site_label
 _atom_site_symmetry_multiplicity
 _atom_site_fract_x
 _atom_site_fract_y
 _atom_site_fract_z
 _atom_site_occupancy
  La  La0  1  0.089334  0.295567  0.118837  1
  La  La1  1  0.791682  0.409052  0.111382  1
  La  La2  1  0.205680  0.589117  0.116873  1
  La  La3  1  0.910404  0.704118  0.118803  1
  La  La4  1  0.410423  0.794194  0.382427  1
  La  La5  1  0.591347  0.208420  0.388066  1
  La  La6  1  0.295569  0.089688  0.382312  1
  La  La7  1  0.704820  0.910592  0.382182  1
  La  La8  1  0.413150  0.206843  0.882328  1
  La  La9  1  0.703893  0.093110  0.880919  1
  La  La10  1  0.295844  0.910829  0.881197  1
  La  La11  1  0.589366  0.795066  0.883355  1
  La  La12  1  0.089194  0.704509  0.617800  1
  La  La13  1  0.906891  0.295804  0.618127  1
  La  La14  1  0.205016  0.410188  0.617188  1
  La  La15  1  0.793015  0.587291  0.618231  1
  La  La16  1  0.999678  0.999695  0.999729  1
  Nd  Nd17  1  0.501765  0.498364  0.999044  1
  Nd  Nd18  1  0.501605  0.498273  0.500975  1
  Nd  Nd19  1  0.000282  0.000310  0.500225  1
  Ir  Ir20  1  0.653295  0.346650  0.749810  1
  Ir  Ir21  1  0.000376  0.500660  0.379391  1
  Ir  Ir22  1  0.499430  0.999643  0.120764  1
  Ir  Ir23  1  0.499691  0.998611  0.619722  1
  Ir  Ir24  1  0.001338  0.500296  0.880054  1
  Pt  Pt25  1  0.153710  0.846376  0.250346  1
  Pt  Pt26  1  0.345969  0.346742  0.250149  1
  Pt  Pt27  1  0.653307  0.654017  0.250133  1
  Pt  Pt28  1  0.846758  0.153174  0.250404  1
  Pt  Pt29  1  0.346747  0.653266  0.749893  1
  Pt  Pt30  1  0.153739  0.153434  0.749964  1
  Pt  Pt31  1  0.846685  0.846102  0.749373  1
