# generated using pymatgen
data_Ho3Th(Nb3Si4)2
_symmetry_space_group_name_H-M   'P 1'
_cell_length_a   7.09410527
_cell_length_b   7.09311827
_cell_length_c   13.14317400
_cell_angle_alpha   90.00000000
_cell_angle_beta   90.00000000
_cell_angle_gamma   90.12572810
_symmetry_Int_Tables_number   1
_chemical_formula_structural   Ho3Th(Nb3Si4)2
_chemical_formula_sum   'Ho6 Th2 Nb12 Si16'
_cell_volume   661.35408717
_cell_formula_units_Z   2
loop_
 _symmetry_equiv_pos_site_id
 _symmetry_equiv_pos_as_xyz
  1  'x, y, z'
loop_
 _atom_site_type_symbol
 _atom_site_label
 _atom_site_symmetry_multiplicity
 _atom_site_fract_x
 _atom_site_fract_y
 _atom_site_fract_z
 _atom_site_occupancy
  Ho  Ho0  1  0.999492  0.341204  0.217143  1
  Ho  Ho1  1  0.000508  0.658796  0.717143  1
  Ho  Ho2  1  0.159484  0.499663  0.468249  1
  Ho  Ho3  1  0.499660  0.839891  0.032001  1
  Ho  Ho4  1  0.840516  0.500337  0.968249  1
  Ho  Ho5  1  0.500340  0.160109  0.532001  1
  Th  Th6  1  0.339261  0.995453  0.782269  1
  Th  Th7  1  0.660739  0.004547  0.282269  1
  Nb  Nb8  1  0.169342  0.170228  0.999200  1
  Nb  Nb9  1  0.830658  0.829772  0.499200  1
  Nb  Nb10  1  0.331041  0.671349  0.250344  1
  Nb  Nb11  1  0.668959  0.328651  0.750344  1
  Nb  Nb12  1  0.155133  0.992739  0.375269  1
  Nb  Nb13  1  0.844867  0.007261  0.875269  1
  Nb  Nb14  1  0.507928  0.655045  0.625736  1
  Nb  Nb15  1  0.345197  0.493864  0.874753  1
  Nb  Nb16  1  0.492072  0.344955  0.125736  1
  Nb  Nb17  1  0.654803  0.506136  0.374753  1
  Nb  Nb18  1  0.996332  0.156177  0.624688  1
  Nb  Nb19  1  0.003668  0.843823  0.124688  1
  Si  Si20  1  0.287289  0.044425  0.184060  1
  Si  Si21  1  0.712711  0.955575  0.684060  1
  Si  Si22  1  0.453314  0.791100  0.438831  1
  Si  Si23  1  0.205695  0.543189  0.063969  1
  Si  Si24  1  0.546686  0.208900  0.938831  1
  Si  Si25  1  0.794305  0.456811  0.563969  1
  Si  Si26  1  0.040586  0.298540  0.813711  1
  Si  Si27  1  0.959414  0.701460  0.313711  1
  Si  Si28  1  0.363599  0.299618  0.317529  1
  Si  Si29  1  0.636401  0.700382  0.817529  1
  Si  Si30  1  0.202508  0.867146  0.565601  1
  Si  Si31  1  0.127122  0.791831  0.935720  1
  Si  Si32  1  0.797492  0.132854  0.065601  1
  Si  Si33  1  0.872878  0.208169  0.435720  1
  Si  Si34  1  0.295112  0.372987  0.680926  1
  Si  Si35  1  0.704888  0.627013  0.180926  1
