# generated using pymatgen
data_Pr2Sn5PdRh2
_symmetry_space_group_name_H-M   'P 1'
_cell_length_a   13.70715466
_cell_length_b   13.70715480
_cell_length_c   7.45681200
_cell_angle_alpha   90.00000000
_cell_angle_beta   90.00000000
_cell_angle_gamma   161.08056521
_symmetry_Int_Tables_number   1
_chemical_formula_structural   Pr2Sn5PdRh2
_chemical_formula_sum   'Pr4 Sn10 Pd2 Rh4'
_cell_volume   454.26801067
_cell_formula_units_Z   2
loop_
 _symmetry_equiv_pos_site_id
 _symmetry_equiv_pos_as_xyz
  1  'x, y, z'
loop_
 _atom_site_type_symbol
 _atom_site_label
 _atom_site_symmetry_multiplicity
 _atom_site_fract_x
 _atom_site_fract_y
 _atom_site_fract_z
 _atom_site_occupancy
  Pr  Pr0  1  0.174954  0.825046  0.747268  1
  Pr  Pr1  1  0.825046  0.174954  0.247268  1
  Pr  Pr2  1  0.475517  0.524483  0.762220  1
  Pr  Pr3  1  0.524483  0.475517  0.262220  1
  Sn  Sn4  1  0.878189  0.121811  0.774486  1
  Sn  Sn5  1  0.121811  0.878189  0.274486  1
  Sn  Sn6  1  0.704436  0.295564  0.448069  1
  Sn  Sn7  1  0.295564  0.704436  0.948069  1
  Sn  Sn8  1  0.597653  0.402347  0.881760  1
  Sn  Sn9  1  0.402347  0.597653  0.381760  1
  Sn  Sn10  1  0.949935  0.050065  0.099729  1
  Sn  Sn11  1  0.050065  0.949935  0.599729  1
  Sn  Sn12  1  0.289342  0.710658  0.525840  1
  Sn  Sn13  1  0.710658  0.289342  0.025840  1
  Pd  Pd14  1  0.050983  0.949017  0.981148  1
  Pd  Pd15  1  0.949017  0.050983  0.481148  1
  Rh  Rh16  1  0.777259  0.222741  0.733273  1
  Rh  Rh17  1  0.222741  0.777259  0.233273  1
  Rh  Rh18  1  0.393663  0.606337  0.018204  1
  Rh  Rh19  1  0.606337  0.393663  0.518204  1
