# generated using pymatgen
data_Tm12Th4MgCd(InRh2)2
_symmetry_space_group_name_H-M   'P 1'
_cell_length_a   9.69799238
_cell_length_b   9.69799269
_cell_length_c   9.69799200
_cell_angle_alpha   59.76443217
_cell_angle_beta   59.76443794
_cell_angle_gamma   59.76443047
_symmetry_Int_Tables_number   1
_chemical_formula_structural   Tm12Th4MgCd(InRh2)2
_chemical_formula_sum   'Tm12 Th4 Mg1 Cd1 In2 Rh4'
_cell_volume   641.50692938
_cell_formula_units_Z   1
loop_
 _symmetry_equiv_pos_site_id
 _symmetry_equiv_pos_as_xyz
  1  'x, y, z'
loop_
 _atom_site_type_symbol
 _atom_site_label
 _atom_site_symmetry_multiplicity
 _atom_site_fract_x
 _atom_site_fract_y
 _atom_site_fract_z
 _atom_site_occupancy
  Tm  Tm0  1  0.063796  0.436481  0.436481  1
  Tm  Tm1  1  0.435026  0.064505  0.064505  1
  Tm  Tm2  1  0.435799  0.064259  0.436216  1
  Tm  Tm3  1  0.063948  0.435887  0.063953  1
  Tm  Tm4  1  0.435799  0.436216  0.064259  1
  Tm  Tm5  1  0.063948  0.063953  0.435887  1
  Tm  Tm6  1  0.182098  0.817417  0.817417  1
  Tm  Tm7  1  0.817405  0.182897  0.182897  1
  Tm  Tm8  1  0.817608  0.182054  0.816952  1
  Tm  Tm9  1  0.182457  0.817276  0.182991  1
  Tm  Tm10  1  0.817608  0.816952  0.182054  1
  Tm  Tm11  1  0.182457  0.182991  0.817276  1
  Th  Th12  1  0.597863  0.598832  0.598832  1
  Th  Th13  1  0.599042  0.599340  0.202166  1
  Th  Th14  1  0.599042  0.202166  0.599340  1
  Th  Th15  1  0.201737  0.599525  0.599525  1
  Mg  Mg16  1  0.508225  0.830506  0.830506  1
  Cd  Cd17  1  0.833116  0.834144  0.834144  1
  In  In18  1  0.831651  0.832722  0.502795  1
  In  In19  1  0.831651  0.502795  0.832722  1
  Rh  Rh20  1  0.393530  0.392809  0.392809  1
  Rh  Rh21  1  0.392475  0.391875  0.822063  1
  Rh  Rh22  1  0.392475  0.822063  0.391875  1
  Rh  Rh23  1  0.821244  0.392335  0.392335  1
