# generated using pymatgen
data_Ce5Bi2PbCl
_symmetry_space_group_name_H-M   'P 1'
_cell_length_a   9.50028100
_cell_length_b   9.50028388
_cell_length_c   6.72423000
_cell_angle_alpha   90.00000000
_cell_angle_beta   90.00000000
_cell_angle_gamma   119.49725874
_symmetry_Int_Tables_number   1
_chemical_formula_structural   Ce5Bi2PbCl
_chemical_formula_sum   'Ce10 Bi4 Pb2 Cl2'
_cell_volume   528.23129180
_cell_formula_units_Z   2
loop_
 _symmetry_equiv_pos_site_id
 _symmetry_equiv_pos_as_xyz
  1  'x, y, z'
loop_
 _atom_site_type_symbol
 _atom_site_label
 _atom_site_symmetry_multiplicity
 _atom_site_fract_x
 _atom_site_fract_y
 _atom_site_fract_z
 _atom_site_occupancy
  Ce  Ce0  1  0.260766  0.999483  0.250000  1
  Ce  Ce1  1  0.739234  0.000517  0.750000  1
  Ce  Ce2  1  0.999483  0.260766  0.250000  1
  Ce  Ce3  1  0.000517  0.739234  0.750000  1
  Ce  Ce4  1  0.736271  0.736271  0.250000  1
  Ce  Ce5  1  0.263729  0.263729  0.750000  1
  Ce  Ce6  1  0.332564  0.667436  0.000000  1
  Ce  Ce7  1  0.667436  0.332564  0.000000  1
  Ce  Ce8  1  0.667436  0.332564  0.500000  1
  Ce  Ce9  1  0.332564  0.667436  0.500000  1
  Bi  Bi10  1  0.613866  0.001089  0.250000  1
  Bi  Bi11  1  0.386134  0.998911  0.750000  1
  Bi  Bi12  1  0.001089  0.613866  0.250000  1
  Bi  Bi13  1  0.998911  0.386134  0.750000  1
  Pb  Pb14  1  0.385602  0.385602  0.250000  1
  Pb  Pb15  1  0.614398  0.614398  0.750000  1
  Cl  Cl16  1  0.000000  0.000000  0.000000  1
  Cl  Cl17  1  0.000000  0.000000  0.500000  1
