# generated using pymatgen
data_Cs2La10Co2Br17
_symmetry_space_group_name_H-M   'P 1'
_cell_length_a   9.37892700
_cell_length_b   11.37526598
_cell_length_c   11.37391600
_cell_angle_alpha   106.89430540
_cell_angle_beta   92.92116752
_cell_angle_gamma   92.92503516
_symmetry_Int_Tables_number   1
_chemical_formula_structural   Cs2La10Co2Br17
_chemical_formula_sum   'Cs2 La10 Co2 Br17'
_cell_volume   1156.82386028
_cell_formula_units_Z   1
loop_
 _symmetry_equiv_pos_site_id
 _symmetry_equiv_pos_as_xyz
  1  'x, y, z'
loop_
 _atom_site_type_symbol
 _atom_site_label
 _atom_site_symmetry_multiplicity
 _atom_site_fract_x
 _atom_site_fract_y
 _atom_site_fract_z
 _atom_site_occupancy
  Cs  Cs0  1  0.000003  0.820880  0.179050  1
  Cs  Cs1  1  0.999997  0.179119  0.820949  1
  La  La2  1  0.435603  0.158755  0.158748  1
  La  La3  1  0.573888  0.512792  0.198025  1
  La  La4  1  0.819575  0.294968  0.295007  1
  La  La5  1  0.321632  0.429308  0.429311  1
  La  La6  1  0.426124  0.802016  0.487163  1
  La  La7  1  0.573876  0.197985  0.512838  1
  La  La8  1  0.678368  0.570692  0.570689  1
  La  La9  1  0.180426  0.705032  0.704993  1
  La  La10  1  0.426112  0.487209  0.801976  1
  La  La11  1  0.564396  0.841245  0.841252  1
  Co  Co12  1  0.572279  0.352690  0.352731  1
  Co  Co13  1  0.427721  0.647310  0.647269  1
  Br  Br14  1  0.581315  0.686156  0.020148  1
  Br  Br15  1  0.721862  0.066939  0.066930  1
  Br  Br16  1  0.862651  0.449067  0.117196  1
  Br  Br17  1  0.128766  0.210099  0.210100  1
  Br  Br18  1  0.278963  0.606341  0.259152  1
  Br  Br19  1  0.418687  0.979861  0.313820  1
  Br  Br20  1  0.721053  0.740832  0.393640  1
  Br  Br21  1  0.862652  0.117177  0.449101  1
  Br  Br22  1  0.000000  0.499999  0.499999  1
  Br  Br23  1  0.137348  0.882823  0.550899  1
  Br  Br24  1  0.278948  0.259168  0.606360  1
  Br  Br25  1  0.581313  0.020139  0.686181  1
  Br  Br26  1  0.721038  0.393659  0.740848  1
  Br  Br27  1  0.871234  0.789901  0.789900  1
  Br  Br28  1  0.137349  0.550933  0.882804  1
  Br  Br29  1  0.278138  0.933060  0.933069  1
  Br  Br30  1  0.418685  0.313845  0.979852  1
