# generated using pymatgen
data_Hf(Zn10Ir)2
_symmetry_space_group_name_H-M   'P 1'
_cell_length_a   9.87840416
_cell_length_b   9.87840404
_cell_length_c   9.87840400
_cell_angle_alpha   60.00000013
_cell_angle_beta   60.00000054
_cell_angle_gamma   59.99999802
_symmetry_Int_Tables_number   1
_chemical_formula_structural   Hf(Zn10Ir)2
_chemical_formula_sum   'Hf2 Zn40 Ir4'
_cell_volume   681.62475994
_cell_formula_units_Z   2
loop_
 _symmetry_equiv_pos_site_id
 _symmetry_equiv_pos_as_xyz
  1  'x, y, z'
loop_
 _atom_site_type_symbol
 _atom_site_label
 _atom_site_symmetry_multiplicity
 _atom_site_fract_x
 _atom_site_fract_y
 _atom_site_fract_z
 _atom_site_occupancy
  Hf  Hf0  1  0.500000  0.500000  0.500000  1
  Hf  Hf1  1  0.750000  0.750000  0.750000  1
  Zn  Zn2  1  0.125000  0.625000  0.625000  1
  Zn  Zn3  1  0.625000  0.125000  0.625000  1
  Zn  Zn4  1  0.625000  0.625000  0.125000  1
  Zn  Zn5  1  0.625000  0.625000  0.625000  1
  Zn  Zn6  1  0.861126  0.861126  0.138874  1
  Zn  Zn7  1  0.138874  0.138874  0.861126  1
  Zn  Zn8  1  0.861126  0.138874  0.861126  1
  Zn  Zn9  1  0.138874  0.861126  0.138874  1
  Zn  Zn10  1  0.138874  0.861126  0.861126  1
  Zn  Zn11  1  0.861126  0.138874  0.138874  1
  Zn  Zn12  1  0.388874  0.388874  0.111126  1
  Zn  Zn13  1  0.111126  0.111126  0.388874  1
  Zn  Zn14  1  0.388874  0.111126  0.388874  1
  Zn  Zn15  1  0.111126  0.388874  0.111126  1
  Zn  Zn16  1  0.111126  0.388874  0.388874  1
  Zn  Zn17  1  0.388874  0.111126  0.111126  1
  Zn  Zn18  1  0.567532  0.304248  0.304248  1
  Zn  Zn19  1  0.304248  0.567532  0.823973  1
  Zn  Zn20  1  0.304248  0.823973  0.567532  1
  Zn  Zn21  1  0.823973  0.304248  0.304248  1
  Zn  Zn22  1  0.304248  0.304248  0.567532  1
  Zn  Zn23  1  0.567532  0.823973  0.304248  1
  Zn  Zn24  1  0.823973  0.567532  0.304248  1
  Zn  Zn25  1  0.304248  0.304248  0.823973  1
  Zn  Zn26  1  0.304248  0.567532  0.304248  1
  Zn  Zn27  1  0.823973  0.304248  0.567532  1
  Zn  Zn28  1  0.567532  0.304248  0.823973  1
  Zn  Zn29  1  0.304248  0.823973  0.304248  1
  Zn  Zn30  1  0.682468  0.945752  0.945752  1
  Zn  Zn31  1  0.945752  0.682468  0.426027  1
  Zn  Zn32  1  0.945752  0.426027  0.682468  1
  Zn  Zn33  1  0.426027  0.945752  0.945752  1
  Zn  Zn34  1  0.945752  0.945752  0.682468  1
  Zn  Zn35  1  0.682468  0.426027  0.945752  1
  Zn  Zn36  1  0.426027  0.682468  0.945752  1
  Zn  Zn37  1  0.945752  0.945752  0.426027  1
  Zn  Zn38  1  0.945752  0.682468  0.945752  1
  Zn  Zn39  1  0.426027  0.945752  0.682468  1
  Zn  Zn40  1  0.682468  0.945752  0.426027  1
  Zn  Zn41  1  0.945752  0.426027  0.945752  1
  Ir  Ir42  1  0.625000  0.125000  0.125000  1
  Ir  Ir43  1  0.125000  0.625000  0.125000  1
  Ir  Ir44  1  0.125000  0.125000  0.625000  1
  Ir  Ir45  1  0.125000  0.125000  0.125000  1
