# generated using pymatgen
data_PrCdCu5
_symmetry_space_group_name_H-M   'P 1'
_cell_length_a   5.09066400
_cell_length_b   8.39805400
_cell_length_c   10.60714700
_cell_angle_alpha   90.00000000
_cell_angle_beta   90.00000000
_cell_angle_gamma   90.00000000
_symmetry_Int_Tables_number   1
_chemical_formula_structural   PrCdCu5
_chemical_formula_sum   'Pr4 Cd4 Cu20'
_cell_volume   453.47326057
_cell_formula_units_Z   4
loop_
 _symmetry_equiv_pos_site_id
 _symmetry_equiv_pos_as_xyz
  1  'x, y, z'
loop_
 _atom_site_type_symbol
 _atom_site_label
 _atom_site_symmetry_multiplicity
 _atom_site_fract_x
 _atom_site_fract_y
 _atom_site_fract_z
 _atom_site_occupancy
  Pr  Pr0  1  0.250000  0.757769  0.061213  1
  Pr  Pr1  1  0.750000  0.242231  0.938787  1
  Pr  Pr2  1  0.750000  0.742231  0.561213  1
  Pr  Pr3  1  0.250000  0.257769  0.438787  1
  Cd  Cd4  1  0.250000  0.639067  0.362190  1
  Cd  Cd5  1  0.750000  0.360933  0.637810  1
  Cd  Cd6  1  0.750000  0.860933  0.862190  1
  Cd  Cd7  1  0.250000  0.139067  0.137810  1
  Cu  Cu8  1  0.250000  0.816709  0.742792  1
  Cu  Cu9  1  0.750000  0.183291  0.257208  1
  Cu  Cu10  1  0.750000  0.683291  0.242792  1
  Cu  Cu11  1  0.250000  0.316709  0.757208  1
  Cu  Cu12  1  0.500730  0.567126  0.812603  1
  Cu  Cu13  1  0.499270  0.432874  0.187397  1
  Cu  Cu14  1  0.499270  0.932874  0.312603  1
  Cu  Cu15  1  0.000730  0.432874  0.187397  1
  Cu  Cu16  1  0.500730  0.067126  0.687397  1
  Cu  Cu17  1  0.999270  0.567126  0.812603  1
  Cu  Cu18  1  0.999270  0.067126  0.687397  1
  Cu  Cu19  1  0.000730  0.932874  0.312603  1
  Cu  Cu20  1  0.250000  0.556111  0.608206  1
  Cu  Cu21  1  0.750000  0.443889  0.391794  1
  Cu  Cu22  1  0.750000  0.943889  0.108206  1
  Cu  Cu23  1  0.250000  0.056111  0.891794  1
  Cu  Cu24  1  0.250000  0.917740  0.515550  1
  Cu  Cu25  1  0.750000  0.082260  0.484450  1
  Cu  Cu26  1  0.750000  0.582260  0.015550  1
  Cu  Cu27  1  0.250000  0.417740  0.984450  1
