# generated using pymatgen
data_Na12V3Ga5P8(O8F3)4
_symmetry_space_group_name_H-M   'P 1'
_cell_length_a   9.16654900
_cell_length_b   9.19762600
_cell_length_c   10.92377900
_cell_angle_alpha   90.00000000
_cell_angle_beta   90.00000000
_cell_angle_gamma   90.00000000
_symmetry_Int_Tables_number   1
_chemical_formula_structural   Na12V3Ga5P8(O8F3)4
_chemical_formula_sum   'Na12 V3 Ga5 P8 O32 F12'
_cell_volume   920.98915373
_cell_formula_units_Z   1
loop_
 _symmetry_equiv_pos_site_id
 _symmetry_equiv_pos_as_xyz
  1  'x, y, z'
loop_
 _atom_site_type_symbol
 _atom_site_label
 _atom_site_symmetry_multiplicity
 _atom_site_fract_x
 _atom_site_fract_y
 _atom_site_fract_z
 _atom_site_occupancy
  Na  Na0  1  0.030665  0.284253  0.498404  1
  Na  Na1  1  0.047479  0.808340  0.000708  1
  Na  Na2  1  0.242884  0.509823  0.000956  1
  Na  Na3  1  0.257022  0.010528  0.499500  1
  Na  Na4  1  0.453261  0.307294  0.498475  1
  Na  Na5  1  0.468649  0.785152  0.000801  1
  Na  Na6  1  0.529752  0.215686  0.999466  1
  Na  Na7  1  0.547797  0.693330  0.499664  1
  Na  Na8  1  0.742903  0.984799  0.498324  1
  Na  Na9  1  0.757075  0.485789  0.999333  1
  Na  Na10  1  0.954802  0.193764  0.999630  1
  Na  Na11  1  0.967396  0.715356  0.499513  1
  V  V12  1  0.749056  0.255263  0.684530  1
  V  V13  1  0.751063  0.754980  0.186436  1
  V  V14  1  0.750966  0.755026  0.813772  1
  Ga  Ga15  1  0.249091  0.244887  0.188734  1
  Ga  Ga16  1  0.249045  0.245011  0.811649  1
  Ga  Ga17  1  0.251066  0.744127  0.312841  1
  Ga  Ga18  1  0.250877  0.745062  0.688378  1
  Ga  Ga19  1  0.748937  0.255708  0.311864  1
  P  P20  1  0.003434  0.000510  0.743056  1
  P  P21  1  0.002167  0.001819  0.256958  1
  P  P22  1  0.496417  0.500356  0.756118  1
  P  P23  1  0.498190  0.498582  0.244480  1
  P  P24  1  0.496486  0.000319  0.747030  1
  P  P25  1  0.497894  0.001799  0.253180  1
  P  P26  1  0.003610  0.500222  0.752138  1
  P  P27  1  0.001837  0.498435  0.248561  1
  O  O28  1  0.093771  0.598182  0.333894  1
  O  O29  1  0.094929  0.599901  0.666747  1
  O  O30  1  0.093949  0.099014  0.169460  1
  O  O31  1  0.094195  0.098763  0.830265  1
  O  O32  1  0.099872  0.403785  0.163425  1
  O  O33  1  0.100716  0.904172  0.659167  1
  O  O34  1  0.100654  0.404790  0.836993  1
  O  O35  1  0.099227  0.905488  0.341392  1
  O  O36  1  0.399046  0.904606  0.662723  1
  O  O37  1  0.400552  0.905817  0.337784  1
  O  O38  1  0.400232  0.403327  0.159842  1
  O  O39  1  0.399562  0.404092  0.840418  1
  O  O40  1  0.406755  0.596946  0.331523  1
  O  O41  1  0.405411  0.598709  0.669193  1
  O  O42  1  0.405748  0.100143  0.167058  1
  O  O43  1  0.405364  0.099770  0.832745  1
  O  O44  1  0.590100  0.902407  0.167732  1
  O  O45  1  0.589429  0.901754  0.832351  1
  O  O46  1  0.591484  0.401808  0.331166  1
  O  O47  1  0.589209  0.403402  0.668974  1
  O  O48  1  0.595700  0.592797  0.159154  1
  O  O49  1  0.595170  0.593690  0.840829  1
  O  O50  1  0.595816  0.093384  0.662045  1
  O  O51  1  0.597021  0.095879  0.337640  1
  O  O52  1  0.903381  0.592133  0.163323  1
  O  O53  1  0.903901  0.593109  0.836674  1
  O  O54  1  0.904901  0.094005  0.658031  1
  O  O55  1  0.903300  0.096267  0.341199  1
  O  O56  1  0.910352  0.903897  0.169931  1
  O  O57  1  0.910820  0.903425  0.829976  1
  O  O58  1  0.908199  0.400473  0.333807  1
  O  O59  1  0.910703  0.401686  0.666607  1
  F  F60  1  0.250298  0.240110  0.366252  1
  F  F61  1  0.250495  0.240246  0.634299  1
  F  F62  1  0.246991  0.248143  0.999725  1
  F  F63  1  0.252999  0.748176  0.499260  1
  F  F64  1  0.249598  0.740049  0.135533  1
  F  F65  1  0.249504  0.740277  0.866121  1
  F  F66  1  0.750491  0.259226  0.135982  1
  F  F67  1  0.750048  0.262698  0.870666  1
  F  F68  1  0.747085  0.251468  0.495153  1
  F  F69  1  0.753352  0.750873  0.000044  1
  F  F70  1  0.749977  0.762537  0.370763  1
  F  F71  1  0.749872  0.762353  0.629634  1
