# generated using pymatgen
data_Dy7Y3Si5Ge
_symmetry_space_group_name_H-M   'P 1'
_cell_length_a   8.45732300
_cell_length_b   8.45963812
_cell_length_c   6.37925300
_cell_angle_alpha   90.00000000
_cell_angle_beta   90.00000000
_cell_angle_gamma   119.99094370
_symmetry_Int_Tables_number   1
_chemical_formula_structural   Dy7Y3Si5Ge
_chemical_formula_sum   'Dy7 Y3 Si5 Ge1'
_cell_volume   395.29815406
_cell_formula_units_Z   1
loop_
 _symmetry_equiv_pos_site_id
 _symmetry_equiv_pos_as_xyz
  1  'x, y, z'
loop_
 _atom_site_type_symbol
 _atom_site_label
 _atom_site_symmetry_multiplicity
 _atom_site_fract_x
 _atom_site_fract_y
 _atom_site_fract_z
 _atom_site_occupancy
  Dy  Dy0  1  0.998795  0.755773  0.750000  1
  Dy  Dy1  1  0.757617  0.000000  0.750000  1
  Dy  Dy2  1  0.243022  0.244227  0.750000  1
  Dy  Dy3  1  0.333175  0.665709  0.499315  1
  Dy  Dy4  1  0.667467  0.334291  0.000685  1
  Dy  Dy5  1  0.667467  0.334291  0.499315  1
  Dy  Dy6  1  0.333175  0.665709  0.000685  1
  Y  Y7  1  0.999922  0.243423  0.250000  1
  Y  Y8  1  0.756499  0.756577  0.250000  1
  Y  Y9  1  0.243067  0.000000  0.250000  1
  Si  Si10  1  0.394201  0.394137  0.250000  1
  Si  Si11  1  0.000063  0.605863  0.250000  1
  Si  Si12  1  0.999940  0.394236  0.750000  1
  Si  Si13  1  0.605703  0.605764  0.750000  1
  Si  Si14  1  0.605927  0.000000  0.250000  1
  Ge  Ge15  1  0.393960  0.000000  0.750000  1
