# generated using pymatgen
data_Nd2Fe8Ni4P7
_symmetry_space_group_name_H-M   'P 1'
_cell_length_a   9.14118726
_cell_length_b   9.13475575
_cell_length_c   3.69408800
_cell_angle_alpha   90.00000000
_cell_angle_beta   90.00000000
_cell_angle_gamma   120.12259210
_symmetry_Int_Tables_number   1
_chemical_formula_structural   Nd2Fe8Ni4P7
_chemical_formula_sum   'Nd2 Fe8 Ni4 P7'
_cell_volume   266.80845911
_cell_formula_units_Z   1
loop_
 _symmetry_equiv_pos_site_id
 _symmetry_equiv_pos_as_xyz
  1  'x, y, z'
loop_
 _atom_site_type_symbol
 _atom_site_label
 _atom_site_symmetry_multiplicity
 _atom_site_fract_x
 _atom_site_fract_y
 _atom_site_fract_z
 _atom_site_occupancy
  Nd  Nd0  1  0.999448  0.000867  0.000000  1
  Nd  Nd1  1  0.333806  0.665422  0.500000  1
  Fe  Fe2  1  0.821845  0.607094  0.000000  1
  Fe  Fe3  1  0.783486  0.181018  0.000000  1
  Fe  Fe4  1  0.397201  0.215137  0.000000  1
  Fe  Fe5  1  0.712295  0.948506  0.500000  1
  Fe  Fe6  1  0.234612  0.284987  0.500000  1
  Fe  Fe7  1  0.883717  0.429444  0.500000  1
  Fe  Fe8  1  0.551807  0.123221  0.500000  1
  Fe  Fe9  1  0.570683  0.451554  0.500000  1
  Ni  Ni10  1  0.094518  0.391570  0.000000  1
  Ni  Ni11  1  0.297176  0.902522  0.000000  1
  Ni  Ni12  1  0.604032  0.699002  0.000000  1
  Ni  Ni13  1  0.052733  0.767147  0.500000  1
  P  P14  1  0.068777  0.627709  0.000000  1
  P  P15  1  0.563856  0.929108  0.000000  1
  P  P16  1  0.363826  0.433971  0.000000  1
  P  P17  1  0.772899  0.729894  0.500000  1
  P  P18  1  0.949402  0.219092  0.500000  1
  P  P19  1  0.275333  0.056336  0.500000  1
  P  P20  1  0.668548  0.336400  0.000000  1
