# generated using pymatgen
data_Mn11Nb12ReN4
_symmetry_space_group_name_H-M   'P 1'
_cell_length_a   8.11890440
_cell_length_b   8.12043789
_cell_length_c   8.12229460
_cell_angle_alpha   59.75900556
_cell_angle_beta   59.75442746
_cell_angle_gamma   59.75761712
_symmetry_Int_Tables_number   1
_chemical_formula_structural   Mn11Nb12ReN4
_chemical_formula_sum   'Mn11 Nb12 Re1 N4'
_cell_volume   376.56313797
_cell_formula_units_Z   1
loop_
 _symmetry_equiv_pos_site_id
 _symmetry_equiv_pos_as_xyz
  1  'x, y, z'
loop_
 _atom_site_type_symbol
 _atom_site_label
 _atom_site_symmetry_multiplicity
 _atom_site_fract_x
 _atom_site_fract_y
 _atom_site_fract_z
 _atom_site_occupancy
  Mn  Mn0  1  0.125000  0.625000  0.625000  1
  Mn  Mn1  1  0.625000  0.125000  0.625000  1
  Mn  Mn2  1  0.625000  0.625000  0.125000  1
  Mn  Mn3  1  0.732026  0.418627  0.418243  1
  Mn  Mn4  1  0.418388  0.732253  0.418043  1
  Mn  Mn5  1  0.417757  0.418823  0.731999  1
  Mn  Mn6  1  0.422187  0.422781  0.422468  1
  Mn  Mn7  1  0.517974  0.831373  0.831757  1
  Mn  Mn8  1  0.831612  0.517747  0.831957  1
  Mn  Mn9  1  0.832243  0.831177  0.518001  1
  Mn  Mn10  1  0.827813  0.827219  0.827532  1
  Nb  Nb11  1  0.806583  0.806481  0.192318  1
  Nb  Nb12  1  0.195776  0.195657  0.804513  1
  Nb  Nb13  1  0.806333  0.192355  0.806402  1
  Nb  Nb14  1  0.195583  0.804510  0.195686  1
  Nb  Nb15  1  0.192662  0.806174  0.806312  1
  Nb  Nb16  1  0.804355  0.195702  0.195880  1
  Nb  Nb17  1  0.443417  0.443519  0.057682  1
  Nb  Nb18  1  0.054224  0.054343  0.445487  1
  Nb  Nb19  1  0.443667  0.057645  0.443598  1
  Nb  Nb20  1  0.054417  0.445490  0.054314  1
  Nb  Nb21  1  0.057338  0.443826  0.443688  1
  Nb  Nb22  1  0.445645  0.054298  0.054120  1
  Re  Re23  1  0.625000  0.625000  0.625000  1
  N  N24  1  0.625000  0.125000  0.125000  1
  N  N25  1  0.125000  0.625000  0.125000  1
  N  N26  1  0.125000  0.125000  0.625000  1
  N  N27  1  0.125000  0.125000  0.125000  1
