# generated using pymatgen
data_AcAg(PS3)2
_symmetry_space_group_name_H-M   'P 1'
_cell_length_a   6.44373790
_cell_length_b   7.48016709
_cell_length_c   10.23961457
_cell_angle_alpha   93.77365409
_cell_angle_beta   91.31906655
_cell_angle_gamma   95.57026261
_symmetry_Int_Tables_number   1
_chemical_formula_structural   AcAg(PS3)2
_chemical_formula_sum   'Ac2 Ag2 P4 S12'
_cell_volume   489.94124649
_cell_formula_units_Z   2
loop_
 _symmetry_equiv_pos_site_id
 _symmetry_equiv_pos_as_xyz
  1  'x, y, z'
loop_
 _atom_site_type_symbol
 _atom_site_label
 _atom_site_symmetry_multiplicity
 _atom_site_fract_x
 _atom_site_fract_y
 _atom_site_fract_z
 _atom_site_occupancy
  Ac  Ac0  1  0.541574  0.407614  0.756038  1
  Ac  Ac1  1  0.458426  0.592386  0.243962  1
  Ag  Ag2  1  0.070724  0.998584  0.297328  1
  Ag  Ag3  1  0.929276  0.001416  0.702672  1
  P  P4  1  0.950927  0.611496  0.068374  1
  P  P5  1  0.429400  0.891302  0.563408  1
  P  P6  1  0.570600  0.108698  0.436592  1
  P  P7  1  0.049073  0.388504  0.931626  1
  S  S8  1  0.187592  0.813009  0.081530  1
  S  S9  1  0.673172  0.737763  0.588668  1
  S  S10  1  0.092265  0.508472  0.760177  1
  S  S11  1  0.326828  0.262237  0.411332  1
  S  S12  1  0.685730  0.691332  0.987857  1
  S  S13  1  0.669664  0.986208  0.268139  1
  S  S14  1  0.812408  0.186991  0.918470  1
  S  S15  1  0.330336  0.013792  0.731861  1
  S  S16  1  0.907735  0.491528  0.239823  1
  S  S17  1  0.314270  0.308668  0.012143  1
  S  S18  1  0.806886  0.249470  0.544439  1
  S  S19  1  0.193114  0.750530  0.455561  1
