# generated using pymatgen
data_Lu2V2Fe4Co6P7
_symmetry_space_group_name_H-M   'P 1'
_cell_length_a   3.60559500
_cell_length_b   8.97420783
_cell_length_c   8.99909111
_cell_angle_alpha   119.95569662
_cell_angle_beta   90.00000000
_cell_angle_gamma   90.00000000
_symmetry_Int_Tables_number   1
_chemical_formula_structural   Lu2V2Fe4Co6P7
_chemical_formula_sum   'Lu2 V2 Fe4 Co6 P7'
_cell_volume   252.28768737
_cell_formula_units_Z   1
loop_
 _symmetry_equiv_pos_site_id
 _symmetry_equiv_pos_as_xyz
  1  'x, y, z'
loop_
 _atom_site_type_symbol
 _atom_site_label
 _atom_site_symmetry_multiplicity
 _atom_site_fract_x
 _atom_site_fract_y
 _atom_site_fract_z
 _atom_site_occupancy
  Lu  Lu0  1  0.000000  0.666030  0.334009  1
  Lu  Lu1  1  0.500000  0.333328  0.666205  1
  V  V2  1  0.500000  0.114255  0.896634  1
  V  V3  1  0.500000  0.100416  0.218747  1
  Fe  Fe4  1  0.000000  0.880278  0.724525  1
  Fe  Fe5  1  0.000000  0.277554  0.159480  1
  Fe  Fe6  1  0.000000  0.840046  0.118774  1
  Fe  Fe7  1  0.500000  0.780372  0.874904  1
  Co  Co8  1  0.000000  0.370948  0.937163  1
  Co  Co9  1  0.000000  0.061918  0.433054  1
  Co  Co10  1  0.000000  0.572072  0.632373  1
  Co  Co11  1  0.500000  0.947374  0.561416  1
  Co  Co12  1  0.500000  0.442089  0.390655  1
  Co  Co13  1  0.500000  0.612817  0.048603  1
  P  P14  1  0.000000  0.113187  0.699780  1
  P  P15  1  0.000000  0.299766  0.413857  1
  P  P16  1  0.000000  0.590299  0.886524  1
  P  P17  1  0.500000  0.715104  0.598197  1
  P  P18  1  0.500000  0.406916  0.118270  1
  P  P19  1  0.500000  0.879015  0.287563  1
  P  P20  1  0.000000  0.996218  0.999269  1
