# generated using pymatgen
data_Er10In5SnSe2
_symmetry_space_group_name_H-M   'P 1'
_cell_length_a   9.06250770
_cell_length_b   9.11444396
_cell_length_c   6.70669800
_cell_angle_alpha   90.00000000
_cell_angle_beta   90.00000000
_cell_angle_gamma   120.18976395
_symmetry_Int_Tables_number   1
_chemical_formula_structural   Er10In5SnSe2
_chemical_formula_sum   'Er10 In5 Sn1 Se2'
_cell_volume   478.83326958
_cell_formula_units_Z   1
loop_
 _symmetry_equiv_pos_site_id
 _symmetry_equiv_pos_as_xyz
  1  'x, y, z'
loop_
 _atom_site_type_symbol
 _atom_site_label
 _atom_site_symmetry_multiplicity
 _atom_site_fract_x
 _atom_site_fract_y
 _atom_site_fract_z
 _atom_site_occupancy
  Er  Er0  1  0.668223  0.334219  0.998996  1
  Er  Er1  1  0.331777  0.665997  0.998996  1
  Er  Er2  1  0.331777  0.665997  0.501004  1
  Er  Er3  1  0.668223  0.334219  0.501004  1
  Er  Er4  1  0.749271  0.747869  0.750000  1
  Er  Er5  1  0.250729  0.998598  0.750000  1
  Er  Er6  1  0.000000  0.254004  0.750000  1
  Er  Er7  1  0.250191  0.251228  0.250000  1
  Er  Er8  1  0.749809  0.001037  0.250000  1
  Er  Er9  1  0.000000  0.746226  0.250000  1
  In  In10  1  0.398429  0.398672  0.750000  1
  In  In11  1  0.601571  0.000244  0.750000  1
  In  In12  1  0.000000  0.601932  0.750000  1
  In  In13  1  0.601143  0.601227  0.250000  1
  In  In14  1  0.398857  0.000084  0.250000  1
  Sn  Sn15  1  0.000000  0.397986  0.250000  1
  Se  Se16  1  0.000000  0.000231  0.000537  1
  Se  Se17  1  0.000000  0.000231  0.499463  1
