# generated using pymatgen
data_HoTm2Si2GeRu2
_symmetry_space_group_name_H-M   'P 1'
_cell_length_a   5.70038405
_cell_length_b   5.70038410
_cell_length_c   13.79434500
_cell_angle_alpha   90.00000000
_cell_angle_beta   90.00000000
_cell_angle_gamma   137.25363267
_symmetry_Int_Tables_number   1
_chemical_formula_structural   HoTm2Si2GeRu2
_chemical_formula_sum   'Ho2 Tm4 Si4 Ge2 Ru4'
_cell_volume   304.24387335
_cell_formula_units_Z   2
loop_
 _symmetry_equiv_pos_site_id
 _symmetry_equiv_pos_as_xyz
  1  'x, y, z'
loop_
 _atom_site_type_symbol
 _atom_site_label
 _atom_site_symmetry_multiplicity
 _atom_site_fract_x
 _atom_site_fract_y
 _atom_site_fract_z
 _atom_site_occupancy
  Ho  Ho0  1  0.645255  0.354745  0.250000  1
  Ho  Ho1  1  0.354745  0.645255  0.750000  1
  Tm  Tm2  1  0.925074  0.074926  0.387636  1
  Tm  Tm3  1  0.074926  0.925074  0.612364  1
  Tm  Tm4  1  0.925074  0.074926  0.112364  1
  Tm  Tm5  1  0.074926  0.925074  0.887636  1
  Si  Si6  1  0.615682  0.384318  0.461508  1
  Si  Si7  1  0.384318  0.615682  0.538492  1
  Si  Si8  1  0.615682  0.384318  0.038492  1
  Si  Si9  1  0.384318  0.615682  0.961508  1
  Ge  Ge10  1  0.339640  0.660360  0.250000  1
  Ge  Ge11  1  0.660360  0.339640  0.750000  1
  Ru  Ru12  1  0.788525  0.211475  0.920297  1
  Ru  Ru13  1  0.211475  0.788525  0.079703  1
  Ru  Ru14  1  0.788525  0.211475  0.579703  1
  Ru  Ru15  1  0.211475  0.788525  0.420297  1
