# generated using pymatgen
data_Y4Ga7Au5
_symmetry_space_group_name_H-M   'P 1'
_cell_length_a   4.38731100
_cell_length_b   6.91960406
_cell_length_c   10.38580150
_cell_angle_alpha   90.53889718
_cell_angle_beta   90.00000000
_cell_angle_gamma   90.00000000
_symmetry_Int_Tables_number   1
_chemical_formula_structural   Y4Ga7Au5
_chemical_formula_sum   'Y4 Ga7 Au5'
_cell_volume   315.28294138
_cell_formula_units_Z   1
loop_
 _symmetry_equiv_pos_site_id
 _symmetry_equiv_pos_as_xyz
  1  'x, y, z'
loop_
 _atom_site_type_symbol
 _atom_site_label
 _atom_site_symmetry_multiplicity
 _atom_site_fract_x
 _atom_site_fract_y
 _atom_site_fract_z
 _atom_site_occupancy
  Y  Y0  1  0.500000  0.769361  0.175414  1
  Y  Y1  1  0.500000  0.267185  0.332889  1
  Y  Y2  1  0.000000  0.232491  0.830596  1
  Y  Y3  1  0.000000  0.738790  0.662100  1
  Ga  Ga4  1  0.500000  0.928445  0.850007  1
  Ga  Ga5  1  0.500000  0.431870  0.652880  1
  Ga  Ga6  1  0.000000  0.073734  0.145220  1
  Ga  Ga7  1  0.000000  0.567963  0.351572  1
  Ga  Ga8  1  0.500000  0.211773  0.036423  1
  Ga  Ga9  1  0.000000  0.285282  0.539277  1
  Ga  Ga10  1  0.000000  0.786730  0.962426  1
  Au  Au11  1  0.500000  0.545082  0.897754  1
  Au  Au12  1  0.500000  0.050000  0.608455  1
  Au  Au13  1  0.000000  0.457883  0.107249  1
  Au  Au14  1  0.000000  0.960214  0.386494  1
  Au  Au15  1  0.500000  0.693199  0.461242  1
