# generated using pymatgen
data_LaNp5U2Bi3Sb7
_symmetry_space_group_name_H-M   'P 1'
_cell_length_a   9.67704358
_cell_length_b   9.62357492
_cell_length_c   6.22545957
_cell_angle_alpha   90.01546714
_cell_angle_beta   89.92443276
_cell_angle_gamma   120.36108675
_symmetry_Int_Tables_number   1
_chemical_formula_structural   LaNp5U2Bi3Sb7
_chemical_formula_sum   'La1 Np5 U2 Bi3 Sb7'
_cell_volume   500.25221940
_cell_formula_units_Z   1
loop_
 _symmetry_equiv_pos_site_id
 _symmetry_equiv_pos_as_xyz
  1  'x, y, z'
loop_
 _atom_site_type_symbol
 _atom_site_label
 _atom_site_symmetry_multiplicity
 _atom_site_fract_x
 _atom_site_fract_y
 _atom_site_fract_z
 _atom_site_occupancy
  La  La0  1  0.621296  0.003879  0.247877  1
  Np  Np1  1  0.378031  0.005081  0.753466  1
  Np  Np2  1  0.383675  0.378549  0.243444  1
  Np  Np3  1  0.994941  0.615283  0.243217  1
  Np  Np4  1  0.991177  0.374546  0.756925  1
  Np  Np5  1  0.625341  0.622342  0.756944  1
  U  U6  1  0.003228  0.000505  0.995588  1
  U  U7  1  0.003144  0.000387  0.503655  1
  Bi  Bi8  1  0.664490  0.336513  0.501922  1
  Bi  Bi9  1  0.329045  0.662698  0.997958  1
  Bi  Bi10  1  0.327689  0.661669  0.501596  1
  Sb  Sb11  1  0.723105  0.997960  0.748521  1
  Sb  Sb12  1  0.725069  0.721017  0.252413  1
  Sb  Sb13  1  0.665448  0.337534  0.998055  1
  Sb  Sb14  1  0.275766  0.997754  0.251098  1
  Sb  Sb15  1  0.280093  0.283814  0.747280  1
  Sb  Sb16  1  0.001274  0.719474  0.747958  1
  Sb  Sb17  1  0.007184  0.280995  0.252084  1
