# generated using pymatgen
data_Tb2Nb3P7Ir9
_symmetry_space_group_name_H-M   'P 1'
_cell_length_a   4.00851900
_cell_length_b   9.62774261
_cell_length_c   9.62807615
_cell_angle_alpha   119.99217718
_cell_angle_beta   89.99898643
_cell_angle_gamma   90.00061674
_symmetry_Int_Tables_number   1
_chemical_formula_structural   Tb2Nb3P7Ir9
_chemical_formula_sum   'Tb2 Nb3 P7 Ir9'
_cell_volume   321.81982536
_cell_formula_units_Z   1
loop_
 _symmetry_equiv_pos_site_id
 _symmetry_equiv_pos_as_xyz
  1  'x, y, z'
loop_
 _atom_site_type_symbol
 _atom_site_label
 _atom_site_symmetry_multiplicity
 _atom_site_fract_x
 _atom_site_fract_y
 _atom_site_fract_z
 _atom_site_occupancy
  Tb  Tb0  1  0.261657  0.666680  0.333361  1
  Tb  Tb1  1  0.761996  0.333342  0.666650  1
  Nb  Nb2  1  0.761993  0.093821  0.871608  1
  Nb  Nb3  1  0.761993  0.128401  0.222176  1
  Nb  Nb4  1  0.761998  0.777757  0.906210  1
  P  P5  1  0.262252  0.000011  0.999996  1
  P  P6  1  0.761724  0.875129  0.590405  1
  P  P7  1  0.761715  0.409650  0.284729  1
  P  P8  1  0.761714  0.715286  0.124966  1
  P  P9  1  0.261924  0.118285  0.417366  1
  P  P10  1  0.261928  0.582601  0.700907  1
  P  P11  1  0.261926  0.299060  0.881683  1
  Ir  Ir12  1  0.261902  0.887796  0.162712  1
  Ir  Ir13  1  0.261907  0.837233  0.725057  1
  Ir  Ir14  1  0.261900  0.274979  0.112209  1
  Ir  Ir15  1  0.761885  0.610092  0.552088  1
  Ir  Ir16  1  0.761883  0.447958  0.058035  1
  Ir  Ir17  1  0.761884  0.942049  0.389968  1
  Ir  Ir18  1  0.261939  0.366332  0.441072  1
  Ir  Ir19  1  0.261944  0.558853  0.925224  1
  Ir  Ir20  1  0.261938  0.074686  0.633575  1
