# generated using pymatgen
data_HoTiP3Rh4
_symmetry_space_group_name_H-M   'P 1'
_cell_length_a   3.91046700
_cell_length_b   11.00578100
_cell_length_c   12.63266600
_cell_angle_alpha   90.00000000
_cell_angle_beta   90.00000000
_cell_angle_gamma   90.00000000
_symmetry_Int_Tables_number   1
_chemical_formula_structural   HoTiP3Rh4
_chemical_formula_sum   'Ho4 Ti4 P12 Rh16'
_cell_volume   543.68143789
_cell_formula_units_Z   4
loop_
 _symmetry_equiv_pos_site_id
 _symmetry_equiv_pos_as_xyz
  1  'x, y, z'
loop_
 _atom_site_type_symbol
 _atom_site_label
 _atom_site_symmetry_multiplicity
 _atom_site_fract_x
 _atom_site_fract_y
 _atom_site_fract_z
 _atom_site_occupancy
  Ho  Ho0  1  0.250000  0.580755  0.706057  1
  Ho  Ho1  1  0.250000  0.919245  0.206057  1
  Ho  Ho2  1  0.750000  0.419245  0.293943  1
  Ho  Ho3  1  0.750000  0.080755  0.793943  1
  Ti  Ti4  1  0.250000  0.705776  0.990090  1
  Ti  Ti5  1  0.250000  0.794224  0.490090  1
  Ti  Ti6  1  0.750000  0.294224  0.009910  1
  Ti  Ti7  1  0.750000  0.205776  0.509910  1
  P  P8  1  0.250000  0.420005  0.116742  1
  P  P9  1  0.250000  0.079995  0.616742  1
  P  P10  1  0.750000  0.579995  0.883258  1
  P  P11  1  0.750000  0.920005  0.383258  1
  P  P12  1  0.250000  0.262282  0.866591  1
  P  P13  1  0.250000  0.237718  0.366591  1
  P  P14  1  0.750000  0.737718  0.133409  1
  P  P15  1  0.750000  0.762282  0.633409  1
  P  P16  1  0.250000  0.595108  0.391003  1
  P  P17  1  0.250000  0.904892  0.891003  1
  P  P18  1  0.750000  0.404892  0.608997  1
  P  P19  1  0.750000  0.095108  0.108997  1
  Rh  Rh20  1  0.250000  0.405974  0.486457  1
  Rh  Rh21  1  0.250000  0.094026  0.986457  1
  Rh  Rh22  1  0.750000  0.594026  0.513543  1
  Rh  Rh23  1  0.750000  0.905974  0.013543  1
  Rh  Rh24  1  0.250000  0.228105  0.179324  1
  Rh  Rh25  1  0.250000  0.271895  0.679324  1
  Rh  Rh26  1  0.750000  0.771895  0.820676  1
  Rh  Rh27  1  0.750000  0.728105  0.320676  1
  Rh  Rh28  1  0.250000  0.888939  0.703401  1
  Rh  Rh29  1  0.250000  0.611061  0.203401  1
  Rh  Rh30  1  0.750000  0.111061  0.296599  1
  Rh  Rh31  1  0.750000  0.388939  0.796599  1
  Rh  Rh32  1  0.250000  0.461594  0.933535  1
  Rh  Rh33  1  0.250000  0.038406  0.433535  1
  Rh  Rh34  1  0.750000  0.538406  0.066465  1
  Rh  Rh35  1  0.750000  0.961594  0.566465  1
