# generated using pymatgen
data_YTm(Lu2Fe9)2
_symmetry_space_group_name_H-M   'P 1'
_cell_length_a   5.05758000
_cell_length_b   5.05758021
_cell_length_c   15.98084300
_cell_angle_alpha   90.00000000
_cell_angle_beta   90.00000000
_cell_angle_gamma   119.99999865
_symmetry_Int_Tables_number   1
_chemical_formula_structural   YTm(Lu2Fe9)2
_chemical_formula_sum   'Y1 Tm1 Lu4 Fe18'
_cell_volume   354.01027093
_cell_formula_units_Z   1
loop_
 _symmetry_equiv_pos_site_id
 _symmetry_equiv_pos_as_xyz
  1  'x, y, z'
loop_
 _atom_site_type_symbol
 _atom_site_label
 _atom_site_symmetry_multiplicity
 _atom_site_fract_x
 _atom_site_fract_y
 _atom_site_fract_z
 _atom_site_occupancy
  Y  Y0  1  0.666667  0.333333  0.250000  1
  Tm  Tm1  1  0.333333  0.666667  0.750000  1
  Lu  Lu2  1  0.333333  0.666667  0.963395  1
  Lu  Lu3  1  0.666667  0.333333  0.036566  1
  Lu  Lu4  1  0.666667  0.333333  0.463434  1
  Lu  Lu5  1  0.333333  0.666667  0.536605  1
  Fe  Fe6  1  0.167428  0.832572  0.373771  1
  Fe  Fe7  1  0.167428  0.334856  0.373771  1
  Fe  Fe8  1  0.665144  0.832572  0.373771  1
  Fe  Fe9  1  0.832586  0.167414  0.626337  1
  Fe  Fe10  1  0.832586  0.665172  0.626337  1
  Fe  Fe11  1  0.334828  0.167414  0.626337  1
  Fe  Fe12  1  0.832586  0.167414  0.873663  1
  Fe  Fe13  1  0.832586  0.665172  0.873663  1
  Fe  Fe14  1  0.334828  0.167414  0.873663  1
  Fe  Fe15  1  0.167428  0.832572  0.126229  1
  Fe  Fe16  1  0.167428  0.334856  0.126229  1
  Fe  Fe17  1  0.665144  0.832572  0.126229  1
  Fe  Fe18  1  0.333333  0.666667  0.250000  1
  Fe  Fe19  1  0.666667  0.333333  0.750000  1
  Fe  Fe20  1  0.000000  0.000000  0.250000  1
  Fe  Fe21  1  0.000000  0.000000  0.750000  1
  Fe  Fe22  1  0.000000  0.000000  0.499990  1
  Fe  Fe23  1  0.000000  0.000000  0.000010  1
