# generated using pymatgen
data_TbTh(Cd2Pd)2
_symmetry_space_group_name_H-M   'P 1'
_cell_length_a   5.41555244
_cell_length_b   5.41555246
_cell_length_c   8.60469500
_cell_angle_alpha   90.00000000
_cell_angle_beta   90.00000000
_cell_angle_gamma   133.89564297
_symmetry_Int_Tables_number   1
_chemical_formula_structural   TbTh(Cd2Pd)2
_chemical_formula_sum   'Tb1 Th1 Cd4 Pd2'
_cell_volume   181.85179212
_cell_formula_units_Z   1
loop_
 _symmetry_equiv_pos_site_id
 _symmetry_equiv_pos_as_xyz
  1  'x, y, z'
loop_
 _atom_site_type_symbol
 _atom_site_label
 _atom_site_symmetry_multiplicity
 _atom_site_fract_x
 _atom_site_fract_y
 _atom_site_fract_z
 _atom_site_occupancy
  Tb  Tb0  1  0.933184  0.066816  0.750000  1
  Th  Th1  1  0.065661  0.934339  0.250000  1
  Cd  Cd2  1  0.642689  0.357311  0.552232  1
  Cd  Cd3  1  0.357680  0.642320  0.457599  1
  Cd  Cd4  1  0.642689  0.357311  0.947768  1
  Cd  Cd5  1  0.357680  0.642320  0.042401  1
  Pd  Pd6  1  0.225193  0.774807  0.750000  1
  Pd  Pd7  1  0.775225  0.224775  0.250000  1
