# generated using pymatgen
data_Tm6Th4Sn7Bi
_symmetry_space_group_name_H-M   'P 1'
_cell_length_a   8.12323100
_cell_length_b   8.17685458
_cell_length_c   15.42708489
_cell_angle_alpha   90.09111648
_cell_angle_beta   90.00000000
_cell_angle_gamma   90.00000000
_symmetry_Int_Tables_number   1
_chemical_formula_structural   Tm6Th4Sn7Bi
_chemical_formula_sum   'Tm12 Th8 Sn14 Bi2'
_cell_volume   1024.70392008
_cell_formula_units_Z   2
loop_
 _symmetry_equiv_pos_site_id
 _symmetry_equiv_pos_as_xyz
  1  'x, y, z'
loop_
 _atom_site_type_symbol
 _atom_site_label
 _atom_site_symmetry_multiplicity
 _atom_site_fract_x
 _atom_site_fract_y
 _atom_site_fract_z
 _atom_site_occupancy
  Tm  Tm0  1  0.361848  0.835690  0.874464  1
  Tm  Tm1  1  0.861848  0.664310  0.625536  1
  Tm  Tm2  1  0.636515  0.157099  0.374552  1
  Tm  Tm3  1  0.136515  0.342901  0.125448  1
  Tm  Tm4  1  0.643934  0.162845  0.124634  1
  Tm  Tm5  1  0.143934  0.337155  0.375366  1
  Tm  Tm6  1  0.361209  0.837856  0.624354  1
  Tm  Tm7  1  0.861209  0.662144  0.875646  1
  Tm  Tm8  1  0.190331  0.498055  0.749530  1
  Tm  Tm9  1  0.690331  0.001945  0.750470  1
  Tm  Tm10  1  0.809278  0.503123  0.247691  1
  Tm  Tm11  1  0.309278  0.996877  0.252309  1
  Th  Th12  1  0.520523  0.324189  0.903807  1
  Th  Th13  1  0.020523  0.175811  0.596193  1
  Th  Th14  1  0.475980  0.681145  0.403674  1
  Th  Th15  1  0.975980  0.818855  0.096326  1
  Th  Th16  1  0.483054  0.675002  0.095164  1
  Th  Th17  1  0.983054  0.824998  0.404836  1
  Th  Th18  1  0.515048  0.319784  0.596775  1
  Th  Th19  1  0.015048  0.180216  0.903225  1
  Sn  Sn20  1  0.700245  0.959149  0.542450  1
  Sn  Sn21  1  0.200245  0.540851  0.957550  1
  Sn  Sn22  1  0.701995  0.959232  0.956860  1
  Sn  Sn23  1  0.201995  0.540768  0.543140  1
  Sn  Sn24  1  0.300442  0.041289  0.457719  1
  Sn  Sn25  1  0.800442  0.458711  0.042281  1
  Sn  Sn26  1  0.556553  0.623503  0.749643  1
  Sn  Sn27  1  0.056553  0.876497  0.750357  1
  Sn  Sn28  1  0.444814  0.375886  0.249820  1
  Sn  Sn29  1  0.944814  0.124114  0.250180  1
  Sn  Sn30  1  0.325848  0.142756  0.750735  1
  Sn  Sn31  1  0.825848  0.357244  0.749265  1
  Sn  Sn32  1  0.673013  0.855858  0.249877  1
  Sn  Sn33  1  0.173013  0.644142  0.250123  1
  Bi  Bi34  1  0.299370  0.042221  0.042885  1
  Bi  Bi35  1  0.799370  0.457779  0.457115  1
