# generated using pymatgen
data_NdGd2CI3
_symmetry_space_group_name_H-M   'P 1'
_cell_length_a   4.00555300
_cell_length_b   8.93781229
_cell_length_c   12.10723500
_cell_angle_alpha   92.32129740
_cell_angle_beta   90.00000000
_cell_angle_gamma   90.00000000
_symmetry_Int_Tables_number   1
_chemical_formula_structural   NdGd2CI3
_chemical_formula_sum   'Nd2 Gd4 C2 I6'
_cell_volume   433.09399245
_cell_formula_units_Z   2
loop_
 _symmetry_equiv_pos_site_id
 _symmetry_equiv_pos_as_xyz
  1  'x, y, z'
loop_
 _atom_site_type_symbol
 _atom_site_label
 _atom_site_symmetry_multiplicity
 _atom_site_fract_x
 _atom_site_fract_y
 _atom_site_fract_z
 _atom_site_occupancy
  Nd  Nd0  1  0.250000  0.913075  0.601162  1
  Nd  Nd1  1  0.750000  0.086925  0.398838  1
  Gd  Gd2  1  0.250000  0.886514  0.183772  1
  Gd  Gd3  1  0.750000  0.113486  0.816228  1
  Gd  Gd4  1  0.250000  0.294557  0.615401  1
  Gd  Gd5  1  0.750000  0.705443  0.384599  1
  C  C6  1  0.250000  0.874751  0.380547  1
  C  C7  1  0.750000  0.125249  0.619453  1
  I  I8  1  0.250000  0.860795  0.875953  1
  I  I9  1  0.750000  0.139205  0.124047  1
  I  I10  1  0.250000  0.374131  0.871328  1
  I  I11  1  0.750000  0.625869  0.128672  1
  I  I12  1  0.250000  0.386994  0.367541  1
  I  I13  1  0.750000  0.613006  0.632459  1
