# generated using pymatgen
data_Li2Co2Ni10P7
_symmetry_space_group_name_H-M   'P 1'
_cell_length_a   9.01158300
_cell_length_b   8.98030350
_cell_length_c   3.49257900
_cell_angle_alpha   90.00000000
_cell_angle_beta   90.00000000
_cell_angle_gamma   120.11709803
_symmetry_Int_Tables_number   1
_chemical_formula_structural   Li2Co2Ni10P7
_chemical_formula_sum   'Li2 Co2 Ni10 P7'
_cell_volume   244.48674146
_cell_formula_units_Z   1
loop_
 _symmetry_equiv_pos_site_id
 _symmetry_equiv_pos_as_xyz
  1  'x, y, z'
loop_
 _atom_site_type_symbol
 _atom_site_label
 _atom_site_symmetry_multiplicity
 _atom_site_fract_x
 _atom_site_fract_y
 _atom_site_fract_z
 _atom_site_occupancy
  Li  Li0  1  0.000790  0.000339  0.000000  1
  Li  Li1  1  0.332138  0.665842  0.500000  1
  Co  Co2  1  0.391503  0.216147  0.000000  1
  Co  Co3  1  0.825527  0.609830  0.000000  1
  Ni  Ni4  1  0.291605  0.894999  0.000000  1
  Ni  Ni5  1  0.603744  0.707134  0.000000  1
  Ni  Ni6  1  0.102873  0.394008  0.000000  1
  Ni  Ni7  1  0.783066  0.175889  0.000000  1
  Ni  Ni8  1  0.719898  0.948864  0.500000  1
  Ni  Ni9  1  0.229476  0.279962  0.500000  1
  Ni  Ni10  1  0.051902  0.772434  0.500000  1
  Ni  Ni11  1  0.538423  0.109866  0.500000  1
  Ni  Ni12  1  0.570669  0.464598  0.500000  1
  Ni  Ni13  1  0.891696  0.427658  0.500000  1
  P  P14  1  0.542203  0.915053  0.000000  1
  P  P15  1  0.373249  0.454709  0.000000  1
  P  P16  1  0.080401  0.625276  0.000000  1
  P  P17  1  0.958895  0.211198  0.500000  1
  P  P18  1  0.257943  0.044955  0.500000  1
  P  P19  1  0.789417  0.744944  0.500000  1
  P  P20  1  0.664584  0.336294  0.000000  1
