# generated using pymatgen
data_Tc3SnSb6
_symmetry_space_group_name_H-M   'P 1'
_cell_length_a   8.23507581
_cell_length_b   8.23507684
_cell_length_c   8.23733514
_cell_angle_alpha   109.22738838
_cell_angle_beta   109.22738200
_cell_angle_gamma   109.94897307
_symmetry_Int_Tables_number   1
_chemical_formula_structural   Tc3SnSb6
_chemical_formula_sum   'Tc6 Sn2 Sb12'
_cell_volume   430.06687727
_cell_formula_units_Z   2
loop_
 _symmetry_equiv_pos_site_id
 _symmetry_equiv_pos_as_xyz
  1  'x, y, z'
loop_
 _atom_site_type_symbol
 _atom_site_label
 _atom_site_symmetry_multiplicity
 _atom_site_fract_x
 _atom_site_fract_y
 _atom_site_fract_z
 _atom_site_occupancy
  Tc  Tc0  1  0.340509  0.002797  0.343306  1
  Tc  Tc1  1  0.002797  0.340509  0.343306  1
  Tc  Tc2  1  0.002922  0.659386  0.662308  1
  Tc  Tc3  1  0.335318  0.335318  0.994531  1
  Tc  Tc4  1  0.659214  0.659214  0.994531  1
  Tc  Tc5  1  0.659386  0.002922  0.662308  1
  Sn  Sn6  1  0.748954  0.499686  0.248640  1
  Sn  Sn7  1  0.499686  0.748954  0.248640  1
  Sb  Sb8  1  0.500132  0.251135  0.751267  1
  Sb  Sb9  1  0.749936  0.249936  0.499872  1
  Sb  Sb10  1  0.249936  0.749936  0.499872  1
  Sb  Sb11  1  0.251135  0.500132  0.751267  1
  Sb  Sb12  1  0.996979  0.996979  0.324709  1
  Sb  Sb13  1  0.674395  0.000835  0.001940  1
  Sb  Sb14  1  0.000835  0.674395  0.001940  1
  Sb  Sb15  1  0.327730  0.327730  0.324709  1
  Sb  Sb16  1  0.001106  0.327544  0.001940  1
  Sb  Sb17  1  0.674327  0.674327  0.671486  1
  Sb  Sb18  1  0.327544  0.001106  0.001940  1
  Sb  Sb19  1  0.997160  0.997160  0.671486  1
