# generated using pymatgen
data_Yb6Sn7Pd5
_symmetry_space_group_name_H-M   'P 1'
_cell_length_a   7.67588000
_cell_length_b   7.67587993
_cell_length_c   8.09522200
_cell_angle_alpha   90.00000000
_cell_angle_beta   90.00000000
_cell_angle_gamma   120.00000029
_symmetry_Int_Tables_number   1
_chemical_formula_structural   Yb6Sn7Pd5
_chemical_formula_sum   'Yb6 Sn7 Pd5'
_cell_volume   413.06247518
_cell_formula_units_Z   1
loop_
 _symmetry_equiv_pos_site_id
 _symmetry_equiv_pos_as_xyz
  1  'x, y, z'
loop_
 _atom_site_type_symbol
 _atom_site_label
 _atom_site_symmetry_multiplicity
 _atom_site_fract_x
 _atom_site_fract_y
 _atom_site_fract_z
 _atom_site_occupancy
  Yb  Yb0  1  0.409858  0.009136  0.262418  1
  Yb  Yb1  1  0.599279  0.590142  0.262418  1
  Yb  Yb2  1  0.990864  0.400721  0.262418  1
  Yb  Yb3  1  0.407556  0.004268  0.737965  1
  Yb  Yb4  1  0.596712  0.592444  0.737965  1
  Yb  Yb5  1  0.995732  0.403288  0.737965  1
  Sn  Sn6  1  0.755665  0.021374  0.999438  1
  Sn  Sn7  1  0.255965  0.259657  0.500085  1
  Sn  Sn8  1  0.003690  0.744035  0.500085  1
  Sn  Sn9  1  0.978626  0.734291  0.999438  1
  Sn  Sn10  1  0.265709  0.244335  0.999438  1
  Sn  Sn11  1  0.740343  0.996310  0.500085  1
  Sn  Sn12  1  0.333333  0.666667  0.004207  1
  Pd  Pd13  1  0.333333  0.666667  0.496556  1
  Pd  Pd14  1  0.666667  0.333333  0.997055  1
  Pd  Pd15  1  0.666667  0.333333  0.502840  1
  Pd  Pd16  1  0.000000  0.000000  0.250066  1
  Pd  Pd17  1  0.000000  0.000000  0.749559  1
