# generated using pymatgen
data_Mn3BeSi2(NiMo2)2
_symmetry_space_group_name_H-M   'P 1'
_cell_length_a   4.70353307
_cell_length_b   4.70353167
_cell_length_c   7.65714700
_cell_angle_alpha   90.00000000
_cell_angle_beta   90.00000000
_cell_angle_gamma   119.45211886
_symmetry_Int_Tables_number   1
_chemical_formula_structural   Mn3BeSi2(NiMo2)2
_chemical_formula_sum   'Mn3 Be1 Si2 Ni2 Mo4'
_cell_volume   147.50854267
_cell_formula_units_Z   1
loop_
 _symmetry_equiv_pos_site_id
 _symmetry_equiv_pos_as_xyz
  1  'x, y, z'
loop_
 _atom_site_type_symbol
 _atom_site_label
 _atom_site_symmetry_multiplicity
 _atom_site_fract_x
 _atom_site_fract_y
 _atom_site_fract_z
 _atom_site_occupancy
  Mn  Mn0  1  0.171005  0.828995  0.750000  1
  Mn  Mn1  1  0.170594  0.338471  0.750000  1
  Mn  Mn2  1  0.661529  0.829406  0.750000  1
  Be  Be3  1  0.819836  0.180164  0.250000  1
  Si  Si4  1  0.000783  0.999217  0.490932  1
  Si  Si5  1  0.000783  0.999217  0.009068  1
  Ni  Ni6  1  0.829328  0.662352  0.250000  1
  Ni  Ni7  1  0.337648  0.170672  0.250000  1
  Mo  Mo8  1  0.334408  0.665592  0.438646  1
  Mo  Mo9  1  0.669839  0.330161  0.564247  1
  Mo  Mo10  1  0.669839  0.330161  0.935753  1
  Mo  Mo11  1  0.334408  0.665592  0.061354  1
