# generated using pymatgen
data_SrPr3(RuO6)2
_symmetry_space_group_name_H-M   'P 1'
_cell_length_a   10.28868015
_cell_length_b   10.28868008
_cell_length_c   5.69502190
_cell_angle_alpha   75.00290601
_cell_angle_beta   75.00290471
_cell_angle_gamma   69.68310663
_symmetry_Int_Tables_number   1
_chemical_formula_structural   SrPr3(RuO6)2
_chemical_formula_sum   'Sr2 Pr6 Ru4 O24'
_cell_volume   536.51609317
_cell_formula_units_Z   2
loop_
 _symmetry_equiv_pos_site_id
 _symmetry_equiv_pos_as_xyz
  1  'x, y, z'
loop_
 _atom_site_type_symbol
 _atom_site_label
 _atom_site_symmetry_multiplicity
 _atom_site_fract_x
 _atom_site_fract_y
 _atom_site_fract_z
 _atom_site_occupancy
  Sr  Sr0  1  0.631084  0.368916  0.750000  1
  Sr  Sr1  1  0.368916  0.631084  0.250000  1
  Pr  Pr2  1  0.108028  0.891972  0.750000  1
  Pr  Pr3  1  0.891972  0.108028  0.250000  1
  Pr  Pr4  1  0.712767  0.933080  0.870020  1
  Pr  Pr5  1  0.287233  0.066920  0.129980  1
  Pr  Pr6  1  0.066920  0.287233  0.629980  1
  Pr  Pr7  1  0.933080  0.712767  0.370020  1
  Ru  Ru8  1  0.497832  0.802861  0.545792  1
  Ru  Ru9  1  0.502168  0.197139  0.454208  1
  Ru  Ru10  1  0.197139  0.502168  0.954208  1
  Ru  Ru11  1  0.802861  0.497832  0.045792  1
  O  O12  1  0.688345  0.154069  0.578531  1
  O  O13  1  0.311655  0.845931  0.421469  1
  O  O14  1  0.845931  0.311655  0.921469  1
  O  O15  1  0.154069  0.688345  0.078531  1
  O  O16  1  0.387480  0.833007  0.841298  1
  O  O17  1  0.612520  0.166993  0.158702  1
  O  O18  1  0.166993  0.612520  0.658702  1
  O  O19  1  0.833007  0.387480  0.341298  1
  O  O20  1  0.669936  0.790632  0.620159  1
  O  O21  1  0.330064  0.209368  0.379841  1
  O  O22  1  0.209368  0.330064  0.879841  1
  O  O23  1  0.790632  0.669936  0.120159  1
  O  O24  1  0.471314  0.072981  0.742590  1
  O  O25  1  0.528686  0.927019  0.257410  1
  O  O26  1  0.927019  0.528686  0.757410  1
  O  O27  1  0.072981  0.471314  0.242590  1
  O  O28  1  0.540594  0.624164  0.518129  1
  O  O29  1  0.459406  0.375836  0.481871  1
  O  O30  1  0.375836  0.459406  0.981871  1
  O  O31  1  0.624164  0.540594  0.018129  1
  O  O32  1  0.887125  0.925258  0.070824  1
  O  O33  1  0.112875  0.074742  0.929176  1
  O  O34  1  0.074742  0.112875  0.429176  1
  O  O35  1  0.925258  0.887125  0.570824  1
