# generated using pymatgen
data_Y7Ho13(Hg3Ir)2
_symmetry_space_group_name_H-M   'P 1'
_cell_length_a   9.61219200
_cell_length_b   9.61212957
_cell_length_c   9.63956500
_cell_angle_alpha   89.99932047
_cell_angle_beta   90.00090603
_cell_angle_gamma   119.99998084
_symmetry_Int_Tables_number   1
_chemical_formula_structural   Y7Ho13(Hg3Ir)2
_chemical_formula_sum   'Y7 Ho13 Hg6 Ir2'
_cell_volume   771.31220795
_cell_formula_units_Z   1
loop_
 _symmetry_equiv_pos_site_id
 _symmetry_equiv_pos_as_xyz
  1  'x, y, z'
loop_
 _atom_site_type_symbol
 _atom_site_label
 _atom_site_symmetry_multiplicity
 _atom_site_fract_x
 _atom_site_fract_y
 _atom_site_fract_z
 _atom_site_occupancy
  Y  Y0  1  0.000000  0.000000  0.000000  1
  Y  Y1  1  0.540998  0.458975  0.250001  1
  Y  Y2  1  0.541002  0.081993  0.250029  1
  Y  Y3  1  0.917995  0.459002  0.250020  1
  Y  Y4  1  0.459002  0.541025  0.749999  1
  Y  Y5  1  0.458998  0.918007  0.749971  1
  Y  Y6  1  0.082005  0.540998  0.749980  1
  Ho  Ho7  1  0.000000  0.000000  0.500000  1
  Ho  Ho8  1  0.208841  0.791157  0.440224  1
  Ho  Ho9  1  0.208846  0.417687  0.440229  1
  Ho  Ho10  1  0.582311  0.791152  0.440230  1
  Ho  Ho11  1  0.791159  0.208843  0.559776  1
  Ho  Ho12  1  0.791154  0.582313  0.559771  1
  Ho  Ho13  1  0.417689  0.208848  0.559770  1
  Ho  Ho14  1  0.790933  0.209065  0.940187  1
  Ho  Ho15  1  0.790937  0.581875  0.940187  1
  Ho  Ho16  1  0.418125  0.209064  0.940188  1
  Ho  Ho17  1  0.209067  0.790935  0.059813  1
  Ho  Ho18  1  0.209063  0.418125  0.059813  1
  Ho  Ho19  1  0.581875  0.790936  0.059812  1
  Hg  Hg20  1  0.881480  0.118520  0.250449  1
  Hg  Hg21  1  0.881474  0.762959  0.250453  1
  Hg  Hg22  1  0.237040  0.118522  0.250454  1
  Hg  Hg23  1  0.118520  0.881480  0.749551  1
  Hg  Hg24  1  0.118526  0.237041  0.749547  1
  Hg  Hg25  1  0.762960  0.881478  0.749546  1
  Ir  Ir26  1  0.333335  0.666667  0.250070  1
  Ir  Ir27  1  0.666665  0.333333  0.749930  1
