# generated using pymatgen
data_Nd8Y12Si15Ge
_symmetry_space_group_name_H-M   'P 1'
_cell_length_a   7.78129781
_cell_length_b   7.78877699
_cell_length_c   14.45777188
_cell_angle_alpha   89.93221310
_cell_angle_beta   90.02342923
_cell_angle_gamma   90.04679995
_symmetry_Int_Tables_number   1
_chemical_formula_structural   Nd8Y12Si15Ge
_chemical_formula_sum   'Nd8 Y12 Si15 Ge1'
_cell_volume   876.23821361
_cell_formula_units_Z   1
loop_
 _symmetry_equiv_pos_site_id
 _symmetry_equiv_pos_as_xyz
  1  'x, y, z'
loop_
 _atom_site_type_symbol
 _atom_site_label
 _atom_site_symmetry_multiplicity
 _atom_site_fract_x
 _atom_site_fract_y
 _atom_site_fract_z
 _atom_site_occupancy
  Nd  Nd0  1  0.637463  0.991036  0.455359  1
  Nd  Nd1  1  0.363160  0.008145  0.956300  1
  Nd  Nd2  1  0.991280  0.636552  0.544274  1
  Nd  Nd3  1  0.491358  0.861708  0.206082  1
  Nd  Nd4  1  0.510496  0.140669  0.707985  1
  Nd  Nd5  1  0.863550  0.491769  0.794581  1
  Nd  Nd6  1  0.136762  0.507601  0.293255  1
  Nd  Nd7  1  0.008466  0.361817  0.043441  1
  Y  Y8  1  0.489336  0.363014  0.124310  1
  Y  Y9  1  0.986814  0.138831  0.626896  1
  Y  Y10  1  0.863107  0.010790  0.874794  1
  Y  Y11  1  0.137399  0.988493  0.374383  1
  Y  Y12  1  0.510729  0.636191  0.624349  1
  Y  Y13  1  0.362803  0.489585  0.875530  1
  Y  Y14  1  0.638330  0.509753  0.374790  1
  Y  Y15  1  0.010541  0.863660  0.124929  1
  Y  Y16  1  0.314641  0.318798  0.499101  1
  Y  Y17  1  0.184608  0.816114  0.751834  1
  Y  Y18  1  0.815807  0.183522  0.249908  1
  Y  Y19  1  0.684456  0.684099  0.999518  1
  Si  Si20  1  0.710752  0.066785  0.061083  1
  Si  Si21  1  0.933313  0.288009  0.439195  1
  Si  Si22  1  0.433308  0.209877  0.310933  1
  Si  Si23  1  0.566415  0.788817  0.810860  1
  Si  Si24  1  0.210809  0.434303  0.688784  1
  Si  Si25  1  0.788785  0.566866  0.188110  1
  Si  Si26  1  0.066520  0.710837  0.939217  1
  Si  Si27  1  0.798582  0.842408  0.692005  1
  Si  Si28  1  0.201831  0.156804  0.191489  1
  Si  Si29  1  0.843515  0.798240  0.307615  1
  Si  Si30  1  0.343973  0.697910  0.439067  1
  Si  Si31  1  0.656325  0.298191  0.941188  1
  Si  Si32  1  0.700022  0.342183  0.557873  1
  Si  Si33  1  0.298137  0.656920  0.058269  1
  Si  Si34  1  0.157152  0.201291  0.809026  1
  Ge  Ge35  1  0.289454  0.938411  0.563669  1
