# generated using pymatgen
data_Ba2GaReN4
_symmetry_space_group_name_H-M   'P 1'
_cell_length_a   5.92911500
_cell_length_b   7.17427267
_cell_length_c   8.56355377
_cell_angle_alpha   60.34931858
_cell_angle_beta   90.00000000
_cell_angle_gamma   90.00000000
_symmetry_Int_Tables_number   1
_chemical_formula_structural   Ba2GaReN4
_chemical_formula_sum   'Ba4 Ga2 Re2 N8'
_cell_volume   316.57045326
_cell_formula_units_Z   2
loop_
 _symmetry_equiv_pos_site_id
 _symmetry_equiv_pos_as_xyz
  1  'x, y, z'
loop_
 _atom_site_type_symbol
 _atom_site_label
 _atom_site_symmetry_multiplicity
 _atom_site_fract_x
 _atom_site_fract_y
 _atom_site_fract_z
 _atom_site_occupancy
  Ba  Ba0  1  0.250000  0.234978  0.071532  1
  Ba  Ba1  1  0.750000  0.765022  0.928468  1
  Ba  Ba2  1  0.750000  0.780020  0.384437  1
  Ba  Ba3  1  0.250000  0.219980  0.615563  1
  Ga  Ga4  1  0.750000  0.279415  0.365243  1
  Ga  Ga5  1  0.250000  0.720585  0.634757  1
  Re  Re6  1  0.250000  0.684703  0.205689  1
  Re  Re7  1  0.750000  0.315297  0.794311  1
  N  N8  1  0.492756  0.480938  0.740865  1
  N  N9  1  0.992756  0.519062  0.259135  1
  N  N10  1  0.507244  0.519062  0.259135  1
  N  N11  1  0.007244  0.480938  0.740865  1
  N  N12  1  0.750000  0.182452  0.655493  1
  N  N13  1  0.250000  0.817548  0.344507  1
  N  N14  1  0.750000  0.108140  0.026930  1
  N  N15  1  0.250000  0.891860  0.973070  1
