# generated using pymatgen
data_Tb19YbIr11Ru
_symmetry_space_group_name_H-M   'P 1'
_cell_length_a   10.92815607
_cell_length_b   10.93213007
_cell_length_c   6.41069400
_cell_angle_alpha   90.00000000
_cell_angle_beta   90.00000000
_cell_angle_gamma   89.98662242
_symmetry_Int_Tables_number   1
_chemical_formula_structural   Tb19YbIr11Ru
_chemical_formula_sum   'Tb19 Yb1 Ir11 Ru1'
_cell_volume   765.87292172
_cell_formula_units_Z   1
loop_
 _symmetry_equiv_pos_site_id
 _symmetry_equiv_pos_as_xyz
  1  'x, y, z'
loop_
 _atom_site_type_symbol
 _atom_site_label
 _atom_site_symmetry_multiplicity
 _atom_site_fract_x
 _atom_site_fract_y
 _atom_site_fract_z
 _atom_site_occupancy
  Tb  Tb0  1  0.291119  0.086644  0.378318  1
  Tb  Tb1  1  0.292572  0.912200  0.881960  1
  Tb  Tb2  1  0.707428  0.087800  0.881960  1
  Tb  Tb3  1  0.708881  0.913356  0.378318  1
  Tb  Tb4  1  0.588153  0.792683  0.881287  1
  Tb  Tb5  1  0.587489  0.207344  0.378115  1
  Tb  Tb6  1  0.412511  0.792656  0.378115  1
  Tb  Tb7  1  0.411847  0.207317  0.881287  1
  Tb  Tb8  1  0.208772  0.411319  0.620848  1
  Tb  Tb9  1  0.209109  0.588971  0.120145  1
  Tb  Tb10  1  0.790891  0.411029  0.120145  1
  Tb  Tb11  1  0.791228  0.588681  0.620848  1
  Tb  Tb12  1  0.911396  0.709149  0.119120  1
  Tb  Tb13  1  0.912321  0.289570  0.620340  1
  Tb  Tb14  1  0.087679  0.710430  0.620340  1
  Tb  Tb15  1  0.088604  0.290851  0.119120  1
  Tb  Tb16  1  0.000000  0.000000  0.999287  1
  Tb  Tb17  1  0.500000  0.500000  0.999354  1
  Tb  Tb18  1  0.500000  0.500000  0.499407  1
  Yb  Yb19  1  0.000000  0.000000  0.499310  1
  Ir  Ir20  1  0.845370  0.155245  0.247239  1
  Ir  Ir21  1  0.845561  0.844969  0.752204  1
  Ir  Ir22  1  0.154439  0.155031  0.752204  1
  Ir  Ir23  1  0.154630  0.844755  0.247239  1
  Ir  Ir24  1  0.653321  0.347112  0.748980  1
  Ir  Ir25  1  0.653685  0.652961  0.250576  1
  Ir  Ir26  1  0.346315  0.347039  0.250576  1
  Ir  Ir27  1  0.346679  0.652888  0.748980  1
  Ir  Ir28  1  0.500000  0.000000  0.622431  1
  Ir  Ir29  1  0.000000  0.500000  0.879117  1
  Ir  Ir30  1  0.000000  0.500000  0.379706  1
  Ru  Ru31  1  0.500000  0.000000  0.123116  1
