# generated using pymatgen
data_Y20Ir4Ru3Rh5
_symmetry_space_group_name_H-M   'P 1'
_cell_length_a   10.89701900
_cell_length_b   10.89450500
_cell_length_c   6.44741000
_cell_angle_alpha   90.00000000
_cell_angle_beta   90.00000000
_cell_angle_gamma   89.99935846
_symmetry_Int_Tables_number   1
_chemical_formula_structural   Y20Ir4Ru3Rh5
_chemical_formula_sum   'Y20 Ir4 Ru3 Rh5'
_cell_volume   765.42122179
_cell_formula_units_Z   1
loop_
 _symmetry_equiv_pos_site_id
 _symmetry_equiv_pos_as_xyz
  1  'x, y, z'
loop_
 _atom_site_type_symbol
 _atom_site_label
 _atom_site_symmetry_multiplicity
 _atom_site_fract_x
 _atom_site_fract_y
 _atom_site_fract_z
 _atom_site_occupancy
  Y  Y0  1  0.294615  0.088043  0.378187  1
  Y  Y1  1  0.294640  0.912062  0.878262  1
  Y  Y2  1  0.705360  0.087938  0.878262  1
  Y  Y3  1  0.705385  0.911957  0.378187  1
  Y  Y4  1  0.585789  0.793159  0.879372  1
  Y  Y5  1  0.586094  0.206843  0.379109  1
  Y  Y6  1  0.413906  0.793157  0.379109  1
  Y  Y7  1  0.414211  0.206841  0.879372  1
  Y  Y8  1  0.208672  0.413262  0.622444  1
  Y  Y9  1  0.208277  0.586862  0.118560  1
  Y  Y10  1  0.791723  0.413138  0.118560  1
  Y  Y11  1  0.791328  0.586738  0.622444  1
  Y  Y12  1  0.911019  0.706915  0.119415  1
  Y  Y13  1  0.910922  0.292826  0.623695  1
  Y  Y14  1  0.089078  0.707174  0.623695  1
  Y  Y15  1  0.088981  0.293085  0.119415  1
  Y  Y16  1  0.000000  0.000000  0.499459  1
  Y  Y17  1  0.000000  0.000000  0.999576  1
  Y  Y18  1  0.500000  0.500000  0.999513  1
  Y  Y19  1  0.500000  0.500000  0.499115  1
  Ir  Ir20  1  0.653852  0.346948  0.749968  1
  Ir  Ir21  1  0.654017  0.652723  0.250572  1
  Ir  Ir22  1  0.345983  0.347277  0.250572  1
  Ir  Ir23  1  0.346148  0.653052  0.749968  1
  Ru  Ru24  1  0.500000  0.000000  0.125784  1
  Ru  Ru25  1  0.500000  0.000000  0.625466  1
  Ru  Ru26  1  0.000000  0.500000  0.874948  1
  Rh  Rh27  1  0.848014  0.153063  0.250645  1
  Rh  Rh28  1  0.847732  0.846974  0.750102  1
  Rh  Rh29  1  0.152268  0.153026  0.750102  1
  Rh  Rh30  1  0.151986  0.846937  0.250645  1
  Rh  Rh31  1  0.000000  0.500000  0.375478  1
