# generated using pymatgen
data_Dy7HoIn2RuRh
_symmetry_space_group_name_H-M   'P 1'
_cell_length_a   9.65090251
_cell_length_b   9.67011315
_cell_length_c   9.65090213
_cell_angle_alpha   59.93413648
_cell_angle_beta   59.84002994
_cell_angle_gamma   59.93414016
_symmetry_Int_Tables_number   1
_chemical_formula_structural   Dy7HoIn2RuRh
_chemical_formula_sum   'Dy14 Ho2 In4 Ru2 Rh2'
_cell_volume   635.46638520
_cell_formula_units_Z   2
loop_
 _symmetry_equiv_pos_site_id
 _symmetry_equiv_pos_as_xyz
  1  'x, y, z'
loop_
 _atom_site_type_symbol
 _atom_site_label
 _atom_site_symmetry_multiplicity
 _atom_site_fract_x
 _atom_site_fract_y
 _atom_site_fract_z
 _atom_site_occupancy
  Dy  Dy0  1  0.188851  0.190015  0.808376  1
  Dy  Dy1  1  0.598109  0.598429  0.205034  1
  Dy  Dy2  1  0.440664  0.059336  0.440664  1
  Dy  Dy3  1  0.439741  0.442200  0.060542  1
  Dy  Dy4  1  0.812639  0.187361  0.812639  1
  Dy  Dy5  1  0.191511  0.808489  0.191511  1
  Dy  Dy6  1  0.439741  0.057518  0.060542  1
  Dy  Dy7  1  0.188851  0.812758  0.808376  1
  Dy  Dy8  1  0.058095  0.441905  0.058095  1
  Dy  Dy9  1  0.808376  0.812758  0.188851  1
  Dy  Dy10  1  0.205034  0.598429  0.598109  1
  Dy  Dy11  1  0.060542  0.442200  0.439741  1
  Dy  Dy12  1  0.060542  0.057518  0.439741  1
  Dy  Dy13  1  0.808376  0.190015  0.188851  1
  Ho  Ho14  1  0.598692  0.203629  0.598692  1
  Ho  Ho15  1  0.598692  0.598988  0.598692  1
  In  In16  1  0.831743  0.832868  0.831743  1
  In  In17  1  0.832288  0.832981  0.501753  1
  In  In18  1  0.501753  0.832981  0.832288  1
  In  In19  1  0.831743  0.503646  0.831743  1
  Ru  Ru20  1  0.392087  0.827501  0.392087  1
  Ru  Ru21  1  0.392087  0.388324  0.392087  1
  Rh  Rh22  1  0.827319  0.390076  0.392528  1
  Rh  Rh23  1  0.392528  0.390076  0.827319  1
