# generated using pymatgen
data_Ba3Cd11
_symmetry_space_group_name_H-M   'P 1'
_cell_length_a   5.13523445
_cell_length_b   9.56598841
_cell_length_c   9.56598883
_cell_angle_alpha   66.21563517
_cell_angle_beta   74.43025298
_cell_angle_gamma   74.43026086
_symmetry_Int_Tables_number   1
_chemical_formula_structural   Ba3Cd11
_chemical_formula_sum   'Ba3 Cd11'
_cell_volume   407.33159216
_cell_formula_units_Z   1
loop_
 _symmetry_equiv_pos_site_id
 _symmetry_equiv_pos_as_xyz
  1  'x, y, z'
loop_
 _atom_site_type_symbol
 _atom_site_label
 _atom_site_symmetry_multiplicity
 _atom_site_fract_x
 _atom_site_fract_y
 _atom_site_fract_z
 _atom_site_occupancy
  Ba  Ba0  1  0.000000  0.000000  0.000000  1
  Ba  Ba1  1  0.300232  0.699768  0.699768  1
  Ba  Ba2  1  0.699768  0.300232  0.300232  1
  Cd  Cd3  1  0.000000  0.500000  0.500000  1
  Cd  Cd4  1  0.500000  0.303725  0.696275  1
  Cd  Cd5  1  0.500000  0.696275  0.303725  1
  Cd  Cd6  1  0.336382  0.306354  0.020881  1
  Cd  Cd7  1  0.663618  0.693646  0.979119  1
  Cd  Cd8  1  0.336382  0.020881  0.306354  1
  Cd  Cd9  1  0.663618  0.979119  0.693646  1
  Cd  Cd10  1  0.135995  0.578358  0.149652  1
  Cd  Cd11  1  0.864005  0.421642  0.850348  1
  Cd  Cd12  1  0.135995  0.149652  0.578358  1
  Cd  Cd13  1  0.864005  0.850348  0.421642  1
