# generated using pymatgen
data_Y4Tm11Th(CdNi)4
_symmetry_space_group_name_H-M   'P 1'
_cell_length_a   9.49752631
_cell_length_b   9.48623606
_cell_length_c   9.48623601
_cell_angle_alpha   60.07799725
_cell_angle_beta   60.05797719
_cell_angle_gamma   60.05798340
_symmetry_Int_Tables_number   1
_chemical_formula_structural   Y4Tm11Th(CdNi)4
_chemical_formula_sum   'Y4 Tm11 Th1 Cd4 Ni4'
_cell_volume   605.22826774
_cell_formula_units_Z   1
loop_
 _symmetry_equiv_pos_site_id
 _symmetry_equiv_pos_as_xyz
  1  'x, y, z'
loop_
 _atom_site_type_symbol
 _atom_site_label
 _atom_site_symmetry_multiplicity
 _atom_site_fract_x
 _atom_site_fract_y
 _atom_site_fract_z
 _atom_site_occupancy
  Y  Y0  1  0.814667  0.186732  0.814513  1
  Y  Y1  1  0.186979  0.812734  0.186816  1
  Y  Y2  1  0.814667  0.814513  0.186732  1
  Y  Y3  1  0.186979  0.186816  0.812734  1
  Tm  Tm4  1  0.599204  0.597945  0.200761  1
  Tm  Tm5  1  0.599204  0.200761  0.597945  1
  Tm  Tm6  1  0.200810  0.599208  0.599208  1
  Tm  Tm7  1  0.064384  0.437673  0.437673  1
  Tm  Tm8  1  0.438361  0.063478  0.063478  1
  Tm  Tm9  1  0.437755  0.064350  0.437612  1
  Tm  Tm10  1  0.063444  0.438435  0.063263  1
  Tm  Tm11  1  0.437755  0.437612  0.064350  1
  Tm  Tm12  1  0.063444  0.063263  0.438435  1
  Tm  Tm13  1  0.188343  0.813261  0.813261  1
  Tm  Tm14  1  0.811241  0.188550  0.188550  1
  Th  Th15  1  0.593739  0.595006  0.595006  1
  Cd  Cd16  1  0.831470  0.830381  0.830381  1
  Cd  Cd17  1  0.831737  0.832709  0.505711  1
  Cd  Cd18  1  0.831737  0.505711  0.832709  1
  Cd  Cd19  1  0.505332  0.831864  0.831864  1
  Ni  Ni20  1  0.393246  0.392785  0.392785  1
  Ni  Ni21  1  0.391641  0.392377  0.822176  1
  Ni  Ni22  1  0.391641  0.822176  0.392377  1
  Ni  Ni23  1  0.822219  0.391659  0.391659  1
