# generated using pymatgen
data_Li4Nd3Dy(Si2Pb)2
_symmetry_space_group_name_H-M   'P 1'
_cell_length_a   9.80816216
_cell_length_b   9.80816243
_cell_length_c   6.93400000
_cell_angle_alpha   90.00000000
_cell_angle_beta   90.00000000
_cell_angle_gamma   153.61084529
_symmetry_Int_Tables_number   1
_chemical_formula_structural   Li4Nd3Dy(Si2Pb)2
_chemical_formula_sum   'Li4 Nd3 Dy1 Si4 Pb2'
_cell_volume   296.48129772
_cell_formula_units_Z   1
loop_
 _symmetry_equiv_pos_site_id
 _symmetry_equiv_pos_as_xyz
  1  'x, y, z'
loop_
 _atom_site_type_symbol
 _atom_site_label
 _atom_site_symmetry_multiplicity
 _atom_site_fract_x
 _atom_site_fract_y
 _atom_site_fract_z
 _atom_site_occupancy
  Li  Li0  1  0.183076  0.816924  0.055211  1
  Li  Li1  1  0.183076  0.816924  0.444789  1
  Li  Li2  1  0.817846  0.182154  0.947607  1
  Li  Li3  1  0.817846  0.182154  0.552393  1
  Nd  Nd4  1  0.647917  0.352083  0.750000  1
  Nd  Nd5  1  0.547332  0.452668  0.250000  1
  Nd  Nd6  1  0.450954  0.549046  0.750000  1
  Dy  Dy7  1  0.354015  0.645985  0.250000  1
  Si  Si8  1  0.055630  0.944370  0.925008  1
  Si  Si9  1  0.942137  0.057863  0.076333  1
  Si  Si10  1  0.942137  0.057863  0.423667  1
  Si  Si11  1  0.055630  0.944370  0.574992  1
  Pb  Pb12  1  0.721674  0.278326  0.250000  1
  Pb  Pb13  1  0.280730  0.719270  0.750000  1
