# generated using pymatgen
data_Dy6Sc4Si5P
_symmetry_space_group_name_H-M   'P 1'
_cell_length_a   8.25481900
_cell_length_b   8.26190006
_cell_length_c   5.99465200
_cell_angle_alpha   90.00000000
_cell_angle_beta   90.00000000
_cell_angle_gamma   119.97165629
_symmetry_Int_Tables_number   1
_chemical_formula_structural   Dy6Sc4Si5P
_chemical_formula_sum   'Dy6 Sc4 Si5 P1'
_cell_volume   354.16534917
_cell_formula_units_Z   1
loop_
 _symmetry_equiv_pos_site_id
 _symmetry_equiv_pos_as_xyz
  1  'x, y, z'
loop_
 _atom_site_type_symbol
 _atom_site_label
 _atom_site_symmetry_multiplicity
 _atom_site_fract_x
 _atom_site_fract_y
 _atom_site_fract_z
 _atom_site_occupancy
  Dy  Dy0  1  0.000618  0.753008  0.750000  1
  Dy  Dy1  1  0.001226  0.247548  0.250000  1
  Dy  Dy2  1  0.753678  0.752452  0.250000  1
  Dy  Dy3  1  0.748956  0.000000  0.750000  1
  Dy  Dy4  1  0.247609  0.246992  0.750000  1
  Dy  Dy5  1  0.249346  0.000000  0.250000  1
  Sc  Sc6  1  0.666116  0.332676  0.001206  1
  Sc  Sc7  1  0.333439  0.667324  0.498794  1
  Sc  Sc8  1  0.333439  0.667324  0.001206  1
  Sc  Sc9  1  0.666116  0.332676  0.498794  1
  Si  Si10  1  0.398431  0.397444  0.250000  1
  Si  Si11  1  0.000987  0.602556  0.250000  1
  Si  Si12  1  0.000101  0.397470  0.750000  1
  Si  Si13  1  0.602631  0.602530  0.750000  1
  Si  Si14  1  0.604383  0.000000  0.250000  1
  P  P15  1  0.392922  0.000000  0.750000  1
