# generated using pymatgen
data_Cs2Ti(BrO3)6
_symmetry_space_group_name_H-M   'P 1'
_cell_length_a   8.02549087
_cell_length_b   8.02549055
_cell_length_c   8.02548989
_cell_angle_alpha   96.71179442
_cell_angle_beta   96.71179647
_cell_angle_gamma   96.71178038
_symmetry_Int_Tables_number   1
_chemical_formula_structural   Cs2Ti(BrO3)6
_chemical_formula_sum   'Cs2 Ti1 Br6 O18'
_cell_volume   505.36427576
_cell_formula_units_Z   1
loop_
 _symmetry_equiv_pos_site_id
 _symmetry_equiv_pos_as_xyz
  1  'x, y, z'
loop_
 _atom_site_type_symbol
 _atom_site_label
 _atom_site_symmetry_multiplicity
 _atom_site_fract_x
 _atom_site_fract_y
 _atom_site_fract_z
 _atom_site_occupancy
  Cs  Cs0  1  0.169405  0.169405  0.169405  1
  Cs  Cs1  1  0.830595  0.830595  0.830595  1
  Ti  Ti2  1  0.500000  0.500000  0.500000  1
  Br  Br3  1  0.701930  0.334827  0.160797  1
  Br  Br4  1  0.665173  0.839203  0.298070  1
  Br  Br5  1  0.160797  0.701930  0.334827  1
  Br  Br6  1  0.839203  0.298070  0.665173  1
  Br  Br7  1  0.298070  0.665173  0.839203  1
  Br  Br8  1  0.334827  0.160797  0.701930  1
  O  O9  1  0.882317  0.386557  0.290688  1
  O  O10  1  0.613443  0.709312  0.117683  1
  O  O11  1  0.709312  0.117683  0.613443  1
  O  O12  1  0.645568  0.701260  0.455440  1
  O  O13  1  0.676463  0.127225  0.107128  1
  O  O14  1  0.455440  0.645568  0.701260  1
  O  O15  1  0.298740  0.544560  0.354432  1
  O  O16  1  0.354432  0.298740  0.544560  1
  O  O17  1  0.127225  0.107128  0.676463  1
  O  O18  1  0.892872  0.323537  0.872775  1
  O  O19  1  0.701260  0.455440  0.645568  1
  O  O20  1  0.117683  0.613443  0.709312  1
  O  O21  1  0.544560  0.354432  0.298740  1
  O  O22  1  0.323537  0.872775  0.892872  1
  O  O23  1  0.872775  0.892872  0.323537  1
  O  O24  1  0.386557  0.290688  0.882317  1
  O  O25  1  0.290688  0.882317  0.386557  1
  O  O26  1  0.107128  0.676463  0.127225  1
