# generated using pymatgen
data_Pr2Co3B8Os5
_symmetry_space_group_name_H-M   'P 1'
_cell_length_a   7.37901129
_cell_length_b   7.44454752
_cell_length_c   3.95528613
_cell_angle_alpha   89.73804699
_cell_angle_beta   90.05560266
_cell_angle_gamma   89.19813064
_symmetry_Int_Tables_number   1
_chemical_formula_structural   Pr2Co3B8Os5
_chemical_formula_sum   'Pr2 Co3 B8 Os5'
_cell_volume   217.25365053
_cell_formula_units_Z   1
loop_
 _symmetry_equiv_pos_site_id
 _symmetry_equiv_pos_as_xyz
  1  'x, y, z'
loop_
 _atom_site_type_symbol
 _atom_site_label
 _atom_site_symmetry_multiplicity
 _atom_site_fract_x
 _atom_site_fract_y
 _atom_site_fract_z
 _atom_site_occupancy
  Pr  Pr0  1  0.000178  0.999428  0.060961  1
  Pr  Pr1  1  0.499688  0.506225  0.582209  1
  Co  Co2  1  0.370458  0.881184  0.379104  1
  Co  Co3  1  0.609267  0.864721  0.878904  1
  Co  Co4  1  0.377109  0.117892  0.882515  1
  B  B5  1  0.338921  0.813039  0.882884  1
  B  B6  1  0.663758  0.199310  0.882519  1
  B  B7  1  0.313577  0.157061  0.383080  1
  B  B8  1  0.689577  0.839171  0.381575  1
  B  B9  1  0.172309  0.729150  0.598796  1
  B  B10  1  0.832985  0.275884  0.601572  1
  B  B11  1  0.227043  0.324404  0.099149  1
  B  B12  1  0.770525  0.671985  0.099537  1
  Os  Os13  1  0.848758  0.396824  0.101792  1
  Os  Os14  1  0.158426  0.607586  0.102054  1
  Os  Os15  1  0.894147  0.656947  0.602092  1
  Os  Os16  1  0.112492  0.344935  0.601297  1
  Os  Os17  1  0.620782  0.114253  0.379959  1
