# generated using pymatgen
data_Lu5CuHgBi
_symmetry_space_group_name_H-M   'P 1'
_cell_length_a   8.43191584
_cell_length_b   8.43191638
_cell_length_c   8.60633913
_cell_angle_alpha   123.67387423
_cell_angle_beta   123.67388282
_cell_angle_gamma   82.42235382
_symmetry_Int_Tables_number   1
_chemical_formula_structural   Lu5CuHgBi
_chemical_formula_sum   'Lu10 Cu2 Hg2 Bi2'
_cell_volume   409.93172227
_cell_formula_units_Z   2
loop_
 _symmetry_equiv_pos_site_id
 _symmetry_equiv_pos_as_xyz
  1  'x, y, z'
loop_
 _atom_site_type_symbol
 _atom_site_label
 _atom_site_symmetry_multiplicity
 _atom_site_fract_x
 _atom_site_fract_y
 _atom_site_fract_z
 _atom_site_occupancy
  Lu  Lu0  1  0.000000  0.000000  0.000000  1
  Lu  Lu1  1  0.500000  0.500000  0.000000  1
  Lu  Lu2  1  0.784211  0.284211  0.785339  1
  Lu  Lu3  1  0.215789  0.715789  0.214661  1
  Lu  Lu4  1  0.498872  0.998872  0.214661  1
  Lu  Lu5  1  0.305268  0.471243  0.500000  1
  Lu  Lu6  1  0.028757  0.194732  0.500000  1
  Lu  Lu7  1  0.501128  0.001128  0.785339  1
  Lu  Lu8  1  0.694732  0.528757  0.500000  1
  Lu  Lu9  1  0.971243  0.805268  0.500000  1
  Cu  Cu10  1  0.627306  0.872694  0.500000  1
  Cu  Cu11  1  0.372694  0.127306  0.500000  1
  Hg  Hg12  1  0.141834  0.641834  0.783671  1
  Hg  Hg13  1  0.858166  0.358166  0.216329  1
  Bi  Bi14  1  0.250000  0.250000  0.000000  1
  Bi  Bi15  1  0.750000  0.750000  0.000000  1
