# generated using pymatgen
data_Ho7ErGaPd24
_symmetry_space_group_name_H-M   'P 1'
_cell_length_a   8.32954100
_cell_length_b   8.32954100
_cell_length_c   8.32954100
_cell_angle_alpha   89.99781258
_cell_angle_beta   89.99781258
_cell_angle_gamma   89.99781258
_symmetry_Int_Tables_number   1
_chemical_formula_structural   Ho7ErGaPd24
_chemical_formula_sum   'Ho7 Er1 Ga1 Pd24'
_cell_volume   577.91399312
_cell_formula_units_Z   1
loop_
 _symmetry_equiv_pos_site_id
 _symmetry_equiv_pos_as_xyz
  1  'x, y, z'
loop_
 _atom_site_type_symbol
 _atom_site_label
 _atom_site_symmetry_multiplicity
 _atom_site_fract_x
 _atom_site_fract_y
 _atom_site_fract_z
 _atom_site_occupancy
  Ho  Ho0  1  0.251409  0.251409  0.748595  1
  Ho  Ho1  1  0.251409  0.748595  0.251409  1
  Ho  Ho2  1  0.748595  0.251409  0.251409  1
  Ho  Ho3  1  0.748587  0.748587  0.748587  1
  Ho  Ho4  1  0.748584  0.748584  0.251410  1
  Ho  Ho5  1  0.748584  0.251410  0.748584  1
  Ho  Ho6  1  0.251410  0.748584  0.748584  1
  Er  Er7  1  0.251427  0.251427  0.251427  1
  Ga  Ga8  1  0.000017  0.000017  0.000017  1
  Pd  Pd9  1  0.499994  0.499994  0.746945  1
  Pd  Pd10  1  0.499890  0.253050  0.499890  1
  Pd  Pd11  1  0.253050  0.499890  0.499890  1
  Pd  Pd12  1  0.499890  0.499890  0.253050  1
  Pd  Pd13  1  0.499994  0.746945  0.499994  1
  Pd  Pd14  1  0.746945  0.499994  0.499994  1
  Pd  Pd15  1  0.000000  0.000000  0.708286  1
  Pd  Pd16  1  0.000099  0.291700  0.000099  1
  Pd  Pd17  1  0.291700  0.000099  0.000099  1
  Pd  Pd18  1  0.000099  0.000099  0.291700  1
  Pd  Pd19  1  0.000000  0.708286  0.000000  1
  Pd  Pd20  1  0.708286  0.000000  0.000000  1
  Pd  Pd21  1  0.000002  0.500003  0.739762  1
  Pd  Pd22  1  0.499891  0.260247  0.000110  1
  Pd  Pd23  1  0.260247  0.000110  0.499891  1
  Pd  Pd24  1  0.000110  0.260247  0.499891  1
  Pd  Pd25  1  0.500003  0.000002  0.739762  1
  Pd  Pd26  1  0.260247  0.499891  0.000110  1
  Pd  Pd27  1  0.000110  0.499891  0.260247  1
  Pd  Pd28  1  0.500003  0.739762  0.000002  1
  Pd  Pd29  1  0.000002  0.739762  0.500003  1
  Pd  Pd30  1  0.499891  0.000110  0.260247  1
  Pd  Pd31  1  0.739762  0.000002  0.500003  1
  Pd  Pd32  1  0.739762  0.500003  0.000002  1
