# generated using pymatgen
data_Dy16In5GaOs2
_symmetry_space_group_name_H-M   'P 1'
_cell_length_a   10.33916400
_cell_length_b   10.33775870
_cell_length_c   7.12307597
_cell_angle_alpha   90.13724308
_cell_angle_beta   90.00011729
_cell_angle_gamma   120.00476907
_symmetry_Int_Tables_number   1
_chemical_formula_structural   Dy16In5GaOs2
_chemical_formula_sum   'Dy16 In5 Ga1 Os2'
_cell_volume   659.30669723
_cell_formula_units_Z   1
loop_
 _symmetry_equiv_pos_site_id
 _symmetry_equiv_pos_as_xyz
  1  'x, y, z'
loop_
 _atom_site_type_symbol
 _atom_site_label
 _atom_site_symmetry_multiplicity
 _atom_site_fract_x
 _atom_site_fract_y
 _atom_site_fract_z
 _atom_site_occupancy
  Dy  Dy0  1  0.167080  0.818609  0.502609  1
  Dy  Dy1  1  0.651530  0.818609  0.502607  1
  Dy  Dy2  1  0.176802  0.353603  0.507585  1
  Dy  Dy3  1  0.823039  0.177719  0.006222  1
  Dy  Dy4  1  0.354680  0.177718  0.006219  1
  Dy  Dy5  1  0.823748  0.647495  0.018942  1
  Dy  Dy6  1  0.333576  0.667150  0.832719  1
  Dy  Dy7  1  0.670373  0.340747  0.337384  1
  Dy  Dy8  1  0.464675  0.532903  0.209382  1
  Dy  Dy9  1  0.068227  0.532905  0.209384  1
  Dy  Dy10  1  0.466708  0.933418  0.215783  1
  Dy  Dy11  1  0.541637  0.471084  0.709334  1
  Dy  Dy12  1  0.929448  0.471083  0.709335  1
  Dy  Dy13  1  0.532790  0.065578  0.710472  1
  Dy  Dy14  1  0.998021  0.996040  0.228321  1
  Dy  Dy15  1  0.997665  0.995332  0.726898  1
  In  In16  1  0.163264  0.836409  0.960697  1
  In  In17  1  0.673144  0.836410  0.960695  1
  In  In18  1  0.162951  0.325904  0.961158  1
  In  In19  1  0.834753  0.161998  0.461859  1
  In  In20  1  0.327242  0.161996  0.461882  1
  Ga  Ga21  1  0.837094  0.674185  0.457858  1
  Os  Os22  1  0.333907  0.667814  0.438293  1
  Os  Os23  1  0.667643  0.335289  0.939204  1
