# generated using pymatgen
data_Er5FeRuO12
_symmetry_space_group_name_H-M   'P 1'
_cell_length_a   6.77046466
_cell_length_b   6.77046384
_cell_length_c   7.21858537
_cell_angle_alpha   74.44208449
_cell_angle_beta   74.44208386
_cell_angle_gamma   51.21347640
_symmetry_Int_Tables_number   1
_chemical_formula_structural   Er5FeRuO12
_chemical_formula_sum   'Er5 Fe1 Ru1 O12'
_cell_volume   246.25464765
_cell_formula_units_Z   1
loop_
 _symmetry_equiv_pos_site_id
 _symmetry_equiv_pos_as_xyz
  1  'x, y, z'
loop_
 _atom_site_type_symbol
 _atom_site_label
 _atom_site_symmetry_multiplicity
 _atom_site_fract_x
 _atom_site_fract_y
 _atom_site_fract_z
 _atom_site_occupancy
  Er  Er0  1  0.691628  0.691528  0.669970  1
  Er  Er1  1  0.694663  0.700760  0.139845  1
  Er  Er2  1  0.998179  0.001821  0.000000  1
  Er  Er3  1  0.299240  0.305337  0.860155  1
  Er  Er4  1  0.308472  0.308372  0.330030  1
  Fe  Fe5  1  0.249814  0.750186  0.500000  1
  Ru  Ru6  1  0.759965  0.240035  0.500000  1
  O  O7  1  0.400087  0.904938  0.925690  1
  O  O8  1  0.570097  0.095161  0.583512  1
  O  O9  1  0.904839  0.429903  0.416488  1
  O  O10  1  0.095062  0.599913  0.074310  1
  O  O11  1  0.994248  0.006372  0.313181  1
  O  O12  1  0.508906  0.490565  0.689605  1
  O  O13  1  0.901345  0.405425  0.924868  1
  O  O14  1  0.101553  0.575736  0.581269  1
  O  O15  1  0.424264  0.898447  0.418731  1
  O  O16  1  0.594575  0.098655  0.075132  1
  O  O17  1  0.509435  0.491094  0.310395  1
  O  O18  1  0.993628  0.005752  0.686819  1
