# generated using pymatgen
data_ErFeCo(NiP)3
_symmetry_space_group_name_H-M   'P 1'
_cell_length_a   3.68188300
_cell_length_b   10.26456100
_cell_length_c   11.84050400
_cell_angle_alpha   90.00000000
_cell_angle_beta   90.00000000
_cell_angle_gamma   90.00000000
_symmetry_Int_Tables_number   1
_chemical_formula_structural   ErFeCo(NiP)3
_chemical_formula_sum   'Er4 Fe4 Co4 Ni12 P12'
_cell_volume   447.48713338
_cell_formula_units_Z   4
loop_
 _symmetry_equiv_pos_site_id
 _symmetry_equiv_pos_as_xyz
  1  'x, y, z'
loop_
 _atom_site_type_symbol
 _atom_site_label
 _atom_site_symmetry_multiplicity
 _atom_site_fract_x
 _atom_site_fract_y
 _atom_site_fract_z
 _atom_site_occupancy
  Er  Er0  1  0.250000  0.577999  0.705350  1
  Er  Er1  1  0.250000  0.922001  0.205350  1
  Er  Er2  1  0.750000  0.422001  0.294650  1
  Er  Er3  1  0.750000  0.077999  0.794650  1
  Fe  Fe4  1  0.250000  0.462763  0.931413  1
  Fe  Fe5  1  0.250000  0.037237  0.431413  1
  Fe  Fe6  1  0.750000  0.537237  0.068587  1
  Fe  Fe7  1  0.750000  0.962763  0.568587  1
  Co  Co8  1  0.250000  0.873801  0.702215  1
  Co  Co9  1  0.250000  0.626199  0.202215  1
  Co  Co10  1  0.750000  0.126199  0.297785  1
  Co  Co11  1  0.750000  0.373801  0.797785  1
  Ni  Ni12  1  0.250000  0.715049  0.995318  1
  Ni  Ni13  1  0.250000  0.784951  0.495318  1
  Ni  Ni14  1  0.750000  0.284951  0.004682  1
  Ni  Ni15  1  0.750000  0.215049  0.504682  1
  Ni  Ni16  1  0.250000  0.409153  0.485740  1
  Ni  Ni17  1  0.250000  0.090848  0.985740  1
  Ni  Ni18  1  0.750000  0.590847  0.514260  1
  Ni  Ni19  1  0.750000  0.909153  0.014260  1
  Ni  Ni20  1  0.250000  0.227168  0.173705  1
  Ni  Ni21  1  0.250000  0.272832  0.673705  1
  Ni  Ni22  1  0.750000  0.772832  0.826295  1
  Ni  Ni23  1  0.750000  0.727168  0.326295  1
  P  P24  1  0.250000  0.431090  0.112733  1
  P  P25  1  0.250000  0.068910  0.612733  1
  P  P26  1  0.750000  0.568910  0.887267  1
  P  P27  1  0.750000  0.931090  0.387267  1
  P  P28  1  0.250000  0.268496  0.865630  1
  P  P29  1  0.250000  0.231504  0.365630  1
  P  P30  1  0.750000  0.731504  0.134370  1
  P  P31  1  0.750000  0.768496  0.634370  1
  P  P32  1  0.250000  0.605073  0.390131  1
  P  P33  1  0.250000  0.894927  0.890131  1
  P  P34  1  0.750000  0.394927  0.609869  1
  P  P35  1  0.750000  0.105073  0.109869  1
