# generated using pymatgen
data_CeTm3(Si5Os3)2
_symmetry_space_group_name_H-M   'P 1'
_cell_length_a   8.11811624
_cell_length_b   8.12290793
_cell_length_c   5.78826203
_cell_angle_alpha   70.59091761
_cell_angle_beta   70.59210490
_cell_angle_gamma   94.06039595
_symmetry_Int_Tables_number   1
_chemical_formula_structural   CeTm3(Si5Os3)2
_chemical_formula_sum   'Ce1 Tm3 Si10 Os6'
_cell_volume   332.42446271
_cell_formula_units_Z   1
loop_
 _symmetry_equiv_pos_site_id
 _symmetry_equiv_pos_as_xyz
  1  'x, y, z'
loop_
 _atom_site_type_symbol
 _atom_site_label
 _atom_site_symmetry_multiplicity
 _atom_site_fract_x
 _atom_site_fract_y
 _atom_site_fract_z
 _atom_site_occupancy
  Ce  Ce0  1  0.598265  0.869112  0.257656  1
  Tm  Tm1  1  0.869854  0.601994  0.751430  1
  Tm  Tm2  1  0.400306  0.133025  0.742073  1
  Tm  Tm3  1  0.132187  0.397520  0.246384  1
  Si  Si4  1  0.068122  0.258901  0.835806  1
  Si  Si5  1  0.736636  0.933010  0.667909  1
  Si  Si6  1  0.934137  0.739069  0.163768  1
  Si  Si7  1  0.263887  0.068151  0.331737  1
  Si  Si8  1  0.207373  0.795794  0.742020  1
  Si  Si9  1  0.795048  0.206790  0.256279  1
  Si  Si10  1  0.514134  0.486709  0.749292  1
  Si  Si11  1  0.484397  0.509706  0.254592  1
  Si  Si12  1  0.774266  0.227437  0.744309  1
  Si  Si13  1  0.223420  0.775451  0.253933  1
  Os  Os14  1  0.253056  0.539785  0.635371  1
  Os  Os15  1  0.451927  0.742628  0.872984  1
  Os  Os16  1  0.745825  0.459238  0.363468  1
  Os  Os17  1  0.547934  0.257229  0.128735  1
  Os  Os18  1  0.002222  0.996883  0.749975  1
  Os  Os19  1  0.997006  0.001569  0.252279  1
