# generated using pymatgen
data_Hf4NbAl2Re5
_symmetry_space_group_name_H-M   'P 1'
_cell_length_a   5.28618500
_cell_length_b   5.29445181
_cell_length_c   8.66012300
_cell_angle_alpha   90.00000000
_cell_angle_beta   90.00000000
_cell_angle_gamma   119.94835612
_symmetry_Int_Tables_number   1
_chemical_formula_structural   Hf4NbAl2Re5
_chemical_formula_sum   'Hf4 Nb1 Al2 Re5'
_cell_volume   210.01185984
_cell_formula_units_Z   1
loop_
 _symmetry_equiv_pos_site_id
 _symmetry_equiv_pos_as_xyz
  1  'x, y, z'
loop_
 _atom_site_type_symbol
 _atom_site_label
 _atom_site_symmetry_multiplicity
 _atom_site_fract_x
 _atom_site_fract_y
 _atom_site_fract_z
 _atom_site_occupancy
  Hf  Hf0  1  0.334720  0.669442  0.430639  1
  Hf  Hf1  1  0.667375  0.334749  0.939540  1
  Hf  Hf2  1  0.667375  0.334749  0.560460  1
  Hf  Hf3  1  0.334720  0.669442  0.069361  1
  Nb  Nb4  1  0.171518  0.343038  0.750000  1
  Al  Al5  1  0.996953  0.993906  0.002640  1
  Al  Al6  1  0.996953  0.993906  0.497360  1
  Re  Re7  1  0.829110  0.169591  0.250000  1
  Re  Re8  1  0.340483  0.169591  0.250000  1
  Re  Re9  1  0.660915  0.832463  0.750000  1
  Re  Re10  1  0.828330  0.656659  0.250000  1
  Re  Re11  1  0.171546  0.832463  0.750000  1
