# generated using pymatgen
data_Mg2Ag3PtO6
_symmetry_space_group_name_H-M   'P 1'
_cell_length_a   5.39592600
_cell_length_b   5.39592637
_cell_length_c   18.68136600
_cell_angle_alpha   90.00000000
_cell_angle_beta   90.00000000
_cell_angle_gamma   119.99998546
_symmetry_Int_Tables_number   1
_chemical_formula_structural   Mg2Ag3PtO6
_chemical_formula_sum   'Mg6 Ag9 Pt3 O18'
_cell_volume   471.05468180
_cell_formula_units_Z   3
loop_
 _symmetry_equiv_pos_site_id
 _symmetry_equiv_pos_as_xyz
  1  'x, y, z'
loop_
 _atom_site_type_symbol
 _atom_site_label
 _atom_site_symmetry_multiplicity
 _atom_site_fract_x
 _atom_site_fract_y
 _atom_site_fract_z
 _atom_site_occupancy
  Mg  Mg0  1  0.106894  0.893106  0.333333  1
  Mg  Mg1  1  0.106894  0.213788  0.666667  1
  Mg  Mg2  1  0.786212  0.893106  0.000000  1
  Mg  Mg3  1  0.773466  0.226534  0.333333  1
  Mg  Mg4  1  0.773466  0.546931  0.666667  1
  Mg  Mg5  1  0.453069  0.226534  0.000000  1
  Ag  Ag6  1  0.440638  0.220319  0.500000  1
  Ag  Ag7  1  0.779681  0.220319  0.833333  1
  Ag  Ag8  1  0.779681  0.559362  0.166667  1
  Ag  Ag9  1  0.120518  0.560259  0.500000  1
  Ag  Ag10  1  0.439741  0.560259  0.833333  1
  Ag  Ag11  1  0.439741  0.879482  0.166667  1
  Ag  Ag12  1  0.761412  0.880705  0.500000  1
  Ag  Ag13  1  0.119295  0.880705  0.833333  1
  Ag  Ag14  1  0.119295  0.238588  0.166667  1
  Pt  Pt15  1  0.440116  0.559884  0.333333  1
  Pt  Pt16  1  0.440116  0.880233  0.666667  1
  Pt  Pt17  1  0.119767  0.559884  0.000000  1
  O  O18  1  0.763568  0.559512  0.278066  1
  O  O19  1  0.440488  0.204056  0.611399  1
  O  O20  1  0.795944  0.236432  0.944733  1
  O  O21  1  0.763568  0.204056  0.721934  1
  O  O22  1  0.440488  0.236432  0.388601  1
  O  O23  1  0.795944  0.559512  0.055267  1
  O  O24  1  0.440680  0.884043  0.278030  1
  O  O25  1  0.115957  0.556636  0.611363  1
  O  O26  1  0.443364  0.559320  0.944697  1
  O  O27  1  0.440680  0.556636  0.721970  1
  O  O28  1  0.115957  0.559320  0.388637  1
  O  O29  1  0.443364  0.884043  0.055303  1
  O  O30  1  0.116649  0.235642  0.278052  1
  O  O31  1  0.764358  0.881006  0.611385  1
  O  O32  1  0.118994  0.883351  0.944718  1
  O  O33  1  0.116649  0.881006  0.721948  1
  O  O34  1  0.764358  0.883351  0.388615  1
  O  O35  1  0.118994  0.235642  0.055282  1
