# generated using pymatgen
data_HoEr3Pd3RuO14
_symmetry_space_group_name_H-M   'P 1'
_cell_length_a   7.18999387
_cell_length_b   7.24187391
_cell_length_c   7.18877300
_cell_angle_alpha   60.24226612
_cell_angle_beta   60.00562141
_cell_angle_gamma   60.24862918
_symmetry_Int_Tables_number   1
_chemical_formula_structural   HoEr3Pd3RuO14
_chemical_formula_sum   'Ho1 Er3 Pd3 Ru1 O14'
_cell_volume   265.66791917
_cell_formula_units_Z   1
loop_
 _symmetry_equiv_pos_site_id
 _symmetry_equiv_pos_as_xyz
  1  'x, y, z'
loop_
 _atom_site_type_symbol
 _atom_site_label
 _atom_site_symmetry_multiplicity
 _atom_site_fract_x
 _atom_site_fract_y
 _atom_site_fract_z
 _atom_site_occupancy
  Ho  Ho0  1  0.625000  0.125000  0.125000  1
  Er  Er1  1  0.125000  0.125000  0.625000  1
  Er  Er2  1  0.125000  0.625000  0.125000  1
  Er  Er3  1  0.125000  0.125000  0.125000  1
  Pd  Pd4  1  0.625000  0.625000  0.125000  1
  Pd  Pd5  1  0.125000  0.625000  0.625000  1
  Pd  Pd6  1  0.625000  0.625000  0.625000  1
  Ru  Ru7  1  0.625000  0.125000  0.625000  1
  O  O8  1  0.248854  0.249920  0.250614  1
  O  O9  1  0.001146  0.000080  0.999386  1
  O  O10  1  0.537020  0.965228  0.537856  1
  O  O11  1  0.281736  0.720587  0.281687  1
  O  O12  1  0.533679  0.530042  0.968140  1
  O  O13  1  0.968264  0.529413  0.534009  1
  O  O14  1  0.537020  0.965228  0.959897  1
  O  O15  1  0.960025  0.965391  0.537292  1
  O  O16  1  0.968264  0.529413  0.968313  1
  O  O17  1  0.712980  0.284772  0.290103  1
  O  O18  1  0.281736  0.720587  0.715991  1
  O  O19  1  0.712980  0.284772  0.712144  1
  O  O20  1  0.289975  0.284609  0.712708  1
  O  O21  1  0.716321  0.719958  0.281860  1
