# generated using pymatgen
data_CaPrAl20(RuRh)2
_symmetry_space_group_name_H-M   'P 1'
_cell_length_a   6.89020982
_cell_length_b   6.89020952
_cell_length_c   9.20617900
_cell_angle_alpha   90.00363946
_cell_angle_beta   89.99635982
_cell_angle_gamma   96.91170810
_symmetry_Int_Tables_number   1
_chemical_formula_structural   CaPrAl20(RuRh)2
_chemical_formula_sum   'Ca1 Pr1 Al20 Ru2 Rh2'
_cell_volume   433.88700935
_cell_formula_units_Z   1
loop_
 _symmetry_equiv_pos_site_id
 _symmetry_equiv_pos_as_xyz
  1  'x, y, z'
loop_
 _atom_site_type_symbol
 _atom_site_label
 _atom_site_symmetry_multiplicity
 _atom_site_fract_x
 _atom_site_fract_y
 _atom_site_fract_z
 _atom_site_occupancy
  Ca  Ca0  1  0.874651  0.125349  0.749669  1
  Pr  Pr1  1  0.123976  0.876024  0.249861  1
  Al  Al2  1  0.411516  0.141646  0.748627  1
  Al  Al3  1  0.140129  0.409421  0.251356  1
  Al  Al4  1  0.590579  0.859871  0.251356  1
  Al  Al5  1  0.858354  0.588484  0.748627  1
  Al  Al6  1  0.521176  0.778036  0.747038  1
  Al  Al7  1  0.776341  0.517200  0.252960  1
  Al  Al8  1  0.482800  0.223659  0.252960  1
  Al  Al9  1  0.221964  0.478824  0.747038  1
  Al  Al10  1  0.841382  0.158618  0.400816  1
  Al  Al11  1  0.159623  0.840377  0.600476  1
  Al  Al12  1  0.840150  0.159850  0.102955  1
  Al  Al13  1  0.159956  0.840044  0.896218  1
  Al  Al14  1  0.623009  0.376991  0.549048  1
  Al  Al15  1  0.378449  0.621551  0.450039  1
  Al  Al16  1  0.621532  0.378468  0.948475  1
  Al  Al17  1  0.379550  0.620450  0.053008  1
  Al  Al18  1  0.772513  0.773698  0.998987  1
  Al  Al19  1  0.773664  0.775163  0.500760  1
  Al  Al20  1  0.226302  0.227487  0.998987  1
  Al  Al21  1  0.224837  0.226336  0.500760  1
  Ru  Ru22  1  0.498606  0.999871  0.500348  1
  Ru  Ru23  1  0.000129  0.501394  0.500348  1
  Rh  Rh24  1  0.499016  0.000203  0.999643  1
  Rh  Rh25  1  0.999797  0.500984  0.999643  1
