# generated using pymatgen
data_Tb7Dy3Si5Bi
_symmetry_space_group_name_H-M   'P 1'
_cell_length_a   8.57654302
_cell_length_b   8.62300192
_cell_length_c   6.40338600
_cell_angle_alpha   89.99621346
_cell_angle_beta   90.00117832
_cell_angle_gamma   119.81458626
_symmetry_Int_Tables_number   1
_chemical_formula_structural   Tb7Dy3Si5Bi
_chemical_formula_sum   'Tb7 Dy3 Si5 Bi1'
_cell_volume   410.88421089
_cell_formula_units_Z   1
loop_
 _symmetry_equiv_pos_site_id
 _symmetry_equiv_pos_as_xyz
  1  'x, y, z'
loop_
 _atom_site_type_symbol
 _atom_site_label
 _atom_site_symmetry_multiplicity
 _atom_site_fract_x
 _atom_site_fract_y
 _atom_site_fract_z
 _atom_site_occupancy
  Tb  Tb0  1  0.984943  0.744547  0.749925  1
  Tb  Tb1  1  0.998230  0.243645  0.250078  1
  Tb  Tb2  1  0.754522  0.756418  0.250065  1
  Tb  Tb3  1  0.767304  0.999939  0.749947  1
  Tb  Tb4  1  0.240359  0.255502  0.749951  1
  Tb  Tb5  1  0.240740  0.999949  0.250040  1
  Tb  Tb6  1  0.676777  0.346078  0.005063  1
  Dy  Dy7  1  0.330711  0.653893  0.494987  1
  Dy  Dy8  1  0.330667  0.653821  0.005012  1
  Dy  Dy9  1  0.676832  0.346135  0.494941  1
  Si  Si10  1  0.392928  0.390630  0.250202  1
  Si  Si11  1  0.002774  0.609609  0.250256  1
  Si  Si12  1  0.998867  0.394427  0.749770  1
  Si  Si13  1  0.604213  0.605806  0.749786  1
  Si  Si14  1  0.606888  0.999814  0.250147  1
  Bi  Bi15  1  0.393241  0.999786  0.749832  1
