# generated using pymatgen
data_La2Tb(PrSi2)2
_symmetry_space_group_name_H-M   'P 1'
_cell_length_a   7.89653800
_cell_length_b   7.89653800
_cell_length_c   15.37049200
_cell_angle_alpha   90.00000000
_cell_angle_beta   90.00000000
_cell_angle_gamma   90.00000000
_symmetry_Int_Tables_number   1
_chemical_formula_structural   La2Tb(PrSi2)2
_chemical_formula_sum   'La8 Tb4 Pr8 Si16'
_cell_volume   958.43183018
_cell_formula_units_Z   4
loop_
 _symmetry_equiv_pos_site_id
 _symmetry_equiv_pos_as_xyz
  1  'x, y, z'
loop_
 _atom_site_type_symbol
 _atom_site_label
 _atom_site_symmetry_multiplicity
 _atom_site_fract_x
 _atom_site_fract_y
 _atom_site_fract_z
 _atom_site_occupancy
  La  La0  1  0.375534  0.013223  0.447668  1
  La  La1  1  0.486777  0.875534  0.697668  1
  La  La2  1  0.513223  0.124466  0.197668  1
  La  La3  1  0.875534  0.486777  0.302332  1
  La  La4  1  0.124466  0.513223  0.802332  1
  La  La5  1  0.624466  0.986777  0.947668  1
  La  La6  1  0.013223  0.375534  0.552332  1
  La  La7  1  0.986777  0.624466  0.052332  1
  Tb  Tb8  1  0.311393  0.311393  0.000000  1
  Tb  Tb9  1  0.188607  0.811393  0.250000  1
  Tb  Tb10  1  0.811393  0.188607  0.750000  1
  Tb  Tb11  1  0.688607  0.688607  0.500000  1
  Pr  Pr12  1  0.126818  0.977929  0.878313  1
  Pr  Pr13  1  0.522071  0.626818  0.128313  1
  Pr  Pr14  1  0.477929  0.373182  0.628313  1
  Pr  Pr15  1  0.626818  0.522071  0.871687  1
  Pr  Pr16  1  0.373182  0.477929  0.371687  1
  Pr  Pr17  1  0.873182  0.022071  0.378313  1
  Pr  Pr18  1  0.977929  0.126818  0.121687  1
  Pr  Pr19  1  0.022071  0.873182  0.621687  1
  Si  Si20  1  0.190499  0.170050  0.707075  1
  Si  Si21  1  0.329950  0.690499  0.957075  1
  Si  Si22  1  0.670050  0.309501  0.457075  1
  Si  Si23  1  0.690499  0.329950  0.042925  1
  Si  Si24  1  0.309501  0.670050  0.542925  1
  Si  Si25  1  0.809501  0.829950  0.207075  1
  Si  Si26  1  0.170050  0.190499  0.292925  1
  Si  Si27  1  0.829950  0.809501  0.792925  1
  Si  Si28  1  0.286888  0.921943  0.063464  1
  Si  Si29  1  0.578057  0.786888  0.313464  1
  Si  Si30  1  0.421943  0.213112  0.813464  1
  Si  Si31  1  0.786888  0.578057  0.686536  1
  Si  Si32  1  0.213112  0.421943  0.186536  1
  Si  Si33  1  0.713112  0.078057  0.563464  1
  Si  Si34  1  0.921943  0.286888  0.936536  1
  Si  Si35  1  0.078057  0.713112  0.436536  1
