# generated using pymatgen
data_YHoU(AlIr)3
_symmetry_space_group_name_H-M   'P 1'
_cell_length_a   7.05182301
_cell_length_b   7.21940674
_cell_length_c   3.94976900
_cell_angle_alpha   90.00000000
_cell_angle_beta   90.00000000
_cell_angle_gamma   120.98944879
_symmetry_Int_Tables_number   1
_chemical_formula_structural   YHoU(AlIr)3
_chemical_formula_sum   'Y1 Ho1 U1 Al3 Ir3'
_cell_volume   172.38054572
_cell_formula_units_Z   1
loop_
 _symmetry_equiv_pos_site_id
 _symmetry_equiv_pos_as_xyz
  1  'x, y, z'
loop_
 _atom_site_type_symbol
 _atom_site_label
 _atom_site_symmetry_multiplicity
 _atom_site_fract_x
 _atom_site_fract_y
 _atom_site_fract_z
 _atom_site_occupancy
  Y  Y0  1  0.413183  0.416145  0.500000  1
  Ho  Ho1  1  0.587553  0.002935  0.500000  1
  U  U2  1  0.000190  0.579502  0.500000  1
  Al  Al3  1  0.751439  0.756900  0.000000  1
  Al  Al4  1  0.248566  0.005949  0.000000  1
  Al  Al5  1  0.999710  0.228278  0.000000  1
  Ir  Ir6  1  0.700866  0.361036  0.000000  1
  Ir  Ir7  1  0.300760  0.665323  0.000000  1
  Ir  Ir8  1  0.997732  0.983933  0.500000  1
