# generated using pymatgen
data_Tb6Al24Os7Ru
_symmetry_space_group_name_H-M   'P 1'
_cell_length_a   8.82719300
_cell_length_b   8.82719329
_cell_length_c   9.56625500
_cell_angle_alpha   90.00000000
_cell_angle_beta   90.00000000
_cell_angle_gamma   119.99999518
_symmetry_Int_Tables_number   1
_chemical_formula_structural   Tb6Al24Os7Ru
_chemical_formula_sum   'Tb6 Al24 Os7 Ru1'
_cell_volume   645.53213198
_cell_formula_units_Z   1
loop_
 _symmetry_equiv_pos_site_id
 _symmetry_equiv_pos_as_xyz
  1  'x, y, z'
loop_
 _atom_site_type_symbol
 _atom_site_label
 _atom_site_symmetry_multiplicity
 _atom_site_fract_x
 _atom_site_fract_y
 _atom_site_fract_z
 _atom_site_occupancy
  Tb  Tb0  1  0.193110  0.386219  0.249785  1
  Tb  Tb1  1  0.806890  0.613781  0.750215  1
  Tb  Tb2  1  0.613781  0.806890  0.249785  1
  Tb  Tb3  1  0.386219  0.193110  0.750215  1
  Tb  Tb4  1  0.193110  0.806890  0.249785  1
  Tb  Tb5  1  0.806890  0.193110  0.750215  1
  Al  Al6  1  0.333333  0.666667  0.014444  1
  Al  Al7  1  0.666667  0.333333  0.985556  1
  Al  Al8  1  0.666667  0.333333  0.514416  1
  Al  Al9  1  0.333333  0.666667  0.485584  1
  Al  Al10  1  0.162552  0.325103  0.575764  1
  Al  Al11  1  0.837448  0.674897  0.424236  1
  Al  Al12  1  0.674897  0.837448  0.575764  1
  Al  Al13  1  0.837496  0.674994  0.075765  1
  Al  Al14  1  0.325103  0.162552  0.424236  1
  Al  Al15  1  0.162504  0.325006  0.924235  1
  Al  Al16  1  0.162552  0.837448  0.575764  1
  Al  Al17  1  0.325006  0.162504  0.075765  1
  Al  Al18  1  0.837448  0.162552  0.424236  1
  Al  Al19  1  0.674994  0.837496  0.924235  1
  Al  Al20  1  0.837496  0.162504  0.075765  1
  Al  Al21  1  0.162504  0.837496  0.924235  1
  Al  Al22  1  0.560445  0.120891  0.249913  1
  Al  Al23  1  0.439555  0.879109  0.750087  1
  Al  Al24  1  0.879109  0.439555  0.249913  1
  Al  Al25  1  0.120891  0.560445  0.750087  1
  Al  Al26  1  0.560445  0.439555  0.249913  1
  Al  Al27  1  0.439555  0.560445  0.750087  1
  Al  Al28  1  0.000000  0.000000  0.248409  1
  Al  Al29  1  0.000000  0.000000  0.751591  1
  Os  Os30  1  0.500000  0.000000  0.000000  1
  Os  Os31  1  0.000000  0.500000  0.000000  1
  Os  Os32  1  0.500000  0.000000  0.500000  1
  Os  Os33  1  0.500000  0.500000  0.000000  1
  Os  Os34  1  0.000000  0.500000  0.500000  1
  Os  Os35  1  0.500000  0.500000  0.500000  1
  Os  Os36  1  0.000000  0.000000  0.500000  1
  Ru  Ru37  1  0.000000  0.000000  0.000000  1
