# generated using pymatgen
data_Lu5(Cd2Pd)2
_symmetry_space_group_name_H-M   'P 1'
_cell_length_a   3.54701900
_cell_length_b   7.91299800
_cell_length_c   18.13321900
_cell_angle_alpha   90.00000000
_cell_angle_beta   90.00000000
_cell_angle_gamma   90.00000000
_symmetry_Int_Tables_number   1
_chemical_formula_structural   Lu5(Cd2Pd)2
_chemical_formula_sum   'Lu10 Cd8 Pd4'
_cell_volume   508.95510806
_cell_formula_units_Z   2
loop_
 _symmetry_equiv_pos_site_id
 _symmetry_equiv_pos_as_xyz
  1  'x, y, z'
loop_
 _atom_site_type_symbol
 _atom_site_label
 _atom_site_symmetry_multiplicity
 _atom_site_fract_x
 _atom_site_fract_y
 _atom_site_fract_z
 _atom_site_occupancy
  Lu  Lu0  1  0.000000  0.500000  0.500000  1
  Lu  Lu1  1  0.000000  0.000000  0.000000  1
  Lu  Lu2  1  0.000000  0.737483  0.281010  1
  Lu  Lu3  1  0.000000  0.262517  0.718990  1
  Lu  Lu4  1  0.000000  0.762517  0.781010  1
  Lu  Lu5  1  0.000000  0.237483  0.218990  1
  Lu  Lu6  1  0.000000  0.611838  0.083082  1
  Lu  Lu7  1  0.000000  0.388162  0.916918  1
  Lu  Lu8  1  0.000000  0.888162  0.583082  1
  Lu  Lu9  1  0.000000  0.111838  0.416918  1
  Cd  Cd10  1  0.500000  0.715294  0.932522  1
  Cd  Cd11  1  0.500000  0.284706  0.067478  1
  Cd  Cd12  1  0.500000  0.784706  0.432522  1
  Cd  Cd13  1  0.500000  0.215294  0.567478  1
  Cd  Cd14  1  0.500000  0.581891  0.647710  1
  Cd  Cd15  1  0.500000  0.418109  0.352290  1
  Cd  Cd16  1  0.500000  0.918109  0.147710  1
  Cd  Cd17  1  0.500000  0.081891  0.852290  1
  Pd  Pd18  1  0.500000  0.523275  0.195983  1
  Pd  Pd19  1  0.500000  0.476725  0.804017  1
  Pd  Pd20  1  0.500000  0.976725  0.695983  1
  Pd  Pd21  1  0.500000  0.023275  0.304017  1
