# generated using pymatgen
data_SrFe3NiAs12
_symmetry_space_group_name_H-M   'P 1'
_cell_length_a   7.26620795
_cell_length_b   7.26620801
_cell_length_c   7.26620881
_cell_angle_alpha   109.45976838
_cell_angle_beta   109.45976558
_cell_angle_gamma   109.45975536
_symmetry_Int_Tables_number   1
_chemical_formula_structural   SrFe3NiAs12
_chemical_formula_sum   'Sr1 Fe3 Ni1 As12'
_cell_volume   295.45117735
_cell_formula_units_Z   1
loop_
 _symmetry_equiv_pos_site_id
 _symmetry_equiv_pos_as_xyz
  1  'x, y, z'
loop_
 _atom_site_type_symbol
 _atom_site_label
 _atom_site_symmetry_multiplicity
 _atom_site_fract_x
 _atom_site_fract_y
 _atom_site_fract_z
 _atom_site_occupancy
  Sr  Sr0  1  0.000000  0.000000  0.000000  1
  Fe  Fe1  1  0.500000  0.000000  0.000000  1
  Fe  Fe2  1  0.000000  0.500000  0.000000  1
  Fe  Fe3  1  0.000000  0.000000  0.500000  1
  Ni  Ni4  1  0.500000  0.500000  0.500000  1
  As  As5  1  0.851177  0.657699  0.498943  1
  As  As6  1  0.148823  0.342301  0.501057  1
  As  As7  1  0.157138  0.656817  0.813187  1
  As  As8  1  0.842862  0.343183  0.186813  1
  As  As9  1  0.657699  0.498943  0.851177  1
  As  As10  1  0.342301  0.501057  0.148823  1
  As  As11  1  0.656817  0.813187  0.157138  1
  As  As12  1  0.343183  0.186813  0.842862  1
  As  As13  1  0.498943  0.851177  0.657699  1
  As  As14  1  0.501057  0.148823  0.342301  1
  As  As15  1  0.186813  0.842862  0.343183  1
  As  As16  1  0.813187  0.157138  0.656817  1
