# generated using pymatgen
data_Y2In2PdPt3
_symmetry_space_group_name_H-M   'P 1'
_cell_length_a   4.58990100
_cell_length_b   4.58990223
_cell_length_c   9.09412000
_cell_angle_alpha   90.00000000
_cell_angle_beta   90.00000000
_cell_angle_gamma   119.99999833
_symmetry_Int_Tables_number   1
_chemical_formula_structural   Y2In2PdPt3
_chemical_formula_sum   'Y2 In2 Pd1 Pt3'
_cell_volume   165.91974542
_cell_formula_units_Z   1
loop_
 _symmetry_equiv_pos_site_id
 _symmetry_equiv_pos_as_xyz
  1  'x, y, z'
loop_
 _atom_site_type_symbol
 _atom_site_label
 _atom_site_symmetry_multiplicity
 _atom_site_fract_x
 _atom_site_fract_y
 _atom_site_fract_z
 _atom_site_occupancy
  Y  Y0  1  0.666667  0.333333  0.747911  1
  Y  Y1  1  0.333333  0.666667  0.254180  1
  In  In2  1  0.000000  0.000000  0.999237  1
  In  In3  1  0.000000  0.000000  0.499257  1
  Pd  Pd4  1  0.666667  0.333333  0.089776  1
  Pt  Pt5  1  0.333333  0.666667  0.910862  1
  Pt  Pt6  1  0.333333  0.666667  0.592777  1
  Pt  Pt7  1  0.666667  0.333333  0.406000  1
