# generated using pymatgen
data_EuCuPd5O8
_symmetry_space_group_name_H-M   'P 1'
_cell_length_a   6.91605577
_cell_length_b   6.91605630
_cell_length_c   6.93529200
_cell_angle_alpha   59.90795227
_cell_angle_beta   59.90794971
_cell_angle_gamma   59.27839953
_symmetry_Int_Tables_number   1
_chemical_formula_structural   EuCuPd5O8
_chemical_formula_sum   'Eu1 Cu1 Pd5 O8'
_cell_volume   232.93948610
_cell_formula_units_Z   1
loop_
 _symmetry_equiv_pos_site_id
 _symmetry_equiv_pos_as_xyz
  1  'x, y, z'
loop_
 _atom_site_type_symbol
 _atom_site_label
 _atom_site_symmetry_multiplicity
 _atom_site_fract_x
 _atom_site_fract_y
 _atom_site_fract_z
 _atom_site_occupancy
  Eu  Eu0  1  0.000000  0.000000  0.000000  1
  Cu  Cu1  1  0.000000  0.000000  0.500000  1
  Pd  Pd2  1  0.500000  0.000000  0.000000  1
  Pd  Pd3  1  0.000000  0.500000  0.000000  1
  Pd  Pd4  1  0.500000  0.500000  0.000000  1
  Pd  Pd5  1  0.000000  0.500000  0.500000  1
  Pd  Pd6  1  0.500000  0.000000  0.500000  1
  O  O7  1  0.136815  0.136815  0.567634  1
  O  O8  1  0.140587  0.572783  0.143315  1
  O  O9  1  0.572783  0.140587  0.143315  1
  O  O10  1  0.859413  0.427217  0.856685  1
  O  O11  1  0.136815  0.136815  0.158736  1
  O  O12  1  0.863185  0.863185  0.841264  1
  O  O13  1  0.863185  0.863185  0.432366  1
  O  O14  1  0.427217  0.859413  0.856685  1
