# generated using pymatgen
data_Cs(FeS)2
_symmetry_space_group_name_H-M   'P 1'
_cell_length_a   7.49121773
_cell_length_b   7.49121756
_cell_length_c   7.49121756
_cell_angle_alpha   151.23586569
_cell_angle_beta   151.23586402
_cell_angle_gamma   41.13026190
_symmetry_Int_Tables_number   1
_chemical_formula_structural   Cs(FeS)2
_chemical_formula_sum   'Cs1 Fe2 S2'
_cell_volume   97.13522015
_cell_formula_units_Z   1
loop_
 _symmetry_equiv_pos_site_id
 _symmetry_equiv_pos_as_xyz
  1  'x, y, z'
loop_
 _atom_site_type_symbol
 _atom_site_label
 _atom_site_symmetry_multiplicity
 _atom_site_fract_x
 _atom_site_fract_y
 _atom_site_fract_z
 _atom_site_occupancy
  Cs  Cs0  1  0.000000  0.000000  0.000000  1
  Fe  Fe1  1  0.750000  0.250000  0.500000  1
  Fe  Fe2  1  0.250000  0.750000  0.500000  1
  S  S3  1  0.667331  0.667331  0.000000  1
  S  S4  1  0.332669  0.332669  0.000000  1
