# generated using pymatgen
data_Cs2RbV2Br9
_symmetry_space_group_name_H-M   'P 1'
_cell_length_a   7.76183083
_cell_length_b   7.76477881
_cell_length_c   19.35589800
_cell_angle_alpha   90.00000000
_cell_angle_beta   90.00000000
_cell_angle_gamma   119.93437847
_symmetry_Int_Tables_number   1
_chemical_formula_structural   Cs2RbV2Br9
_chemical_formula_sum   'Cs4 Rb2 V4 Br18'
_cell_volume   1010.93681910
_cell_formula_units_Z   2
loop_
 _symmetry_equiv_pos_site_id
 _symmetry_equiv_pos_as_xyz
  1  'x, y, z'
loop_
 _atom_site_type_symbol
 _atom_site_label
 _atom_site_symmetry_multiplicity
 _atom_site_fract_x
 _atom_site_fract_y
 _atom_site_fract_z
 _atom_site_occupancy
  Cs  Cs0  1  0.666687  0.333316  0.571438  1
  Cs  Cs1  1  0.333313  0.666684  0.071438  1
  Cs  Cs2  1  0.333313  0.666684  0.428562  1
  Cs  Cs3  1  0.666687  0.333316  0.928562  1
  Rb  Rb4  1  0.999978  0.000019  0.250000  1
  Rb  Rb5  1  0.000022  0.999981  0.750000  1
  V  V6  1  0.333251  0.666692  0.665618  1
  V  V7  1  0.666749  0.333308  0.334382  1
  V  V8  1  0.333251  0.666692  0.834382  1
  V  V9  1  0.666749  0.333308  0.165618  1
  Br  Br10  1  0.822609  0.645436  0.404367  1
  Br  Br11  1  0.177202  0.822907  0.595580  1
  Br  Br12  1  0.645411  0.822602  0.595633  1
  Br  Br13  1  0.822798  0.177093  0.404420  1
  Br  Br14  1  0.354589  0.177398  0.404367  1
  Br  Br15  1  0.177391  0.354564  0.904367  1
  Br  Br16  1  0.029908  0.515243  0.750000  1
  Br  Br17  1  0.645411  0.822602  0.904367  1
  Br  Br18  1  0.822609  0.645436  0.095633  1
  Br  Br19  1  0.177391  0.354564  0.595633  1
  Br  Br20  1  0.484777  0.970159  0.750000  1
  Br  Br21  1  0.514783  0.485295  0.250000  1
  Br  Br22  1  0.485217  0.514705  0.750000  1
  Br  Br23  1  0.177202  0.822907  0.904420  1
  Br  Br24  1  0.354589  0.177398  0.095633  1
  Br  Br25  1  0.970092  0.484757  0.250000  1
  Br  Br26  1  0.515223  0.029841  0.250000  1
  Br  Br27  1  0.822798  0.177093  0.095580  1
