# generated using pymatgen
data_Y4MnCo13B6
_symmetry_space_group_name_H-M   'P 1'
_cell_length_a   5.04715700
_cell_length_b   5.04715756
_cell_length_c   12.71617600
_cell_angle_alpha   90.00000000
_cell_angle_beta   90.00000000
_cell_angle_gamma   119.99984477
_symmetry_Int_Tables_number   1
_chemical_formula_structural   Y4MnCo13B6
_chemical_formula_sum   'Y4 Mn1 Co13 B6'
_cell_volume   280.53142518
_cell_formula_units_Z   1
loop_
 _symmetry_equiv_pos_site_id
 _symmetry_equiv_pos_as_xyz
  1  'x, y, z'
loop_
 _atom_site_type_symbol
 _atom_site_label
 _atom_site_symmetry_multiplicity
 _atom_site_fract_x
 _atom_site_fract_y
 _atom_site_fract_z
 _atom_site_occupancy
  Y  Y0  1  0.000000  0.000000  0.260911  1
  Y  Y1  1  0.000000  0.000000  0.500000  1
  Y  Y2  1  0.000000  0.000000  0.000000  1
  Y  Y3  1  0.000000  0.000000  0.739089  1
  Mn  Mn4  1  0.333333  0.666667  0.000000  1
  Co  Co5  1  0.499968  0.999934  0.614919  1
  Co  Co6  1  0.500888  0.001776  0.843382  1
  Co  Co7  1  0.500888  0.499112  0.843381  1
  Co  Co8  1  0.499968  0.500032  0.385081  1
  Co  Co9  1  0.000066  0.500032  0.614919  1
  Co  Co10  1  0.998224  0.499112  0.156618  1
  Co  Co11  1  0.998224  0.499112  0.843382  1
  Co  Co12  1  0.500888  0.499112  0.156619  1
  Co  Co13  1  0.499968  0.999934  0.385081  1
  Co  Co14  1  0.500888  0.001776  0.156618  1
  Co  Co15  1  0.499968  0.500032  0.614919  1
  Co  Co16  1  0.666667  0.333333  0.000000  1
  Co  Co17  1  0.000066  0.500032  0.385081  1
  B  B18  1  0.666667  0.333333  0.730515  1
  B  B19  1  0.333333  0.666667  0.731264  1
  B  B20  1  0.333333  0.666667  0.268736  1
  B  B21  1  0.666667  0.333333  0.500000  1
  B  B22  1  0.666667  0.333333  0.269485  1
  B  B23  1  0.333333  0.666667  0.500000  1
