# generated using pymatgen
data_Er3Tm5In3Rh
_symmetry_space_group_name_H-M   'P 1'
_cell_length_a   10.30854300
_cell_length_b   10.30854402
_cell_length_c   6.95293800
_cell_angle_alpha   90.00000000
_cell_angle_beta   90.00000000
_cell_angle_gamma   119.99999994
_symmetry_Int_Tables_number   1
_chemical_formula_structural   Er3Tm5In3Rh
_chemical_formula_sum   'Er6 Tm10 In6 Rh2'
_cell_volume   639.87273496
_cell_formula_units_Z   2
loop_
 _symmetry_equiv_pos_site_id
 _symmetry_equiv_pos_as_xyz
  1  'x, y, z'
loop_
 _atom_site_type_symbol
 _atom_site_label
 _atom_site_symmetry_multiplicity
 _atom_site_fract_x
 _atom_site_fract_y
 _atom_site_fract_z
 _atom_site_occupancy
  Er  Er0  1  0.532179  0.064361  0.515830  1
  Er  Er1  1  0.935639  0.467821  0.515830  1
  Er  Er2  1  0.532179  0.467821  0.515830  1
  Er  Er3  1  0.467821  0.935639  0.015830  1
  Er  Er4  1  0.064361  0.532179  0.015830  1
  Er  Er5  1  0.467821  0.532179  0.015830  1
  Tm  Tm6  1  0.176518  0.353034  0.721294  1
  Tm  Tm7  1  0.646966  0.823482  0.721294  1
  Tm  Tm8  1  0.176518  0.823482  0.721294  1
  Tm  Tm9  1  0.823482  0.646966  0.221294  1
  Tm  Tm10  1  0.353034  0.176518  0.221294  1
  Tm  Tm11  1  0.823482  0.176518  0.221294  1
  Tm  Tm12  1  0.666667  0.333333  0.895353  1
  Tm  Tm13  1  0.333333  0.666667  0.395353  1
  Tm  Tm14  1  0.000000  0.000000  0.500577  1
  Tm  Tm15  1  0.000000  0.000000  0.000577  1
  In  In16  1  0.837326  0.674654  0.761069  1
  In  In17  1  0.325346  0.162674  0.761069  1
  In  In18  1  0.837326  0.162674  0.761069  1
  In  In19  1  0.162674  0.325346  0.261069  1
  In  In20  1  0.674654  0.837326  0.261069  1
  In  In21  1  0.162674  0.837326  0.261069  1
  Rh  Rh22  1  0.666667  0.333333  0.288492  1
  Rh  Rh23  1  0.333333  0.666667  0.788492  1
