# generated using pymatgen
data_ScTi5Si2(Ge2Os3)2
_symmetry_space_group_name_H-M   'P 1'
_cell_length_a   6.67074979
_cell_length_b   7.10181415
_cell_length_c   7.51228477
_cell_angle_alpha   118.20841207
_cell_angle_beta   116.17171459
_cell_angle_gamma   89.99999433
_symmetry_Int_Tables_number   1
_chemical_formula_structural   ScTi5Si2(Ge2Os3)2
_chemical_formula_sum   'Sc1 Ti5 Si2 Ge4 Os6'
_cell_volume   271.51343499
_cell_formula_units_Z   1
loop_
 _symmetry_equiv_pos_site_id
 _symmetry_equiv_pos_as_xyz
  1  'x, y, z'
loop_
 _atom_site_type_symbol
 _atom_site_label
 _atom_site_symmetry_multiplicity
 _atom_site_fract_x
 _atom_site_fract_y
 _atom_site_fract_z
 _atom_site_occupancy
  Sc  Sc0  1  0.242163  0.468806  0.437614  1
  Ti  Ti1  1  0.801673  0.529865  0.559728  1
  Ti  Ti2  1  0.655884  0.745456  0.990912  1
  Ti  Ti3  1  0.664649  0.255245  0.010491  1
  Ti  Ti4  1  0.855986  0.059199  0.618399  1
  Ti  Ti5  1  0.240334  0.942162  0.384324  1
  Si  Si6  1  0.287993  0.279618  0.059237  1
  Si  Si7  1  0.225663  0.718079  0.936155  1
  Ge  Ge8  1  0.579865  0.843047  0.667299  1
  Ge  Ge9  1  0.909647  0.157626  0.334978  1
  Ge  Ge10  1  0.909647  0.677353  0.334978  1
  Ge  Ge11  1  0.579865  0.324253  0.667299  1
  Os  Os12  1  0.000108  0.998471  0.998714  1
  Os  Os13  1  0.000108  0.500243  0.998714  1
  Os  Os14  1  0.495942  0.661162  0.247947  1
  Os  Os15  1  0.247465  0.337405  0.752631  1
  Os  Os16  1  0.247465  0.915225  0.752631  1
  Os  Os17  1  0.495942  0.086786  0.247947  1
