# generated using pymatgen
data_Ca3Ho2(Ni2Sn5)2
_symmetry_space_group_name_H-M   'P 1'
_cell_length_a   14.01792500
_cell_length_b   14.01792500
_cell_length_c   4.46360500
_cell_angle_alpha   90.00000000
_cell_angle_beta   90.00000000
_cell_angle_gamma   90.00000000
_symmetry_Int_Tables_number   1
_chemical_formula_structural   Ca3Ho2(Ni2Sn5)2
_chemical_formula_sum   'Ca6 Ho4 Ni8 Sn20'
_cell_volume   877.10829753
_cell_formula_units_Z   2
loop_
 _symmetry_equiv_pos_site_id
 _symmetry_equiv_pos_as_xyz
  1  'x, y, z'
loop_
 _atom_site_type_symbol
 _atom_site_label
 _atom_site_symmetry_multiplicity
 _atom_site_fract_x
 _atom_site_fract_y
 _atom_site_fract_z
 _atom_site_occupancy
  Ca  Ca0  1  0.000000  0.000000  0.000000  1
  Ca  Ca1  1  0.500000  0.500000  0.000000  1
  Ca  Ca2  1  0.892924  0.607076  0.500000  1
  Ca  Ca3  1  0.107076  0.392924  0.500000  1
  Ca  Ca4  1  0.392924  0.892924  0.500000  1
  Ca  Ca5  1  0.607076  0.107076  0.500000  1
  Ho  Ho6  1  0.180691  0.680691  0.500000  1
  Ho  Ho7  1  0.819309  0.319309  0.500000  1
  Ho  Ho8  1  0.680691  0.819309  0.500000  1
  Ho  Ho9  1  0.319309  0.180691  0.500000  1
  Ni  Ni10  1  0.254552  0.537154  0.000000  1
  Ni  Ni11  1  0.745448  0.462846  0.000000  1
  Ni  Ni12  1  0.754552  0.962846  0.000000  1
  Ni  Ni13  1  0.245448  0.037154  0.000000  1
  Ni  Ni14  1  0.462846  0.254552  0.000000  1
  Ni  Ni15  1  0.537154  0.745448  0.000000  1
  Ni  Ni16  1  0.037154  0.754552  0.000000  1
  Ni  Ni17  1  0.962846  0.245448  0.000000  1
  Sn  Sn18  1  0.353437  0.701176  0.000000  1
  Sn  Sn19  1  0.646563  0.298824  0.000000  1
  Sn  Sn20  1  0.853437  0.798824  0.000000  1
  Sn  Sn21  1  0.146563  0.201176  0.000000  1
  Sn  Sn22  1  0.298824  0.353437  0.000000  1
  Sn  Sn23  1  0.701176  0.646563  0.000000  1
  Sn  Sn24  1  0.201176  0.853437  0.000000  1
  Sn  Sn25  1  0.798824  0.146563  0.000000  1
  Sn  Sn26  1  0.337242  0.514222  0.500000  1
  Sn  Sn27  1  0.662758  0.485778  0.500000  1
  Sn  Sn28  1  0.837242  0.985778  0.500000  1
  Sn  Sn29  1  0.162758  0.014222  0.500000  1
  Sn  Sn30  1  0.485778  0.337242  0.500000  1
  Sn  Sn31  1  0.514222  0.662758  0.500000  1
  Sn  Sn32  1  0.014222  0.837242  0.500000  1
  Sn  Sn33  1  0.985778  0.162758  0.500000  1
  Sn  Sn34  1  0.071923  0.571923  0.000000  1
  Sn  Sn35  1  0.928077  0.428077  0.000000  1
  Sn  Sn36  1  0.571923  0.928077  0.000000  1
  Sn  Sn37  1  0.428077  0.071923  0.000000  1
