# generated using pymatgen
data_Er5(GaSb)2
_symmetry_space_group_name_H-M   'P 1'
_cell_length_a   8.56506679
_cell_length_b   8.56506697
_cell_length_c   7.85622200
_cell_angle_alpha   90.00000000
_cell_angle_beta   90.00000000
_cell_angle_gamma   125.40493160
_symmetry_Int_Tables_number   1
_chemical_formula_structural   Er5(GaSb)2
_chemical_formula_sum   'Er10 Ga4 Sb4'
_cell_volume   469.75823223
_cell_formula_units_Z   2
loop_
 _symmetry_equiv_pos_site_id
 _symmetry_equiv_pos_as_xyz
  1  'x, y, z'
loop_
 _atom_site_type_symbol
 _atom_site_label
 _atom_site_symmetry_multiplicity
 _atom_site_fract_x
 _atom_site_fract_y
 _atom_site_fract_z
 _atom_site_occupancy
  Er  Er0  1  0.038730  0.297912  0.333272  1
  Er  Er1  1  0.961270  0.702088  0.666728  1
  Er  Er2  1  0.461270  0.202088  0.833272  1
  Er  Er3  1  0.797912  0.538730  0.166728  1
  Er  Er4  1  0.538730  0.797912  0.166728  1
  Er  Er5  1  0.202088  0.461270  0.833272  1
  Er  Er6  1  0.702088  0.961270  0.666728  1
  Er  Er7  1  0.297912  0.038730  0.333272  1
  Er  Er8  1  0.000000  0.000000  0.000000  1
  Er  Er9  1  0.500000  0.500000  0.500000  1
  Ga  Ga10  1  0.373276  0.373276  0.126446  1
  Ga  Ga11  1  0.626724  0.626724  0.873554  1
  Ga  Ga12  1  0.126724  0.126724  0.626446  1
  Ga  Ga13  1  0.873276  0.873276  0.373554  1
  Sb  Sb14  1  0.794387  0.205613  0.000000  1
  Sb  Sb15  1  0.205613  0.794387  0.000000  1
  Sb  Sb16  1  0.705613  0.294387  0.500000  1
  Sb  Sb17  1  0.294387  0.705613  0.500000  1
