# generated using pymatgen
data_Nd2Ho8Tl3In5Pd4
_symmetry_space_group_name_H-M   'P 1'
_cell_length_a   3.63143400
_cell_length_b   8.22624467
_cell_length_c   18.44314475
_cell_angle_alpha   89.92699670
_cell_angle_beta   90.00000000
_cell_angle_gamma   90.00000000
_symmetry_Int_Tables_number   1
_chemical_formula_structural   Nd2Ho8Tl3In5Pd4
_chemical_formula_sum   'Nd2 Ho8 Tl3 In5 Pd4'
_cell_volume   550.95280682
_cell_formula_units_Z   1
loop_
 _symmetry_equiv_pos_site_id
 _symmetry_equiv_pos_as_xyz
  1  'x, y, z'
loop_
 _atom_site_type_symbol
 _atom_site_label
 _atom_site_symmetry_multiplicity
 _atom_site_fract_x
 _atom_site_fract_y
 _atom_site_fract_z
 _atom_site_occupancy
  Nd  Nd0  1  0.000000  0.498869  0.500253  1
  Nd  Nd1  1  0.000000  0.999981  0.999940  1
  Ho  Ho2  1  0.000000  0.739277  0.281450  1
  Ho  Ho3  1  0.000000  0.260763  0.718294  1
  Ho  Ho4  1  0.000000  0.760815  0.780922  1
  Ho  Ho5  1  0.000000  0.238643  0.218956  1
  Ho  Ho6  1  0.000000  0.619707  0.085614  1
  Ho  Ho7  1  0.000000  0.380358  0.914331  1
  Ho  Ho8  1  0.000000  0.881183  0.585270  1
  Ho  Ho9  1  0.000000  0.120121  0.415564  1
  Tl  Tl10  1  0.500000  0.702576  0.931555  1
  Tl  Tl11  1  0.500000  0.297476  0.068445  1
  Tl  Tl12  1  0.500000  0.797694  0.431707  1
  In  In13  1  0.500000  0.201968  0.568860  1
  In  In14  1  0.500000  0.582517  0.652910  1
  In  In15  1  0.500000  0.414957  0.346807  1
  In  In16  1  0.500000  0.915518  0.153343  1
  In  In17  1  0.500000  0.084253  0.846636  1
  Pd  Pd18  1  0.500000  0.526847  0.197104  1
  Pd  Pd19  1  0.500000  0.473642  0.803022  1
  Pd  Pd20  1  0.500000  0.976054  0.696001  1
  Pd  Pd21  1  0.500000  0.026782  0.303016  1
