# generated using pymatgen
data_Tb3YCo19P12Ru
_symmetry_space_group_name_H-M   'P 1'
_cell_length_a   3.66602800
_cell_length_b   10.32294945
_cell_length_c   11.75451429
_cell_angle_alpha   89.92021050
_cell_angle_beta   90.00000000
_cell_angle_gamma   90.00000000
_symmetry_Int_Tables_number   1
_chemical_formula_structural   Tb3YCo19P12Ru
_chemical_formula_sum   'Tb3 Y1 Co19 P12 Ru1'
_cell_volume   444.84001385
_cell_formula_units_Z   1
loop_
 _symmetry_equiv_pos_site_id
 _symmetry_equiv_pos_as_xyz
  1  'x, y, z'
loop_
 _atom_site_type_symbol
 _atom_site_label
 _atom_site_symmetry_multiplicity
 _atom_site_fract_x
 _atom_site_fract_y
 _atom_site_fract_z
 _atom_site_occupancy
  Tb  Tb0  1  0.250000  0.916388  0.202836  1
  Tb  Tb1  1  0.750000  0.083746  0.797863  1
  Tb  Tb2  1  0.250000  0.581975  0.701514  1
  Y  Y3  1  0.750000  0.414327  0.295345  1
  Co  Co4  1  0.750000  0.215514  0.508801  1
  Co  Co5  1  0.750000  0.283807  0.008355  1
  Co  Co6  1  0.250000  0.716947  0.992652  1
  Co  Co7  1  0.250000  0.093758  0.988773  1
  Co  Co8  1  0.750000  0.907068  0.011531  1
  Co  Co9  1  0.750000  0.590993  0.509762  1
  Co  Co10  1  0.250000  0.405976  0.487479  1
  Co  Co11  1  0.250000  0.279410  0.677067  1
  Co  Co12  1  0.750000  0.720781  0.322763  1
  Co  Co13  1  0.750000  0.777875  0.824210  1
  Co  Co14  1  0.250000  0.221619  0.175765  1
  Co  Co15  1  0.250000  0.616206  0.198617  1
  Co  Co16  1  0.750000  0.383660  0.801890  1
  Co  Co17  1  0.750000  0.117448  0.300665  1
  Co  Co18  1  0.250000  0.885509  0.701641  1
  Co  Co19  1  0.250000  0.035862  0.432632  1
  Co  Co20  1  0.750000  0.967359  0.568685  1
  Co  Co21  1  0.750000  0.532045  0.068260  1
  Co  Co22  1  0.250000  0.468278  0.932182  1
  P  P23  1  0.250000  0.082454  0.612470  1
  P  P24  1  0.750000  0.921131  0.387207  1
  P  P25  1  0.750000  0.580917  0.888499  1
  P  P26  1  0.250000  0.418372  0.111210  1
  P  P27  1  0.250000  0.229442  0.368884  1
  P  P28  1  0.750000  0.772029  0.633496  1
  P  P29  1  0.750000  0.728225  0.129185  1
  P  P30  1  0.250000  0.272235  0.870340  1
  P  P31  1  0.250000  0.898443  0.893355  1
  P  P32  1  0.750000  0.102576  0.107915  1
  P  P33  1  0.750000  0.396283  0.608450  1
  P  P34  1  0.250000  0.595936  0.389058  1
  Ru  Ru35  1  0.250000  0.785407  0.490649  1
