# generated using pymatgen
data_Ca4AgHgPb2
_symmetry_space_group_name_H-M   'P 1'
_cell_length_a   5.45436931
_cell_length_b   7.65487300
_cell_length_c   16.38077361
_cell_angle_alpha   89.99983743
_cell_angle_beta   90.00348692
_cell_angle_gamma   90.00154529
_symmetry_Int_Tables_number   1
_chemical_formula_structural   Ca4AgHgPb2
_chemical_formula_sum   'Ca12 Ag3 Hg3 Pb6'
_cell_volume   683.93831965
_cell_formula_units_Z   3
loop_
 _symmetry_equiv_pos_site_id
 _symmetry_equiv_pos_as_xyz
  1  'x, y, z'
loop_
 _atom_site_type_symbol
 _atom_site_label
 _atom_site_symmetry_multiplicity
 _atom_site_fract_x
 _atom_site_fract_y
 _atom_site_fract_z
 _atom_site_occupancy
  Ca  Ca0  1  0.500043  0.248043  0.001841  1
  Ca  Ca1  1  0.499966  0.751959  0.001840  1
  Ca  Ca2  1  0.999954  0.249247  0.166667  1
  Ca  Ca3  1  0.999980  0.750757  0.166668  1
  Ca  Ca4  1  0.500044  0.248050  0.331494  1
  Ca  Ca5  1  0.499968  0.751952  0.331495  1
  Ca  Ca6  1  0.000000  0.248667  0.498283  1
  Ca  Ca7  1  0.999986  0.751333  0.498284  1
  Ca  Ca8  1  0.499978  0.248536  0.666664  1
  Ca  Ca9  1  0.499996  0.751466  0.666664  1
  Ca  Ca10  1  0.000050  0.248683  0.835045  1
  Ca  Ca11  1  0.000035  0.751317  0.835045  1
  Ag  Ag12  1  0.000023  0.000004  0.000959  1
  Ag  Ag13  1  0.500048  0.499992  0.166673  1
  Ag  Ag14  1  0.999961  0.999999  0.332386  1
  Hg  Hg15  1  0.499991  0.500001  0.498464  1
  Hg  Hg16  1  0.999994  0.000001  0.666657  1
  Hg  Hg17  1  0.500082  0.500002  0.834874  1
  Pb  Pb18  1  0.000055  0.500009  0.000727  1
  Pb  Pb19  1  0.499887  0.999991  0.166678  1
  Pb  Pb20  1  0.000011  0.500001  0.332599  1
  Pb  Pb21  1  0.499983  0.000001  0.498406  1
  Pb  Pb22  1  0.999920  0.499990  0.666666  1
  Pb  Pb23  1  0.500051  0.000002  0.834920  1
