# generated using pymatgen
data_YTmTaB2Ru5
_symmetry_space_group_name_H-M   'P 1'
_cell_length_a   9.66826706
_cell_length_b   9.66826706
_cell_length_c   3.12938000
_cell_angle_alpha   90.00000000
_cell_angle_beta   90.00000000
_cell_angle_gamma   90.28577199
_symmetry_Int_Tables_number   1
_chemical_formula_structural   YTmTaB2Ru5
_chemical_formula_sum   'Y2 Tm2 Ta2 B4 Ru10'
_cell_volume   292.51637132
_cell_formula_units_Z   2
loop_
 _symmetry_equiv_pos_site_id
 _symmetry_equiv_pos_as_xyz
  1  'x, y, z'
loop_
 _atom_site_type_symbol
 _atom_site_label
 _atom_site_symmetry_multiplicity
 _atom_site_fract_x
 _atom_site_fract_y
 _atom_site_fract_z
 _atom_site_occupancy
  Y  Y0  1  0.825005  0.674995  0.000000  1
  Y  Y1  1  0.174995  0.325005  0.000000  1
  Tm  Tm2  1  0.325540  0.825540  0.000000  1
  Tm  Tm3  1  0.674460  0.174460  0.000000  1
  Ta  Ta4  1  0.500000  0.500000  0.000000  1
  Ta  Ta5  1  0.000000  0.000000  0.000000  1
  B  B6  1  0.620056  0.879944  0.000000  1
  B  B7  1  0.379944  0.120056  0.000000  1
  B  B8  1  0.121105  0.621105  0.000000  1
  B  B9  1  0.878895  0.378895  0.000000  1
  Ru  Ru10  1  0.568862  0.718793  0.500000  1
  Ru  Ru11  1  0.431138  0.281207  0.500000  1
  Ru  Ru12  1  0.073455  0.782366  0.500000  1
  Ru  Ru13  1  0.926545  0.217634  0.500000  1
  Ru  Ru14  1  0.282366  0.573455  0.500000  1
  Ru  Ru15  1  0.717634  0.426545  0.500000  1
  Ru  Ru16  1  0.218793  0.068862  0.500000  1
  Ru  Ru17  1  0.781207  0.931138  0.500000  1
  Ru  Ru18  1  0.500000  0.000000  0.500000  1
  Ru  Ru19  1  0.000000  0.500000  0.500000  1
