# generated using pymatgen
data_SmHoMo2O7
_symmetry_space_group_name_H-M   'P 1'
_cell_length_a   7.41177130
_cell_length_b   7.41177108
_cell_length_c   7.51561000
_cell_angle_alpha   59.53545157
_cell_angle_beta   59.53545259
_cell_angle_gamma   59.15315299
_symmetry_Int_Tables_number   1
_chemical_formula_structural   SmHoMo2O7
_chemical_formula_sum   'Sm2 Ho2 Mo4 O14'
_cell_volume   287.99843805
_cell_formula_units_Z   2
loop_
 _symmetry_equiv_pos_site_id
 _symmetry_equiv_pos_as_xyz
  1  'x, y, z'
loop_
 _atom_site_type_symbol
 _atom_site_label
 _atom_site_symmetry_multiplicity
 _atom_site_fract_x
 _atom_site_fract_y
 _atom_site_fract_z
 _atom_site_occupancy
  Sm  Sm0  1  0.125000  0.125000  0.625000  1
  Sm  Sm1  1  0.125000  0.125000  0.125000  1
  Ho  Ho2  1  0.625000  0.125000  0.125000  1
  Ho  Ho3  1  0.125000  0.625000  0.125000  1
  Mo  Mo4  1  0.625000  0.625000  0.625000  1
  Mo  Mo5  1  0.125000  0.625000  0.625000  1
  Mo  Mo6  1  0.625000  0.125000  0.625000  1
  Mo  Mo7  1  0.625000  0.625000  0.125000  1
  O  O8  1  0.288302  0.288302  0.711698  1
  O  O9  1  0.286831  0.706120  0.287252  1
  O  O10  1  0.963169  0.543880  0.962748  1
  O  O11  1  0.706120  0.286831  0.287252  1
  O  O12  1  0.997582  0.997582  0.002418  1
  O  O13  1  0.533518  0.533518  0.966482  1
  O  O14  1  0.286831  0.706120  0.719797  1
  O  O15  1  0.543880  0.963169  0.530203  1
  O  O16  1  0.543880  0.963169  0.962748  1
  O  O17  1  0.716482  0.716482  0.283518  1
  O  O18  1  0.252418  0.252418  0.247582  1
  O  O19  1  0.961698  0.961698  0.538302  1
  O  O20  1  0.963169  0.543880  0.530203  1
  O  O21  1  0.706120  0.286831  0.719797  1
