# generated using pymatgen
data_Tb15Er(HgRh)4
_symmetry_space_group_name_H-M   'P 1'
_cell_length_a   9.63386769
_cell_length_b   9.63146057
_cell_length_c   9.63386874
_cell_angle_alpha   60.00782260
_cell_angle_beta   59.96935491
_cell_angle_gamma   60.00782840
_symmetry_Int_Tables_number   1
_chemical_formula_structural   Tb15Er(HgRh)4
_chemical_formula_sum   'Tb15 Er1 Hg4 Rh4'
_cell_volume   632.01765097
_cell_formula_units_Z   1
loop_
 _symmetry_equiv_pos_site_id
 _symmetry_equiv_pos_as_xyz
  1  'x, y, z'
loop_
 _atom_site_type_symbol
 _atom_site_label
 _atom_site_symmetry_multiplicity
 _atom_site_fract_x
 _atom_site_fract_y
 _atom_site_fract_z
 _atom_site_occupancy
  Tb  Tb0  1  0.190095  0.188793  0.811631  1
  Tb  Tb1  1  0.436675  0.063203  0.062580  1
  Tb  Tb2  1  0.436126  0.063873  0.436126  1
  Tb  Tb3  1  0.062170  0.437833  0.062170  1
  Tb  Tb4  1  0.649066  0.050908  0.649066  1
  Tb  Tb5  1  0.190104  0.809471  0.811633  1
  Tb  Tb6  1  0.062580  0.063203  0.436675  1
  Tb  Tb7  1  0.811631  0.188793  0.190095  1
  Tb  Tb8  1  0.811633  0.809471  0.190104  1
  Tb  Tb9  1  0.646578  0.649333  0.054767  1
  Tb  Tb10  1  0.649077  0.650940  0.649077  1
  Tb  Tb11  1  0.062592  0.437533  0.436667  1
  Tb  Tb12  1  0.054767  0.649333  0.646578  1
  Tb  Tb13  1  0.810124  0.189881  0.810124  1
  Tb  Tb14  1  0.436667  0.437533  0.062592  1
  Er  Er15  1  0.189976  0.810022  0.189976  1
  Hg  Hg16  1  0.415210  0.754526  0.415210  1
  Hg  Hg17  1  0.415166  0.414817  0.755188  1
  Hg  Hg18  1  0.755188  0.414817  0.415166  1
  Hg  Hg19  1  0.415217  0.415044  0.415217  1
  Rh  Rh20  1  0.857213  0.427544  0.857213  1
  Rh  Rh21  1  0.859009  0.857540  0.425909  1
  Rh  Rh22  1  0.425909  0.857540  0.859009  1
  Rh  Rh23  1  0.857227  0.858051  0.857227  1
