# generated using pymatgen
data_Sc12CoTcNi3Sb
_symmetry_space_group_name_H-M   'P 1'
_cell_length_a   7.76218747
_cell_length_b   7.76218714
_cell_length_c   7.76218709
_cell_angle_alpha   111.54208500
_cell_angle_beta   110.21256358
_cell_angle_gamma   106.69706349
_symmetry_Int_Tables_number   1
_chemical_formula_structural   Sc12CoTcNi3Sb
_chemical_formula_sum   'Sc12 Co1 Tc1 Ni3 Sb1'
_cell_volume   359.34307762
_cell_formula_units_Z   1
loop_
 _symmetry_equiv_pos_site_id
 _symmetry_equiv_pos_as_xyz
  1  'x, y, z'
loop_
 _atom_site_type_symbol
 _atom_site_label
 _atom_site_symmetry_multiplicity
 _atom_site_fract_x
 _atom_site_fract_y
 _atom_site_fract_z
 _atom_site_occupancy
  Sc  Sc0  1  0.422698  0.225463  0.197234  1
  Sc  Sc1  1  0.577550  0.774207  0.803344  1
  Sc  Sc2  1  0.028230  0.225463  0.802766  1
  Sc  Sc3  1  0.970863  0.774207  0.196656  1
  Sc  Sc4  1  0.318216  0.619911  0.301695  1
  Sc  Sc5  1  0.686135  0.381655  0.695520  1
  Sc  Sc6  1  0.318216  0.016520  0.698305  1
  Sc  Sc7  1  0.686135  0.990615  0.304480  1
  Sc  Sc8  1  0.179287  0.274034  0.456698  1
  Sc  Sc9  1  0.817337  0.722588  0.543302  1
  Sc  Sc10  1  0.179287  0.722588  0.905253  1
  Sc  Sc11  1  0.817337  0.274034  0.094747  1
  Co  Co12  1  0.878687  0.378687  0.500000  1
  Tc  Tc13  1  0.998925  0.998925  0.000000  1
  Ni  Ni14  1  0.354095  0.999015  0.355080  1
  Ni  Ni15  1  0.643936  0.999015  0.644920  1
  Ni  Ni16  1  0.123154  0.623154  0.500000  1
  Sb  Sb17  1  0.499913  0.499913  0.000000  1
