# generated using pymatgen
data_Tb5Th7Ni12
_symmetry_space_group_name_H-M   'P 1'
_cell_length_a   4.33378800
_cell_length_b   5.56701313
_cell_length_c   20.91672816
_cell_angle_alpha   83.95571513
_cell_angle_beta   90.00000000
_cell_angle_gamma   90.00000000
_symmetry_Int_Tables_number   1
_chemical_formula_structural   Tb5Th7Ni12
_chemical_formula_sum   'Tb5 Th7 Ni12'
_cell_volume   501.83690645
_cell_formula_units_Z   1
loop_
 _symmetry_equiv_pos_site_id
 _symmetry_equiv_pos_as_xyz
  1  'x, y, z'
loop_
 _atom_site_type_symbol
 _atom_site_label
 _atom_site_symmetry_multiplicity
 _atom_site_fract_x
 _atom_site_fract_y
 _atom_site_fract_z
 _atom_site_occupancy
  Tb  Tb0  1  0.250000  0.667547  0.438652  1
  Tb  Tb1  1  0.750000  0.021760  0.728383  1
  Tb  Tb2  1  0.250000  0.976352  0.272199  1
  Tb  Tb3  1  0.750000  0.175895  0.893531  1
  Tb  Tb4  1  0.250000  0.823990  0.106628  1
  Th  Th5  1  0.750000  0.322346  0.061510  1
  Th  Th6  1  0.250000  0.677855  0.938696  1
  Th  Th7  1  0.750000  0.497025  0.227816  1
  Th  Th8  1  0.250000  0.500686  0.772846  1
  Th  Th9  1  0.750000  0.183566  0.393746  1
  Th  Th10  1  0.250000  0.817766  0.606888  1
  Th  Th11  1  0.750000  0.338317  0.559975  1
  Ni  Ni12  1  0.750000  0.847941  0.013944  1
  Ni  Ni13  1  0.250000  0.151919  0.986302  1
  Ni  Ni14  1  0.750000  0.022164  0.180188  1
  Ni  Ni15  1  0.250000  0.977158  0.820084  1
  Ni  Ni16  1  0.750000  0.705434  0.345611  1
  Ni  Ni17  1  0.250000  0.289627  0.652912  1
  Ni  Ni18  1  0.750000  0.860440  0.513614  1
  Ni  Ni19  1  0.250000  0.144528  0.485926  1
  Ni  Ni20  1  0.750000  0.543484  0.681112  1
  Ni  Ni21  1  0.250000  0.455653  0.319387  1
  Ni  Ni22  1  0.750000  0.692301  0.846860  1
  Ni  Ni23  1  0.250000  0.306245  0.153190  1
