# generated using pymatgen
data_Hf6Co2Sn6IrRu3
_symmetry_space_group_name_H-M   'P 1'
_cell_length_a   7.51882800
_cell_length_b   7.51882968
_cell_length_c   6.71136400
_cell_angle_alpha   90.00000000
_cell_angle_beta   90.00000000
_cell_angle_gamma   119.99999259
_symmetry_Int_Tables_number   1
_chemical_formula_structural   Hf6Co2Sn6IrRu3
_chemical_formula_sum   'Hf6 Co2 Sn6 Ir1 Ru3'
_cell_volume   328.58055253
_cell_formula_units_Z   1
loop_
 _symmetry_equiv_pos_site_id
 _symmetry_equiv_pos_as_xyz
  1  'x, y, z'
loop_
 _atom_site_type_symbol
 _atom_site_label
 _atom_site_symmetry_multiplicity
 _atom_site_fract_x
 _atom_site_fract_y
 _atom_site_fract_z
 _atom_site_occupancy
  Hf  Hf0  1  0.997275  0.389501  0.751542  1
  Hf  Hf1  1  0.610499  0.607775  0.751542  1
  Hf  Hf2  1  0.392225  0.002725  0.751542  1
  Hf  Hf3  1  0.997228  0.389486  0.248456  1
  Hf  Hf4  1  0.610514  0.607742  0.248456  1
  Hf  Hf5  1  0.392258  0.002772  0.248456  1
  Co  Co6  1  0.000000  0.000000  0.749652  1
  Co  Co7  1  0.000000  0.000000  0.250352  1
  Sn  Sn8  1  0.264981  0.263115  0.499929  1
  Sn  Sn9  1  0.998134  0.735019  0.499929  1
  Sn  Sn10  1  0.000588  0.735364  0.000069  1
  Sn  Sn11  1  0.736885  0.001866  0.499929  1
  Sn  Sn12  1  0.734776  0.999412  0.000069  1
  Sn  Sn13  1  0.264636  0.265224  0.000069  1
  Ir  Ir14  1  0.333333  0.666667  0.499953  1
  Ru  Ru15  1  0.666667  0.333333  0.500008  1
  Ru  Ru16  1  0.333333  0.666667  0.000070  1
  Ru  Ru17  1  0.666667  0.333333  0.999975  1
