# generated using pymatgen
data_La17Pr(LuGa6)2
_symmetry_space_group_name_H-M   'P 1'
_cell_length_a   7.92900078
_cell_length_b   7.92646843
_cell_length_c   14.98114178
_cell_angle_alpha   90.00945607
_cell_angle_beta   89.96431925
_cell_angle_gamma   89.96369173
_symmetry_Int_Tables_number   1
_chemical_formula_structural   La17Pr(LuGa6)2
_chemical_formula_sum   'La17 Pr1 Lu2 Ga12'
_cell_volume   941.54901069
_cell_formula_units_Z   1
loop_
 _symmetry_equiv_pos_site_id
 _symmetry_equiv_pos_as_xyz
  1  'x, y, z'
loop_
 _atom_site_type_symbol
 _atom_site_label
 _atom_site_symmetry_multiplicity
 _atom_site_fract_x
 _atom_site_fract_y
 _atom_site_fract_z
 _atom_site_occupancy
  La  La0  1  0.837275  0.811807  0.896274  1
  La  La1  1  0.840033  0.182371  0.395984  1
  La  La2  1  0.162661  0.188032  0.896050  1
  La  La3  1  0.662554  0.687891  0.103671  1
  La  La4  1  0.999901  0.500019  0.707267  1
  La  La5  1  0.817620  0.840095  0.603859  1
  La  La6  1  0.317424  0.340056  0.396017  1
  La  La7  1  0.188284  0.837168  0.103770  1
  La  La8  1  0.182378  0.159736  0.603862  1
  La  La9  1  0.811755  0.162857  0.103658  1
  La  La10  1  0.340192  0.682416  0.603844  1
  La  La11  1  0.499773  0.000192  0.292496  1
  La  La12  1  0.687763  0.337400  0.896296  1
  La  La13  1  0.659798  0.317616  0.603899  1
  La  La14  1  0.311826  0.662334  0.896366  1
  La  La15  1  0.159942  0.817602  0.396143  1
  La  La16  1  0.682465  0.659817  0.396075  1
  Pr  Pr17  1  0.337514  0.312169  0.105092  1
  Lu  Lu18  1  0.500032  0.000027  0.773104  1
  Lu  Lu19  1  0.000270  0.499814  0.226708  1
  Ga  Ga20  1  0.624604  0.384041  0.247679  1
  Ga  Ga21  1  0.875098  0.115904  0.752056  1
  Ga  Ga22  1  0.499984  0.000023  0.499748  1
  Ga  Ga23  1  0.884143  0.875119  0.247854  1
  Ga  Ga24  1  0.000664  0.499578  0.020301  1
  Ga  Ga25  1  0.124918  0.884068  0.752099  1
  Ga  Ga26  1  0.384086  0.375087  0.752065  1
  Ga  Ga27  1  0.116337  0.125204  0.247690  1
  Ga  Ga28  1  0.375061  0.615681  0.247727  1
  Ga  Ga29  1  0.615949  0.624946  0.752086  1
  Ga  Ga30  1  0.499682  0.000865  0.980078  1
  Ga  Ga31  1  0.000013  0.500065  0.500184  1
