# generated using pymatgen
data_TiNb4Ga2BAs
_symmetry_space_group_name_H-M   'P 1'
_cell_length_a   7.79043738
_cell_length_b   7.79043682
_cell_length_c   5.29967610
_cell_angle_alpha   90.04581500
_cell_angle_beta   90.04580654
_cell_angle_gamma   120.01915098
_symmetry_Int_Tables_number   1
_chemical_formula_structural   TiNb4Ga2BAs
_chemical_formula_sum   'Ti2 Nb8 Ga4 B2 As2'
_cell_volume   278.49616098
_cell_formula_units_Z   2
loop_
 _symmetry_equiv_pos_site_id
 _symmetry_equiv_pos_as_xyz
  1  'x, y, z'
loop_
 _atom_site_type_symbol
 _atom_site_label
 _atom_site_symmetry_multiplicity
 _atom_site_fract_x
 _atom_site_fract_y
 _atom_site_fract_z
 _atom_site_occupancy
  Ti  Ti0  1  0.667193  0.331467  0.497201  1
  Ti  Ti1  1  0.331467  0.667193  0.497201  1
  Nb  Nb2  1  0.330548  0.666801  0.001143  1
  Nb  Nb3  1  0.666801  0.330548  0.001143  1
  Nb  Nb4  1  0.755576  0.755576  0.247583  1
  Nb  Nb5  1  0.244544  0.999448  0.250004  1
  Nb  Nb6  1  0.999448  0.244544  0.250004  1
  Nb  Nb7  1  0.241048  0.241048  0.752736  1
  Nb  Nb8  1  0.759222  0.001988  0.752093  1
  Nb  Nb9  1  0.001988  0.759222  0.752093  1
  Ga  Ga10  1  0.402395  0.402395  0.256294  1
  Ga  Ga11  1  0.600516  0.997847  0.255686  1
  Ga  Ga12  1  0.997847  0.600516  0.255686  1
  Ga  Ga13  1  0.597715  0.597715  0.742936  1
  B  B14  1  0.998889  0.998889  0.498760  1
  B  B15  1  0.999103  0.999103  0.002960  1
  As  As16  1  0.405412  0.000282  0.743238  1
  As  As17  1  0.000282  0.405412  0.743238  1
