# generated using pymatgen
data_Rb4TbUSe6
_symmetry_space_group_name_H-M   'P 1'
_cell_length_a   7.68393776
_cell_length_b   7.68393800
_cell_length_c   8.38347050
_cell_angle_alpha   81.06749990
_cell_angle_beta   81.06750164
_cell_angle_gamma   119.97140137
_symmetry_Int_Tables_number   1
_chemical_formula_structural   Rb4TbUSe6
_chemical_formula_sum   'Rb4 Tb1 U1 Se6'
_cell_volume   407.61177372
_cell_formula_units_Z   1
loop_
 _symmetry_equiv_pos_site_id
 _symmetry_equiv_pos_as_xyz
  1  'x, y, z'
loop_
 _atom_site_type_symbol
 _atom_site_label
 _atom_site_symmetry_multiplicity
 _atom_site_fract_x
 _atom_site_fract_y
 _atom_site_fract_z
 _atom_site_occupancy
  Rb  Rb0  1  0.500042  0.499958  0.000000  1
  Rb  Rb1  1  0.654966  0.345034  0.500000  1
  Rb  Rb2  1  0.345380  0.654620  0.500000  1
  Rb  Rb3  1  0.999637  0.000363  0.500000  1
  Tb  Tb4  1  0.832380  0.167620  0.000000  1
  U  U5  1  0.167604  0.832396  0.000000  1
  Se  Se6  1  0.820250  0.806857  0.196759  1
  Se  Se7  1  0.193143  0.179750  0.803241  1
  Se  Se8  1  0.418572  0.043826  0.199635  1
  Se  Se9  1  0.554151  0.942299  0.799826  1
  Se  Se10  1  0.956174  0.581428  0.800365  1
  Se  Se11  1  0.057701  0.445849  0.200174  1
