# generated using pymatgen
data_Sm3Y7(Sn3Pb)2
_symmetry_space_group_name_H-M   'P 1'
_cell_length_a   8.21445800
_cell_length_b   8.25447947
_cell_length_c   15.59111800
_cell_angle_alpha   90.04434717
_cell_angle_beta   90.00000000
_cell_angle_gamma   90.00000000
_symmetry_Int_Tables_number   1
_chemical_formula_structural   Sm3Y7(Sn3Pb)2
_chemical_formula_sum   'Sm6 Y14 Sn12 Pb4'
_cell_volume   1057.17219883
_cell_formula_units_Z   2
loop_
 _symmetry_equiv_pos_site_id
 _symmetry_equiv_pos_as_xyz
  1  'x, y, z'
loop_
 _atom_site_type_symbol
 _atom_site_label
 _atom_site_symmetry_multiplicity
 _atom_site_fract_x
 _atom_site_fract_y
 _atom_site_fract_z
 _atom_site_occupancy
  Sm  Sm0  1  0.469907  0.678442  0.400235  1
  Sm  Sm1  1  0.969907  0.821558  0.099765  1
  Sm  Sm2  1  0.476906  0.676722  0.099497  1
  Sm  Sm3  1  0.976906  0.823278  0.400503  1
  Sm  Sm4  1  0.521724  0.322396  0.600037  1
  Sm  Sm5  1  0.021724  0.177604  0.899963  1
  Y  Y6  1  0.373169  0.837718  0.876730  1
  Y  Y7  1  0.873169  0.662282  0.623270  1
  Y  Y8  1  0.625147  0.162386  0.377264  1
  Y  Y9  1  0.125147  0.337614  0.122736  1
  Y  Y10  1  0.628340  0.162726  0.121236  1
  Y  Y11  1  0.128340  0.337274  0.378764  1
  Y  Y12  1  0.370979  0.838327  0.622402  1
  Y  Y13  1  0.870979  0.661673  0.877598  1
  Y  Y14  1  0.534581  0.323916  0.897361  1
  Y  Y15  1  0.034581  0.176084  0.602639  1
  Y  Y16  1  0.204537  0.503193  0.748889  1
  Y  Y17  1  0.704537  0.996807  0.751111  1
  Y  Y18  1  0.794973  0.496172  0.248291  1
  Y  Y19  1  0.294973  0.003828  0.251709  1
  Sn  Sn20  1  0.707338  0.963661  0.957217  1
  Sn  Sn21  1  0.207338  0.536339  0.542783  1
  Sn  Sn22  1  0.289681  0.037726  0.459019  1
  Sn  Sn23  1  0.789681  0.462274  0.040981  1
  Sn  Sn24  1  0.570112  0.621376  0.749390  1
  Sn  Sn25  1  0.070112  0.878624  0.750610  1
  Sn  Sn26  1  0.428997  0.378419  0.249498  1
  Sn  Sn27  1  0.928997  0.121581  0.250502  1
  Sn  Sn28  1  0.335964  0.146726  0.751971  1
  Sn  Sn29  1  0.835964  0.353274  0.748029  1
  Sn  Sn30  1  0.664959  0.855053  0.250539  1
  Sn  Sn31  1  0.164959  0.644947  0.249461  1
  Pb  Pb32  1  0.288075  0.034477  0.042501  1
  Pb  Pb33  1  0.788075  0.465523  0.457499  1
  Pb  Pb34  1  0.714611  0.967778  0.542767  1
  Pb  Pb35  1  0.214611  0.532222  0.957233  1
