# generated using pymatgen
data_Nd4Zn10SiPb
_symmetry_space_group_name_H-M   'P 1'
_cell_length_a   8.49784593
_cell_length_b   8.49784524
_cell_length_c   8.98360400
_cell_angle_alpha   90.00000000
_cell_angle_beta   90.00000000
_cell_angle_gamma   149.53979416
_symmetry_Int_Tables_number   1
_chemical_formula_structural   Nd4Zn10SiPb
_chemical_formula_sum   'Nd4 Zn10 Si1 Pb1'
_cell_volume   328.87030745
_cell_formula_units_Z   1
loop_
 _symmetry_equiv_pos_site_id
 _symmetry_equiv_pos_as_xyz
  1  'x, y, z'
loop_
 _atom_site_type_symbol
 _atom_site_label
 _atom_site_symmetry_multiplicity
 _atom_site_fract_x
 _atom_site_fract_y
 _atom_site_fract_z
 _atom_site_occupancy
  Nd  Nd0  1  0.202536  0.797464  0.250000  1
  Nd  Nd1  1  0.793793  0.206207  0.750000  1
  Nd  Nd2  1  0.000860  0.999140  0.483018  1
  Nd  Nd3  1  0.000860  0.999140  0.016982  1
  Zn  Zn4  1  0.813353  0.186647  0.391052  1
  Zn  Zn5  1  0.185514  0.814486  0.606441  1
  Zn  Zn6  1  0.813353  0.186647  0.108948  1
  Zn  Zn7  1  0.185514  0.814486  0.893559  1
  Zn  Zn8  1  0.649598  0.350402  0.474323  1
  Zn  Zn9  1  0.343182  0.656818  0.511432  1
  Zn  Zn10  1  0.649598  0.350402  0.025677  1
  Zn  Zn11  1  0.343182  0.656818  0.988568  1
  Zn  Zn12  1  0.406257  0.593743  0.250000  1
  Zn  Zn13  1  0.607994  0.392006  0.750000  1
  Si  Si14  1  0.558110  0.441890  0.250000  1
  Pb  Pb15  1  0.446290  0.553710  0.750000  1
