# generated using pymatgen
data_Tb12In2Tc3
_symmetry_space_group_name_H-M   'P 1'
_cell_length_a   8.52079140
_cell_length_b   8.52079146
_cell_length_c   8.52079180
_cell_angle_alpha   108.98902691
_cell_angle_beta   108.98903134
_cell_angle_gamma   110.43996476
_symmetry_Int_Tables_number   1
_chemical_formula_structural   Tb12In2Tc3
_chemical_formula_sum   'Tb12 In2 Tc3'
_cell_volume   476.12901451
_cell_formula_units_Z   1
loop_
 _symmetry_equiv_pos_site_id
 _symmetry_equiv_pos_as_xyz
  1  'x, y, z'
loop_
 _atom_site_type_symbol
 _atom_site_label
 _atom_site_symmetry_multiplicity
 _atom_site_fract_x
 _atom_site_fract_y
 _atom_site_fract_z
 _atom_site_occupancy
  Tb  Tb0  1  0.190242  0.430234  0.239992  1
  Tb  Tb1  1  0.809758  0.569766  0.760008  1
  Tb  Tb2  1  0.190242  0.950250  0.760008  1
  Tb  Tb3  1  0.950250  0.190242  0.760008  1
  Tb  Tb4  1  0.809758  0.049750  0.239992  1
  Tb  Tb5  1  0.049750  0.809758  0.239992  1
  Tb  Tb6  1  0.430234  0.190242  0.239992  1
  Tb  Tb7  1  0.569766  0.809758  0.760008  1
  Tb  Tb8  1  0.306205  0.306205  0.612411  1
  Tb  Tb9  1  0.693795  0.693795  0.387589  1
  Tb  Tb10  1  0.693795  0.306205  0.000000  1
  Tb  Tb11  1  0.306205  0.693795  0.000000  1
  In  In12  1  0.000000  0.500000  0.500000  1
  In  In13  1  0.500000  0.000000  0.500000  1
  Tc  Tc14  1  0.371871  0.371871  0.000000  1
  Tc  Tc15  1  0.628129  0.628129  0.000000  1
  Tc  Tc16  1  0.000000  0.000000  0.000000  1
