# generated using pymatgen
data_LuU3PaGa15
_symmetry_space_group_name_H-M   'P 1'
_cell_length_a   12.48662601
_cell_length_b   12.48662551
_cell_length_c   12.48662400
_cell_angle_alpha   28.34239255
_cell_angle_beta   28.34238719
_cell_angle_gamma   28.34239071
_symmetry_Int_Tables_number   1
_chemical_formula_structural   LuU3PaGa15
_chemical_formula_sum   'Lu1 U3 Pa1 Ga15'
_cell_volume   387.73351595
_cell_formula_units_Z   1
loop_
 _symmetry_equiv_pos_site_id
 _symmetry_equiv_pos_as_xyz
  1  'x, y, z'
loop_
 _atom_site_type_symbol
 _atom_site_label
 _atom_site_symmetry_multiplicity
 _atom_site_fract_x
 _atom_site_fract_y
 _atom_site_fract_z
 _atom_site_occupancy
  Lu  Lu0  1  0.600059  0.600059  0.600059  1
  U  U1  1  0.131215  0.131215  0.131215  1
  U  U2  1  0.869653  0.869653  0.869653  1
  U  U3  1  0.400070  0.400070  0.400070  1
  Pa  Pa4  1  0.999069  0.999069  0.999069  1
  Ga  Ga5  1  0.428703  0.884818  0.884818  1
  Ga  Ga6  1  0.884818  0.884818  0.428703  1
  Ga  Ga7  1  0.884818  0.428703  0.884818  1
  Ga  Ga8  1  0.115059  0.569857  0.115059  1
  Ga  Ga9  1  0.115059  0.115059  0.569857  1
  Ga  Ga10  1  0.569857  0.115059  0.115059  1
  Ga  Ga11  1  0.130378  0.635995  0.635995  1
  Ga  Ga12  1  0.635995  0.635995  0.130378  1
  Ga  Ga13  1  0.635995  0.130378  0.635995  1
  Ga  Ga14  1  0.364036  0.873116  0.364036  1
  Ga  Ga15  1  0.364036  0.364036  0.873116  1
  Ga  Ga16  1  0.873116  0.364036  0.364036  1
  Ga  Ga17  1  0.498588  0.498588  0.000887  1
  Ga  Ga18  1  0.498588  0.000887  0.498588  1
  Ga  Ga19  1  0.000887  0.498588  0.498588  1
