# generated using pymatgen
data_Dy3ZnCd3Pt2
_symmetry_space_group_name_H-M   'P 1'
_cell_length_a   7.79767000
_cell_length_b   7.79767023
_cell_length_c   3.73085300
_cell_angle_alpha   90.00000000
_cell_angle_beta   90.00000000
_cell_angle_gamma   120.00000750
_symmetry_Int_Tables_number   1
_chemical_formula_structural   Dy3ZnCd3Pt2
_chemical_formula_sum   'Dy3 Zn1 Cd3 Pt2'
_cell_volume   196.45742750
_cell_formula_units_Z   1
loop_
 _symmetry_equiv_pos_site_id
 _symmetry_equiv_pos_as_xyz
  1  'x, y, z'
loop_
 _atom_site_type_symbol
 _atom_site_label
 _atom_site_symmetry_multiplicity
 _atom_site_fract_x
 _atom_site_fract_y
 _atom_site_fract_z
 _atom_site_occupancy
  Dy  Dy0  1  0.587032  0.000000  0.000000  1
  Dy  Dy1  1  0.000000  0.587032  0.000000  1
  Dy  Dy2  1  0.412968  0.412968  0.000000  1
  Zn  Zn3  1  0.000000  0.000000  0.000000  1
  Cd  Cd4  1  0.258223  0.000000  0.500000  1
  Cd  Cd5  1  0.000000  0.258223  0.500000  1
  Cd  Cd6  1  0.741777  0.741777  0.500000  1
  Pt  Pt7  1  0.333333  0.666667  0.500000  1
  Pt  Pt8  1  0.666667  0.333333  0.500000  1
