# generated using pymatgen
data_Ba2Ca(InAs2)2
_symmetry_space_group_name_H-M   'P 1'
_cell_length_a   4.54766200
_cell_length_b   6.93398400
_cell_length_c   17.49762000
_cell_angle_alpha   90.00000000
_cell_angle_beta   90.00000000
_cell_angle_gamma   90.00000000
_symmetry_Int_Tables_number   1
_chemical_formula_structural   Ba2Ca(InAs2)2
_chemical_formula_sum   'Ba4 Ca2 In4 As8'
_cell_volume   551.75972252
_cell_formula_units_Z   2
loop_
 _symmetry_equiv_pos_site_id
 _symmetry_equiv_pos_as_xyz
  1  'x, y, z'
loop_
 _atom_site_type_symbol
 _atom_site_label
 _atom_site_symmetry_multiplicity
 _atom_site_fract_x
 _atom_site_fract_y
 _atom_site_fract_z
 _atom_site_occupancy
  Ba  Ba0  1  0.000000  0.277457  0.804690  1
  Ba  Ba1  1  0.500000  0.777457  0.695310  1
  Ba  Ba2  1  0.000000  0.722543  0.195310  1
  Ba  Ba3  1  0.500000  0.222543  0.304690  1
  Ca  Ca4  1  0.000000  0.000000  0.000000  1
  Ca  Ca5  1  0.500000  0.500000  0.500000  1
  In  In6  1  0.000000  0.865833  0.415896  1
  In  In7  1  0.500000  0.365833  0.084104  1
  In  In8  1  0.000000  0.134167  0.584104  1
  In  In9  1  0.500000  0.634167  0.915896  1
  As  As10  1  0.500000  0.242854  0.938321  1
  As  As11  1  0.500000  0.757146  0.061679  1
  As  As12  1  0.000000  0.233983  0.160670  1
  As  As13  1  0.000000  0.257146  0.438321  1
  As  As14  1  0.500000  0.733983  0.339330  1
  As  As15  1  0.000000  0.766017  0.839330  1
  As  As16  1  0.000000  0.742854  0.561679  1
  As  As17  1  0.500000  0.266017  0.660670  1
