# generated using pymatgen
data_Y11LuInGaCo4
_symmetry_space_group_name_H-M   'P 1'
_cell_length_a   8.34982344
_cell_length_b   8.34416923
_cell_length_c   8.34982382
_cell_angle_alpha   111.40955751
_cell_angle_beta   110.31270772
_cell_angle_gamma   106.75420693
_symmetry_Int_Tables_number   1
_chemical_formula_structural   Y11LuInGaCo4
_chemical_formula_sum   'Y11 Lu1 In1 Ga1 Co4'
_cell_volume   446.88524635
_cell_formula_units_Z   1
loop_
 _symmetry_equiv_pos_site_id
 _symmetry_equiv_pos_as_xyz
  1  'x, y, z'
loop_
 _atom_site_type_symbol
 _atom_site_label
 _atom_site_symmetry_multiplicity
 _atom_site_fract_x
 _atom_site_fract_y
 _atom_site_fract_z
 _atom_site_occupancy
  Y  Y0  1  0.432592  0.226238  0.204731  1
  Y  Y1  1  0.569385  0.773836  0.797980  1
  Y  Y2  1  0.021507  0.226238  0.793646  1
  Y  Y3  1  0.975856  0.773836  0.204451  1
  Y  Y4  1  0.182982  0.284107  0.469173  1
  Y  Y5  1  0.814659  0.715888  0.529336  1
  Y  Y6  1  0.186552  0.715888  0.901230  1
  Y  Y7  1  0.814934  0.284107  0.101124  1
  Y  Y8  1  0.316476  0.620508  0.304031  1
  Y  Y9  1  0.684185  0.379644  0.695460  1
  Y  Y10  1  0.316021  0.011896  0.695875  1
  Lu  Lu11  1  0.683341  0.990911  0.307570  1
  In  In12  1  0.500613  0.501222  0.000609  1
  Ga  Ga13  1  0.000895  0.000264  0.999368  1
  Co  Co14  1  0.378562  0.999214  0.375047  1
  Co  Co15  1  0.624167  0.999214  0.620652  1
  Co  Co16  1  0.110013  0.610732  0.500720  1
  Co  Co17  1  0.887262  0.386257  0.498996  1
