# generated using pymatgen
data_Er4CoB16Ir3
_symmetry_space_group_name_H-M   'P 1'
_cell_length_a   3.52664100
_cell_length_b   5.94102305
_cell_length_c   11.51282170
_cell_angle_alpha   89.83653588
_cell_angle_beta   90.00000000
_cell_angle_gamma   90.00000000
_symmetry_Int_Tables_number   1
_chemical_formula_structural   Er4CoB16Ir3
_chemical_formula_sum   'Er4 Co1 B16 Ir3'
_cell_volume   241.21399469
_cell_formula_units_Z   1
loop_
 _symmetry_equiv_pos_site_id
 _symmetry_equiv_pos_as_xyz
  1  'x, y, z'
loop_
 _atom_site_type_symbol
 _atom_site_label
 _atom_site_symmetry_multiplicity
 _atom_site_fract_x
 _atom_site_fract_y
 _atom_site_fract_z
 _atom_site_occupancy
  Er  Er0  1  0.500000  0.372540  0.147161  1
  Er  Er1  1  0.500000  0.630006  0.854719  1
  Er  Er2  1  0.500000  0.130996  0.649845  1
  Er  Er3  1  0.500000  0.868765  0.345942  1
  Co  Co4  1  0.500000  0.857757  0.095820  1
  B  B5  1  0.000000  0.111765  0.047104  1
  B  B6  1  0.000000  0.886487  0.954896  1
  B  B7  1  0.000000  0.387187  0.546870  1
  B  B8  1  0.000000  0.613210  0.451846  1
  B  B9  1  0.000000  0.135349  0.468716  1
  B  B10  1  0.000000  0.864636  0.529568  1
  B  B11  1  0.000000  0.364997  0.970035  1
  B  B12  1  0.000000  0.638885  0.032710  1
  B  B13  1  0.000000  0.020035  0.190197  1
  B  B14  1  0.000000  0.976208  0.808392  1
  B  B15  1  0.000000  0.473796  0.693272  1
  B  B16  1  0.000000  0.526417  0.305433  1
  B  B17  1  0.000000  0.208789  0.310415  1
  B  B18  1  0.000000  0.791239  0.688811  1
  B  B19  1  0.000000  0.289671  0.814074  1
  B  B20  1  0.000000  0.714253  0.184065  1
  Ir  Ir21  1  0.500000  0.356402  0.403932  1
  Ir  Ir22  1  0.500000  0.645267  0.597172  1
  Ir  Ir23  1  0.500000  0.135344  0.909006  1
