# generated using pymatgen
data_Dy5MgCo16(MoP6)2
_symmetry_space_group_name_H-M   'P 1'
_cell_length_a   12.11570645
_cell_length_b   12.11570657
_cell_length_c   3.71436200
_cell_angle_alpha   90.00000000
_cell_angle_beta   90.00000000
_cell_angle_gamma   120.27327166
_symmetry_Int_Tables_number   1
_chemical_formula_structural   Dy5MgCo16(MoP6)2
_chemical_formula_sum   'Dy5 Mg1 Co16 Mo2 P12'
_cell_volume   470.87956981
_cell_formula_units_Z   1
loop_
 _symmetry_equiv_pos_site_id
 _symmetry_equiv_pos_as_xyz
  1  'x, y, z'
loop_
 _atom_site_type_symbol
 _atom_site_label
 _atom_site_symmetry_multiplicity
 _atom_site_fract_x
 _atom_site_fract_y
 _atom_site_fract_z
 _atom_site_occupancy
  Dy  Dy0  1  0.668152  0.331900  0.000000  1
  Dy  Dy1  1  0.331900  0.668152  0.000000  1
  Dy  Dy2  1  0.184009  0.184009  0.500000  1
  Dy  Dy3  1  0.815007  0.001553  0.500000  1
  Dy  Dy4  1  0.001553  0.815007  0.500000  1
  Mg  Mg5  1  0.558401  0.558401  0.000000  1
  Co  Co6  1  0.822747  0.197391  0.000000  1
  Co  Co7  1  0.801918  0.623422  0.000000  1
  Co  Co8  1  0.374080  0.176129  0.000000  1
  Co  Co9  1  0.197391  0.822747  0.000000  1
  Co  Co10  1  0.623422  0.801918  0.000000  1
  Co  Co11  1  0.176129  0.374080  0.000000  1
  Co  Co12  1  0.644727  0.127800  0.500000  1
  Co  Co13  1  0.876867  0.519371  0.500000  1
  Co  Co14  1  0.481596  0.353338  0.500000  1
  Co  Co15  1  0.127800  0.644727  0.500000  1
  Co  Co16  1  0.519371  0.876867  0.500000  1
  Co  Co17  1  0.353338  0.481596  0.500000  1
  Co  Co18  1  0.718717  0.718717  0.500000  1
  Co  Co19  1  0.280218  0.999056  0.500000  1
  Co  Co20  1  0.999056  0.280218  0.500000  1
  Co  Co21  1  0.998604  0.998604  0.000000  1
  Mo  Mo22  1  0.445961  0.000775  0.000000  1
  Mo  Mo23  1  0.000775  0.445961  0.000000  1
  P  P24  1  0.357964  0.357964  0.000000  1
  P  P25  1  0.638188  0.000380  0.000000  1
  P  P26  1  0.000380  0.638188  0.000000  1
  P  P27  1  0.835116  0.314249  0.500000  1
  P  P28  1  0.691067  0.518815  0.500000  1
  P  P29  1  0.478697  0.165593  0.500000  1
  P  P30  1  0.314249  0.835116  0.500000  1
  P  P31  1  0.518815  0.691067  0.500000  1
  P  P32  1  0.165593  0.478697  0.500000  1
  P  P33  1  0.820078  0.820078  0.000000  1
  P  P34  1  0.178571  0.999543  0.000000  1
  P  P35  1  0.999543  0.178571  0.000000  1
