# generated using pymatgen
data_Eu5Cd4Hg
_symmetry_space_group_name_H-M   'P 1'
_cell_length_a   4.00085500
_cell_length_b   4.00085500
_cell_length_c   19.61793000
_cell_angle_alpha   90.00000000
_cell_angle_beta   90.00000000
_cell_angle_gamma   90.00000000
_symmetry_Int_Tables_number   1
_chemical_formula_structural   Eu5Cd4Hg
_chemical_formula_sum   'Eu5 Cd4 Hg1'
_cell_volume   314.02108098
_cell_formula_units_Z   1
loop_
 _symmetry_equiv_pos_site_id
 _symmetry_equiv_pos_as_xyz
  1  'x, y, z'
loop_
 _atom_site_type_symbol
 _atom_site_label
 _atom_site_symmetry_multiplicity
 _atom_site_fract_x
 _atom_site_fract_y
 _atom_site_fract_z
 _atom_site_occupancy
  Eu  Eu0  1  0.500000  0.500000  0.097446  1
  Eu  Eu1  1  0.500000  0.500000  0.299337  1
  Eu  Eu2  1  0.500000  0.500000  0.500000  1
  Eu  Eu3  1  0.500000  0.500000  0.700663  1
  Eu  Eu4  1  0.500000  0.500000  0.902554  1
  Cd  Cd5  1  0.000000  0.000000  0.199445  1
  Cd  Cd6  1  0.000000  0.000000  0.399724  1
  Cd  Cd7  1  0.000000  0.000000  0.600276  1
  Cd  Cd8  1  0.000000  0.000000  0.800555  1
  Hg  Hg9  1  0.000000  0.000000  0.000000  1
