# generated using pymatgen
data_CsTlCr2O8
_symmetry_space_group_name_H-M   'P 1'
_cell_length_a   5.77945900
_cell_length_b   5.77945848
_cell_length_c   8.24661000
_cell_angle_alpha   90.00000000
_cell_angle_beta   90.00000000
_cell_angle_gamma   119.99999726
_symmetry_Int_Tables_number   1
_chemical_formula_structural   CsTlCr2O8
_chemical_formula_sum   'Cs1 Tl1 Cr2 O8'
_cell_volume   238.55055707
_cell_formula_units_Z   1
loop_
 _symmetry_equiv_pos_site_id
 _symmetry_equiv_pos_as_xyz
  1  'x, y, z'
loop_
 _atom_site_type_symbol
 _atom_site_label
 _atom_site_symmetry_multiplicity
 _atom_site_fract_x
 _atom_site_fract_y
 _atom_site_fract_z
 _atom_site_occupancy
  Cs  Cs0  1  0.000000  0.000000  0.500000  1
  Tl  Tl1  1  0.000000  0.000000  0.000000  1
  Cr  Cr2  1  0.666666  0.333333  0.234006  1
  Cr  Cr3  1  0.333334  0.666667  0.765994  1
  O  O4  1  0.346975  0.173487  0.171996  1
  O  O5  1  0.826513  0.173487  0.171996  1
  O  O6  1  0.826513  0.653026  0.171996  1
  O  O7  1  0.666666  0.333333  0.430839  1
  O  O8  1  0.333334  0.666667  0.569161  1
  O  O9  1  0.173487  0.346974  0.828004  1
  O  O10  1  0.173488  0.826513  0.828004  1
  O  O11  1  0.653025  0.826513  0.828004  1
