# generated using pymatgen
data_YTm4(RuO6)2
_symmetry_space_group_name_H-M   'P 1'
_cell_length_a   6.77587777
_cell_length_b   6.77587809
_cell_length_c   7.32643109
_cell_angle_alpha   74.15485141
_cell_angle_beta   74.15485176
_cell_angle_gamma   50.41408852
_symmetry_Int_Tables_number   1
_chemical_formula_structural   YTm4(RuO6)2
_chemical_formula_sum   'Y1 Tm4 Ru2 O12'
_cell_volume   247.14834506
_cell_formula_units_Z   1
loop_
 _symmetry_equiv_pos_site_id
 _symmetry_equiv_pos_as_xyz
  1  'x, y, z'
loop_
 _atom_site_type_symbol
 _atom_site_label
 _atom_site_symmetry_multiplicity
 _atom_site_fract_x
 _atom_site_fract_y
 _atom_site_fract_z
 _atom_site_occupancy
  Y  Y0  1  0.500000  0.500000  0.500000  1
  Tm  Tm1  1  0.189734  0.189734  0.173279  1
  Tm  Tm2  1  0.810266  0.810266  0.826721  1
  Tm  Tm3  1  0.802195  0.802195  0.360926  1
  Tm  Tm4  1  0.197805  0.197805  0.639074  1
  Ru  Ru5  1  0.736967  0.263033  0.000000  1
  Ru  Ru6  1  0.263033  0.736967  0.000000  1
  O  O7  1  0.999612  0.999612  0.188963  1
  O  O8  1  0.000388  0.000388  0.811037  1
  O  O9  1  0.499376  0.499376  0.805024  1
  O  O10  1  0.500624  0.500624  0.194976  1
  O  O11  1  0.597807  0.091002  0.575254  1
  O  O12  1  0.908998  0.402193  0.424746  1
  O  O13  1  0.402193  0.908998  0.424746  1
  O  O14  1  0.406421  0.926782  0.915081  1
  O  O15  1  0.073218  0.593579  0.084919  1
  O  O16  1  0.593579  0.073218  0.084919  1
  O  O17  1  0.926782  0.406421  0.915081  1
  O  O18  1  0.091002  0.597807  0.575254  1
