# generated using pymatgen
data_Pr10CuSn2Bi4As
_symmetry_space_group_name_H-M   'P 1'
_cell_length_a   9.66895514
_cell_length_b   9.64426946
_cell_length_c   6.69295700
_cell_angle_alpha   89.92357605
_cell_angle_beta   90.03811441
_cell_angle_gamma   119.91558793
_symmetry_Int_Tables_number   1
_chemical_formula_structural   Pr10CuSn2Bi4As
_chemical_formula_sum   'Pr10 Cu1 Sn2 Bi4 As1'
_cell_volume   540.96098080
_cell_formula_units_Z   1
loop_
 _symmetry_equiv_pos_site_id
 _symmetry_equiv_pos_as_xyz
  1  'x, y, z'
loop_
 _atom_site_type_symbol
 _atom_site_label
 _atom_site_symmetry_multiplicity
 _atom_site_fract_x
 _atom_site_fract_y
 _atom_site_fract_z
 _atom_site_occupancy
  Pr  Pr0  1  0.663360  0.330743  0.997333  1
  Pr  Pr1  1  0.336640  0.667383  0.997333  1
  Pr  Pr2  1  0.336056  0.666853  0.502579  1
  Pr  Pr3  1  0.663944  0.330796  0.502579  1
  Pr  Pr4  1  0.744013  0.748157  0.750843  1
  Pr  Pr5  1  0.255987  0.004144  0.750843  1
  Pr  Pr6  1  0.000000  0.252263  0.751369  1
  Pr  Pr7  1  0.252786  0.252762  0.248710  1
  Pr  Pr8  1  0.747214  0.999976  0.248710  1
  Pr  Pr9  1  0.000000  0.747526  0.248357  1
  Cu  Cu10  1  0.000000  0.000197  0.500580  1
  Sn  Sn11  1  0.388472  0.388666  0.748025  1
  Sn  Sn12  1  0.611528  0.000195  0.748025  1
  Bi  Bi13  1  0.000000  0.612689  0.747221  1
  Bi  Bi14  1  0.611435  0.610629  0.252926  1
  Bi  Bi15  1  0.388565  0.999194  0.252926  1
  Bi  Bi16  1  0.000000  0.388598  0.251987  1
  As  As17  1  0.000000  0.999229  0.999650  1
