# generated using pymatgen
data_Tb7Nd(Sc3Ge4)4
_symmetry_space_group_name_H-M   'P 1'
_cell_length_a   7.26862028
_cell_length_b   7.52169181
_cell_length_c   14.13040794
_cell_angle_alpha   89.94091779
_cell_angle_beta   90.04422284
_cell_angle_gamma   90.07952338
_symmetry_Int_Tables_number   1
_chemical_formula_structural   Tb7Nd(Sc3Ge4)4
_chemical_formula_sum   'Tb7 Nd1 Sc12 Ge16'
_cell_volume   772.54082413
_cell_formula_units_Z   1
loop_
 _symmetry_equiv_pos_site_id
 _symmetry_equiv_pos_as_xyz
  1  'x, y, z'
loop_
 _atom_site_type_symbol
 _atom_site_label
 _atom_site_symmetry_multiplicity
 _atom_site_fract_x
 _atom_site_fract_y
 _atom_site_fract_z
 _atom_site_occupancy
  Tb  Tb0  1  0.996370  0.823294  0.902144  1
  Tb  Tb1  1  0.498442  0.674864  0.902042  1
  Tb  Tb2  1  0.997344  0.824093  0.596935  1
  Tb  Tb3  1  0.502832  0.325955  0.096800  1
  Tb  Tb4  1  0.002249  0.176120  0.402922  1
  Tb  Tb5  1  0.502595  0.324423  0.404530  1
  Tb  Tb6  1  0.497159  0.675889  0.596865  1
  Nd  Nd7  1  0.003840  0.174587  0.095715  1
  Sc  Sc8  1  0.168583  0.500320  0.749632  1
  Sc  Sc9  1  0.831077  0.499786  0.250696  1
  Sc  Sc10  1  0.331772  0.999039  0.251088  1
  Sc  Sc11  1  0.667978  0.000182  0.749443  1
  Sc  Sc12  1  0.335899  0.168416  0.625723  1
  Sc  Sc13  1  0.663689  0.831369  0.375072  1
  Sc  Sc14  1  0.164407  0.668656  0.375953  1
  Sc  Sc15  1  0.664398  0.829879  0.126470  1
  Sc  Sc16  1  0.835692  0.330951  0.625060  1
  Sc  Sc17  1  0.335537  0.169869  0.873347  1
  Sc  Sc18  1  0.834545  0.332508  0.874950  1
  Sc  Sc19  1  0.165121  0.668201  0.124428  1
  Ge  Ge20  1  0.031731  0.127303  0.750560  1
  Ge  Ge21  1  0.968014  0.870023  0.250343  1
  Ge  Ge22  1  0.465765  0.626604  0.250634  1
  Ge  Ge23  1  0.533531  0.373456  0.749434  1
  Ge  Ge24  1  0.302205  0.861536  0.749747  1
  Ge  Ge25  1  0.695184  0.138502  0.251295  1
  Ge  Ge26  1  0.200114  0.363982  0.251359  1
  Ge  Ge27  1  0.802398  0.638110  0.749819  1
  Ge  Ge28  1  0.173087  0.459037  0.542121  1
  Ge  Ge29  1  0.826946  0.540709  0.458525  1
  Ge  Ge30  1  0.326230  0.960210  0.458815  1
  Ge  Ge31  1  0.824786  0.543617  0.040973  1
  Ge  Ge32  1  0.672978  0.039888  0.541799  1
  Ge  Ge33  1  0.175329  0.461639  0.956831  1
  Ge  Ge34  1  0.667442  0.038476  0.957559  1
  Ge  Ge35  1  0.334731  0.958509  0.040371  1
