# generated using pymatgen
data_P4Pd3Ru4Pt
_symmetry_space_group_name_H-M   'P 1'
_cell_length_a   3.86209300
_cell_length_b   8.10442610
_cell_length_c   5.70628007
_cell_angle_alpha   90.01776536
_cell_angle_beta   90.00000000
_cell_angle_gamma   90.00000000
_symmetry_Int_Tables_number   1
_chemical_formula_structural   P4Pd3Ru4Pt
_chemical_formula_sum   'P4 Pd3 Ru4 Pt1'
_cell_volume   178.60682747
_cell_formula_units_Z   1
loop_
 _symmetry_equiv_pos_site_id
 _symmetry_equiv_pos_as_xyz
  1  'x, y, z'
loop_
 _atom_site_type_symbol
 _atom_site_label
 _atom_site_symmetry_multiplicity
 _atom_site_fract_x
 _atom_site_fract_y
 _atom_site_fract_z
 _atom_site_occupancy
  P  P0  1  0.250000  0.649005  0.675570  1
  P  P1  1  0.750000  0.353620  0.322315  1
  P  P2  1  0.250000  0.147534  0.822810  1
  P  P3  1  0.750000  0.852532  0.175587  1
  Pd  Pd4  1  0.750000  0.113427  0.564452  1
  Pd  Pd5  1  0.250000  0.887818  0.434408  1
  Pd  Pd6  1  0.750000  0.611181  0.936893  1
  Ru  Ru7  1  0.250000  0.375241  0.562319  1
  Ru  Ru8  1  0.750000  0.626856  0.439542  1
  Ru  Ru9  1  0.250000  0.873866  0.938880  1
  Ru  Ru10  1  0.750000  0.124883  0.060746  1
  Pt  Pt11  1  0.250000  0.384038  0.066478  1
