# generated using pymatgen
data_Yb3(GeRh)2
_symmetry_space_group_name_H-M   'P 1'
_cell_length_a   5.64364800
_cell_length_b   7.70067700
_cell_length_c   13.48333900
_cell_angle_alpha   90.00000000
_cell_angle_beta   90.00000000
_cell_angle_gamma   90.00000000
_symmetry_Int_Tables_number   1
_chemical_formula_structural   Yb3(GeRh)2
_chemical_formula_sum   'Yb12 Ge8 Rh8'
_cell_volume   585.98470415
_cell_formula_units_Z   4
loop_
 _symmetry_equiv_pos_site_id
 _symmetry_equiv_pos_as_xyz
  1  'x, y, z'
loop_
 _atom_site_type_symbol
 _atom_site_label
 _atom_site_symmetry_multiplicity
 _atom_site_fract_x
 _atom_site_fract_y
 _atom_site_fract_z
 _atom_site_occupancy
  Yb  Yb0  1  0.148707  0.601266  0.095310  1
  Yb  Yb1  1  0.148707  0.898734  0.904690  1
  Yb  Yb2  1  0.851293  0.101266  0.404690  1
  Yb  Yb3  1  0.851293  0.398734  0.595310  1
  Yb  Yb4  1  0.851293  0.398734  0.904690  1
  Yb  Yb5  1  0.851293  0.101266  0.095310  1
  Yb  Yb6  1  0.148707  0.898734  0.595310  1
  Yb  Yb7  1  0.148707  0.601266  0.404690  1
  Yb  Yb8  1  0.369450  0.253325  0.250000  1
  Yb  Yb9  1  0.369450  0.246675  0.750000  1
  Yb  Yb10  1  0.630550  0.753325  0.250000  1
  Yb  Yb11  1  0.630550  0.746675  0.750000  1
  Ge  Ge12  1  0.859898  0.404415  0.250000  1
  Ge  Ge13  1  0.859898  0.095585  0.750000  1
  Ge  Ge14  1  0.140102  0.904415  0.250000  1
  Ge  Ge15  1  0.140102  0.595585  0.750000  1
  Ge  Ge16  1  0.381058  0.250000  0.000000  1
  Ge  Ge17  1  0.618942  0.750000  0.500000  1
  Ge  Ge18  1  0.618942  0.750000  0.000000  1
  Ge  Ge19  1  0.381058  0.250000  0.500000  1
  Rh  Rh20  1  0.640226  0.466965  0.092355  1
  Rh  Rh21  1  0.640226  0.033035  0.907645  1
  Rh  Rh22  1  0.359774  0.966965  0.407645  1
  Rh  Rh23  1  0.359774  0.533035  0.592355  1
  Rh  Rh24  1  0.359774  0.533035  0.907645  1
  Rh  Rh25  1  0.359774  0.966965  0.092355  1
  Rh  Rh26  1  0.640226  0.033035  0.592355  1
  Rh  Rh27  1  0.640226  0.466965  0.407645  1
