# generated using pymatgen
data_Ta5TiNb2(Co4Si7)2
_symmetry_space_group_name_H-M   'P 1'
_cell_length_a   9.21843965
_cell_length_b   9.21821241
_cell_length_c   9.21771900
_cell_angle_alpha   94.21118707
_cell_angle_beta   94.19520548
_cell_angle_gamma   148.58735152
_symmetry_Int_Tables_number   1
_chemical_formula_structural   Ta5TiNb2(Co4Si7)2
_chemical_formula_sum   'Ta5 Ti1 Nb2 Co8 Si14'
_cell_volume   393.00551917
_cell_formula_units_Z   1
loop_
 _symmetry_equiv_pos_site_id
 _symmetry_equiv_pos_as_xyz
  1  'x, y, z'
loop_
 _atom_site_type_symbol
 _atom_site_label
 _atom_site_symmetry_multiplicity
 _atom_site_fract_x
 _atom_site_fract_y
 _atom_site_fract_z
 _atom_site_occupancy
  Ta  Ta0  1  0.133088  0.133038  0.266081  1
  Ta  Ta1  1  0.866424  0.866360  0.732795  1
  Ta  Ta2  1  0.867060  0.133854  0.000884  1
  Ta  Ta3  1  0.133673  0.867153  0.000852  1
  Ta  Ta4  1  0.500611  0.690433  0.191012  1
  Ti  Ti5  1  0.691349  0.500345  0.191686  1
  Nb  Nb6  1  0.500515  0.309533  0.810123  1
  Nb  Nb7  1  0.309055  0.500287  0.809350  1
  Co  Co8  1  0.399451  0.899425  0.798420  1
  Co  Co9  1  0.101399  0.600933  0.201566  1
  Co  Co10  1  0.101064  0.899456  0.499743  1
  Co  Co11  1  0.399128  0.600663  0.499311  1
  Co  Co12  1  0.600315  0.398670  0.499740  1
  Co  Co13  1  0.898652  0.100188  0.499324  1
  Co  Co14  1  0.898977  0.398965  0.798395  1
  Co  Co15  1  0.600599  0.100153  0.201544  1
  Si  Si16  1  0.292315  0.292179  0.584343  1
  Si  Si17  1  0.707847  0.706280  0.414250  1
  Si  Si18  1  0.707645  0.293731  0.001258  1
  Si  Si19  1  0.291882  0.707834  0.999844  1
  Si  Si20  1  0.000075  0.297205  0.297219  1
  Si  Si21  1  0.999940  0.702884  0.702876  1
  Si  Si22  1  0.703071  0.999986  0.703080  1
  Si  Si23  1  0.296003  0.000048  0.296096  1
  Si  Si24  1  0.500037  0.906305  0.406453  1
  Si  Si25  1  0.500050  0.094258  0.594296  1
  Si  Si26  1  0.093583  0.500087  0.593545  1
  Si  Si27  1  0.904961  0.500077  0.405039  1
  Si  Si28  1  0.750955  0.750174  0.000444  1
  Si  Si29  1  0.250275  0.249491  0.000431  1
