# generated using pymatgen
data_TbEr3(MgIr)4
_symmetry_space_group_name_H-M   'P 1'
_cell_length_a   4.09504100
_cell_length_b   7.05540901
_cell_length_c   8.50800704
_cell_angle_alpha   89.88363434
_cell_angle_beta   90.00000000
_cell_angle_gamma   90.00000000
_symmetry_Int_Tables_number   1
_chemical_formula_structural   TbEr3(MgIr)4
_chemical_formula_sum   'Tb1 Er3 Mg4 Ir4'
_cell_volume   245.81444189
_cell_formula_units_Z   1
loop_
 _symmetry_equiv_pos_site_id
 _symmetry_equiv_pos_as_xyz
  1  'x, y, z'
loop_
 _atom_site_type_symbol
 _atom_site_label
 _atom_site_symmetry_multiplicity
 _atom_site_fract_x
 _atom_site_fract_y
 _atom_site_fract_z
 _atom_site_occupancy
  Tb  Tb0  1  0.250000  0.960219  0.325420  1
  Er  Er1  1  0.250000  0.458821  0.172876  1
  Er  Er2  1  0.750000  0.040577  0.675133  1
  Er  Er3  1  0.750000  0.539882  0.825813  1
  Mg  Mg4  1  0.250000  0.365756  0.560047  1
  Mg  Mg5  1  0.250000  0.864931  0.940349  1
  Mg  Mg6  1  0.750000  0.634450  0.441486  1
  Mg  Mg7  1  0.750000  0.135242  0.058634  1
  Ir  Ir8  1  0.250000  0.249943  0.869694  1
  Ir  Ir9  1  0.250000  0.749773  0.631743  1
  Ir  Ir10  1  0.750000  0.747228  0.128872  1
  Ir  Ir11  1  0.750000  0.253178  0.369933  1
