# generated using pymatgen
data_SmEr2Mg3AgPb2
_symmetry_space_group_name_H-M   'P 1'
_cell_length_a   7.58544174
_cell_length_b   7.58544171
_cell_length_c   4.59465700
_cell_angle_alpha   90.00000000
_cell_angle_beta   90.00000000
_cell_angle_gamma   120.39357718
_symmetry_Int_Tables_number   1
_chemical_formula_structural   SmEr2Mg3AgPb2
_chemical_formula_sum   'Sm1 Er2 Mg3 Ag1 Pb2'
_cell_volume   228.03913990
_cell_formula_units_Z   1
loop_
 _symmetry_equiv_pos_site_id
 _symmetry_equiv_pos_as_xyz
  1  'x, y, z'
loop_
 _atom_site_type_symbol
 _atom_site_label
 _atom_site_symmetry_multiplicity
 _atom_site_fract_x
 _atom_site_fract_y
 _atom_site_fract_z
 _atom_site_occupancy
  Sm  Sm0  1  0.414461  0.414461  0.500000  1
  Er  Er1  1  0.588577  0.000971  0.500000  1
  Er  Er2  1  0.000971  0.588577  0.500000  1
  Mg  Mg3  1  0.766743  0.766743  0.000000  1
  Mg  Mg4  1  0.233139  0.999489  0.000000  1
  Mg  Mg5  1  0.999489  0.233139  0.000000  1
  Ag  Ag6  1  0.995519  0.995519  0.500000  1
  Pb  Pb7  1  0.669548  0.331553  0.000000  1
  Pb  Pb8  1  0.331553  0.669548  0.000000  1
