# generated using pymatgen
data_NdMn2TlF14
_symmetry_space_group_name_H-M   'P 1'
_cell_length_a   5.49340776
_cell_length_b   8.86988534
_cell_length_c   11.88929200
_cell_angle_alpha   62.13521565
_cell_angle_beta   89.79911941
_cell_angle_gamma   89.93565726
_symmetry_Int_Tables_number   1
_chemical_formula_structural   NdMn2TlF14
_chemical_formula_sum   'Nd2 Mn4 Tl2 F28'
_cell_volume   512.14322025
_cell_formula_units_Z   2
loop_
 _symmetry_equiv_pos_site_id
 _symmetry_equiv_pos_as_xyz
  1  'x, y, z'
loop_
 _atom_site_type_symbol
 _atom_site_label
 _atom_site_symmetry_multiplicity
 _atom_site_fract_x
 _atom_site_fract_y
 _atom_site_fract_z
 _atom_site_occupancy
  Nd  Nd0  1  0.258780  0.811817  0.264346  1
  Nd  Nd1  1  0.741220  0.188183  0.735654  1
  Mn  Mn2  1  0.758825  0.719188  0.042723  1
  Mn  Mn3  1  0.241175  0.280812  0.957277  1
  Mn  Mn4  1  0.260844  0.272017  0.453030  1
  Mn  Mn5  1  0.739156  0.727983  0.546970  1
  Tl  Tl6  1  0.766082  0.194386  0.236130  1
  Tl  Tl7  1  0.233918  0.805614  0.763870  1
  F  F8  1  0.926201  0.711594  0.424228  1
  F  F9  1  0.073799  0.288406  0.575772  1
  F  F10  1  0.423417  0.303196  0.076091  1
  F  F11  1  0.576583  0.696804  0.923909  1
  F  F12  1  0.482204  0.726771  0.128798  1
  F  F13  1  0.517796  0.273229  0.871202  1
  F  F14  1  0.977600  0.276804  0.367179  1
  F  F15  1  0.022400  0.723196  0.632821  1
  F  F16  1  0.940978  0.736985  0.168150  1
  F  F17  1  0.059022  0.263015  0.831850  1
  F  F18  1  0.445454  0.263128  0.323494  1
  F  F19  1  0.554546  0.736872  0.676506  1
  F  F20  1  0.770578  0.482569  0.141731  1
  F  F21  1  0.229422  0.517431  0.858269  1
  F  F22  1  0.273317  0.507956  0.362939  1
  F  F23  1  0.726683  0.492044  0.637061  1
  F  F24  1  0.953304  0.289964  0.035365  1
  F  F25  1  0.046696  0.710036  0.964635  1
  F  F26  1  0.458751  0.721727  0.463448  1
  F  F27  1  0.541249  0.278273  0.536552  1
  F  F28  1  0.739132  0.959661  0.461556  1
  F  F29  1  0.260868  0.040339  0.538444  1
  F  F30  1  0.239851  0.047149  0.047359  1
  F  F31  1  0.760149  0.952851  0.952641  1
  F  F32  1  0.608756  0.979034  0.225075  1
  F  F33  1  0.391244  0.020966  0.774925  1
  F  F34  1  0.095861  0.043822  0.273526  1
  F  F35  1  0.904139  0.956178  0.726474  1
