# generated using pymatgen
data_Nb4Al4Ga2CuNi
_symmetry_space_group_name_H-M   'P 1'
_cell_length_a   4.96183962
_cell_length_b   5.15990844
_cell_length_c   8.30173400
_cell_angle_alpha   90.00000000
_cell_angle_beta   90.00000000
_cell_angle_gamma   121.32793109
_symmetry_Int_Tables_number   1
_chemical_formula_structural   Nb4Al4Ga2CuNi
_chemical_formula_sum   'Nb4 Al4 Ga2 Cu1 Ni1'
_cell_volume   181.55820430
_cell_formula_units_Z   1
loop_
 _symmetry_equiv_pos_site_id
 _symmetry_equiv_pos_as_xyz
  1  'x, y, z'
loop_
 _atom_site_type_symbol
 _atom_site_label
 _atom_site_symmetry_multiplicity
 _atom_site_fract_x
 _atom_site_fract_y
 _atom_site_fract_z
 _atom_site_occupancy
  Nb  Nb0  1  0.682237  0.341100  0.564264  1
  Nb  Nb1  1  0.318065  0.659044  0.438177  1
  Nb  Nb2  1  0.318065  0.659044  0.061823  1
  Nb  Nb3  1  0.682237  0.341100  0.935736  1
  Al  Al4  1  0.994700  0.997328  0.502739  1
  Al  Al5  1  0.994700  0.997328  0.997261  1
  Al  Al6  1  0.197231  0.358372  0.750000  1
  Al  Al7  1  0.197276  0.838820  0.750000  1
  Ga  Ga8  1  0.806411  0.643936  0.250000  1
  Ga  Ga9  1  0.806350  0.162441  0.250000  1
  Cu  Cu10  1  0.316528  0.158982  0.250000  1
  Ni  Ni11  1  0.686199  0.842506  0.750000  1
