# generated using pymatgen
data_AcCuTeO6
_symmetry_space_group_name_H-M   'P 1'
_cell_length_a   5.27664202
_cell_length_b   9.13899629
_cell_length_c   10.78324200
_cell_angle_alpha   89.99450803
_cell_angle_beta   90.00517945
_cell_angle_gamma   90.01333545
_symmetry_Int_Tables_number   1
_chemical_formula_structural   AcCuTeO6
_chemical_formula_sum   'Ac4 Cu4 Te4 O24'
_cell_volume   520.00254486
_cell_formula_units_Z   4
loop_
 _symmetry_equiv_pos_site_id
 _symmetry_equiv_pos_as_xyz
  1  'x, y, z'
loop_
 _atom_site_type_symbol
 _atom_site_label
 _atom_site_symmetry_multiplicity
 _atom_site_fract_x
 _atom_site_fract_y
 _atom_site_fract_z
 _atom_site_occupancy
  Ac  Ac0  1  0.000000  0.000000  0.500000  1
  Ac  Ac1  1  0.500000  0.500000  0.500000  1
  Ac  Ac2  1  0.000000  0.000000  0.000000  1
  Ac  Ac3  1  0.500000  0.500000  0.000000  1
  Cu  Cu4  1  0.500109  0.833261  0.749991  1
  Cu  Cu5  1  0.499891  0.166739  0.250009  1
  Cu  Cu6  1  0.000109  0.333261  0.749991  1
  Cu  Cu7  1  0.999891  0.666739  0.250009  1
  Te  Te8  1  0.500212  0.166566  0.750054  1
  Te  Te9  1  0.000212  0.666566  0.750054  1
  Te  Te10  1  0.999788  0.333434  0.249946  1
  Te  Te11  1  0.499788  0.833434  0.249946  1
  O  O12  1  0.623680  0.005612  0.647046  1
  O  O13  1  0.123680  0.505612  0.647046  1
  O  O14  1  0.679877  0.309002  0.647049  1
  O  O15  1  0.179877  0.809002  0.647049  1
  O  O16  1  0.196639  0.185337  0.647022  1
  O  O17  1  0.696639  0.685337  0.647022  1
  O  O18  1  0.179656  0.191039  0.147095  1
  O  O19  1  0.679656  0.691039  0.147095  1
  O  O20  1  0.123501  0.494440  0.147099  1
  O  O21  1  0.623501  0.994440  0.147099  1
  O  O22  1  0.696505  0.314658  0.147106  1
  O  O23  1  0.196505  0.814658  0.147106  1
  O  O24  1  0.876320  0.494388  0.352954  1
  O  O25  1  0.376320  0.994388  0.352954  1
  O  O26  1  0.820123  0.190998  0.352951  1
  O  O27  1  0.320123  0.690998  0.352951  1
  O  O28  1  0.303361  0.314663  0.352978  1
  O  O29  1  0.803361  0.814663  0.352978  1
  O  O30  1  0.320344  0.308961  0.852905  1
  O  O31  1  0.820344  0.808961  0.852905  1
  O  O32  1  0.376499  0.005560  0.852901  1
  O  O33  1  0.876499  0.505560  0.852901  1
  O  O34  1  0.803495  0.185342  0.852894  1
  O  O35  1  0.303495  0.685342  0.852894  1
