# generated using pymatgen
data_YbHo5ErCoI12
_symmetry_space_group_name_H-M   'P 1'
_cell_length_a   9.72845060
_cell_length_b   9.68741439
_cell_length_c   9.76089101
_cell_angle_alpha   106.99805269
_cell_angle_beta   106.81218239
_cell_angle_gamma   106.84812755
_symmetry_Int_Tables_number   1
_chemical_formula_structural   YbHo5ErCoI12
_chemical_formula_sum   'Yb1 Ho5 Er1 Co1 I12'
_cell_volume   768.46793756
_cell_formula_units_Z   1
loop_
 _symmetry_equiv_pos_site_id
 _symmetry_equiv_pos_as_xyz
  1  'x, y, z'
loop_
 _atom_site_type_symbol
 _atom_site_label
 _atom_site_symmetry_multiplicity
 _atom_site_fract_x
 _atom_site_fract_y
 _atom_site_fract_z
 _atom_site_occupancy
  Yb  Yb0  1  0.499956  0.500105  0.499909  1
  Ho  Ho1  1  0.293228  0.094061  0.023904  1
  Ho  Ho2  1  0.021995  0.281188  0.090078  1
  Ho  Ho3  1  0.095364  0.023190  0.294269  1
  Ho  Ho4  1  0.706730  0.905929  0.976077  1
  Ho  Ho5  1  0.977820  0.718654  0.909403  1
  Er  Er6  1  0.905136  0.976793  0.707431  1
  Co  Co7  1  0.000017  0.999938  0.000114  1
  I  I8  1  0.456846  0.149496  0.378729  1
  I  I9  1  0.376166  0.455458  0.149577  1
  I  I10  1  0.149665  0.378594  0.454318  1
  I  I11  1  0.544099  0.851046  0.621135  1
  I  I12  1  0.623732  0.544490  0.850178  1
  I  I13  1  0.850273  0.622212  0.545460  1
  I  I14  1  0.319543  0.774951  0.927586  1
  I  I15  1  0.929073  0.319964  0.777590  1
  I  I16  1  0.776967  0.928782  0.322320  1
  I  I17  1  0.680401  0.225023  0.072200  1
  I  I18  1  0.070712  0.679046  0.221598  1
  I  I19  1  0.222278  0.071077  0.678129  1
