# generated using pymatgen
data_DyHoTm18(CoSb2)4
_symmetry_space_group_name_H-M   'P 1'
_cell_length_a   7.78326804
_cell_length_b   8.72583800
_cell_length_c   12.06648405
_cell_angle_alpha   90.00000000
_cell_angle_beta   89.98905303
_cell_angle_gamma   90.00000000
_symmetry_Int_Tables_number   1
_chemical_formula_structural   DyHoTm18(CoSb2)4
_chemical_formula_sum   'Dy1 Ho1 Tm18 Co4 Sb8'
_cell_volume   819.50171714
_cell_formula_units_Z   1
loop_
 _symmetry_equiv_pos_site_id
 _symmetry_equiv_pos_as_xyz
  1  'x, y, z'
loop_
 _atom_site_type_symbol
 _atom_site_label
 _atom_site_symmetry_multiplicity
 _atom_site_fract_x
 _atom_site_fract_y
 _atom_site_fract_z
 _atom_site_occupancy
  Dy  Dy0  1  0.377151  0.250000  0.692490  1
  Ho  Ho1  1  0.877383  0.750000  0.807747  1
  Tm  Tm2  1  0.156820  0.750000  0.203773  1
  Tm  Tm3  1  0.656813  0.250000  0.296210  1
  Tm  Tm4  1  0.843488  0.250000  0.796309  1
  Tm  Tm5  1  0.343395  0.750000  0.703732  1
  Tm  Tm6  1  0.450103  0.750000  0.998119  1
  Tm  Tm7  1  0.950050  0.250000  0.501908  1
  Tm  Tm8  1  0.549359  0.250000  0.002147  1
  Tm  Tm9  1  0.049227  0.750000  0.497861  1
  Tm  Tm10  1  0.621820  0.750000  0.308555  1
  Tm  Tm11  1  0.121815  0.250000  0.191420  1
  Tm  Tm12  1  0.823759  0.963628  0.065754  1
  Tm  Tm13  1  0.323741  0.036199  0.434111  1
  Tm  Tm14  1  0.176605  0.462381  0.934857  1
  Tm  Tm15  1  0.676791  0.537898  0.565134  1
  Tm  Tm16  1  0.176605  0.037619  0.934857  1
  Tm  Tm17  1  0.676791  0.962102  0.565134  1
  Tm  Tm18  1  0.823759  0.536372  0.065754  1
  Tm  Tm19  1  0.323741  0.463801  0.434111  1
  Co  Co20  1  0.432126  0.750000  0.490619  1
  Co  Co21  1  0.932120  0.250000  0.009369  1
  Co  Co22  1  0.568222  0.250000  0.508700  1
  Co  Co23  1  0.068113  0.750000  0.991124  1
  Sb  Sb24  1  0.930983  0.991639  0.327469  1
  Sb  Sb25  1  0.430985  0.008366  0.172561  1
  Sb  Sb26  1  0.068820  0.491667  0.672262  1
  Sb  Sb27  1  0.569313  0.508688  0.827812  1
  Sb  Sb28  1  0.068820  0.008333  0.672262  1
  Sb  Sb29  1  0.569313  0.991312  0.827812  1
  Sb  Sb30  1  0.930983  0.508361  0.327469  1
  Sb  Sb31  1  0.430985  0.491634  0.172561  1
