# generated using pymatgen
data_Er3Al3V2O12
_symmetry_space_group_name_H-M   'P 1'
_cell_length_a   10.61508203
_cell_length_b   10.61434447
_cell_length_c   10.61336147
_cell_angle_alpha   109.42225420
_cell_angle_beta   109.46063554
_cell_angle_gamma   109.56436484
_symmetry_Int_Tables_number   1
_chemical_formula_structural   Er3Al3V2O12
_chemical_formula_sum   'Er12 Al12 V8 O48'
_cell_volume   920.16748070
_cell_formula_units_Z   4
loop_
 _symmetry_equiv_pos_site_id
 _symmetry_equiv_pos_as_xyz
  1  'x, y, z'
loop_
 _atom_site_type_symbol
 _atom_site_label
 _atom_site_symmetry_multiplicity
 _atom_site_fract_x
 _atom_site_fract_y
 _atom_site_fract_z
 _atom_site_occupancy
  Er  Er0  1  0.124531  0.375015  0.749617  1
  Er  Er1  1  0.625286  0.874994  0.750437  1
  Er  Er2  1  0.749086  0.624458  0.874197  1
  Er  Er3  1  0.624389  0.250823  0.875549  1
  Er  Er4  1  0.375474  0.749248  0.124596  1
  Er  Er5  1  0.251196  0.375632  0.125918  1
  Er  Er6  1  0.374620  0.124939  0.249397  1
  Er  Er7  1  0.875509  0.625035  0.250456  1
  Er  Er8  1  0.749277  0.124491  0.374551  1
  Er  Er9  1  0.125640  0.251525  0.375767  1
  Er  Er10  1  0.250610  0.875526  0.625381  1
  Er  Er11  1  0.874413  0.748414  0.624138  1
  Al  Al12  1  0.874488  0.249185  0.124942  1
  Al  Al13  1  0.749413  0.874402  0.125190  1
  Al  Al14  1  0.125149  0.874816  0.250312  1
  Al  Al15  1  0.625481  0.375275  0.250527  1
  Al  Al16  1  0.249218  0.624349  0.374375  1
  Al  Al17  1  0.624724  0.749906  0.374797  1
  Al  Al18  1  0.750532  0.375467  0.625198  1
  Al  Al19  1  0.375103  0.249843  0.624791  1
  Al  Al20  1  0.874888  0.125049  0.749803  1
  Al  Al21  1  0.374584  0.624964  0.749570  1
  Al  Al22  1  0.250515  0.125557  0.875132  1
  Al  Al23  1  0.125885  0.751151  0.875354  1
  V  V24  1  0.000011  0.999991  0.000116  1
  V  V25  1  0.500101  0.000105  0.000119  1
  V  V26  1  0.500008  0.500120  0.000052  1
  V  V27  1  0.000049  0.499907  0.000018  1
  V  V28  1  0.499871  0.999835  0.499844  1
  V  V29  1  0.000117  0.499970  0.499962  1
  V  V30  1  0.999885  0.000032  0.499992  1
  V  V31  1  0.499977  0.500000  0.499863  1
  O  O32  1  0.213069  0.126189  0.026867  1
  O  O33  1  0.316403  0.902505  0.026385  1
  O  O34  1  0.709212  0.683874  0.086159  1
  O  O35  1  0.875119  0.400732  0.087343  1
  O  O36  1  0.974213  0.684378  0.098257  1
  O  O37  1  0.624712  0.413489  0.098992  1
  O  O38  1  0.599420  0.914101  0.125116  1
  O  O39  1  0.024545  0.208700  0.123087  1
  O  O40  1  0.210524  0.586519  0.184749  1
  O  O41  1  0.473082  0.598145  0.185562  1
  O  O42  1  0.586404  0.185773  0.211974  1
  O  O43  1  0.124535  0.025381  0.210818  1
  O  O44  1  0.475253  0.376796  0.290755  1
  O  O45  1  0.315609  0.914374  0.290069  1
  O  O46  1  0.913409  0.286923  0.314120  1
  O  O47  1  0.901146  0.024113  0.315825  1
  O  O48  1  0.286662  0.472820  0.373965  1
  O  O49  1  0.587067  0.901067  0.374443  1
  O  O50  1  0.815686  0.525824  0.401729  1
  O  O51  1  0.086102  0.874049  0.400676  1
  O  O52  1  0.814431  0.787718  0.413380  1
  O  O53  1  0.098302  0.623803  0.414042  1
  O  O54  1  0.375917  0.289374  0.473957  1
  O  O55  1  0.598962  0.185353  0.474593  1
  O  O56  1  0.400704  0.814529  0.525092  1
  O  O57  1  0.624088  0.710395  0.525712  1
  O  O58  1  0.901516  0.376026  0.585554  1
  O  O59  1  0.185370  0.212110  0.586256  1
  O  O60  1  0.913774  0.126046  0.599437  1
  O  O61  1  0.184541  0.474237  0.598363  1
  O  O62  1  0.713312  0.527174  0.625834  1
  O  O63  1  0.412725  0.098707  0.625332  1
  O  O64  1  0.098764  0.976096  0.684372  1
  O  O65  1  0.086854  0.713007  0.686044  1
  O  O66  1  0.684180  0.085160  0.709574  1
  O  O67  1  0.524608  0.623312  0.708904  1
  O  O68  1  0.413748  0.814508  0.788132  1
  O  O69  1  0.875419  0.974428  0.789251  1
  O  O70  1  0.789723  0.413551  0.815069  1
  O  O71  1  0.526468  0.401618  0.814261  1
  O  O72  1  0.975677  0.791503  0.877024  1
  O  O73  1  0.400487  0.085830  0.875033  1
  O  O74  1  0.025872  0.315324  0.901910  1
  O  O75  1  0.375398  0.586950  0.901144  1
  O  O76  1  0.291013  0.316251  0.914288  1
  O  O77  1  0.125024  0.599512  0.913010  1
  O  O78  1  0.683783  0.097919  0.974006  1
  O  O79  1  0.787150  0.873780  0.973580  1
