# generated using pymatgen
data_Er(HfSe2)8
_symmetry_space_group_name_H-M   'P 1'
_cell_length_a   7.51897000
_cell_length_b   7.51896897
_cell_length_c   13.58391500
_cell_angle_alpha   90.00000000
_cell_angle_beta   90.00000000
_cell_angle_gamma   119.99998692
_symmetry_Int_Tables_number   1
_chemical_formula_structural   Er(HfSe2)8
_chemical_formula_sum   'Er1 Hf8 Se16'
_cell_volume   665.07755127
_cell_formula_units_Z   1
loop_
 _symmetry_equiv_pos_site_id
 _symmetry_equiv_pos_as_xyz
  1  'x, y, z'
loop_
 _atom_site_type_symbol
 _atom_site_label
 _atom_site_symmetry_multiplicity
 _atom_site_fract_x
 _atom_site_fract_y
 _atom_site_fract_z
 _atom_site_occupancy
  Er  Er0  1  0.000000  0.000000  0.000000  1
  Hf  Hf1  1  0.503969  0.496031  0.746489  1
  Hf  Hf2  1  0.496031  0.503969  0.253511  1
  Hf  Hf3  1  0.503969  0.007937  0.746489  1
  Hf  Hf4  1  0.496031  0.992063  0.253511  1
  Hf  Hf5  1  0.992063  0.496031  0.746489  1
  Hf  Hf6  1  0.007937  0.503969  0.253511  1
  Hf  Hf7  1  0.000000  0.000000  0.741750  1
  Hf  Hf8  1  0.000000  0.000000  0.258250  1
  Se  Se9  1  0.832615  0.665232  0.133254  1
  Se  Se10  1  0.832578  0.665156  0.629068  1
  Se  Se11  1  0.832615  0.167385  0.133254  1
  Se  Se12  1  0.832578  0.167422  0.629068  1
  Se  Se13  1  0.333333  0.666667  0.133357  1
  Se  Se14  1  0.333333  0.666667  0.636503  1
  Se  Se15  1  0.334768  0.167385  0.133254  1
  Se  Se16  1  0.334844  0.167422  0.629068  1
  Se  Se17  1  0.665232  0.832615  0.866746  1
  Se  Se18  1  0.665156  0.832578  0.370932  1
  Se  Se19  1  0.666667  0.333333  0.866643  1
  Se  Se20  1  0.666667  0.333333  0.363497  1
  Se  Se21  1  0.167385  0.832615  0.866746  1
  Se  Se22  1  0.167422  0.832578  0.370932  1
  Se  Se23  1  0.167385  0.334768  0.866746  1
  Se  Se24  1  0.167422  0.334844  0.370932  1
