# generated using pymatgen
data_Nd4MgMn(FeO6)2
_symmetry_space_group_name_H-M   'P 1'
_cell_length_a   5.49143031
_cell_length_b   5.65343088
_cell_length_c   7.82020331
_cell_angle_alpha   89.77798708
_cell_angle_beta   89.78298786
_cell_angle_gamma   89.89969226
_symmetry_Int_Tables_number   1
_chemical_formula_structural   Nd4MgMn(FeO6)2
_chemical_formula_sum   'Nd4 Mg1 Mn1 Fe2 O12'
_cell_volume   242.77757984
_cell_formula_units_Z   1
loop_
 _symmetry_equiv_pos_site_id
 _symmetry_equiv_pos_as_xyz
  1  'x, y, z'
loop_
 _atom_site_type_symbol
 _atom_site_label
 _atom_site_symmetry_multiplicity
 _atom_site_fract_x
 _atom_site_fract_y
 _atom_site_fract_z
 _atom_site_occupancy
  Nd  Nd0  1  0.490949  0.551061  0.257179  1
  Nd  Nd1  1  0.982577  0.944711  0.742353  1
  Nd  Nd2  1  0.509051  0.448939  0.742821  1
  Nd  Nd3  1  0.017423  0.055289  0.257647  1
  Mg  Mg4  1  0.000000  0.500000  0.500000  1
  Mn  Mn5  1  0.500000  0.000000  0.000000  1
  Fe  Fe6  1  0.000000  0.500000  0.000000  1
  Fe  Fe7  1  0.500000  0.000000  0.500000  1
  O  O8  1  0.592156  0.975399  0.239634  1
  O  O9  1  0.087003  0.525459  0.759017  1
  O  O10  1  0.407844  0.024601  0.760366  1
  O  O11  1  0.912997  0.474541  0.240983  1
  O  O12  1  0.219615  0.795586  0.052046  1
  O  O13  1  0.702056  0.718856  0.948802  1
  O  O14  1  0.780385  0.204414  0.947954  1
  O  O15  1  0.297944  0.281144  0.051198  1
  O  O16  1  0.302238  0.293456  0.455950  1
  O  O17  1  0.792322  0.197968  0.544019  1
  O  O18  1  0.697762  0.706544  0.544050  1
  O  O19  1  0.207678  0.802032  0.455981  1
