# generated using pymatgen
data_Y4Al24Ni7Pt2
_symmetry_space_group_name_H-M   'P 1'
_cell_length_a   7.31746063
_cell_length_b   7.34827045
_cell_length_c   12.80855732
_cell_angle_alpha   84.71906861
_cell_angle_beta   78.96496619
_cell_angle_gamma   60.03067983
_symmetry_Int_Tables_number   1
_chemical_formula_structural   Y4Al24Ni7Pt2
_chemical_formula_sum   'Y4 Al24 Ni7 Pt2'
_cell_volume   585.60069802
_cell_formula_units_Z   1
loop_
 _symmetry_equiv_pos_site_id
 _symmetry_equiv_pos_as_xyz
  1  'x, y, z'
loop_
 _atom_site_type_symbol
 _atom_site_label
 _atom_site_symmetry_multiplicity
 _atom_site_fract_x
 _atom_site_fract_y
 _atom_site_fract_z
 _atom_site_occupancy
  Y  Y0  1  0.395516  0.168117  0.806742  1
  Y  Y1  1  0.604484  0.831883  0.193258  1
  Y  Y2  1  0.734763  0.496098  0.806707  1
  Y  Y3  1  0.265237  0.503902  0.193293  1
  Al  Al4  1  0.680602  0.832248  0.948253  1
  Al  Al5  1  0.319398  0.167752  0.051747  1
  Al  Al6  1  0.147314  0.830519  0.564566  1
  Al  Al7  1  0.852686  0.169481  0.435434  1
  Al  Al8  1  0.476857  0.166655  0.555757  1
  Al  Al9  1  0.523143  0.833345  0.444243  1
  Al  Al10  1  0.216020  0.174651  0.333881  1
  Al  Al11  1  0.783980  0.825349  0.666119  1
  Al  Al12  1  0.429723  0.515116  0.666279  1
  Al  Al13  1  0.570277  0.484884  0.333721  1
  Al  Al14  1  0.119703  0.159325  0.665190  1
  Al  Al15  1  0.880297  0.840675  0.334810  1
  Al  Al16  1  0.353776  0.497081  0.948254  1
  Al  Al17  1  0.646224  0.502919  0.051746  1
  Al  Al18  1  0.014298  0.169337  0.961181  1
  Al  Al19  1  0.985702  0.830663  0.038819  1
  Al  Al20  1  0.185453  0.496164  0.444090  1
  Al  Al21  1  0.814547  0.503836  0.555910  1
  Al  Al22  1  0.726763  0.165077  0.183850  1
  Al  Al23  1  0.273237  0.834923  0.816150  1
  Al  Al24  1  0.062246  0.623827  0.815200  1
  Al  Al25  1  0.937754  0.376173  0.184800  1
  Al  Al26  1  0.856081  0.040015  0.821594  1
  Al  Al27  1  0.143919  0.959985  0.178406  1
  Ni  Ni28  1  0.119705  0.492654  0.638482  1
  Ni  Ni29  1  0.880295  0.507346  0.361518  1
  Ni  Ni30  1  0.658297  0.171067  0.000667  1
  Ni  Ni31  1  0.341703  0.828933  0.999333  1
  Ni  Ni32  1  0.538757  0.167220  0.361709  1
  Ni  Ni33  1  0.461243  0.832780  0.638291  1
  Ni  Ni34  1  0.000000  0.500000  0.000000  1
  Pt  Pt35  1  0.778245  0.174328  0.638017  1
  Pt  Pt36  1  0.221755  0.825672  0.361983  1
