# generated using pymatgen
data_Tb8Tm12Si15P
_symmetry_space_group_name_H-M   'P 1'
_cell_length_a   7.32527200
_cell_length_b   7.64051218
_cell_length_c   14.43310700
_cell_angle_alpha   90.00000000
_cell_angle_beta   90.00000000
_cell_angle_gamma   90.32322648
_symmetry_Int_Tables_number   1
_chemical_formula_structural   Tb8Tm12Si15P
_chemical_formula_sum   'Tb8 Tm12 Si15 P1'
_cell_volume   807.79125702
_cell_formula_units_Z   1
loop_
 _symmetry_equiv_pos_site_id
 _symmetry_equiv_pos_as_xyz
  1  'x, y, z'
loop_
 _atom_site_type_symbol
 _atom_site_label
 _atom_site_symmetry_multiplicity
 _atom_site_fract_x
 _atom_site_fract_y
 _atom_site_fract_z
 _atom_site_occupancy
  Tb  Tb0  1  0.013682  0.178019  0.096907  1
  Tb  Tb1  1  0.988017  0.822775  0.899094  1
  Tb  Tb2  1  0.487117  0.678011  0.902876  1
  Tb  Tb3  1  0.988017  0.822775  0.600906  1
  Tb  Tb4  1  0.515002  0.321103  0.096907  1
  Tb  Tb5  1  0.013682  0.178019  0.403093  1
  Tb  Tb6  1  0.515002  0.321103  0.403093  1
  Tb  Tb7  1  0.487117  0.678011  0.597124  1
  Tm  Tm8  1  0.161160  0.508789  0.750000  1
  Tm  Tm9  1  0.836984  0.489813  0.250000  1
  Tm  Tm10  1  0.337689  0.010260  0.250000  1
  Tm  Tm11  1  0.664358  0.992401  0.750000  1
  Tm  Tm12  1  0.324860  0.172604  0.625948  1
  Tm  Tm13  1  0.669903  0.821723  0.377214  1
  Tm  Tm14  1  0.169558  0.679010  0.376979  1
  Tm  Tm15  1  0.669903  0.821723  0.122786  1
  Tm  Tm16  1  0.828737  0.323627  0.624456  1
  Tm  Tm17  1  0.324860  0.172604  0.874052  1
  Tm  Tm18  1  0.828737  0.323627  0.875544  1
  Tm  Tm19  1  0.169558  0.679010  0.123021  1
  Si  Si20  1  0.963956  0.891392  0.250000  1
  Si  Si21  1  0.464327  0.607339  0.250000  1
  Si  Si22  1  0.531622  0.388711  0.750000  1
  Si  Si23  1  0.296093  0.858317  0.750000  1
  Si  Si24  1  0.719247  0.127289  0.250000  1
  Si  Si25  1  0.219901  0.372950  0.250000  1
  Si  Si26  1  0.783210  0.631130  0.750000  1
  Si  Si27  1  0.158299  0.465262  0.539315  1
  Si  Si28  1  0.841933  0.533432  0.461765  1
  Si  Si29  1  0.340080  0.968739  0.461005  1
  Si  Si30  1  0.841933  0.533432  0.038235  1
  Si  Si31  1  0.660421  0.033609  0.539912  1
  Si  Si32  1  0.158299  0.465262  0.960685  1
  Si  Si33  1  0.660421  0.033609  0.960088  1
  Si  Si34  1  0.340080  0.968739  0.038995  1
  P  P35  1  0.026238  0.125783  0.750000  1
