# generated using pymatgen
data_Nd10Sn5Bi
_symmetry_space_group_name_H-M   'P 1'
_cell_length_a   6.78984300
_cell_length_b   9.37004500
_cell_length_c   9.35736480
_cell_angle_alpha   119.95887207
_cell_angle_beta   90.00003525
_cell_angle_gamma   89.99997934
_symmetry_Int_Tables_number   1
_chemical_formula_structural   Nd10Sn5Bi
_chemical_formula_sum   'Nd10 Sn5 Bi1'
_cell_volume   515.78111649
_cell_formula_units_Z   1
loop_
 _symmetry_equiv_pos_site_id
 _symmetry_equiv_pos_as_xyz
  1  'x, y, z'
loop_
 _atom_site_type_symbol
 _atom_site_label
 _atom_site_symmetry_multiplicity
 _atom_site_fract_x
 _atom_site_fract_y
 _atom_site_fract_z
 _atom_site_occupancy
  Nd  Nd0  1  0.501981  0.337615  0.670376  1
  Nd  Nd1  1  0.501983  0.662386  0.332723  1
  Nd  Nd2  1  0.998015  0.662383  0.332723  1
  Nd  Nd3  1  0.998015  0.337612  0.670376  1
  Nd  Nd4  1  0.750000  0.241891  0.000157  1
  Nd  Nd5  1  0.750001  0.758223  0.758359  1
  Nd  Nd6  1  0.750001  0.000058  0.240818  1
  Nd  Nd7  1  0.250001  0.753758  0.993974  1
  Nd  Nd8  1  0.250000  0.246094  0.240130  1
  Nd  Nd9  1  0.250003  0.999936  0.762073  1
  Sn  Sn10  1  0.749999  0.608344  0.001504  1
  Sn  Sn11  1  0.750000  0.391832  0.393312  1
  Sn  Sn12  1  0.750000  0.000014  0.606858  1
  Sn  Sn13  1  0.249998  0.393326  0.999389  1
  Sn  Sn14  1  0.250000  0.606538  0.605973  1
  Bi  Bi15  1  0.249999  0.999990  0.391255  1
