# generated using pymatgen
data_Ta12Fe8Re4C3N
_symmetry_space_group_name_H-M   'P 1'
_cell_length_a   8.13888622
_cell_length_b   8.15372265
_cell_length_c   8.15397800
_cell_angle_alpha   59.99895593
_cell_angle_beta   59.93863378
_cell_angle_gamma   59.93745814
_symmetry_Int_Tables_number   1
_chemical_formula_structural   Ta12Fe8Re4C3N
_chemical_formula_sum   'Ta12 Fe8 Re4 C3 N1'
_cell_volume   382.26514889
_cell_formula_units_Z   1
loop_
 _symmetry_equiv_pos_site_id
 _symmetry_equiv_pos_as_xyz
  1  'x, y, z'
loop_
 _atom_site_type_symbol
 _atom_site_label
 _atom_site_symmetry_multiplicity
 _atom_site_fract_x
 _atom_site_fract_y
 _atom_site_fract_z
 _atom_site_occupancy
  Ta  Ta0  1  0.807293  0.806916  0.192895  1
  Ta  Ta1  1  0.193727  0.192971  0.806651  1
  Ta  Ta2  1  0.807288  0.192890  0.806926  1
  Ta  Ta3  1  0.193713  0.806662  0.192968  1
  Ta  Ta4  1  0.193713  0.806662  0.806658  1
  Ta  Ta5  1  0.807288  0.192890  0.192895  1
  Ta  Ta6  1  0.442707  0.443084  0.057105  1
  Ta  Ta7  1  0.056273  0.057029  0.443349  1
  Ta  Ta8  1  0.442712  0.057110  0.443074  1
  Ta  Ta9  1  0.056287  0.443338  0.057032  1
  Ta  Ta10  1  0.056287  0.443338  0.443342  1
  Ta  Ta11  1  0.442712  0.057110  0.057105  1
  Fe  Fe12  1  0.731618  0.422780  0.422801  1
  Fe  Fe13  1  0.423453  0.731350  0.422598  1
  Fe  Fe14  1  0.423468  0.422584  0.731352  1
  Fe  Fe15  1  0.423468  0.422584  0.422596  1
  Fe  Fe16  1  0.518382  0.827220  0.827199  1
  Fe  Fe17  1  0.826547  0.518650  0.827402  1
  Fe  Fe18  1  0.826532  0.827416  0.518648  1
  Fe  Fe19  1  0.826532  0.827416  0.827404  1
  Re  Re20  1  0.125000  0.625000  0.625000  1
  Re  Re21  1  0.625000  0.125000  0.625000  1
  Re  Re22  1  0.625000  0.625000  0.125000  1
  Re  Re23  1  0.625000  0.625000  0.625000  1
  C  C24  1  0.125000  0.625000  0.125000  1
  C  C25  1  0.125000  0.125000  0.625000  1
  C  C26  1  0.125000  0.125000  0.125000  1
  N  N27  1  0.625000  0.125000  0.125000  1
