# generated using pymatgen
data_CaHf(GaAu)2
_symmetry_space_group_name_H-M   'P 1'
_cell_length_a   4.49212800
_cell_length_b   4.49212803
_cell_length_c   7.05445300
_cell_angle_alpha   90.00000000
_cell_angle_beta   90.00000000
_cell_angle_gamma   119.99999978
_symmetry_Int_Tables_number   1
_chemical_formula_structural   CaHf(GaAu)2
_chemical_formula_sum   'Ca1 Hf1 Ga2 Au2'
_cell_volume   123.28158952
_cell_formula_units_Z   1
loop_
 _symmetry_equiv_pos_site_id
 _symmetry_equiv_pos_as_xyz
  1  'x, y, z'
loop_
 _atom_site_type_symbol
 _atom_site_label
 _atom_site_symmetry_multiplicity
 _atom_site_fract_x
 _atom_site_fract_y
 _atom_site_fract_z
 _atom_site_occupancy
  Ca  Ca0  1  0.000000  0.000000  0.000000  1
  Hf  Hf1  1  0.000000  0.000000  0.500000  1
  Ga  Ga2  1  0.666667  0.333333  0.301034  1
  Ga  Ga3  1  0.666667  0.333333  0.698966  1
  Au  Au4  1  0.333333  0.666667  0.721530  1
  Au  Au5  1  0.333333  0.666667  0.278470  1
