# generated using pymatgen
data_PrNd2V(Co4P3)2
_symmetry_space_group_name_H-M   'P 1'
_cell_length_a   3.77014600
_cell_length_b   10.72111500
_cell_length_c   12.45364200
_cell_angle_alpha   90.00000000
_cell_angle_beta   90.00000000
_cell_angle_gamma   90.00000000
_symmetry_Int_Tables_number   1
_chemical_formula_structural   PrNd2V(Co4P3)2
_chemical_formula_sum   'Pr2 Nd4 V2 Co16 P12'
_cell_volume   503.37831222
_cell_formula_units_Z   2
loop_
 _symmetry_equiv_pos_site_id
 _symmetry_equiv_pos_as_xyz
  1  'x, y, z'
loop_
 _atom_site_type_symbol
 _atom_site_label
 _atom_site_symmetry_multiplicity
 _atom_site_fract_x
 _atom_site_fract_y
 _atom_site_fract_z
 _atom_site_occupancy
  Pr  Pr0  1  0.000000  0.500000  0.522281  1
  Pr  Pr1  1  0.500000  0.000000  0.477719  1
  Nd  Nd2  1  0.500000  0.818441  0.204787  1
  Nd  Nd3  1  0.500000  0.181559  0.204787  1
  Nd  Nd4  1  0.000000  0.681559  0.795213  1
  Nd  Nd5  1  0.000000  0.318441  0.795213  1
  V  V6  1  0.500000  0.500000  0.151952  1
  V  V7  1  0.000000  0.000000  0.848048  1
  Co  Co8  1  0.500000  0.500000  0.704053  1
  Co  Co9  1  0.000000  0.000000  0.295947  1
  Co  Co10  1  0.000000  0.500000  0.988329  1
  Co  Co11  1  0.500000  0.000000  0.011671  1
  Co  Co12  1  0.500000  0.332497  0.994287  1
  Co  Co13  1  0.500000  0.667503  0.994287  1
  Co  Co14  1  0.000000  0.167503  0.005713  1
  Co  Co15  1  0.000000  0.832497  0.005713  1
  Co  Co16  1  0.500000  0.295477  0.430629  1
  Co  Co17  1  0.500000  0.704523  0.430629  1
  Co  Co18  1  0.000000  0.204523  0.569371  1
  Co  Co19  1  0.000000  0.795477  0.569371  1
  Co  Co20  1  0.500000  0.880831  0.709077  1
  Co  Co21  1  0.500000  0.119169  0.709077  1
  Co  Co22  1  0.000000  0.619169  0.290923  1
  Co  Co23  1  0.000000  0.380831  0.290923  1
  P  P24  1  0.500000  0.500000  0.886605  1
  P  P25  1  0.000000  0.000000  0.113395  1
  P  P26  1  0.500000  0.500000  0.341561  1
  P  P27  1  0.000000  0.000000  0.658439  1
  P  P28  1  0.500000  0.306488  0.614383  1
  P  P29  1  0.500000  0.693512  0.614383  1
  P  P30  1  0.000000  0.193512  0.385617  1
  P  P31  1  0.000000  0.806488  0.385617  1
  P  P32  1  0.500000  0.847647  0.894296  1
  P  P33  1  0.500000  0.152353  0.894296  1
  P  P34  1  0.000000  0.652353  0.105704  1
  P  P35  1  0.000000  0.347647  0.105704  1
