# generated using pymatgen
data_Eu5GaPt2
_symmetry_space_group_name_H-M   'P 1'
_cell_length_a   9.13281297
_cell_length_b   9.13281200
_cell_length_c   9.13281300
_cell_angle_alpha   128.23213440
_cell_angle_beta   128.23213760
_cell_angle_gamma   76.24927873
_symmetry_Int_Tables_number   1
_chemical_formula_structural   Eu5GaPt2
_chemical_formula_sum   'Eu10 Ga2 Pt4'
_cell_volume   456.80725782
_cell_formula_units_Z   2
loop_
 _symmetry_equiv_pos_site_id
 _symmetry_equiv_pos_as_xyz
  1  'x, y, z'
loop_
 _atom_site_type_symbol
 _atom_site_label
 _atom_site_symmetry_multiplicity
 _atom_site_fract_x
 _atom_site_fract_y
 _atom_site_fract_z
 _atom_site_occupancy
  Eu  Eu0  1  0.529963  0.029963  0.839504  1
  Eu  Eu1  1  0.190460  0.690460  0.160496  1
  Eu  Eu2  1  0.029963  0.190460  0.500000  1
  Eu  Eu3  1  0.690460  0.529963  0.500000  1
  Eu  Eu4  1  0.470037  0.970037  0.160496  1
  Eu  Eu5  1  0.809540  0.309540  0.839504  1
  Eu  Eu6  1  0.970037  0.809540  0.500000  1
  Eu  Eu7  1  0.309540  0.470037  0.500000  1
  Eu  Eu8  1  0.500000  0.500000  0.000000  1
  Eu  Eu9  1  0.000000  0.000000  0.000000  1
  Ga  Ga10  1  0.250000  0.250000  0.000000  1
  Ga  Ga11  1  0.750000  0.750000  0.000000  1
  Pt  Pt12  1  0.873012  0.373012  0.246023  1
  Pt  Pt13  1  0.126988  0.626988  0.753977  1
  Pt  Pt14  1  0.373012  0.126988  0.500000  1
  Pt  Pt15  1  0.626988  0.873012  0.500000  1
