# generated using pymatgen
data_Li2PrNdZn15
_symmetry_space_group_name_H-M   'P 1'
_cell_length_a   6.86626171
_cell_length_b   6.86626028
_cell_length_c   6.86626041
_cell_angle_alpha   83.98811736
_cell_angle_beta   83.98811669
_cell_angle_gamma   83.98811895
_symmetry_Int_Tables_number   1
_chemical_formula_structural   Li2PrNdZn15
_chemical_formula_sum   'Li2 Pr1 Nd1 Zn15'
_cell_volume   318.72055895
_cell_formula_units_Z   1
loop_
 _symmetry_equiv_pos_site_id
 _symmetry_equiv_pos_as_xyz
  1  'x, y, z'
loop_
 _atom_site_type_symbol
 _atom_site_label
 _atom_site_symmetry_multiplicity
 _atom_site_fract_x
 _atom_site_fract_y
 _atom_site_fract_z
 _atom_site_occupancy
  Li  Li0  1  0.900818  0.900818  0.900818  1
  Li  Li1  1  0.099229  0.099229  0.099229  1
  Pr  Pr2  1  0.660661  0.660661  0.660661  1
  Nd  Nd3  1  0.339382  0.339382  0.339382  1
  Zn  Zn4  1  0.000044  0.000044  0.499985  1
  Zn  Zn5  1  0.000044  0.499985  0.000044  1
  Zn  Zn6  1  0.499985  0.000044  0.000044  1
  Zn  Zn7  1  0.293840  0.706036  0.000114  1
  Zn  Zn8  1  0.706036  0.000114  0.293840  1
  Zn  Zn9  1  0.000114  0.293840  0.706036  1
  Zn  Zn10  1  0.293840  0.000114  0.706036  1
  Zn  Zn11  1  0.000114  0.706036  0.293840  1
  Zn  Zn12  1  0.706036  0.293840  0.000114  1
  Zn  Zn13  1  0.347960  0.347960  0.840064  1
  Zn  Zn14  1  0.347960  0.840064  0.347960  1
  Zn  Zn15  1  0.840064  0.347960  0.347960  1
  Zn  Zn16  1  0.651935  0.651935  0.160002  1
  Zn  Zn17  1  0.651935  0.160002  0.651935  1
  Zn  Zn18  1  0.160002  0.651935  0.651935  1
