# generated using pymatgen
data_Nb4MoS10
_symmetry_space_group_name_H-M   'P 1'
_cell_length_a   14.22455411
_cell_length_b   14.22455342
_cell_length_c   6.79785896
_cell_angle_alpha   78.64416239
_cell_angle_beta   78.64416307
_cell_angle_gamma   13.51149115
_symmetry_Int_Tables_number   1
_chemical_formula_structural   Nb4MoS10
_chemical_formula_sum   'Nb4 Mo1 S10'
_cell_volume   314.98364533
_cell_formula_units_Z   1
loop_
 _symmetry_equiv_pos_site_id
 _symmetry_equiv_pos_as_xyz
  1  'x, y, z'
loop_
 _atom_site_type_symbol
 _atom_site_label
 _atom_site_symmetry_multiplicity
 _atom_site_fract_x
 _atom_site_fract_y
 _atom_site_fract_z
 _atom_site_occupancy
  Nb  Nb0  1  0.369549  0.369549  0.760477  1
  Nb  Nb1  1  0.766823  0.766823  0.966450  1
  Nb  Nb2  1  0.165669  0.165669  0.168872  1
  Nb  Nb3  1  0.560524  0.560524  0.379405  1
  Mo  Mo4  1  0.967378  0.967378  0.565137  1
  S  S5  1  0.513600  0.513600  0.717495  1
  S  S6  1  0.716255  0.716255  0.306523  1
  S  S7  1  0.114381  0.114381  0.505873  1
  S  S8  1  0.918244  0.918244  0.899437  1
  S  S9  1  0.317450  0.317450  0.102527  1
  S  S10  1  0.887300  0.887300  0.488279  1
  S  S11  1  0.286187  0.286187  0.690221  1
  S  S12  1  0.684852  0.684852  0.891249  1
  S  S13  1  0.083540  0.083540  0.098675  1
  S  S14  1  0.481550  0.481550  0.292280  1
