# generated using pymatgen
data_NdTh2In3Ir2Rh
_symmetry_space_group_name_H-M   'P 1'
_cell_length_a   7.75847541
_cell_length_b   7.64000199
_cell_length_c   4.00178500
_cell_angle_alpha   90.00000000
_cell_angle_beta   90.00000000
_cell_angle_gamma   119.49614038
_symmetry_Int_Tables_number   1
_chemical_formula_structural   NdTh2In3Ir2Rh
_chemical_formula_sum   'Nd1 Th2 In3 Ir2 Rh1'
_cell_volume   206.46048275
_cell_formula_units_Z   1
loop_
 _symmetry_equiv_pos_site_id
 _symmetry_equiv_pos_as_xyz
  1  'x, y, z'
loop_
 _atom_site_type_symbol
 _atom_site_label
 _atom_site_symmetry_multiplicity
 _atom_site_fract_x
 _atom_site_fract_y
 _atom_site_fract_z
 _atom_site_occupancy
  Nd  Nd0  1  0.000000  0.588724  0.500000  1
  Th  Th1  1  0.585478  0.998445  0.500000  1
  Th  Th2  1  0.414522  0.412968  0.500000  1
  In  In3  1  0.238407  0.988862  0.000000  1
  In  In4  1  0.761593  0.750455  0.000000  1
  In  In5  1  0.000000  0.261669  0.000000  1
  Ir  Ir6  1  0.359198  0.671120  0.000000  1
  Ir  Ir7  1  0.640802  0.311921  0.000000  1
  Rh  Rh8  1  0.000000  0.015837  0.500000  1
