# generated using pymatgen
data_TbNd3Ho12(CdIr)4
_symmetry_space_group_name_H-M   'P 1'
_cell_length_a   9.67590564
_cell_length_b   9.68045567
_cell_length_c   9.66526526
_cell_angle_alpha   60.02076884
_cell_angle_beta   59.93241986
_cell_angle_gamma   59.91174080
_symmetry_Int_Tables_number   1
_chemical_formula_structural   TbNd3Ho12(CdIr)4
_chemical_formula_sum   'Tb1 Nd3 Ho12 Cd4 Ir4'
_cell_volume   639.50160460
_cell_formula_units_Z   1
loop_
 _symmetry_equiv_pos_site_id
 _symmetry_equiv_pos_as_xyz
  1  'x, y, z'
loop_
 _atom_site_type_symbol
 _atom_site_label
 _atom_site_symmetry_multiplicity
 _atom_site_fract_x
 _atom_site_fract_y
 _atom_site_fract_z
 _atom_site_occupancy
  Tb  Tb0  1  0.560997  0.939003  0.560997  1
  Nd  Nd1  1  0.938108  0.561892  0.938108  1
  Nd  Nd2  1  0.562162  0.564240  0.936172  1
  Nd  Nd3  1  0.936172  0.937426  0.562162  1
  Ho  Ho4  1  0.350391  0.346542  0.347866  1
  Ho  Ho5  1  0.348318  0.349630  0.955490  1
  Ho  Ho6  1  0.347866  0.955202  0.350391  1
  Ho  Ho7  1  0.955490  0.346562  0.348318  1
  Ho  Ho8  1  0.812339  0.186590  0.187899  1
  Ho  Ho9  1  0.187899  0.813173  0.812339  1
  Ho  Ho10  1  0.188807  0.811193  0.188807  1
  Ho  Ho11  1  0.811303  0.188697  0.811303  1
  Ho  Ho12  1  0.189697  0.188495  0.810499  1
  Ho  Ho13  1  0.810499  0.811309  0.189697  1
  Ho  Ho14  1  0.942950  0.557378  0.555044  1
  Ho  Ho15  1  0.555044  0.944627  0.942950  1
  Cd  Cd16  1  0.582323  0.580699  0.578461  1
  Cd  Cd17  1  0.578727  0.582387  0.260015  1
  Cd  Cd18  1  0.578461  0.258516  0.582323  1
  Cd  Cd19  1  0.260015  0.578870  0.578727  1
  Ir  Ir20  1  0.145787  0.139479  0.139395  1
  Ir  Ir21  1  0.141819  0.144213  0.575430  1
  Ir  Ir22  1  0.139395  0.575337  0.145787  1
  Ir  Ir23  1  0.575430  0.138536  0.141819  1
