# generated using pymatgen
data_Th10AgSb7
_symmetry_space_group_name_H-M   'P 1'
_cell_length_a   9.58019900
_cell_length_b   9.58019900
_cell_length_c   6.53420600
_cell_angle_alpha   90.00000000
_cell_angle_beta   90.00000000
_cell_angle_gamma   119.99999654
_symmetry_Int_Tables_number   1
_chemical_formula_structural   Th10AgSb7
_chemical_formula_sum   'Th10 Ag1 Sb7'
_cell_volume   519.36482136
_cell_formula_units_Z   1
loop_
 _symmetry_equiv_pos_site_id
 _symmetry_equiv_pos_as_xyz
  1  'x, y, z'
loop_
 _atom_site_type_symbol
 _atom_site_label
 _atom_site_symmetry_multiplicity
 _atom_site_fract_x
 _atom_site_fract_y
 _atom_site_fract_z
 _atom_site_occupancy
  Th  Th0  1  0.000000  0.718801  0.753286  1
  Th  Th1  1  0.281199  0.281199  0.753286  1
  Th  Th2  1  0.333333  0.666667  0.500000  1
  Th  Th3  1  0.666667  0.333333  0.500000  1
  Th  Th4  1  0.718801  0.718801  0.246714  1
  Th  Th5  1  0.718801  0.000000  0.753286  1
  Th  Th6  1  0.000000  0.281199  0.246714  1
  Th  Th7  1  0.281199  0.000000  0.246714  1
  Th  Th8  1  0.333333  0.666667  0.000000  1
  Th  Th9  1  0.666667  0.333333  0.000000  1
  Ag  Ag10  1  0.000000  0.000000  0.000000  1
  Sb  Sb11  1  0.621249  0.621249  0.752264  1
  Sb  Sb12  1  0.000000  0.378751  0.752264  1
  Sb  Sb13  1  0.378751  0.000000  0.752264  1
  Sb  Sb14  1  0.621249  0.000000  0.247736  1
  Sb  Sb15  1  0.378751  0.378751  0.247736  1
  Sb  Sb16  1  0.000000  0.621249  0.247736  1
  Sb  Sb17  1  0.000000  0.000000  0.500000  1
