# generated using pymatgen
data_Tb6Pt5Rh13
_symmetry_space_group_name_H-M   'P 1'
_cell_length_a   5.31787639
_cell_length_b   5.31787657
_cell_length_c   17.59274861
_cell_angle_alpha   89.95154390
_cell_angle_beta   90.04845581
_cell_angle_gamma   120.06208730
_symmetry_Int_Tables_number   1
_chemical_formula_structural   Tb6Pt5Rh13
_chemical_formula_sum   'Tb6 Pt5 Rh13'
_cell_volume   430.59458499
_cell_formula_units_Z   1
loop_
 _symmetry_equiv_pos_site_id
 _symmetry_equiv_pos_as_xyz
  1  'x, y, z'
loop_
 _atom_site_type_symbol
 _atom_site_label
 _atom_site_symmetry_multiplicity
 _atom_site_fract_x
 _atom_site_fract_y
 _atom_site_fract_z
 _atom_site_occupancy
  Tb  Tb0  1  0.333396  0.666604  0.956745  1
  Tb  Tb1  1  0.666800  0.333200  0.042889  1
  Tb  Tb2  1  0.666269  0.333731  0.457553  1
  Tb  Tb3  1  0.333099  0.666901  0.543775  1
  Tb  Tb4  1  0.333156  0.666844  0.750476  1
  Tb  Tb5  1  0.666754  0.333246  0.248875  1
  Pt  Pt6  1  0.169712  0.830288  0.375668  1
  Pt  Pt7  1  0.334605  0.665395  0.249434  1
  Pt  Pt8  1  0.666735  0.333265  0.749982  1
  Pt  Pt9  1  0.998466  0.001534  0.500618  1
  Pt  Pt10  1  0.000151  0.999849  0.999895  1
  Rh  Rh11  1  0.169270  0.333339  0.374648  1
  Rh  Rh12  1  0.666661  0.830730  0.374648  1
  Rh  Rh13  1  0.831441  0.168559  0.625386  1
  Rh  Rh14  1  0.831886  0.665412  0.625734  1
  Rh  Rh15  1  0.334588  0.168114  0.625734  1
  Rh  Rh16  1  0.832417  0.167583  0.874613  1
  Rh  Rh17  1  0.832305  0.664729  0.874471  1
  Rh  Rh18  1  0.335271  0.167695  0.874471  1
  Rh  Rh19  1  0.167341  0.832659  0.125606  1
  Rh  Rh20  1  0.168479  0.336161  0.124819  1
  Rh  Rh21  1  0.663839  0.831521  0.124819  1
  Rh  Rh22  1  0.997378  0.002622  0.249151  1
  Rh  Rh23  1  0.999982  0.000018  0.749992  1
