# generated using pymatgen
data_Tm7Lu9In3HgIr4
_symmetry_space_group_name_H-M   'P 1'
_cell_length_a   9.48609639
_cell_length_b   9.50476287
_cell_length_c   9.50761017
_cell_angle_alpha   59.80672516
_cell_angle_beta   59.83524936
_cell_angle_gamma   59.88780986
_symmetry_Int_Tables_number   1
_chemical_formula_structural   Tm7Lu9In3HgIr4
_chemical_formula_sum   'Tm7 Lu9 In3 Hg1 Ir4'
_cell_volume   604.00027498
_cell_formula_units_Z   1
loop_
 _symmetry_equiv_pos_site_id
 _symmetry_equiv_pos_as_xyz
  1  'x, y, z'
loop_
 _atom_site_type_symbol
 _atom_site_label
 _atom_site_symmetry_multiplicity
 _atom_site_fract_x
 _atom_site_fract_y
 _atom_site_fract_z
 _atom_site_occupancy
  Tm  Tm0  1  0.057730  0.057952  0.441010  1
  Tm  Tm1  1  0.192346  0.810806  0.811558  1
  Tm  Tm2  1  0.810076  0.189985  0.189560  1
  Tm  Tm3  1  0.811757  0.189277  0.810255  1
  Tm  Tm4  1  0.193657  0.809302  0.187605  1
  Tm  Tm5  1  0.811963  0.809710  0.189324  1
  Tm  Tm6  1  0.193341  0.187554  0.809858  1
  Lu  Lu7  1  0.599368  0.598248  0.598594  1
  Lu  Lu8  1  0.599802  0.599931  0.202502  1
  Lu  Lu9  1  0.599496  0.203078  0.600067  1
  Lu  Lu10  1  0.203002  0.599332  0.599783  1
  Lu  Lu11  1  0.057477  0.441707  0.441329  1
  Lu  Lu12  1  0.440482  0.059410  0.059171  1
  Lu  Lu13  1  0.441606  0.058095  0.440657  1
  Lu  Lu14  1  0.057560  0.441454  0.057559  1
  Lu  Lu15  1  0.441100  0.440560  0.058335  1
  In  In16  1  0.831807  0.833921  0.833819  1
  In  In17  1  0.831615  0.833560  0.500827  1
  In  In18  1  0.831653  0.500787  0.833639  1
  Hg  Hg19  1  0.495004  0.834866  0.834978  1
  Ir  Ir20  1  0.390811  0.390787  0.390848  1
  Ir  Ir21  1  0.390309  0.390999  0.827357  1
  Ir  Ir22  1  0.391511  0.826628  0.390771  1
  Ir  Ir23  1  0.826528  0.392051  0.390592  1
