# generated using pymatgen
data_Dy14Tm2In4RuRh3
_symmetry_space_group_name_H-M   'P 1'
_cell_length_a   9.64299211
_cell_length_b   9.64822049
_cell_length_c   9.65036682
_cell_angle_alpha   59.92087817
_cell_angle_beta   59.96878386
_cell_angle_gamma   59.88960983
_symmetry_Int_Tables_number   1
_chemical_formula_structural   Dy14Tm2In4RuRh3
_chemical_formula_sum   'Dy14 Tm2 In4 Ru1 Rh3'
_cell_volume   633.81428543
_cell_formula_units_Z   1
loop_
 _symmetry_equiv_pos_site_id
 _symmetry_equiv_pos_as_xyz
  1  'x, y, z'
loop_
 _atom_site_type_symbol
 _atom_site_label
 _atom_site_symmetry_multiplicity
 _atom_site_fract_x
 _atom_site_fract_y
 _atom_site_fract_z
 _atom_site_occupancy
  Dy  Dy0  1  0.312088  0.687477  0.310687  1
  Dy  Dy1  1  0.936387  0.936945  0.563254  1
  Dy  Dy2  1  0.150060  0.150273  0.547018  1
  Dy  Dy3  1  0.560353  0.942235  0.559307  1
  Dy  Dy4  1  0.150930  0.151453  0.151888  1
  Dy  Dy5  1  0.311387  0.310743  0.687476  1
  Dy  Dy6  1  0.941488  0.560335  0.559883  1
  Dy  Dy7  1  0.560107  0.559566  0.942658  1
  Dy  Dy8  1  0.563562  0.936308  0.937386  1
  Dy  Dy9  1  0.936002  0.563422  0.937633  1
  Dy  Dy10  1  0.149592  0.547392  0.150503  1
  Dy  Dy11  1  0.312700  0.690595  0.689831  1
  Dy  Dy12  1  0.690476  0.312691  0.689329  1
  Dy  Dy13  1  0.547823  0.149736  0.150438  1
  Tm  Tm14  1  0.688028  0.311458  0.310767  1
  Tm  Tm15  1  0.690263  0.689830  0.312156  1
  In  In16  1  0.917909  0.918158  0.247615  1
  In  In17  1  0.247414  0.918047  0.918215  1
  In  In18  1  0.918039  0.247428  0.918392  1
  In  In19  1  0.917553  0.917781  0.917937  1
  Ru  Ru20  1  0.358150  0.357354  0.357514  1
  Rh  Rh21  1  0.922700  0.359090  0.357800  1
  Rh  Rh22  1  0.357934  0.358149  0.924311  1
  Rh  Rh23  1  0.359056  0.923537  0.358002  1
