# generated using pymatgen
data_PrHo5Co8(P6Ru5)2
_symmetry_space_group_name_H-M   'P 1'
_cell_length_a   3.85738600
_cell_length_b   10.67497800
_cell_length_c   12.56276800
_cell_angle_alpha   90.00000000
_cell_angle_beta   90.00000000
_cell_angle_gamma   90.00000000
_symmetry_Int_Tables_number   1
_chemical_formula_structural   PrHo5Co8(P6Ru5)2
_chemical_formula_sum   'Pr1 Ho5 Co8 P12 Ru10'
_cell_volume   517.30351358
_cell_formula_units_Z   1
loop_
 _symmetry_equiv_pos_site_id
 _symmetry_equiv_pos_as_xyz
  1  'x, y, z'
loop_
 _atom_site_type_symbol
 _atom_site_label
 _atom_site_symmetry_multiplicity
 _atom_site_fract_x
 _atom_site_fract_y
 _atom_site_fract_z
 _atom_site_occupancy
  Pr  Pr0  1  0.000000  0.500000  0.527010  1
  Ho  Ho1  1  0.500000  0.000000  0.472718  1
  Ho  Ho2  1  0.500000  0.821134  0.200129  1
  Ho  Ho3  1  0.500000  0.178866  0.200129  1
  Ho  Ho4  1  0.000000  0.680129  0.800431  1
  Ho  Ho5  1  0.000000  0.319871  0.800431  1
  Co  Co6  1  0.000000  0.500000  0.983793  1
  Co  Co7  1  0.500000  0.000000  0.016191  1
  Co  Co8  1  0.500000  0.332202  0.989691  1
  Co  Co9  1  0.500000  0.667798  0.989691  1
  Co  Co10  1  0.000000  0.167390  0.010416  1
  Co  Co11  1  0.000000  0.832610  0.010416  1
  Co  Co12  1  0.500000  0.500000  0.704134  1
  Co  Co13  1  0.000000  0.000000  0.298127  1
  P  P14  1  0.500000  0.310701  0.619542  1
  P  P15  1  0.500000  0.689299  0.619542  1
  P  P16  1  0.000000  0.184779  0.381091  1
  P  P17  1  0.000000  0.815221  0.381091  1
  P  P18  1  0.500000  0.500000  0.881157  1
  P  P19  1  0.000000  0.000000  0.119732  1
  P  P20  1  0.500000  0.845932  0.901637  1
  P  P21  1  0.500000  0.154068  0.901637  1
  P  P22  1  0.000000  0.654543  0.098287  1
  P  P23  1  0.000000  0.345457  0.098287  1
  P  P24  1  0.500000  0.500000  0.333848  1
  P  P25  1  0.000000  0.000000  0.663512  1
  Ru  Ru26  1  0.500000  0.294373  0.426259  1
  Ru  Ru27  1  0.500000  0.705627  0.426259  1
  Ru  Ru28  1  0.000000  0.199495  0.572814  1
  Ru  Ru29  1  0.000000  0.800505  0.572814  1
  Ru  Ru30  1  0.500000  0.875566  0.720242  1
  Ru  Ru31  1  0.500000  0.124434  0.720242  1
  Ru  Ru32  1  0.000000  0.625577  0.279719  1
  Ru  Ru33  1  0.000000  0.374423  0.279719  1
  Ru  Ru34  1  0.500000  0.500000  0.144998  1
  Ru  Ru35  1  0.000000  0.000000  0.854265  1
