# generated using pymatgen
data_MnNb6Ga4FeN2
_symmetry_space_group_name_H-M   'P 1'
_cell_length_a   8.19879218
_cell_length_b   8.18729723
_cell_length_c   8.19879304
_cell_angle_alpha   60.04636681
_cell_angle_beta   60.09308335
_cell_angle_gamma   60.04636786
_symmetry_Int_Tables_number   1
_chemical_formula_structural   MnNb6Ga4FeN2
_chemical_formula_sum   'Mn2 Nb12 Ga8 Fe2 N4'
_cell_volume   389.70357608
_cell_formula_units_Z   2
loop_
 _symmetry_equiv_pos_site_id
 _symmetry_equiv_pos_as_xyz
  1  'x, y, z'
loop_
 _atom_site_type_symbol
 _atom_site_label
 _atom_site_symmetry_multiplicity
 _atom_site_fract_x
 _atom_site_fract_y
 _atom_site_fract_z
 _atom_site_occupancy
  Mn  Mn0  1  0.125000  0.625000  0.625000  1
  Mn  Mn1  1  0.625000  0.625000  0.125000  1
  Nb  Nb2  1  0.802574  0.802867  0.196245  1
  Nb  Nb3  1  0.196245  0.198314  0.802574  1
  Nb  Nb4  1  0.803699  0.196301  0.803699  1
  Nb  Nb5  1  0.198367  0.801633  0.198367  1
  Nb  Nb6  1  0.196245  0.802867  0.802574  1
  Nb  Nb7  1  0.802574  0.198314  0.196245  1
  Nb  Nb8  1  0.447426  0.447133  0.053755  1
  Nb  Nb9  1  0.053755  0.051686  0.447426  1
  Nb  Nb10  1  0.446301  0.053699  0.446301  1
  Nb  Nb11  1  0.051633  0.448367  0.051633  1
  Nb  Nb12  1  0.053755  0.447133  0.447426  1
  Nb  Nb13  1  0.447426  0.051686  0.053755  1
  Ga  Ga14  1  0.753180  0.414782  0.417258  1
  Ga  Ga15  1  0.416532  0.753085  0.416532  1
  Ga  Ga16  1  0.417258  0.414782  0.753180  1
  Ga  Ga17  1  0.416532  0.413853  0.416532  1
  Ga  Ga18  1  0.496820  0.835218  0.832742  1
  Ga  Ga19  1  0.833468  0.496915  0.833468  1
  Ga  Ga20  1  0.832742  0.835218  0.496820  1
  Ga  Ga21  1  0.833468  0.836147  0.833468  1
  Fe  Fe22  1  0.625000  0.125000  0.625000  1
  Fe  Fe23  1  0.625000  0.625000  0.625000  1
  N  N24  1  0.625000  0.125000  0.125000  1
  N  N25  1  0.125000  0.625000  0.125000  1
  N  N26  1  0.125000  0.125000  0.625000  1
  N  N27  1  0.125000  0.125000  0.125000  1
