# generated using pymatgen
data_Tb3Dy(HoAu)4
_symmetry_space_group_name_H-M   'P 1'
_cell_length_a   4.93273500
_cell_length_b   7.15235208
_cell_length_c   8.95107200
_cell_angle_alpha   89.95626124
_cell_angle_beta   90.00000000
_cell_angle_gamma   90.00000000
_symmetry_Int_Tables_number   1
_chemical_formula_structural   Tb3Dy(HoAu)4
_chemical_formula_sum   'Tb3 Dy1 Ho4 Au4'
_cell_volume   315.79961309
_cell_formula_units_Z   1
loop_
 _symmetry_equiv_pos_site_id
 _symmetry_equiv_pos_as_xyz
  1  'x, y, z'
loop_
 _atom_site_type_symbol
 _atom_site_label
 _atom_site_symmetry_multiplicity
 _atom_site_fract_x
 _atom_site_fract_y
 _atom_site_fract_z
 _atom_site_occupancy
  Tb  Tb0  1  0.250000  0.486428  0.176715  1
  Tb  Tb1  1  0.750000  0.513813  0.823052  1
  Tb  Tb2  1  0.250000  0.986278  0.322975  1
  Dy  Dy3  1  0.750000  0.013459  0.676053  1
  Ho  Ho4  1  0.750000  0.648462  0.420354  1
  Ho  Ho5  1  0.250000  0.351217  0.580292  1
  Ho  Ho6  1  0.750000  0.148303  0.079879  1
  Ho  Ho7  1  0.250000  0.851988  0.919486  1
  Au  Au8  1  0.250000  0.254471  0.900119  1
  Au  Au9  1  0.750000  0.745395  0.100084  1
  Au  Au10  1  0.250000  0.755093  0.600124  1
  Au  Au11  1  0.750000  0.245092  0.400868  1
