# generated using pymatgen
data_Zr3Ga3Ru5Au
_symmetry_space_group_name_H-M   'P 1'
_cell_length_a   4.51570200
_cell_length_b   6.45005500
_cell_length_c   13.36092300
_cell_angle_alpha   90.00003492
_cell_angle_beta   90.00002126
_cell_angle_gamma   89.99999112
_symmetry_Int_Tables_number   1
_chemical_formula_structural   Zr3Ga3Ru5Au
_chemical_formula_sum   'Zr6 Ga6 Ru10 Au2'
_cell_volume   389.15727467
_cell_formula_units_Z   2
loop_
 _symmetry_equiv_pos_site_id
 _symmetry_equiv_pos_as_xyz
  1  'x, y, z'
loop_
 _atom_site_type_symbol
 _atom_site_label
 _atom_site_symmetry_multiplicity
 _atom_site_fract_x
 _atom_site_fract_y
 _atom_site_fract_z
 _atom_site_occupancy
  Zr  Zr0  1  0.000000  0.500000  0.000000  1
  Zr  Zr1  1  0.500000  0.999989  0.178746  1
  Zr  Zr2  1  0.999999  0.499999  0.336394  1
  Zr  Zr3  1  0.500001  0.000000  0.500000  1
  Zr  Zr4  1  0.000001  0.500001  0.663606  1
  Zr  Zr5  1  0.500002  0.000011  0.821254  1
  Ga  Ga6  1  0.000000  0.000000  0.000000  1
  Ga  Ga7  1  0.499999  0.500009  0.178433  1
  Ga  Ga8  1  0.000000  0.000001  0.336593  1
  Ga  Ga9  1  0.500001  0.500000  0.500000  1
  Ga  Ga10  1  0.000000  0.999999  0.663407  1
  Ga  Ga11  1  0.500000  0.499991  0.821566  1
  Ru  Ru12  1  0.999999  0.249295  0.163705  1
  Ru  Ru13  1  0.999999  0.750698  0.163708  1
  Ru  Ru14  1  0.499998  0.251245  0.333717  1
  Ru  Ru15  1  0.499998  0.748747  0.333712  1
  Ru  Ru16  1  0.000000  0.249336  0.499998  1
  Ru  Ru17  1  0.000000  0.750664  0.500002  1
  Ru  Ru18  1  0.500001  0.251253  0.666288  1
  Ru  Ru19  1  0.500001  0.748755  0.666283  1
  Ru  Ru20  1  0.000001  0.249302  0.836292  1
  Ru  Ru21  1  0.000001  0.750705  0.836295  1
  Au  Au22  1  0.500001  0.247778  0.000010  1
  Au  Au23  1  0.500001  0.752222  0.999990  1
