# generated using pymatgen
data_YbNd(AgO2)4
_symmetry_space_group_name_H-M   'P 1'
_cell_length_a   6.68682837
_cell_length_b   6.68682868
_cell_length_c   6.68682900
_cell_angle_alpha   126.15812334
_cell_angle_beta   126.15812531
_cell_angle_gamma   79.62840424
_symmetry_Int_Tables_number   1
_chemical_formula_structural   YbNd(AgO2)4
_chemical_formula_sum   'Yb1 Nd1 Ag4 O8'
_cell_volume   188.31702649
_cell_formula_units_Z   1
loop_
 _symmetry_equiv_pos_site_id
 _symmetry_equiv_pos_as_xyz
  1  'x, y, z'
loop_
 _atom_site_type_symbol
 _atom_site_label
 _atom_site_symmetry_multiplicity
 _atom_site_fract_x
 _atom_site_fract_y
 _atom_site_fract_z
 _atom_site_occupancy
  Yb  Yb0  1  0.750000  0.250000  0.500000  1
  Nd  Nd1  1  0.000000  0.000000  0.000000  1
  Ag  Ag2  1  0.375449  0.126396  0.753417  1
  Ag  Ag3  1  0.372978  0.622030  0.246583  1
  Ag  Ag4  1  0.873604  0.627022  0.249053  1
  Ag  Ag5  1  0.377970  0.624551  0.750947  1
  O  O6  1  0.040933  0.002322  0.649832  1
  O  O7  1  0.608899  0.959067  0.961389  1
  O  O8  1  0.997678  0.647510  0.038611  1
  O  O9  1  0.401554  0.855291  0.149717  1
  O  O10  1  0.748163  0.598446  0.453736  1
  O  O11  1  0.144709  0.294426  0.546264  1
  O  O12  1  0.352490  0.391101  0.350168  1
  O  O13  1  0.705574  0.251837  0.850283  1
