# generated using pymatgen
data_DyHo15In6FePt
_symmetry_space_group_name_H-M   'P 1'
_cell_length_a   10.36745000
_cell_length_b   10.36974538
_cell_length_c   6.99181601
_cell_angle_alpha   90.00707215
_cell_angle_beta   89.99932697
_cell_angle_gamma   119.99553289
_symmetry_Int_Tables_number   1
_chemical_formula_structural   DyHo15In6FePt
_chemical_formula_sum   'Dy1 Ho15 In6 Fe1 Pt1'
_cell_volume   650.99883108
_cell_formula_units_Z   1
loop_
 _symmetry_equiv_pos_site_id
 _symmetry_equiv_pos_as_xyz
  1  'x, y, z'
loop_
 _atom_site_type_symbol
 _atom_site_label
 _atom_site_symmetry_multiplicity
 _atom_site_fract_x
 _atom_site_fract_y
 _atom_site_fract_z
 _atom_site_occupancy
  Dy  Dy0  1  0.530148  0.060292  0.507598  1
  Ho  Ho1  1  0.939520  0.469763  0.507725  1
  Ho  Ho2  1  0.530243  0.469767  0.507719  1
  Ho  Ho3  1  0.463575  0.927144  0.005127  1
  Ho  Ho4  1  0.072621  0.536284  0.005189  1
  Ho  Ho5  1  0.463673  0.536278  0.005204  1
  Ho  Ho6  1  0.178038  0.356069  0.715554  1
  Ho  Ho7  1  0.644056  0.821810  0.715734  1
  Ho  Ho8  1  0.177764  0.821811  0.715737  1
  Ho  Ho9  1  0.824886  0.649781  0.212815  1
  Ho  Ho10  1  0.350220  0.175212  0.212640  1
  Ho  Ho11  1  0.824989  0.175207  0.212638  1
  Ho  Ho12  1  0.666762  0.333527  0.882742  1
  Ho  Ho13  1  0.333217  0.666422  0.394318  1
  Ho  Ho14  1  0.999983  0.999962  0.492035  1
  Ho  Ho15  1  0.000012  0.000029  0.992047  1
  In  In16  1  0.837161  0.674326  0.750912  1
  In  In17  1  0.325598  0.162890  0.751028  1
  In  In18  1  0.837285  0.162901  0.750973  1
  In  In19  1  0.163094  0.326184  0.252482  1
  In  In20  1  0.673755  0.836872  0.252416  1
  In  In21  1  0.163111  0.836875  0.252387  1
  Fe  Fe22  1  0.333348  0.666702  0.781074  1
  Pt  Pt23  1  0.666941  0.333894  0.281945  1
