# generated using pymatgen
data_Ce8Al5Zn3Ir5Ru3
_symmetry_space_group_name_H-M   'P 1'
_cell_length_a   4.10109300
_cell_length_b   7.19232998
_cell_length_c   15.99045709
_cell_angle_alpha   89.89256059
_cell_angle_beta   90.00000000
_cell_angle_gamma   90.00000000
_symmetry_Int_Tables_number   1
_chemical_formula_structural   Ce8Al5Zn3Ir5Ru3
_chemical_formula_sum   'Ce8 Al5 Zn3 Ir5 Ru3'
_cell_volume   471.66031550
_cell_formula_units_Z   1
loop_
 _symmetry_equiv_pos_site_id
 _symmetry_equiv_pos_as_xyz
  1  'x, y, z'
loop_
 _atom_site_type_symbol
 _atom_site_label
 _atom_site_symmetry_multiplicity
 _atom_site_fract_x
 _atom_site_fract_y
 _atom_site_fract_z
 _atom_site_occupancy
  Ce  Ce0  1  0.750000  0.957163  0.220431  1
  Ce  Ce1  1  0.250000  0.170990  0.563768  1
  Ce  Ce2  1  0.750000  0.833912  0.443873  1
  Ce  Ce3  1  0.750000  0.453249  0.279061  1
  Ce  Ce4  1  0.750000  0.330087  0.061028  1
  Ce  Ce5  1  0.250000  0.664383  0.938026  1
  Ce  Ce6  1  0.250000  0.050057  0.782636  1
  Ce  Ce7  1  0.250000  0.546259  0.714889  1
  Al  Al8  1  0.750000  0.869637  0.650173  1
  Al  Al9  1  0.250000  0.496227  0.436919  1
  Al  Al10  1  0.250000  0.993051  0.062475  1
  Al  Al11  1  0.250000  0.630204  0.150693  1
  Al  Al12  1  0.250000  0.127554  0.350472  1
  Zn  Zn13  1  0.750000  0.499220  0.561557  1
  Zn  Zn14  1  0.750000  0.374931  0.848257  1
  Zn  Zn15  1  0.750000  0.998464  0.937936  1
  Ir  Ir16  1  0.750000  0.757226  0.809118  1
  Ir  Ir17  1  0.250000  0.243832  0.939649  1
  Ir  Ir18  1  0.750000  0.258731  0.430835  1
  Ir  Ir19  1  0.250000  0.751630  0.316145  1
  Ir  Ir20  1  0.750000  0.759050  0.069353  1
  Ru  Ru21  1  0.750000  0.235663  0.683600  1
  Ru  Ru22  1  0.250000  0.253011  0.182299  1
  Ru  Ru23  1  0.250000  0.745475  0.566806  1
