# generated using pymatgen
data_SrAcMnN3
_symmetry_space_group_name_H-M   'P 1'
_cell_length_a   6.34796263
_cell_length_b   6.34796345
_cell_length_c   12.34686700
_cell_angle_alpha   90.00000000
_cell_angle_beta   90.00000000
_cell_angle_gamma   127.33101405
_symmetry_Int_Tables_number   1
_chemical_formula_structural   SrAcMnN3
_chemical_formula_sum   'Sr4 Ac4 Mn4 N12'
_cell_volume   395.61438021
_cell_formula_units_Z   4
loop_
 _symmetry_equiv_pos_site_id
 _symmetry_equiv_pos_as_xyz
  1  'x, y, z'
loop_
 _atom_site_type_symbol
 _atom_site_label
 _atom_site_symmetry_multiplicity
 _atom_site_fract_x
 _atom_site_fract_y
 _atom_site_fract_z
 _atom_site_occupancy
  Sr  Sr0  1  0.441408  0.558592  0.356344  1
  Sr  Sr1  1  0.558592  0.441408  0.643656  1
  Sr  Sr2  1  0.058592  0.941408  0.856344  1
  Sr  Sr3  1  0.941408  0.058592  0.143656  1
  Ac  Ac4  1  0.143767  0.856233  0.420614  1
  Ac  Ac5  1  0.856233  0.143767  0.579386  1
  Ac  Ac6  1  0.356233  0.643767  0.920614  1
  Ac  Ac7  1  0.643767  0.356233  0.079386  1
  Mn  Mn8  1  0.265368  0.734632  0.164383  1
  Mn  Mn9  1  0.734632  0.265368  0.835617  1
  Mn  Mn10  1  0.234632  0.765368  0.664383  1
  Mn  Mn11  1  0.765368  0.234632  0.335617  1
  N  N12  1  0.165436  0.834564  0.047340  1
  N  N13  1  0.834564  0.165436  0.952660  1
  N  N14  1  0.334564  0.665436  0.547340  1
  N  N15  1  0.665436  0.334564  0.452660  1
  N  N16  1  0.424090  0.575910  0.128131  1
  N  N17  1  0.575910  0.424090  0.871869  1
  N  N18  1  0.075910  0.924090  0.628131  1
  N  N19  1  0.924090  0.075910  0.371869  1
  N  N20  1  0.992027  0.507973  0.250000  1
  N  N21  1  0.507973  0.992027  0.750000  1
  N  N22  1  0.007973  0.492027  0.750000  1
  N  N23  1  0.492027  0.007973  0.250000  1
