# generated using pymatgen
data_Lu3Ga(Ni6B)2
_symmetry_space_group_name_H-M   'P 1'
_cell_length_a   4.92890800
_cell_length_b   4.89014276
_cell_length_c   10.96771900
_cell_angle_alpha   90.00000000
_cell_angle_beta   90.00000000
_cell_angle_gamma   120.26257864
_symmetry_Int_Tables_number   1
_chemical_formula_structural   Lu3Ga(Ni6B)2
_chemical_formula_sum   'Lu3 Ga1 Ni12 B2'
_cell_volume   228.33053691
_cell_formula_units_Z   1
loop_
 _symmetry_equiv_pos_site_id
 _symmetry_equiv_pos_as_xyz
  1  'x, y, z'
loop_
 _atom_site_type_symbol
 _atom_site_label
 _atom_site_symmetry_multiplicity
 _atom_site_fract_x
 _atom_site_fract_y
 _atom_site_fract_z
 _atom_site_occupancy
  Lu  Lu0  1  0.000000  0.000000  0.000000  1
  Lu  Lu1  1  0.000000  0.000000  0.317955  1
  Lu  Lu2  1  0.000000  0.000000  0.682045  1
  Ga  Ga3  1  0.500000  0.000000  0.500000  1
  Ni  Ni4  1  0.500000  0.500000  0.500000  1
  Ni  Ni5  1  0.000000  0.500000  0.500000  1
  Ni  Ni6  1  0.333922  0.667844  0.317086  1
  Ni  Ni7  1  0.666078  0.332156  0.317086  1
  Ni  Ni8  1  0.666078  0.332156  0.682914  1
  Ni  Ni9  1  0.333922  0.667844  0.682914  1
  Ni  Ni10  1  0.500000  0.000000  0.131410  1
  Ni  Ni11  1  0.500000  0.500000  0.132930  1
  Ni  Ni12  1  0.000000  0.500000  0.132930  1
  Ni  Ni13  1  0.500000  0.000000  0.868590  1
  Ni  Ni14  1  0.500000  0.500000  0.867070  1
  Ni  Ni15  1  0.000000  0.500000  0.867070  1
  B  B16  1  0.332008  0.664017  0.000000  1
  B  B17  1  0.667992  0.335983  0.000000  1
