# generated using pymatgen
data_Tm2Si7(NiRu)6
_symmetry_space_group_name_H-M   'P 1'
_cell_length_a   9.41880000
_cell_length_b   9.41879994
_cell_length_c   3.72542200
_cell_angle_alpha   90.00000000
_cell_angle_beta   90.00000000
_cell_angle_gamma   120.00000631
_symmetry_Int_Tables_number   1
_chemical_formula_structural   Tm2Si7(NiRu)6
_chemical_formula_sum   'Tm2 Si7 Ni6 Ru6'
_cell_volume   286.21818695
_cell_formula_units_Z   1
loop_
 _symmetry_equiv_pos_site_id
 _symmetry_equiv_pos_as_xyz
  1  'x, y, z'
loop_
 _atom_site_type_symbol
 _atom_site_label
 _atom_site_symmetry_multiplicity
 _atom_site_fract_x
 _atom_site_fract_y
 _atom_site_fract_z
 _atom_site_occupancy
  Tm  Tm0  1  0.666667  0.333333  0.500000  1
  Tm  Tm1  1  0.333333  0.666667  0.000000  1
  Si  Si2  1  0.000000  0.000000  0.000000  1
  Si  Si3  1  0.401015  0.286561  0.000000  1
  Si  Si4  1  0.885546  0.598985  0.000000  1
  Si  Si5  1  0.713439  0.114454  0.000000  1
  Si  Si6  1  0.115797  0.401149  0.500000  1
  Si  Si7  1  0.285352  0.884203  0.500000  1
  Si  Si8  1  0.598851  0.714648  0.500000  1
  Ni  Ni9  1  0.433175  0.061033  0.000000  1
  Ni  Ni10  1  0.627859  0.566825  0.000000  1
  Ni  Ni11  1  0.938967  0.372141  0.000000  1
  Ni  Ni12  1  0.154739  0.278843  0.000000  1
  Ni  Ni13  1  0.124103  0.845261  0.000000  1
  Ni  Ni14  1  0.721157  0.875897  0.000000  1
  Ru  Ru15  1  0.389107  0.437235  0.500000  1
  Ru  Ru16  1  0.048128  0.610893  0.500000  1
  Ru  Ru17  1  0.562765  0.951872  0.500000  1
  Ru  Ru18  1  0.214757  0.094824  0.500000  1
  Ru  Ru19  1  0.880067  0.785243  0.500000  1
  Ru  Ru20  1  0.905176  0.119933  0.500000  1
