# generated using pymatgen
data_TbErMn3Ni9P7
_symmetry_space_group_name_H-M   'P 1'
_cell_length_a   9.09994300
_cell_length_b   9.09994341
_cell_length_c   3.65970800
_cell_angle_alpha   90.00000000
_cell_angle_beta   90.00000000
_cell_angle_gamma   120.00000213
_symmetry_Int_Tables_number   1
_chemical_formula_structural   TbErMn3Ni9P7
_chemical_formula_sum   'Tb1 Er1 Mn3 Ni9 P7'
_cell_volume   262.45474052
_cell_formula_units_Z   1
loop_
 _symmetry_equiv_pos_site_id
 _symmetry_equiv_pos_as_xyz
  1  'x, y, z'
loop_
 _atom_site_type_symbol
 _atom_site_label
 _atom_site_symmetry_multiplicity
 _atom_site_fract_x
 _atom_site_fract_y
 _atom_site_fract_z
 _atom_site_occupancy
  Tb  Tb0  1  0.333333  0.666667  0.000000  1
  Er  Er1  1  0.000000  0.000000  0.500000  1
  Mn  Mn2  1  0.789080  0.234930  0.500000  1
  Mn  Mn3  1  0.765070  0.554150  0.500000  1
  Mn  Mn4  1  0.445850  0.210920  0.500000  1
  Ni  Ni5  1  0.039155  0.270750  0.000000  1
  Ni  Ni6  1  0.729250  0.768405  0.000000  1
  Ni  Ni7  1  0.231595  0.960845  0.000000  1
  Ni  Ni8  1  0.542953  0.056319  0.000000  1
  Ni  Ni9  1  0.943681  0.486635  0.000000  1
  Ni  Ni10  1  0.513365  0.457047  0.000000  1
  Ni  Ni11  1  0.615277  0.899292  0.500000  1
  Ni  Ni12  1  0.100708  0.715986  0.500000  1
  Ni  Ni13  1  0.284014  0.384723  0.500000  1
  P  P14  1  0.780262  0.038826  0.000000  1
  P  P15  1  0.961174  0.741437  0.000000  1
  P  P16  1  0.258563  0.219738  0.000000  1
  P  P17  1  0.373579  0.928166  0.500000  1
  P  P18  1  0.071834  0.445414  0.500000  1
  P  P19  1  0.554586  0.626421  0.500000  1
  P  P20  1  0.666667  0.333333  0.000000  1
