# generated using pymatgen
data_La3(SiIr)2
_symmetry_space_group_name_H-M   'P 1'
_cell_length_a   5.91074845
_cell_length_b   5.91074813
_cell_length_c   13.61781600
_cell_angle_alpha   90.00000000
_cell_angle_beta   90.00000000
_cell_angle_gamma   138.50777607
_symmetry_Int_Tables_number   1
_chemical_formula_structural   La3(SiIr)2
_chemical_formula_sum   'La6 Si4 Ir4'
_cell_volume   315.20299329
_cell_formula_units_Z   2
loop_
 _symmetry_equiv_pos_site_id
 _symmetry_equiv_pos_as_xyz
  1  'x, y, z'
loop_
 _atom_site_type_symbol
 _atom_site_label
 _atom_site_symmetry_multiplicity
 _atom_site_fract_x
 _atom_site_fract_y
 _atom_site_fract_z
 _atom_site_occupancy
  La  La0  1  0.771227  0.228773  0.603654  1
  La  La1  1  0.517098  0.482902  0.250000  1
  La  La2  1  0.228773  0.771227  0.396346  1
  La  La3  1  0.771227  0.228773  0.896346  1
  La  La4  1  0.482902  0.517098  0.750000  1
  La  La5  1  0.228773  0.771227  0.103654  1
  Si  Si6  1  0.059939  0.940061  0.586367  1
  Si  Si7  1  0.059939  0.940061  0.913633  1
  Si  Si8  1  0.940061  0.059939  0.413633  1
  Si  Si9  1  0.940061  0.059939  0.086367  1
  Ir  Ir10  1  0.817896  0.182104  0.250000  1
  Ir  Ir11  1  0.182104  0.817896  0.750000  1
  Ir  Ir12  1  0.500000  0.500000  0.000000  1
  Ir  Ir13  1  0.500000  0.500000  0.500000  1
