# generated using pymatgen
data_Dy4Th(B3Os)2
_symmetry_space_group_name_H-M   'P 1'
_cell_length_a   5.51218651
_cell_length_b   5.51218675
_cell_length_c   8.50728466
_cell_angle_alpha   71.09690745
_cell_angle_beta   71.09690876
_cell_angle_gamma   59.99998928
_symmetry_Int_Tables_number   1
_chemical_formula_structural   Dy4Th(B3Os)2
_chemical_formula_sum   'Dy4 Th1 B6 Os2'
_cell_volume   207.60297009
_cell_formula_units_Z   1
loop_
 _symmetry_equiv_pos_site_id
 _symmetry_equiv_pos_as_xyz
  1  'x, y, z'
loop_
 _atom_site_type_symbol
 _atom_site_label
 _atom_site_symmetry_multiplicity
 _atom_site_fract_x
 _atom_site_fract_y
 _atom_site_fract_z
 _atom_site_occupancy
  Dy  Dy0  1  0.249297  0.249297  0.252108  1
  Dy  Dy1  1  0.750703  0.750703  0.747892  1
  Dy  Dy2  1  0.417447  0.417447  0.747661  1
  Dy  Dy3  1  0.582553  0.582553  0.252339  1
  Th  Th4  1  0.000000  0.000000  0.000000  1
  B  B5  1  0.174449  0.825551  0.500000  1
  B  B6  1  0.825551  0.500000  0.500000  1
  B  B7  1  0.500000  0.174449  0.500000  1
  B  B8  1  0.174449  0.500000  0.500000  1
  B  B9  1  0.500000  0.825551  0.500000  1
  B  B10  1  0.825551  0.174449  0.500000  1
  Os  Os11  1  0.111661  0.111661  0.665017  1
  Os  Os12  1  0.888339  0.888339  0.334983  1
