# generated using pymatgen
data_Pr8Lu12GaSi15
_symmetry_space_group_name_H-M   'P 1'
_cell_length_a   7.43382251
_cell_length_b   7.73398695
_cell_length_c   14.66644537
_cell_angle_alpha   89.95599774
_cell_angle_beta   89.97725472
_cell_angle_gamma   90.03582163
_symmetry_Int_Tables_number   1
_chemical_formula_structural   Pr8Lu12GaSi15
_chemical_formula_sum   'Pr8 Lu12 Ga1 Si15'
_cell_volume   843.21872885
_cell_formula_units_Z   1
loop_
 _symmetry_equiv_pos_site_id
 _symmetry_equiv_pos_as_xyz
  1  'x, y, z'
loop_
 _atom_site_type_symbol
 _atom_site_label
 _atom_site_symmetry_multiplicity
 _atom_site_fract_x
 _atom_site_fract_y
 _atom_site_fract_z
 _atom_site_occupancy
  Pr  Pr0  1  0.013717  0.173230  0.400376  1
  Pr  Pr1  1  0.515987  0.323826  0.400047  1
  Pr  Pr2  1  0.484394  0.675362  0.902188  1
  Pr  Pr3  1  0.486377  0.678947  0.599090  1
  Pr  Pr4  1  0.984609  0.826478  0.599164  1
  Pr  Pr5  1  0.984956  0.825891  0.902495  1
  Pr  Pr6  1  0.514959  0.324582  0.097946  1
  Pr  Pr7  1  0.014666  0.174698  0.098347  1
  Lu  Lu8  1  0.329676  0.174288  0.624880  1
  Lu  Lu9  1  0.671150  0.823302  0.375804  1
  Lu  Lu10  1  0.661137  0.993369  0.750443  1
  Lu  Lu11  1  0.172738  0.677735  0.374623  1
  Lu  Lu12  1  0.826775  0.322849  0.876648  1
  Lu  Lu13  1  0.826146  0.323959  0.624005  1
  Lu  Lu14  1  0.839983  0.493867  0.249856  1
  Lu  Lu15  1  0.339951  0.005566  0.249056  1
  Lu  Lu16  1  0.327093  0.176051  0.876728  1
  Lu  Lu17  1  0.171865  0.676608  0.124069  1
  Lu  Lu18  1  0.672837  0.823359  0.123510  1
  Lu  Lu19  1  0.160407  0.505985  0.751767  1
  Ga  Ga20  1  0.155995  0.462670  0.538539  1
  Si  Si21  1  0.281848  0.878782  0.750856  1
  Si  Si22  1  0.467464  0.619119  0.249616  1
  Si  Si23  1  0.033712  0.120293  0.751056  1
  Si  Si24  1  0.532775  0.381885  0.750009  1
  Si  Si25  1  0.965859  0.880826  0.249627  1
  Si  Si26  1  0.716973  0.121210  0.249118  1
  Si  Si27  1  0.848133  0.533958  0.039053  1
  Si  Si28  1  0.347461  0.965721  0.039736  1
  Si  Si29  1  0.151412  0.465571  0.961446  1
  Si  Si30  1  0.652398  0.035397  0.538824  1
  Si  Si31  1  0.347557  0.965887  0.459953  1
  Si  Si32  1  0.847500  0.535782  0.460128  1
  Si  Si33  1  0.782527  0.621204  0.751155  1
  Si  Si34  1  0.217243  0.377875  0.249300  1
  Si  Si35  1  0.651720  0.033866  0.960545  1
