# generated using pymatgen
data_Er4Tl2Cu4S9
_symmetry_space_group_name_H-M   'P 1'
_cell_length_a   3.93893196
_cell_length_b   7.18517337
_cell_length_c   15.16168300
_cell_angle_alpha   93.99514502
_cell_angle_beta   97.46367786
_cell_angle_gamma   105.90846884
_symmetry_Int_Tables_number   1
_chemical_formula_structural   Er4Tl2Cu4S9
_chemical_formula_sum   'Er4 Tl2 Cu4 S9'
_cell_volume   406.67241360
_cell_formula_units_Z   1
loop_
 _symmetry_equiv_pos_site_id
 _symmetry_equiv_pos_as_xyz
  1  'x, y, z'
loop_
 _atom_site_type_symbol
 _atom_site_label
 _atom_site_symmetry_multiplicity
 _atom_site_fract_x
 _atom_site_fract_y
 _atom_site_fract_z
 _atom_site_occupancy
  Er  Er0  1  0.400941  0.747268  0.054380  1
  Er  Er1  1  0.627950  0.860026  0.396102  1
  Er  Er2  1  0.372049  0.139976  0.603896  1
  Er  Er3  1  0.599068  0.252731  0.945617  1
  Tl  Tl4  1  0.257339  0.285636  0.229102  1
  Tl  Tl5  1  0.742659  0.714370  0.770901  1
  Cu  Cu6  1  0.980459  0.731116  0.229663  1
  Cu  Cu7  1  0.890468  0.321270  0.459924  1
  Cu  Cu8  1  0.109519  0.678719  0.540086  1
  Cu  Cu9  1  0.019543  0.268877  0.770344  1
  S  S10  1  0.999999  0.999998  0.999997  1
  S  S11  1  0.804175  0.509482  0.099652  1
  S  S12  1  0.568697  0.913936  0.222805  1
  S  S13  1  0.984588  0.593381  0.375912  1
  S  S14  1  0.284689  0.144838  0.424234  1
  S  S15  1  0.715316  0.855166  0.575761  1
  S  S16  1  0.015402  0.406613  0.624086  1
  S  S17  1  0.431312  0.086074  0.777194  1
  S  S18  1  0.195829  0.490520  0.900347  1
