# generated using pymatgen
data_Sc4OsI4
_symmetry_space_group_name_H-M   'P 1'
_cell_length_a   11.38856563
_cell_length_b   11.38856708
_cell_length_c   5.75677800
_cell_angle_alpha   90.00405339
_cell_angle_beta   90.00405428
_cell_angle_gamma   89.91827646
_symmetry_Int_Tables_number   1
_chemical_formula_structural   Sc4OsI4
_chemical_formula_sum   'Sc8 Os2 I8'
_cell_volume   746.65014071
_cell_formula_units_Z   2
loop_
 _symmetry_equiv_pos_site_id
 _symmetry_equiv_pos_as_xyz
  1  'x, y, z'
loop_
 _atom_site_type_symbol
 _atom_site_label
 _atom_site_symmetry_multiplicity
 _atom_site_fract_x
 _atom_site_fract_y
 _atom_site_fract_z
 _atom_site_occupancy
  Sc  Sc0  1  0.814445  0.076084  0.999642  1
  Sc  Sc1  1  0.076084  0.814445  0.499642  1
  Sc  Sc2  1  0.075764  0.185498  0.999937  1
  Sc  Sc3  1  0.185498  0.075764  0.499937  1
  Sc  Sc4  1  0.924236  0.814502  0.000063  1
  Sc  Sc5  1  0.923916  0.185555  0.500358  1
  Sc  Sc6  1  0.185555  0.923916  0.000358  1
  Sc  Sc7  1  0.814502  0.924236  0.500063  1
  Os  Os8  1  0.999926  0.000074  0.250000  1
  Os  Os9  1  0.000074  0.999926  0.750000  1
  I  I10  1  0.663055  0.142061  0.503598  1
  I  I11  1  0.858497  0.663342  0.500774  1
  I  I12  1  0.336658  0.141503  0.999226  1
  I  I13  1  0.141503  0.336658  0.499226  1
  I  I14  1  0.663342  0.858497  0.000774  1
  I  I15  1  0.336945  0.857939  0.496402  1
  I  I16  1  0.142061  0.663055  0.003598  1
  I  I17  1  0.857939  0.336945  0.996402  1
