# generated using pymatgen
data_Sr20LiCd3Ag8
_symmetry_space_group_name_H-M   'P 1'
_cell_length_a   8.76961200
_cell_length_b   8.76961200
_cell_length_c   15.92252700
_cell_angle_alpha   90.00000000
_cell_angle_beta   90.00000000
_cell_angle_gamma   90.00000000
_symmetry_Int_Tables_number   1
_chemical_formula_structural   Sr20LiCd3Ag8
_chemical_formula_sum   'Sr20 Li1 Cd3 Ag8'
_cell_volume   1224.53936822
_cell_formula_units_Z   1
loop_
 _symmetry_equiv_pos_site_id
 _symmetry_equiv_pos_as_xyz
  1  'x, y, z'
loop_
 _atom_site_type_symbol
 _atom_site_label
 _atom_site_symmetry_multiplicity
 _atom_site_fract_x
 _atom_site_fract_y
 _atom_site_fract_z
 _atom_site_occupancy
  Sr  Sr0  1  0.663827  0.170040  0.110450  1
  Sr  Sr1  1  0.168849  0.665931  0.608970  1
  Sr  Sr2  1  0.336173  0.829960  0.110450  1
  Sr  Sr3  1  0.831151  0.334069  0.608970  1
  Sr  Sr4  1  0.829960  0.663827  0.110450  1
  Sr  Sr5  1  0.334069  0.168849  0.608970  1
  Sr  Sr6  1  0.170040  0.336173  0.110450  1
  Sr  Sr7  1  0.665931  0.831151  0.608970  1
  Sr  Sr8  1  0.829960  0.336173  0.889550  1
  Sr  Sr9  1  0.334069  0.831151  0.391030  1
  Sr  Sr10  1  0.170040  0.663827  0.889550  1
  Sr  Sr11  1  0.665931  0.168849  0.391030  1
  Sr  Sr12  1  0.663827  0.829960  0.889550  1
  Sr  Sr13  1  0.168849  0.334069  0.391030  1
  Sr  Sr14  1  0.336173  0.170040  0.889550  1
  Sr  Sr15  1  0.831151  0.665931  0.391030  1
  Sr  Sr16  1  0.500000  0.500000  0.749366  1
  Sr  Sr17  1  0.000000  0.000000  0.252637  1
  Sr  Sr18  1  0.000000  0.000000  0.747363  1
  Sr  Sr19  1  0.500000  0.500000  0.250634  1
  Li  Li20  1  0.000000  0.000000  0.000000  1
  Cd  Cd21  1  0.500000  0.500000  0.500000  1
  Cd  Cd22  1  0.500000  0.500000  0.000000  1
  Cd  Cd23  1  0.000000  0.000000  0.500000  1
  Ag  Ag24  1  0.622825  0.120654  0.749862  1
  Ag  Ag25  1  0.120654  0.622825  0.250138  1
  Ag  Ag26  1  0.879346  0.377175  0.250138  1
  Ag  Ag27  1  0.377175  0.879346  0.749862  1
  Ag  Ag28  1  0.879346  0.622825  0.749862  1
  Ag  Ag29  1  0.377175  0.120654  0.250138  1
  Ag  Ag30  1  0.120654  0.377175  0.749862  1
  Ag  Ag31  1  0.622825  0.879346  0.250138  1
