# generated using pymatgen
data_Y3TaPt12
_symmetry_space_group_name_H-M   'P 1'
_cell_length_a   5.79534700
_cell_length_b   5.79534648
_cell_length_c   8.17258200
_cell_angle_alpha   90.00000000
_cell_angle_beta   90.00000000
_cell_angle_gamma   89.99157667
_symmetry_Int_Tables_number   1
_chemical_formula_structural   Y3TaPt12
_chemical_formula_sum   'Y3 Ta1 Pt12'
_cell_volume   274.48469453
_cell_formula_units_Z   1
loop_
 _symmetry_equiv_pos_site_id
 _symmetry_equiv_pos_as_xyz
  1  'x, y, z'
loop_
 _atom_site_type_symbol
 _atom_site_label
 _atom_site_symmetry_multiplicity
 _atom_site_fract_x
 _atom_site_fract_y
 _atom_site_fract_z
 _atom_site_occupancy
  Y  Y0  1  0.500000  0.000000  0.250000  1
  Y  Y1  1  0.000000  0.500000  0.250032  1
  Y  Y2  1  0.500000  0.000000  0.749983  1
  Ta  Ta3  1  0.000000  0.500000  0.750030  1
  Pt  Pt4  1  0.244484  0.255516  0.991917  1
  Pt  Pt5  1  0.755283  0.255283  0.508032  1
  Pt  Pt6  1  0.756327  0.256327  0.991406  1
  Pt  Pt7  1  0.755516  0.744484  0.991917  1
  Pt  Pt8  1  0.500000  0.500000  0.750024  1
  Pt  Pt9  1  0.243456  0.256544  0.508661  1
  Pt  Pt10  1  0.756544  0.743456  0.508661  1
  Pt  Pt11  1  0.244717  0.744717  0.508032  1
  Pt  Pt12  1  0.500000  0.500000  0.249938  1
  Pt  Pt13  1  0.000000  0.000000  0.750024  1
  Pt  Pt14  1  0.000000  0.000000  0.249938  1
  Pt  Pt15  1  0.243673  0.743673  0.991406  1
