# generated using pymatgen
data_Hf6Fe5Si12Pt
_symmetry_space_group_name_H-M   'P 1'
_cell_length_a   9.74790185
_cell_length_b   9.74790191
_cell_length_c   9.74790162
_cell_angle_alpha   149.00938038
_cell_angle_beta   133.21904500
_cell_angle_gamma   57.17731700
_symmetry_Int_Tables_number   1
_chemical_formula_structural   Hf6Fe5Si12Pt
_chemical_formula_sum   'Hf6 Fe5 Si12 Pt1'
_cell_volume   345.05030690
_cell_formula_units_Z   1
loop_
 _symmetry_equiv_pos_site_id
 _symmetry_equiv_pos_as_xyz
  1  'x, y, z'
loop_
 _atom_site_type_symbol
 _atom_site_label
 _atom_site_symmetry_multiplicity
 _atom_site_fract_x
 _atom_site_fract_y
 _atom_site_fract_z
 _atom_site_occupancy
  Hf  Hf0  1  0.855123  0.596305  0.258819  1
  Hf  Hf1  1  0.144402  0.402519  0.741882  1
  Hf  Hf2  1  0.662514  0.403695  0.258819  1
  Hf  Hf3  1  0.339363  0.597481  0.741882  1
  Hf  Hf4  1  0.143843  0.141633  0.002210  1
  Hf  Hf5  1  0.860577  0.858367  0.002210  1
  Fe  Fe6  1  0.001701  0.000078  0.499500  1
  Fe  Fe7  1  0.499422  0.497800  0.499500  1
  Fe  Fe8  1  0.499422  0.999922  0.001623  1
  Fe  Fe9  1  0.253982  0.000000  0.253982  1
  Fe  Fe10  1  0.001701  0.502200  0.001623  1
  Si  Si11  1  0.488755  0.138382  0.350373  1
  Si  Si12  1  0.504269  0.853648  0.650621  1
  Si  Si13  1  0.211990  0.861618  0.350373  1
  Si  Si14  1  0.796973  0.146352  0.650621  1
  Si  Si15  1  0.704694  0.703463  0.001231  1
  Si  Si16  1  0.297769  0.296537  0.001231  1
  Si  Si17  1  0.486943  0.726445  0.213387  1
  Si  Si18  1  0.486943  0.273555  0.760498  1
  Si  Si19  1  0.009222  0.266883  0.276105  1
  Si  Si20  1  0.213056  0.713770  0.499287  1
  Si  Si21  1  0.009222  0.733117  0.742340  1
  Si  Si22  1  0.785517  0.286230  0.499287  1
  Pt  Pt23  1  0.742596  0.000000  0.742596  1
