# generated using pymatgen
data_Ce4Ir2PdPtPb2
_symmetry_space_group_name_H-M   'P 1'
_cell_length_a   7.93917954
_cell_length_b   7.93918006
_cell_length_c   3.69551600
_cell_angle_alpha   90.00000000
_cell_angle_beta   90.00000000
_cell_angle_gamma   89.49686296
_symmetry_Int_Tables_number   1
_chemical_formula_structural   Ce4Ir2PdPtPb2
_chemical_formula_sum   'Ce4 Ir2 Pd1 Pt1 Pb2'
_cell_volume   232.92152074
_cell_formula_units_Z   1
loop_
 _symmetry_equiv_pos_site_id
 _symmetry_equiv_pos_as_xyz
  1  'x, y, z'
loop_
 _atom_site_type_symbol
 _atom_site_label
 _atom_site_symmetry_multiplicity
 _atom_site_fract_x
 _atom_site_fract_y
 _atom_site_fract_z
 _atom_site_occupancy
  Ce  Ce0  1  0.659962  0.159962  0.500000  1
  Ce  Ce1  1  0.182835  0.326978  0.500000  1
  Ce  Ce2  1  0.826978  0.682835  0.500000  1
  Ce  Ce3  1  0.332345  0.832345  0.500000  1
  Ir  Ir4  1  0.367507  0.129942  0.000000  1
  Ir  Ir5  1  0.629942  0.867507  0.000000  1
  Pd  Pd6  1  0.868846  0.368846  0.000000  1
  Pt  Pt7  1  0.123823  0.623823  0.000000  1
  Pb  Pb8  1  0.999856  0.007904  0.000000  1
  Pb  Pb9  1  0.507904  0.499856  0.000000  1
