# generated using pymatgen
data_Mg2ZnSnRh4
_symmetry_space_group_name_H-M   'P 1'
_cell_length_a   6.24392500
_cell_length_b   6.24394200
_cell_length_c   6.25367500
_cell_angle_alpha   90.00000000
_cell_angle_beta   89.99994497
_cell_angle_gamma   90.00000000
_symmetry_Int_Tables_number   1
_chemical_formula_structural   Mg2ZnSnRh4
_chemical_formula_sum   'Mg4 Zn2 Sn2 Rh8'
_cell_volume   243.81018585
_cell_formula_units_Z   2
loop_
 _symmetry_equiv_pos_site_id
 _symmetry_equiv_pos_as_xyz
  1  'x, y, z'
loop_
 _atom_site_type_symbol
 _atom_site_label
 _atom_site_symmetry_multiplicity
 _atom_site_fract_x
 _atom_site_fract_y
 _atom_site_fract_z
 _atom_site_occupancy
  Mg  Mg0  1  0.749971  0.250000  0.000001  1
  Mg  Mg1  1  0.250029  0.749999  0.999999  1
  Mg  Mg2  1  0.750018  0.250000  0.499993  1
  Mg  Mg3  1  0.249981  0.749999  0.500008  1
  Zn  Zn4  1  0.249956  0.250000  0.000001  1
  Zn  Zn5  1  0.750045  0.749999  0.999999  1
  Sn  Sn6  1  0.750030  0.749999  0.500011  1
  Sn  Sn7  1  0.249970  0.250000  0.499989  1
  Rh  Rh8  1  0.000003  0.000001  0.245362  1
  Rh  Rh9  1  0.000003  0.500000  0.245362  1
  Rh  Rh10  1  0.499996  0.000000  0.245436  1
  Rh  Rh11  1  0.499996  0.500000  0.245436  1
  Rh  Rh12  1  0.500004  0.000000  0.754564  1
  Rh  Rh13  1  0.500004  0.500000  0.754564  1
  Rh  Rh14  1  0.999997  0.999999  0.754639  1
  Rh  Rh15  1  0.999997  0.500001  0.754639  1
