# generated using pymatgen
data_Ho4MnTc4Os3
_symmetry_space_group_name_H-M   'P 1'
_cell_length_a   5.33831469
_cell_length_b   5.29654603
_cell_length_c   8.97841400
_cell_angle_alpha   90.00000000
_cell_angle_beta   90.00000000
_cell_angle_gamma   121.22164947
_symmetry_Int_Tables_number   1
_chemical_formula_structural   Ho4MnTc4Os3
_chemical_formula_sum   'Ho4 Mn1 Tc4 Os3'
_cell_volume   217.09420194
_cell_formula_units_Z   1
loop_
 _symmetry_equiv_pos_site_id
 _symmetry_equiv_pos_as_xyz
  1  'x, y, z'
loop_
 _atom_site_type_symbol
 _atom_site_label
 _atom_site_symmetry_multiplicity
 _atom_site_fract_x
 _atom_site_fract_y
 _atom_site_fract_z
 _atom_site_occupancy
  Ho  Ho0  1  0.334169  0.667989  0.438156  1
  Ho  Ho1  1  0.666886  0.335629  0.562785  1
  Ho  Ho2  1  0.666886  0.335629  0.937215  1
  Ho  Ho3  1  0.334169  0.667989  0.061844  1
  Mn  Mn4  1  0.170124  0.829744  0.750000  1
  Tc  Tc5  1  0.832565  0.166840  0.250000  1
  Tc  Tc6  1  0.828367  0.656436  0.250000  1
  Tc  Tc7  1  0.339819  0.168848  0.250000  1
  Tc  Tc8  1  0.172959  0.335927  0.750000  1
  Os  Os9  1  0.001334  0.008520  0.505861  1
  Os  Os10  1  0.001334  0.008520  0.994139  1
  Os  Os11  1  0.651393  0.817929  0.750000  1
