# generated using pymatgen
data_Ac6GaSi11
_symmetry_space_group_name_H-M   'P 1'
_cell_length_a   4.50055935
_cell_length_b   4.45344413
_cell_length_c   21.66589067
_cell_angle_alpha   84.10098703
_cell_angle_beta   95.96165394
_cell_angle_gamma   90.00000428
_symmetry_Int_Tables_number   1
_chemical_formula_structural   Ac6GaSi11
_chemical_formula_sum   'Ac6 Ga1 Si11'
_cell_volume   429.58854175
_cell_formula_units_Z   1
loop_
 _symmetry_equiv_pos_site_id
 _symmetry_equiv_pos_as_xyz
  1  'x, y, z'
loop_
 _atom_site_type_symbol
 _atom_site_label
 _atom_site_symmetry_multiplicity
 _atom_site_fract_x
 _atom_site_fract_y
 _atom_site_fract_z
 _atom_site_occupancy
  Ac  Ac0  1  0.376095  0.873905  0.252190  1
  Ac  Ac1  1  0.041537  0.208463  0.583074  1
  Ac  Ac2  1  0.706411  0.543589  0.912825  1
  Ac  Ac3  1  0.292857  0.457143  0.085713  1
  Ac  Ac4  1  0.958683  0.791317  0.417364  1
  Ac  Ac5  1  0.624300  0.125700  0.748600  1
  Ga  Ga6  1  0.763278  0.986722  0.026556  1
  Si  Si7  1  0.903931  0.346069  0.307861  1
  Si  Si8  1  0.569626  0.680374  0.639249  1
  Si  Si9  1  0.235498  0.014502  0.970996  1
  Si  Si10  1  0.430631  0.319369  0.361263  1
  Si  Si11  1  0.096521  0.653479  0.693040  1
  Si  Si12  1  0.848336  0.401664  0.196672  1
  Si  Si13  1  0.513952  0.736048  0.527905  1
  Si  Si14  1  0.179706  0.070294  0.859409  1
  Si  Si15  1  0.820754  0.929246  0.141511  1
  Si  Si16  1  0.486106  0.263894  0.472213  1
  Si  Si17  1  0.151780  0.598220  0.803559  1
