# generated using pymatgen
data_Tb2HoAuO6
_symmetry_space_group_name_H-M   'P 1'
_cell_length_a   3.60997613
_cell_length_b   5.58102350
_cell_length_c   7.12576885
_cell_angle_alpha   89.63150796
_cell_angle_beta   102.37550858
_cell_angle_gamma   91.11203243
_symmetry_Int_Tables_number   1
_chemical_formula_structural   Tb2HoAuO6
_chemical_formula_sum   'Tb2 Ho1 Au1 O6'
_cell_volume   140.20276179
_cell_formula_units_Z   1
loop_
 _symmetry_equiv_pos_site_id
 _symmetry_equiv_pos_as_xyz
  1  'x, y, z'
loop_
 _atom_site_type_symbol
 _atom_site_label
 _atom_site_symmetry_multiplicity
 _atom_site_fract_x
 _atom_site_fract_y
 _atom_site_fract_z
 _atom_site_occupancy
  Tb  Tb0  1  0.609406  0.530487  0.762689  1
  Tb  Tb1  1  0.390594  0.469513  0.237311  1
  Ho  Ho2  1  0.000000  0.000000  0.500000  1
  Au  Au3  1  0.000000  0.000000  0.000000  1
  O  O4  1  0.837054  0.683471  0.107264  1
  O  O5  1  0.162946  0.316529  0.892736  1
  O  O6  1  0.521477  0.254402  0.528700  1
  O  O7  1  0.478523  0.745598  0.471300  1
  O  O8  1  0.123156  0.801367  0.784644  1
  O  O9  1  0.876844  0.198633  0.215356  1
