# generated using pymatgen
data_Sr3Bi(Ir2O7)2
_symmetry_space_group_name_H-M   'P 1'
_cell_length_a   7.39821751
_cell_length_b   7.39821679
_cell_length_c   7.42944512
_cell_angle_alpha   60.13893705
_cell_angle_beta   60.13893796
_cell_angle_gamma   59.99999166
_symmetry_Int_Tables_number   1
_chemical_formula_structural   Sr3Bi(Ir2O7)2
_chemical_formula_sum   'Sr3 Bi1 Ir4 O14'
_cell_volume   288.14053180
_cell_formula_units_Z   1
loop_
 _symmetry_equiv_pos_site_id
 _symmetry_equiv_pos_as_xyz
  1  'x, y, z'
loop_
 _atom_site_type_symbol
 _atom_site_label
 _atom_site_symmetry_multiplicity
 _atom_site_fract_x
 _atom_site_fract_y
 _atom_site_fract_z
 _atom_site_occupancy
  Sr  Sr0  1  0.625000  0.125000  0.125000  1
  Sr  Sr1  1  0.125000  0.625000  0.125000  1
  Sr  Sr2  1  0.125000  0.125000  0.125000  1
  Bi  Bi3  1  0.125000  0.125000  0.625000  1
  Ir  Ir4  1  0.125000  0.625000  0.625000  1
  Ir  Ir5  1  0.625000  0.125000  0.625000  1
  Ir  Ir6  1  0.625000  0.625000  0.125000  1
  Ir  Ir7  1  0.625000  0.625000  0.625000  1
  O  O8  1  0.697623  0.697623  0.304008  1
  O  O9  1  0.301112  0.301112  0.684679  1
  O  O10  1  0.713097  0.301112  0.684679  1
  O  O11  1  0.300747  0.697623  0.304008  1
  O  O12  1  0.301112  0.713097  0.684679  1
  O  O13  1  0.697623  0.300747  0.304008  1
  O  O14  1  0.552377  0.552377  0.945992  1
  O  O15  1  0.948888  0.948888  0.565321  1
  O  O16  1  0.536903  0.948888  0.565321  1
  O  O17  1  0.949253  0.552377  0.945992  1
  O  O18  1  0.948888  0.536903  0.565321  1
  O  O19  1  0.552377  0.949253  0.945992  1
  O  O20  1  0.240691  0.240691  0.277928  1
  O  O21  1  0.009309  0.009309  0.972072  1
