# generated using pymatgen
data_SrPr7(ScSn3)2
_symmetry_space_group_name_H-M   'P 1'
_cell_length_a   9.33193067
_cell_length_b   9.33193046
_cell_length_c   9.26203600
_cell_angle_alpha   96.30814167
_cell_angle_beta   96.37789252
_cell_angle_gamma   141.32415978
_symmetry_Int_Tables_number   1
_chemical_formula_structural   SrPr7(ScSn3)2
_chemical_formula_sum   'Sr1 Pr7 Sc2 Sn6'
_cell_volume   475.16384218
_cell_formula_units_Z   1
loop_
 _symmetry_equiv_pos_site_id
 _symmetry_equiv_pos_as_xyz
  1  'x, y, z'
loop_
 _atom_site_type_symbol
 _atom_site_label
 _atom_site_symmetry_multiplicity
 _atom_site_fract_x
 _atom_site_fract_y
 _atom_site_fract_z
 _atom_site_occupancy
  Sr  Sr0  1  0.412855  0.278051  0.690906  1
  Pr  Pr1  1  0.912585  0.221131  0.133716  1
  Pr  Pr2  1  0.220988  0.087150  0.308138  1
  Pr  Pr3  1  0.777620  0.911595  0.689215  1
  Pr  Pr4  1  0.087256  0.778678  0.865934  1
  Pr  Pr5  1  0.721966  0.413106  0.135072  1
  Pr  Pr6  1  0.279320  0.588526  0.867846  1
  Pr  Pr7  1  0.587558  0.723202  0.310759  1
  Sc  Sc8  1  0.751698  0.250506  0.499131  1
  Sc  Sc9  1  0.248626  0.747434  0.499131  1
  Sn  Sn10  1  0.753325  0.754347  0.003373  1
  Sn  Sn11  1  0.249027  0.250048  0.003373  1
  Sn  Sn12  1  0.847429  0.647844  0.495273  1
  Sn  Sn13  1  0.652342  0.148018  0.800360  1
  Sn  Sn14  1  0.349114  0.850773  0.199886  1
  Sn  Sn15  1  0.148293  0.349594  0.497887  1
