# generated using pymatgen
data_ErTmTh2(Ga3Ir)6
_symmetry_space_group_name_H-M   'P 1'
_cell_length_a   7.65351304
_cell_length_b   7.66780395
_cell_length_c   9.47587100
_cell_angle_alpha   90.00000000
_cell_angle_beta   90.00000000
_cell_angle_gamma   119.80994829
_symmetry_Int_Tables_number   1
_chemical_formula_structural   ErTmTh2(Ga3Ir)6
_chemical_formula_sum   'Er1 Tm1 Th2 Ga18 Ir6'
_cell_volume   482.51423298
_cell_formula_units_Z   1
loop_
 _symmetry_equiv_pos_site_id
 _symmetry_equiv_pos_as_xyz
  1  'x, y, z'
loop_
 _atom_site_type_symbol
 _atom_site_label
 _atom_site_symmetry_multiplicity
 _atom_site_fract_x
 _atom_site_fract_y
 _atom_site_fract_z
 _atom_site_occupancy
  Er  Er0  1  0.669213  0.996160  0.250000  1
  Tm  Tm1  1  0.330756  0.004074  0.750000  1
  Th  Th2  1  0.996819  0.668822  0.250000  1
  Th  Th3  1  0.003134  0.331125  0.750000  1
  Ga  Ga4  1  0.129877  0.129754  0.250000  1
  Ga  Ga5  1  0.870264  0.870282  0.750000  1
  Ga  Ga6  1  0.998602  0.328398  0.082955  1
  Ga  Ga7  1  0.001690  0.671815  0.916867  1
  Ga  Ga8  1  0.001690  0.671815  0.583133  1
  Ga  Ga9  1  0.340635  0.003133  0.422475  1
  Ga  Ga10  1  0.998602  0.328398  0.417045  1
  Ga  Ga11  1  0.659092  0.996842  0.577925  1
  Ga  Ga12  1  0.659092  0.996842  0.922075  1
  Ga  Ga13  1  0.340635  0.003133  0.077525  1
  Ga  Ga14  1  0.336385  0.330878  0.564718  1
  Ga  Ga15  1  0.663653  0.668940  0.435498  1
  Ga  Ga16  1  0.663653  0.668940  0.064502  1
  Ga  Ga17  1  0.336385  0.330878  0.935282  1
  Ga  Ga18  1  0.342611  0.547018  0.250000  1
  Ga  Ga19  1  0.657207  0.452765  0.750000  1
  Ga  Ga20  1  0.542182  0.335004  0.250000  1
  Ga  Ga21  1  0.457767  0.664995  0.750000  1
  Ir  Ir22  1  0.675172  0.331465  0.000150  1
  Ir  Ir23  1  0.324763  0.668497  0.999770  1
  Ir  Ir24  1  0.324763  0.668497  0.500230  1
  Ir  Ir25  1  0.675172  0.331465  0.499850  1
  Ir  Ir26  1  0.000091  0.000031  0.999939  1
  Ir  Ir27  1  0.000091  0.000031  0.500061  1
