# generated using pymatgen
data_ErTmTc3Os
_symmetry_space_group_name_H-M   'P 1'
_cell_length_a   5.28580300
_cell_length_b   5.28574712
_cell_length_c   9.01149200
_cell_angle_alpha   89.99917398
_cell_angle_beta   90.00045017
_cell_angle_gamma   119.99556151
_symmetry_Int_Tables_number   1
_chemical_formula_structural   ErTmTc3Os
_chemical_formula_sum   'Er2 Tm2 Tc6 Os2'
_cell_volume   218.05402653
_cell_formula_units_Z   2
loop_
 _symmetry_equiv_pos_site_id
 _symmetry_equiv_pos_as_xyz
  1  'x, y, z'
loop_
 _atom_site_type_symbol
 _atom_site_label
 _atom_site_symmetry_multiplicity
 _atom_site_fract_x
 _atom_site_fract_y
 _atom_site_fract_z
 _atom_site_occupancy
  Er  Er0  1  0.666643  0.333327  0.562294  1
  Er  Er1  1  0.333357  0.666673  0.437706  1
  Tm  Tm2  1  0.333327  0.666682  0.062155  1
  Tm  Tm3  1  0.666673  0.333318  0.937845  1
  Tc  Tc4  1  0.170988  0.341929  0.750587  1
  Tc  Tc5  1  0.170960  0.829033  0.750593  1
  Tc  Tc6  1  0.658078  0.829024  0.750584  1
  Tc  Tc7  1  0.829012  0.658071  0.249413  1
  Tc  Tc8  1  0.829040  0.170967  0.249407  1
  Tc  Tc9  1  0.341922  0.170976  0.249416  1
  Os  Os10  1  0.000000  0.000000  0.500000  1
  Os  Os11  1  0.000000  0.000000  0.000000  1
