# generated using pymatgen
data_MnZn22Pt3
_symmetry_space_group_name_H-M   'P 1'
_cell_length_a   7.95922651
_cell_length_b   7.85407600
_cell_length_c   7.95922707
_cell_angle_alpha   109.20382876
_cell_angle_beta   109.73729469
_cell_angle_gamma   109.20381304
_symmetry_Int_Tables_number   1
_chemical_formula_structural   MnZn22Pt3
_chemical_formula_sum   'Mn1 Zn22 Pt3'
_cell_volume   384.27092355
_cell_formula_units_Z   1
loop_
 _symmetry_equiv_pos_site_id
 _symmetry_equiv_pos_as_xyz
  1  'x, y, z'
loop_
 _atom_site_type_symbol
 _atom_site_label
 _atom_site_symmetry_multiplicity
 _atom_site_fract_x
 _atom_site_fract_y
 _atom_site_fract_z
 _atom_site_occupancy
  Mn  Mn0  1  0.000000  0.345846  0.000000  1
  Zn  Zn1  1  0.733949  0.378479  0.733949  1
  Zn  Zn2  1  0.621907  0.349682  0.351048  1
  Zn  Zn3  1  0.351048  0.349682  0.621907  1
  Zn  Zn4  1  0.654251  0.274232  0.000000  1
  Zn  Zn5  1  0.210196  0.216443  0.210196  1
  Zn  Zn6  1  0.000000  0.006247  0.789804  1
  Zn  Zn7  1  0.789804  0.006247  0.000000  1
  Zn  Zn8  1  0.000000  0.776910  0.000000  1
  Zn  Zn9  1  0.356227  0.359767  0.000000  1
  Zn  Zn10  1  0.000000  0.641802  0.643244  1
  Zn  Zn11  1  0.000000  0.359767  0.356227  1
  Zn  Zn12  1  0.356756  0.998558  0.356756  1
  Zn  Zn13  1  0.643773  0.003541  0.643773  1
  Zn  Zn14  1  0.643244  0.641802  0.000000  1
  Zn  Zn15  1  0.345749  0.619982  0.345749  1
  Zn  Zn16  1  0.270858  0.998635  0.648952  1
  Zn  Zn17  1  0.648952  0.998635  0.270858  1
  Zn  Zn18  1  0.266051  0.644531  0.000000  1
  Zn  Zn19  1  0.729142  0.727778  0.378093  1
  Zn  Zn20  1  0.378093  0.727778  0.729142  1
  Zn  Zn21  1  0.000000  0.644531  0.266051  1
  Zn  Zn22  1  0.000000  0.274232  0.654251  1
  Pt  Pt23  1  0.347039  0.000644  0.000000  1
  Pt  Pt24  1  0.000000  0.000644  0.347039  1
  Pt  Pt25  1  0.652961  0.653605  0.652961  1
