# generated using pymatgen
data_Sr5MnSiN7
_symmetry_space_group_name_H-M   'P 1'
_cell_length_a   6.30776892
_cell_length_b   8.86600230
_cell_length_c   9.08611145
_cell_angle_alpha   113.66512698
_cell_angle_beta   98.51109481
_cell_angle_gamma   89.76403533
_symmetry_Int_Tables_number   1
_chemical_formula_structural   Sr5MnSiN7
_chemical_formula_sum   'Sr10 Mn2 Si2 N14'
_cell_volume   459.42359078
_cell_formula_units_Z   2
loop_
 _symmetry_equiv_pos_site_id
 _symmetry_equiv_pos_as_xyz
  1  'x, y, z'
loop_
 _atom_site_type_symbol
 _atom_site_label
 _atom_site_symmetry_multiplicity
 _atom_site_fract_x
 _atom_site_fract_y
 _atom_site_fract_z
 _atom_site_occupancy
  Sr  Sr0  1  0.855785  0.587969  0.351204  1
  Sr  Sr1  1  0.274673  0.983149  0.570878  1
  Sr  Sr2  1  0.708133  0.408183  0.840853  1
  Sr  Sr3  1  0.291867  0.591817  0.159147  1
  Sr  Sr4  1  0.402595  0.780945  0.898926  1
  Sr  Sr5  1  0.597405  0.219055  0.101074  1
  Sr  Sr6  1  0.144215  0.412031  0.648796  1
  Sr  Sr7  1  0.888130  0.839714  0.759321  1
  Sr  Sr8  1  0.111870  0.160286  0.240679  1
  Sr  Sr9  1  0.725327  0.016851  0.429122  1
  Mn  Mn10  1  0.124336  0.219376  0.910933  1
  Mn  Mn11  1  0.875664  0.780624  0.089067  1
  Si  Si12  1  0.571236  0.361880  0.473581  1
  Si  Si13  1  0.428764  0.638120  0.526419  1
  N  N14  1  0.563557  0.548553  0.657983  1
  N  N15  1  0.436443  0.451447  0.342017  1
  N  N16  1  0.179385  0.697295  0.588019  1
  N  N17  1  0.820615  0.302705  0.411981  1
  N  N18  1  0.418034  0.203449  0.484348  1
  N  N19  1  0.581966  0.796551  0.515652  1
  N  N20  1  0.959364  0.150771  0.726375  1
  N  N21  1  0.040636  0.849229  0.273625  1
  N  N22  1  0.228060  0.058377  0.952602  1
  N  N23  1  0.771940  0.941623  0.047398  1
  N  N24  1  0.341386  0.332917  0.906898  1
  N  N25  1  0.981942  0.337192  0.061066  1
  N  N26  1  0.018058  0.662808  0.938934  1
  N  N27  1  0.658614  0.667083  0.093102  1
