# generated using pymatgen
data_K2Si(PdSe2)3
_symmetry_space_group_name_H-M   'P 1'
_cell_length_a   8.37441674
_cell_length_b   8.37441623
_cell_length_c   8.37441600
_cell_angle_alpha   51.21907521
_cell_angle_beta   51.21906925
_cell_angle_gamma   51.21907978
_symmetry_Int_Tables_number   1
_chemical_formula_structural   K2Si(PdSe2)3
_chemical_formula_sum   'K2 Si1 Pd3 Se6'
_cell_volume   329.37134540
_cell_formula_units_Z   1
loop_
 _symmetry_equiv_pos_site_id
 _symmetry_equiv_pos_as_xyz
  1  'x, y, z'
loop_
 _atom_site_type_symbol
 _atom_site_label
 _atom_site_symmetry_multiplicity
 _atom_site_fract_x
 _atom_site_fract_y
 _atom_site_fract_z
 _atom_site_occupancy
  K  K0  1  0.798771  0.798771  0.798771  1
  K  K1  1  0.201229  0.201229  0.201229  1
  Si  Si2  1  0.000000  0.000000  0.000000  1
  Pd  Pd3  1  0.500000  0.500000  0.000000  1
  Pd  Pd4  1  0.500000  0.000000  0.500000  1
  Pd  Pd5  1  0.000000  0.500000  0.500000  1
  Se  Se6  1  0.772933  0.772933  0.269375  1
  Se  Se7  1  0.269375  0.772933  0.772933  1
  Se  Se8  1  0.772933  0.269375  0.772933  1
  Se  Se9  1  0.730625  0.227067  0.227067  1
  Se  Se10  1  0.227067  0.227067  0.730625  1
  Se  Se11  1  0.227067  0.730625  0.227067  1
