# generated using pymatgen
data_ScAlF6
_symmetry_space_group_name_H-M   'P 1'
_cell_length_a   9.42363664
_cell_length_b   7.69410083
_cell_length_c   5.42856291
_cell_angle_alpha   135.18302589
_cell_angle_beta   150.12940282
_cell_angle_gamma   35.08468910
_symmetry_Int_Tables_number   1
_chemical_formula_structural   ScAlF6
_chemical_formula_sum   'Sc1 Al1 F6'
_cell_volume   112.67678379
_cell_formula_units_Z   1
loop_
 _symmetry_equiv_pos_site_id
 _symmetry_equiv_pos_as_xyz
  1  'x, y, z'
loop_
 _atom_site_type_symbol
 _atom_site_label
 _atom_site_symmetry_multiplicity
 _atom_site_fract_x
 _atom_site_fract_y
 _atom_site_fract_z
 _atom_site_occupancy
  Sc  Sc0  1  0.500134  0.250209  0.000447  1
  Al  Al1  1  0.500089  0.749833  0.999881  1
  F  F2  1  0.488014  0.986312  0.974939  1
  F  F3  1  0.026640  0.948441  0.461750  1
  F  F4  1  0.437683  0.023423  0.410477  1
  F  F5  1  0.510761  0.513491  0.022378  1
  F  F6  1  0.972841  0.552306  0.539072  1
  F  F7  1  0.563839  0.475984  0.591056  1
