# generated using pymatgen
data_Ac7Tc4C9
_symmetry_space_group_name_H-M   'P 1'
_cell_length_a   6.79980776
_cell_length_b   6.79980811
_cell_length_c   12.41306782
_cell_angle_alpha   71.30813718
_cell_angle_beta   71.30813574
_cell_angle_gamma   48.55881813
_symmetry_Int_Tables_number   1
_chemical_formula_structural   Ac7Tc4C9
_chemical_formula_sum   'Ac7 Tc4 C9'
_cell_volume   402.78432955
_cell_formula_units_Z   1
loop_
 _symmetry_equiv_pos_site_id
 _symmetry_equiv_pos_as_xyz
  1  'x, y, z'
loop_
 _atom_site_type_symbol
 _atom_site_label
 _atom_site_symmetry_multiplicity
 _atom_site_fract_x
 _atom_site_fract_y
 _atom_site_fract_z
 _atom_site_occupancy
  Ac  Ac0  1  0.365729  0.365729  0.846896  1
  Ac  Ac1  1  0.136580  0.136580  0.687428  1
  Ac  Ac2  1  0.863420  0.863420  0.312572  1
  Ac  Ac3  1  0.144419  0.144419  0.382568  1
  Ac  Ac4  1  0.855581  0.855581  0.617432  1
  Ac  Ac5  1  0.000000  0.000000  0.000000  1
  Ac  Ac6  1  0.634271  0.634271  0.153104  1
  Tc  Tc7  1  0.363427  0.363427  0.140488  1
  Tc  Tc8  1  0.562080  0.562080  0.572616  1
  Tc  Tc9  1  0.437920  0.437920  0.427384  1
  Tc  Tc10  1  0.636573  0.636573  0.859512  1
  C  C11  1  0.390763  0.390763  0.288237  1
  C  C12  1  0.910735  0.910735  0.822794  1
  C  C13  1  0.395101  0.395101  0.605894  1
  C  C14  1  0.203555  0.203555  0.141916  1
  C  C15  1  0.796445  0.796445  0.858084  1
  C  C16  1  0.500000  0.500000  0.000000  1
  C  C17  1  0.089265  0.089265  0.177206  1
  C  C18  1  0.609237  0.609237  0.711763  1
  C  C19  1  0.604899  0.604899  0.394106  1
