# generated using pymatgen
data_KPr2NdB24
_symmetry_space_group_name_H-M   'P 1'
_cell_length_a   7.17253001
_cell_length_b   7.17253021
_cell_length_c   5.91703000
_cell_angle_alpha   90.00000000
_cell_angle_beta   90.00000000
_cell_angle_gamma   109.11414402
_symmetry_Int_Tables_number   1
_chemical_formula_structural   KPr2NdB24
_chemical_formula_sum   'K1 Pr2 Nd1 B24'
_cell_volume   287.62042311
_cell_formula_units_Z   1
loop_
 _symmetry_equiv_pos_site_id
 _symmetry_equiv_pos_as_xyz
  1  'x, y, z'
loop_
 _atom_site_type_symbol
 _atom_site_label
 _atom_site_symmetry_multiplicity
 _atom_site_fract_x
 _atom_site_fract_y
 _atom_site_fract_z
 _atom_site_occupancy
  K  K0  1  0.000000  0.000000  0.000000  1
  Pr  Pr1  1  0.751085  0.248915  0.500000  1
  Pr  Pr2  1  0.248915  0.751085  0.500000  1
  Nd  Nd3  1  0.500000  0.500000  0.000000  1
  B  B4  1  0.175929  0.325672  0.649584  1
  B  B5  1  0.923925  0.575098  0.147928  1
  B  B6  1  0.674328  0.824071  0.649584  1
  B  B7  1  0.424902  0.076075  0.147928  1
  B  B8  1  0.175929  0.325672  0.350416  1
  B  B9  1  0.923925  0.575098  0.852072  1
  B  B10  1  0.674328  0.824071  0.350416  1
  B  B11  1  0.424902  0.076075  0.852072  1
  B  B12  1  0.400097  0.400097  0.500000  1
  B  B13  1  0.148429  0.650780  0.000000  1
  B  B14  1  0.898911  0.898911  0.500000  1
  B  B15  1  0.650780  0.148429  0.000000  1
  B  B16  1  0.325672  0.175929  0.649584  1
  B  B17  1  0.076075  0.424902  0.147928  1
  B  B18  1  0.824071  0.674328  0.649584  1
  B  B19  1  0.575098  0.923925  0.147928  1
  B  B20  1  0.101089  0.101089  0.500000  1
  B  B21  1  0.851571  0.349220  0.000000  1
  B  B22  1  0.599903  0.599903  0.500000  1
  B  B23  1  0.349220  0.851571  0.000000  1
  B  B24  1  0.325672  0.175929  0.350416  1
  B  B25  1  0.076075  0.424902  0.852072  1
  B  B26  1  0.824071  0.674328  0.350416  1
  B  B27  1  0.575098  0.923925  0.852072  1
