# generated using pymatgen
data_YbHo6Sn23Ru6
_symmetry_space_group_name_H-M   'P 1'
_cell_length_a   9.83903600
_cell_length_b   9.83903453
_cell_length_c   10.11777100
_cell_angle_alpha   90.00000000
_cell_angle_beta   90.00000000
_cell_angle_gamma   119.99999823
_symmetry_Int_Tables_number   1
_chemical_formula_structural   YbHo6Sn23Ru6
_chemical_formula_sum   'Yb1 Ho6 Sn23 Ru6'
_cell_volume   848.24345863
_cell_formula_units_Z   1
loop_
 _symmetry_equiv_pos_site_id
 _symmetry_equiv_pos_as_xyz
  1  'x, y, z'
loop_
 _atom_site_type_symbol
 _atom_site_label
 _atom_site_symmetry_multiplicity
 _atom_site_fract_x
 _atom_site_fract_y
 _atom_site_fract_z
 _atom_site_occupancy
  Yb  Yb0  1  0.000000  0.000000  0.000000  1
  Ho  Ho1  1  0.515348  0.484652  0.697692  1
  Ho  Ho2  1  0.515348  0.030695  0.697692  1
  Ho  Ho3  1  0.969305  0.484652  0.697692  1
  Ho  Ho4  1  0.030695  0.515348  0.302308  1
  Ho  Ho5  1  0.484652  0.969305  0.302308  1
  Ho  Ho6  1  0.484652  0.515348  0.302308  1
  Sn  Sn7  1  0.666667  0.333333  0.177024  1
  Sn  Sn8  1  0.666667  0.333333  0.871628  1
  Sn  Sn9  1  0.333333  0.666667  0.128372  1
  Sn  Sn10  1  0.348323  0.348323  0.000000  1
  Sn  Sn11  1  0.000000  0.651677  0.000000  1
  Sn  Sn12  1  0.651677  0.000000  0.000000  1
  Sn  Sn13  1  0.651677  0.651677  0.000000  1
  Sn  Sn14  1  0.333333  0.666667  0.822976  1
  Sn  Sn15  1  0.439273  0.219638  0.463276  1
  Sn  Sn16  1  0.219638  0.780362  0.536724  1
  Sn  Sn17  1  0.219638  0.439273  0.536724  1
  Sn  Sn18  1  0.560727  0.780362  0.536724  1
  Sn  Sn19  1  0.118626  0.881374  0.272961  1
  Sn  Sn20  1  0.780362  0.560727  0.463276  1
  Sn  Sn21  1  0.780362  0.219638  0.463276  1
  Sn  Sn22  1  0.348323  0.000000  0.000000  1
  Sn  Sn23  1  0.118626  0.237251  0.272961  1
  Sn  Sn24  1  0.762749  0.881374  0.272961  1
  Sn  Sn25  1  0.237251  0.118626  0.727039  1
  Sn  Sn26  1  0.881374  0.762749  0.727039  1
  Sn  Sn27  1  0.881374  0.118626  0.727039  1
  Sn  Sn28  1  0.000000  0.000000  0.500000  1
  Sn  Sn29  1  0.000000  0.348323  0.000000  1
  Ru  Ru30  1  0.171084  0.828916  0.795848  1
  Ru  Ru31  1  0.171084  0.342167  0.795848  1
  Ru  Ru32  1  0.657833  0.828916  0.795848  1
  Ru  Ru33  1  0.342167  0.171084  0.204152  1
  Ru  Ru34  1  0.828916  0.657833  0.204152  1
  Ru  Ru35  1  0.828916  0.171084  0.204152  1
