# generated using pymatgen
data_Rb2Dy5HoF20
_symmetry_space_group_name_H-M   'P 1'
_cell_length_a   8.26369987
_cell_length_b   8.26368424
_cell_length_c   8.26216400
_cell_angle_alpha   60.00599162
_cell_angle_beta   60.00593715
_cell_angle_gamma   59.98757562
_symmetry_Int_Tables_number   1
_chemical_formula_structural   Rb2Dy5HoF20
_chemical_formula_sum   'Rb2 Dy5 Ho1 F20'
_cell_volume   398.95637313
_cell_formula_units_Z   1
loop_
 _symmetry_equiv_pos_site_id
 _symmetry_equiv_pos_as_xyz
  1  'x, y, z'
loop_
 _atom_site_type_symbol
 _atom_site_label
 _atom_site_symmetry_multiplicity
 _atom_site_fract_x
 _atom_site_fract_y
 _atom_site_fract_z
 _atom_site_occupancy
  Rb  Rb0  1  0.249929  0.249930  0.250072  1
  Rb  Rb1  1  0.749935  0.749934  0.750074  1
  Dy  Dy2  1  0.759725  0.240231  0.240275  1
  Dy  Dy3  1  0.240232  0.759725  0.759767  1
  Dy  Dy4  1  0.240232  0.759725  0.240275  1
  Dy  Dy5  1  0.759725  0.240232  0.759768  1
  Dy  Dy6  1  0.240305  0.240306  0.759695  1
  Ho  Ho7  1  0.759392  0.759392  0.240604  1
  F  F8  1  0.829496  0.500881  0.499116  1
  F  F9  1  0.170436  0.500043  0.499956  1
  F  F10  1  0.500884  0.829498  0.170502  1
  F  F11  1  0.500043  0.170436  0.829565  1
  F  F12  1  0.500882  0.829493  0.499115  1
  F  F13  1  0.170435  0.500044  0.829564  1
  F  F14  1  0.500044  0.170437  0.499956  1
  F  F15  1  0.829497  0.500885  0.170503  1
  F  F16  1  0.500004  0.500004  0.829496  1
  F  F17  1  0.500007  0.500007  0.170489  1
  F  F18  1  0.170507  0.829508  0.499994  1
  F  F19  1  0.829509  0.170506  0.499994  1
  F  F20  1  0.110493  0.110492  0.110636  1
  F  F21  1  0.889203  0.889202  0.890133  1
  F  F22  1  0.110493  0.110493  0.668380  1
  F  F23  1  0.109868  0.668539  0.110797  1
  F  F24  1  0.889201  0.889203  0.331462  1
  F  F25  1  0.889366  0.331617  0.889506  1
  F  F26  1  0.668538  0.109867  0.110797  1
  F  F27  1  0.331617  0.889366  0.889506  1
