# generated using pymatgen
data_Ho16Tm4CoIr11
_symmetry_space_group_name_H-M   'P 1'
_cell_length_a   10.80368700
_cell_length_b   10.80368700
_cell_length_c   6.33888000
_cell_angle_alpha   90.00000000
_cell_angle_beta   90.00000000
_cell_angle_gamma   90.00000000
_symmetry_Int_Tables_number   1
_chemical_formula_structural   Ho16Tm4CoIr11
_chemical_formula_sum   'Ho16 Tm4 Co1 Ir11'
_cell_volume   739.87187270
_cell_formula_units_Z   1
loop_
 _symmetry_equiv_pos_site_id
 _symmetry_equiv_pos_as_xyz
  1  'x, y, z'
loop_
 _atom_site_type_symbol
 _atom_site_label
 _atom_site_symmetry_multiplicity
 _atom_site_fract_x
 _atom_site_fract_y
 _atom_site_fract_z
 _atom_site_occupancy
  Ho  Ho0  1  0.292380  0.086785  0.376159  1
  Ho  Ho1  1  0.292668  0.913129  0.879534  1
  Ho  Ho2  1  0.707332  0.086871  0.879534  1
  Ho  Ho3  1  0.707620  0.913215  0.376159  1
  Ho  Ho4  1  0.586871  0.792668  0.879534  1
  Ho  Ho5  1  0.586785  0.207620  0.376159  1
  Ho  Ho6  1  0.413215  0.792380  0.376159  1
  Ho  Ho7  1  0.413129  0.207332  0.879534  1
  Ho  Ho8  1  0.209390  0.412106  0.622700  1
  Ho  Ho9  1  0.209324  0.587803  0.122570  1
  Ho  Ho10  1  0.790676  0.412197  0.122570  1
  Ho  Ho11  1  0.790610  0.587894  0.622700  1
  Ho  Ho12  1  0.912197  0.709324  0.122570  1
  Ho  Ho13  1  0.912106  0.290610  0.622700  1
  Ho  Ho14  1  0.087894  0.709390  0.622700  1
  Ho  Ho15  1  0.087803  0.290676  0.122570  1
  Tm  Tm16  1  0.000000  0.000000  0.499803  1
  Tm  Tm17  1  0.000000  0.000000  0.999676  1
  Tm  Tm18  1  0.500000  0.500000  0.999676  1
  Tm  Tm19  1  0.500000  0.500000  0.499803  1
  Co  Co20  1  0.500000  0.000000  0.122656  1
  Ir  Ir21  1  0.846783  0.152182  0.249749  1
  Ir  Ir22  1  0.847062  0.847479  0.749526  1
  Ir  Ir23  1  0.152938  0.152521  0.749526  1
  Ir  Ir24  1  0.153217  0.847818  0.249749  1
  Ir  Ir25  1  0.652521  0.347062  0.749526  1
  Ir  Ir26  1  0.652182  0.653217  0.249749  1
  Ir  Ir27  1  0.347818  0.346783  0.249749  1
  Ir  Ir28  1  0.347479  0.652938  0.749526  1
  Ir  Ir29  1  0.500000  0.000000  0.622431  1
  Ir  Ir30  1  0.000000  0.500000  0.877525  1
  Ir  Ir31  1  0.000000  0.500000  0.377482  1
