# generated using pymatgen
data_CaTmCo9Tc3Ge2As5
_symmetry_space_group_name_H-M   'P 1'
_cell_length_a   3.81609800
_cell_length_b   9.35736319
_cell_length_c   9.35736400
_cell_angle_alpha   120.00000287
_cell_angle_beta   90.00000000
_cell_angle_gamma   90.00000000
_symmetry_Int_Tables_number   1
_chemical_formula_structural   CaTmCo9Tc3Ge2As5
_chemical_formula_sum   'Ca1 Tm1 Co9 Tc3 Ge2 As5'
_cell_volume   289.37242798
_cell_formula_units_Z   1
loop_
 _symmetry_equiv_pos_site_id
 _symmetry_equiv_pos_as_xyz
  1  'x, y, z'
loop_
 _atom_site_type_symbol
 _atom_site_label
 _atom_site_symmetry_multiplicity
 _atom_site_fract_x
 _atom_site_fract_y
 _atom_site_fract_z
 _atom_site_occupancy
  Ca  Ca0  1  0.500000  0.333309  0.666337  1
  Tm  Tm1  1  0.000000  0.666525  0.334154  1
  Co  Co2  1  0.000000  0.569699  0.949236  1
  Co  Co3  1  0.000000  0.372706  0.426675  1
  Co  Co4  1  0.000000  0.055223  0.624428  1
  Co  Co5  1  0.000000  0.875745  0.161329  1
  Co  Co6  1  0.000000  0.284496  0.123508  1
  Co  Co7  1  0.000000  0.842196  0.714934  1
  Co  Co8  1  0.500000  0.945304  0.381184  1
  Co  Co9  1  0.500000  0.434989  0.055031  1
  Co  Co10  1  0.500000  0.619384  0.564091  1
  Tc  Tc11  1  0.500000  0.783026  0.900805  1
  Tc  Tc12  1  0.500000  0.119126  0.217080  1
  Tc  Tc13  1  0.500000  0.098988  0.881317  1
  Ge  Ge14  1  0.000000  0.999206  0.999535  1
  Ge  Ge15  1  0.000000  0.587482  0.703900  1
  As  As16  1  0.500000  0.706660  0.116880  1
  As  As17  1  0.500000  0.411184  0.294144  1
  As  As18  1  0.500000  0.882068  0.589353  1
  As  As19  1  0.000000  0.116250  0.412336  1
  As  As20  1  0.000000  0.296434  0.883742  1
