# generated using pymatgen
data_Y5Tl2(HgPd)2
_symmetry_space_group_name_H-M   'P 1'
_cell_length_a   3.64879700
_cell_length_b   8.03694200
_cell_length_c   18.34586400
_cell_angle_alpha   90.00000000
_cell_angle_beta   90.00000000
_cell_angle_gamma   90.00000000
_symmetry_Int_Tables_number   1
_chemical_formula_structural   Y5Tl2(HgPd)2
_chemical_formula_sum   'Y10 Tl4 Hg4 Pd4'
_cell_volume   537.99557801
_cell_formula_units_Z   2
loop_
 _symmetry_equiv_pos_site_id
 _symmetry_equiv_pos_as_xyz
  1  'x, y, z'
loop_
 _atom_site_type_symbol
 _atom_site_label
 _atom_site_symmetry_multiplicity
 _atom_site_fract_x
 _atom_site_fract_y
 _atom_site_fract_z
 _atom_site_occupancy
  Y  Y0  1  0.000000  0.500000  0.500000  1
  Y  Y1  1  0.000000  0.000000  0.000000  1
  Y  Y2  1  0.000000  0.742760  0.285253  1
  Y  Y3  1  0.000000  0.257240  0.714747  1
  Y  Y4  1  0.000000  0.757240  0.785253  1
  Y  Y5  1  0.000000  0.242760  0.214747  1
  Y  Y6  1  0.000000  0.609037  0.083467  1
  Y  Y7  1  0.000000  0.390963  0.916533  1
  Y  Y8  1  0.000000  0.890963  0.583467  1
  Y  Y9  1  0.000000  0.109037  0.416533  1
  Tl  Tl10  1  0.500000  0.582408  0.648423  1
  Tl  Tl11  1  0.500000  0.417592  0.351577  1
  Tl  Tl12  1  0.500000  0.917592  0.148423  1
  Tl  Tl13  1  0.500000  0.082408  0.851577  1
  Hg  Hg14  1  0.500000  0.710053  0.933811  1
  Hg  Hg15  1  0.500000  0.289947  0.066189  1
  Hg  Hg16  1  0.500000  0.789947  0.433811  1
  Hg  Hg17  1  0.500000  0.210053  0.566189  1
  Pd  Pd18  1  0.500000  0.529413  0.197308  1
  Pd  Pd19  1  0.500000  0.470587  0.802692  1
  Pd  Pd20  1  0.500000  0.970587  0.697308  1
  Pd  Pd21  1  0.500000  0.029413  0.302692  1
