# generated using pymatgen
data_Er3TmZn12
_symmetry_space_group_name_H-M   'P 1'
_cell_length_a   4.35705700
_cell_length_b   6.63554742
_cell_length_c   10.04571063
_cell_angle_alpha   89.95937243
_cell_angle_beta   90.00000000
_cell_angle_gamma   90.00000000
_symmetry_Int_Tables_number   1
_chemical_formula_structural   Er3TmZn12
_chemical_formula_sum   'Er3 Tm1 Zn12'
_cell_volume   290.43607122
_cell_formula_units_Z   1
loop_
 _symmetry_equiv_pos_site_id
 _symmetry_equiv_pos_as_xyz
  1  'x, y, z'
loop_
 _atom_site_type_symbol
 _atom_site_label
 _atom_site_symmetry_multiplicity
 _atom_site_fract_x
 _atom_site_fract_y
 _atom_site_fract_z
 _atom_site_occupancy
  Er  Er0  1  0.250000  0.778473  0.835496  1
  Er  Er1  1  0.750000  0.721373  0.335391  1
  Er  Er2  1  0.750000  0.221338  0.164420  1
  Tm  Tm3  1  0.250000  0.278878  0.664448  1
  Zn  Zn4  1  0.250000  0.535492  0.103965  1
  Zn  Zn5  1  0.250000  0.035632  0.396202  1
  Zn  Zn6  1  0.750000  0.464629  0.895941  1
  Zn  Zn7  1  0.750000  0.964932  0.604158  1
  Zn  Zn8  1  0.250000  0.919245  0.148595  1
  Zn  Zn9  1  0.250000  0.419217  0.351425  1
  Zn  Zn10  1  0.750000  0.080911  0.851058  1
  Zn  Zn11  1  0.750000  0.580254  0.648875  1
  Zn  Zn12  1  0.250000  0.216562  0.956896  1
  Zn  Zn13  1  0.250000  0.715988  0.542854  1
  Zn  Zn14  1  0.750000  0.783524  0.042795  1
  Zn  Zn15  1  0.750000  0.283553  0.457482  1
