# generated using pymatgen
data_K4CaMnFe2F14
_symmetry_space_group_name_H-M   'P 1'
_cell_length_a   7.94069833
_cell_length_b   7.94069745
_cell_length_c   7.97606375
_cell_angle_alpha   120.74882476
_cell_angle_beta   117.38536230
_cell_angle_gamma   91.39963805
_symmetry_Int_Tables_number   1
_chemical_formula_structural   K4CaMnFe2F14
_chemical_formula_sum   'K4 Ca1 Mn1 Fe2 F14'
_cell_volume   360.89680691
_cell_formula_units_Z   1
loop_
 _symmetry_equiv_pos_site_id
 _symmetry_equiv_pos_as_xyz
  1  'x, y, z'
loop_
 _atom_site_type_symbol
 _atom_site_label
 _atom_site_symmetry_multiplicity
 _atom_site_fract_x
 _atom_site_fract_y
 _atom_site_fract_z
 _atom_site_occupancy
  K  K0  1  0.500000  0.500000  0.000000  1
  K  K1  1  0.000000  0.000000  0.000000  1
  K  K2  1  0.000000  0.500000  0.000000  1
  K  K3  1  0.000000  0.000000  0.500000  1
  Ca  Ca4  1  0.500000  0.000000  0.000000  1
  Mn  Mn5  1  0.500000  0.500000  0.500000  1
  Fe  Fe6  1  0.000000  0.500000  0.500000  1
  Fe  Fe7  1  0.500000  0.000000  0.500000  1
  F  F8  1  0.874923  0.581979  0.289615  1
  F  F9  1  0.207636  0.914692  0.289615  1
  F  F10  1  0.172123  0.794393  0.748690  1
  F  F11  1  0.458723  0.707439  0.393020  1
  F  F12  1  0.454296  0.076567  0.748690  1
  F  F13  1  0.185580  0.434296  0.393020  1
  F  F14  1  0.814420  0.565704  0.606980  1
  F  F15  1  0.545704  0.923433  0.251310  1
  F  F16  1  0.541277  0.292561  0.606980  1
  F  F17  1  0.827877  0.205607  0.251310  1
  F  F18  1  0.383340  0.260589  0.143929  1
  F  F19  1  0.125077  0.418021  0.710385  1
  F  F20  1  0.792364  0.085308  0.710385  1
  F  F21  1  0.616660  0.739411  0.856071  1
