# generated using pymatgen
data_Hf4ZnSn3Mo
_symmetry_space_group_name_H-M   'P 1'
_cell_length_a   8.51775900
_cell_length_b   8.51775730
_cell_length_c   5.72270300
_cell_angle_alpha   90.00000000
_cell_angle_beta   90.00000000
_cell_angle_gamma   120.00000273
_symmetry_Int_Tables_number   1
_chemical_formula_structural   Hf4ZnSn3Mo
_chemical_formula_sum   'Hf8 Zn2 Sn6 Mo2'
_cell_volume   359.56916065
_cell_formula_units_Z   2
loop_
 _symmetry_equiv_pos_site_id
 _symmetry_equiv_pos_as_xyz
  1  'x, y, z'
loop_
 _atom_site_type_symbol
 _atom_site_label
 _atom_site_symmetry_multiplicity
 _atom_site_fract_x
 _atom_site_fract_y
 _atom_site_fract_z
 _atom_site_occupancy
  Hf  Hf0  1  0.731536  0.731536  0.744861  1
  Hf  Hf1  1  0.268464  0.000000  0.744861  1
  Hf  Hf2  1  0.000000  0.268464  0.744861  1
  Hf  Hf3  1  0.268464  0.268464  0.255139  1
  Hf  Hf4  1  0.731536  0.000000  0.255139  1
  Hf  Hf5  1  0.000000  0.731536  0.255139  1
  Hf  Hf6  1  0.333333  0.666667  0.500000  1
  Hf  Hf7  1  0.666667  0.333333  0.500000  1
  Zn  Zn8  1  0.000000  0.000000  0.000000  1
  Zn  Zn9  1  0.000000  0.000000  0.500000  1
  Sn  Sn10  1  0.388085  0.388085  0.760747  1
  Sn  Sn11  1  0.611915  0.000000  0.760747  1
  Sn  Sn12  1  0.000000  0.611915  0.760747  1
  Sn  Sn13  1  0.611915  0.611915  0.239253  1
  Sn  Sn14  1  0.388085  0.000000  0.239253  1
  Sn  Sn15  1  0.000000  0.388085  0.239253  1
  Mo  Mo16  1  0.666667  0.333333  0.000000  1
  Mo  Mo17  1  0.333333  0.666667  0.000000  1
