# generated using pymatgen
data_Cu2AsIr(RhS4)2
_symmetry_space_group_name_H-M   'P 1'
_cell_length_a   7.02525591
_cell_length_b   7.00615952
_cell_length_c   7.00616005
_cell_angle_alpha   60.35859160
_cell_angle_beta   60.59957192
_cell_angle_gamma   60.59957034
_symmetry_Int_Tables_number   1
_chemical_formula_structural   Cu2AsIr(RhS4)2
_chemical_formula_sum   'Cu2 As1 Ir1 Rh2 S8'
_cell_volume   246.69950523
_cell_formula_units_Z   1
loop_
 _symmetry_equiv_pos_site_id
 _symmetry_equiv_pos_as_xyz
  1  'x, y, z'
loop_
 _atom_site_type_symbol
 _atom_site_label
 _atom_site_symmetry_multiplicity
 _atom_site_fract_x
 _atom_site_fract_y
 _atom_site_fract_z
 _atom_site_occupancy
  Cu  Cu0  1  0.374525  0.372278  0.372278  1
  Cu  Cu1  1  0.625475  0.627722  0.627722  1
  As  As2  1  0.000000  0.000000  0.000000  1
  Ir  Ir3  1  0.500000  0.000000  0.000000  1
  Rh  Rh4  1  0.000000  0.000000  0.500000  1
  Rh  Rh5  1  0.000000  0.500000  0.000000  1
  S  S6  1  0.239963  0.239245  0.239245  1
  S  S7  1  0.777002  0.244748  0.244748  1
  S  S8  1  0.245054  0.244564  0.778945  1
  S  S9  1  0.245054  0.778945  0.244564  1
  S  S10  1  0.760037  0.760755  0.760755  1
  S  S11  1  0.222998  0.755252  0.755252  1
  S  S12  1  0.754946  0.755436  0.221055  1
  S  S13  1  0.754946  0.221055  0.755436  1
