# generated using pymatgen
data_DyHo15Cd4Os3Pt
_symmetry_space_group_name_H-M   'P 1'
_cell_length_a   9.57893254
_cell_length_b   9.66965035
_cell_length_c   9.72032900
_cell_angle_alpha   59.82646682
_cell_angle_beta   59.51048007
_cell_angle_gamma   59.33548174
_symmetry_Int_Tables_number   1
_chemical_formula_structural   DyHo15Cd4Os3Pt
_chemical_formula_sum   'Dy1 Ho15 Cd4 Os3 Pt1'
_cell_volume   630.21074772
_cell_formula_units_Z   1
loop_
 _symmetry_equiv_pos_site_id
 _symmetry_equiv_pos_as_xyz
  1  'x, y, z'
loop_
 _atom_site_type_symbol
 _atom_site_label
 _atom_site_symmetry_multiplicity
 _atom_site_fract_x
 _atom_site_fract_y
 _atom_site_fract_z
 _atom_site_occupancy
  Dy  Dy0  1  0.936815  0.939927  0.561628  1
  Ho  Ho1  1  0.347958  0.351105  0.349473  1
  Ho  Ho2  1  0.347958  0.351105  0.951465  1
  Ho  Ho3  1  0.348437  0.953300  0.349132  1
  Ho  Ho4  1  0.969097  0.344659  0.343123  1
  Ho  Ho5  1  0.813502  0.189808  0.191309  1
  Ho  Ho6  1  0.184830  0.810318  0.810909  1
  Ho  Ho7  1  0.184830  0.810318  0.193943  1
  Ho  Ho8  1  0.813502  0.189808  0.805380  1
  Ho  Ho9  1  0.186311  0.191384  0.811153  1
  Ho  Ho10  1  0.813385  0.804064  0.191275  1
  Ho  Ho11  1  0.936624  0.560273  0.562268  1
  Ho  Ho12  1  0.551846  0.940494  0.940407  1
  Ho  Ho13  1  0.551846  0.940494  0.567253  1
  Ho  Ho14  1  0.936624  0.560272  0.940835  1
  Ho  Ho15  1  0.551856  0.567057  0.940544  1
  Cd  Cd16  1  0.581617  0.579103  0.580080  1
  Cd  Cd17  1  0.581617  0.579103  0.259200  1
  Cd  Cd18  1  0.580891  0.258607  0.580251  1
  Cd  Cd19  1  0.254572  0.581042  0.582193  1
  Os  Os20  1  0.149035  0.138293  0.134636  1
  Os  Os21  1  0.149035  0.138293  0.578037  1
  Os  Os22  1  0.150026  0.578664  0.135656  1
  Pt  Pt23  1  0.577788  0.142509  0.139851  1
