# generated using pymatgen
data_NdCo(Sn2Ru)3
_symmetry_space_group_name_H-M   'P 1'
_cell_length_a   6.90391403
_cell_length_b   6.90391411
_cell_length_c   6.87712429
_cell_angle_alpha   119.99979482
_cell_angle_beta   119.99979244
_cell_angle_gamma   89.44114342
_symmetry_Int_Tables_number   1
_chemical_formula_structural   NdCo(Sn2Ru)3
_chemical_formula_sum   'Nd1 Co1 Sn6 Ru3'
_cell_volume   232.89067545
_cell_formula_units_Z   1
loop_
 _symmetry_equiv_pos_site_id
 _symmetry_equiv_pos_as_xyz
  1  'x, y, z'
loop_
 _atom_site_type_symbol
 _atom_site_label
 _atom_site_symmetry_multiplicity
 _atom_site_fract_x
 _atom_site_fract_y
 _atom_site_fract_z
 _atom_site_occupancy
  Nd  Nd0  1  0.996382  0.996382  0.005816  1
  Co  Co1  1  0.407983  0.407983  0.154967  1
  Sn  Sn2  1  0.471955  0.471955  0.578807  1
  Sn  Sn3  1  0.118915  0.118915  0.593518  1
  Sn  Sn4  1  0.877260  0.527947  0.410296  1
  Sn  Sn5  1  0.527947  0.877260  0.410296  1
  Sn  Sn6  1  0.005360  0.495158  0.001314  1
  Sn  Sn7  1  0.495158  0.005360  0.001314  1
  Ru  Ru8  1  0.753112  0.753112  0.154622  1
  Ru  Ru9  1  0.255450  0.590476  0.844525  1
  Ru  Ru10  1  0.590476  0.255450  0.844525  1
