# generated using pymatgen
data_KLa(AlTe2)4
_symmetry_space_group_name_H-M   'P 1'
_cell_length_a   8.35623700
_cell_length_b   8.35623700
_cell_length_c   6.76421800
_cell_angle_alpha   90.00000000
_cell_angle_beta   90.00000000
_cell_angle_gamma   90.00000000
_symmetry_Int_Tables_number   1
_chemical_formula_structural   KLa(AlTe2)4
_chemical_formula_sum   'K1 La1 Al4 Te8'
_cell_volume   472.32299938
_cell_formula_units_Z   1
loop_
 _symmetry_equiv_pos_site_id
 _symmetry_equiv_pos_as_xyz
  1  'x, y, z'
loop_
 _atom_site_type_symbol
 _atom_site_label
 _atom_site_symmetry_multiplicity
 _atom_site_fract_x
 _atom_site_fract_y
 _atom_site_fract_z
 _atom_site_occupancy
  K  K0  1  0.000000  0.000000  0.000000  1
  La  La1  1  0.500000  0.500000  0.000000  1
  Al  Al2  1  0.500000  0.000000  0.500000  1
  Al  Al3  1  0.000000  0.500000  0.500000  1
  Al  Al4  1  0.000000  0.500000  0.000000  1
  Al  Al5  1  0.500000  0.000000  0.000000  1
  Te  Te6  1  0.665536  0.818201  0.248052  1
  Te  Te7  1  0.334464  0.181799  0.248052  1
  Te  Te8  1  0.818201  0.665536  0.751948  1
  Te  Te9  1  0.665536  0.181799  0.751948  1
  Te  Te10  1  0.334464  0.818201  0.751948  1
  Te  Te11  1  0.181799  0.334464  0.751948  1
  Te  Te12  1  0.181799  0.665536  0.248052  1
  Te  Te13  1  0.818201  0.334464  0.248052  1
