# generated using pymatgen
data_Y7ThGaPt24
_symmetry_space_group_name_H-M   'P 1'
_cell_length_a   8.38575849
_cell_length_b   8.38575798
_cell_length_c   8.38575800
_cell_angle_alpha   90.01963664
_cell_angle_beta   90.01963663
_cell_angle_gamma   89.98036347
_symmetry_Int_Tables_number   1
_chemical_formula_structural   Y7ThGaPt24
_chemical_formula_sum   'Y7 Th1 Ga1 Pt24'
_cell_volume   589.69429166
_cell_formula_units_Z   1
loop_
 _symmetry_equiv_pos_site_id
 _symmetry_equiv_pos_as_xyz
  1  'x, y, z'
loop_
 _atom_site_type_symbol
 _atom_site_label
 _atom_site_symmetry_multiplicity
 _atom_site_fract_x
 _atom_site_fract_y
 _atom_site_fract_z
 _atom_site_occupancy
  Y  Y0  1  0.250242  0.748888  0.251112  1
  Y  Y1  1  0.748888  0.250242  0.251112  1
  Y  Y2  1  0.748888  0.748888  0.749758  1
  Y  Y3  1  0.749546  0.749546  0.250454  1
  Y  Y4  1  0.749121  0.250896  0.749104  1
  Y  Y5  1  0.250896  0.749121  0.749104  1
  Y  Y6  1  0.250896  0.250896  0.250879  1
  Th  Th7  1  0.251821  0.251821  0.748179  1
  Ga  Ga8  1  0.999074  0.999074  0.000926  1
  Pt  Pt9  1  0.501794  0.501794  0.746069  1
  Pt  Pt10  1  0.501794  0.253931  0.498206  1
  Pt  Pt11  1  0.253931  0.501794  0.498206  1
  Pt  Pt12  1  0.500917  0.500917  0.253321  1
  Pt  Pt13  1  0.500917  0.746679  0.499083  1
  Pt  Pt14  1  0.746679  0.500917  0.499083  1
  Pt  Pt15  1  0.998658  0.998658  0.705499  1
  Pt  Pt16  1  0.998658  0.294501  0.001342  1
  Pt  Pt17  1  0.294501  0.998658  0.001342  1
  Pt  Pt18  1  0.000008  0.000008  0.294614  1
  Pt  Pt19  1  0.000008  0.705386  0.999992  1
  Pt  Pt20  1  0.705386  0.000008  0.999992  1
  Pt  Pt21  1  0.998250  0.500852  0.738441  1
  Pt  Pt22  1  0.500852  0.261559  0.001750  1
  Pt  Pt23  1  0.261559  0.998250  0.499148  1
  Pt  Pt24  1  0.998250  0.261559  0.499148  1
  Pt  Pt25  1  0.500852  0.998250  0.738441  1
  Pt  Pt26  1  0.261559  0.500852  0.001750  1
  Pt  Pt27  1  0.999281  0.500202  0.261456  1
  Pt  Pt28  1  0.500202  0.738544  0.000719  1
  Pt  Pt29  1  0.999281  0.738544  0.499798  1
  Pt  Pt30  1  0.500202  0.999281  0.261456  1
  Pt  Pt31  1  0.738544  0.999281  0.499798  1
  Pt  Pt32  1  0.738544  0.500202  0.000719  1
