# generated using pymatgen
data_Sc2InB2Ir5
_symmetry_space_group_name_H-M   'P 1'
_cell_length_a   3.12715900
_cell_length_b   9.57969400
_cell_length_c   9.57969400
_cell_angle_alpha   90.00000000
_cell_angle_beta   90.00000000
_cell_angle_gamma   90.00000000
_symmetry_Int_Tables_number   1
_chemical_formula_structural   Sc2InB2Ir5
_chemical_formula_sum   'Sc4 In2 B4 Ir10'
_cell_volume   286.98106113
_cell_formula_units_Z   2
loop_
 _symmetry_equiv_pos_site_id
 _symmetry_equiv_pos_as_xyz
  1  'x, y, z'
loop_
 _atom_site_type_symbol
 _atom_site_label
 _atom_site_symmetry_multiplicity
 _atom_site_fract_x
 _atom_site_fract_y
 _atom_site_fract_z
 _atom_site_occupancy
  Sc  Sc0  1  0.000000  0.175860  0.675860  1
  Sc  Sc1  1  0.000000  0.824140  0.324140  1
  Sc  Sc2  1  0.000000  0.324140  0.175860  1
  Sc  Sc3  1  0.000000  0.675860  0.824140  1
  In  In4  1  0.000000  0.000000  0.000000  1
  In  In5  1  0.000000  0.500000  0.500000  1
  B  B6  1  0.000000  0.622655  0.122655  1
  B  B7  1  0.000000  0.377345  0.877345  1
  B  B8  1  0.000000  0.877345  0.622655  1
  B  B9  1  0.000000  0.122655  0.377345  1
  Ir  Ir10  1  0.500000  0.071267  0.224327  1
  Ir  Ir11  1  0.500000  0.928733  0.775673  1
  Ir  Ir12  1  0.500000  0.775673  0.071267  1
  Ir  Ir13  1  0.500000  0.428733  0.724327  1
  Ir  Ir14  1  0.500000  0.224327  0.928733  1
  Ir  Ir15  1  0.500000  0.571267  0.275673  1
  Ir  Ir16  1  0.500000  0.724327  0.571267  1
  Ir  Ir17  1  0.500000  0.275673  0.428733  1
  Ir  Ir18  1  0.500000  0.000000  0.500000  1
  Ir  Ir19  1  0.500000  0.500000  0.000000  1
