# generated using pymatgen
data_K4Ti6CCl18
_symmetry_space_group_name_H-M   'P 1'
_cell_length_a   9.85490022
_cell_length_b   9.85490036
_cell_length_c   9.59896253
_cell_angle_alpha   77.40417424
_cell_angle_beta   77.40417136
_cell_angle_gamma   117.61919904
_symmetry_Int_Tables_number   1
_chemical_formula_structural   K4Ti6CCl18
_chemical_formula_sum   'K4 Ti6 C1 Cl18'
_cell_volume   749.21068920
_cell_formula_units_Z   1
loop_
 _symmetry_equiv_pos_site_id
 _symmetry_equiv_pos_as_xyz
  1  'x, y, z'
loop_
 _atom_site_type_symbol
 _atom_site_label
 _atom_site_symmetry_multiplicity
 _atom_site_fract_x
 _atom_site_fract_y
 _atom_site_fract_z
 _atom_site_occupancy
  K  K0  1  0.769886  0.445850  0.680845  1
  K  K1  1  0.554150  0.230114  0.319155  1
  K  K2  1  0.230114  0.554150  0.319155  1
  K  K3  1  0.445850  0.769886  0.680845  1
  Ti  Ti4  1  0.120549  0.120549  0.138180  1
  Ti  Ti5  1  0.879451  0.879451  0.861820  1
  Ti  Ti6  1  0.950087  0.770658  0.145032  1
  Ti  Ti7  1  0.229342  0.049913  0.854968  1
  Ti  Ti8  1  0.049913  0.229342  0.854968  1
  Ti  Ti9  1  0.770658  0.950087  0.145032  1
  C  C10  1  0.000000  0.000000  0.000000  1
  Cl  Cl11  1  0.810813  0.608226  0.008706  1
  Cl  Cl12  1  0.391775  0.189187  0.991294  1
  Cl  Cl13  1  0.189187  0.391775  0.991294  1
  Cl  Cl14  1  0.608225  0.810813  0.008706  1
  Cl  Cl15  1  0.201175  0.798825  0.000000  1
  Cl  Cl16  1  0.798825  0.201175  0.000000  1
  Cl  Cl17  1  0.313599  0.313599  0.678643  1
  Cl  Cl18  1  0.686401  0.686401  0.321357  1
  Cl  Cl19  1  0.889610  0.496406  0.322494  1
  Cl  Cl20  1  0.503594  0.110390  0.677506  1
  Cl  Cl21  1  0.110390  0.503594  0.677506  1
  Cl  Cl22  1  0.496406  0.889610  0.322494  1
  Cl  Cl23  1  0.262690  0.262690  0.297544  1
  Cl  Cl24  1  0.737310  0.737310  0.702456  1
  Cl  Cl25  1  0.077835  0.877587  0.313191  1
  Cl  Cl26  1  0.122413  0.922165  0.686809  1
  Cl  Cl27  1  0.922165  0.122413  0.686809  1
  Cl  Cl28  1  0.877587  0.077835  0.313191  1
