# generated using pymatgen
data_Y5Os2
_symmetry_space_group_name_H-M   'P 1'
_cell_length_a   6.41604465
_cell_length_b   7.37549342
_cell_length_c   8.47815205
_cell_angle_alpha   96.72153514
_cell_angle_beta   112.23380584
_cell_angle_gamma   90.00000021
_symmetry_Int_Tables_number   1
_chemical_formula_structural   Y5Os2
_chemical_formula_sum   'Y10 Os4'
_cell_volume   368.38791691
_cell_formula_units_Z   2
loop_
 _symmetry_equiv_pos_site_id
 _symmetry_equiv_pos_as_xyz
  1  'x, y, z'
loop_
 _atom_site_type_symbol
 _atom_site_label
 _atom_site_symmetry_multiplicity
 _atom_site_fract_x
 _atom_site_fract_y
 _atom_site_fract_z
 _atom_site_occupancy
  Y  Y0  1  0.976520  0.915232  0.183335  1
  Y  Y1  1  0.793185  0.584768  0.816665  1
  Y  Y2  1  0.023480  0.084768  0.816665  1
  Y  Y3  1  0.206815  0.415232  0.183335  1
  Y  Y4  1  0.639987  0.817106  0.435927  1
  Y  Y5  1  0.204060  0.682894  0.564073  1
  Y  Y6  1  0.360013  0.182894  0.564073  1
  Y  Y7  1  0.795940  0.317106  0.435927  1
  Y  Y8  1  0.422620  0.750000  0.000000  1
  Y  Y9  1  0.577380  0.250000  0.000000  1
  Os  Os10  1  0.823487  0.577026  0.220385  1
  Os  Os11  1  0.603102  0.922974  0.779615  1
  Os  Os12  1  0.176513  0.422974  0.779615  1
  Os  Os13  1  0.396898  0.077026  0.220385  1
