# generated using pymatgen
data_Mn4Nb4SiP3
_symmetry_space_group_name_H-M   'P 1'
_cell_length_a   3.54375700
_cell_length_b   6.25962374
_cell_length_c   7.29825284
_cell_angle_alpha   90.05528594
_cell_angle_beta   90.00000000
_cell_angle_gamma   90.00000000
_symmetry_Int_Tables_number   1
_chemical_formula_structural   Mn4Nb4SiP3
_chemical_formula_sum   'Mn4 Nb4 Si1 P3'
_cell_volume   161.89404178
_cell_formula_units_Z   1
loop_
 _symmetry_equiv_pos_site_id
 _symmetry_equiv_pos_as_xyz
  1  'x, y, z'
loop_
 _atom_site_type_symbol
 _atom_site_label
 _atom_site_symmetry_multiplicity
 _atom_site_fract_x
 _atom_site_fract_y
 _atom_site_fract_z
 _atom_site_occupancy
  Mn  Mn0  1  0.750000  0.860038  0.559008  1
  Mn  Mn1  1  0.250000  0.136414  0.445338  1
  Mn  Mn2  1  0.750000  0.364371  0.935325  1
  Mn  Mn3  1  0.250000  0.643504  0.058807  1
  Nb  Nb4  1  0.250000  0.529306  0.672303  1
  Nb  Nb5  1  0.750000  0.471649  0.330468  1
  Nb  Nb6  1  0.250000  0.030575  0.825680  1
  Nb  Nb7  1  0.750000  0.964659  0.173426  1
  Si  Si8  1  0.250000  0.268534  0.131204  1
  P  P9  1  0.750000  0.731345  0.868276  1
  P  P10  1  0.250000  0.770238  0.372218  1
  P  P11  1  0.750000  0.229365  0.627946  1
