# generated using pymatgen
data_Ti4Tc2IrOs
_symmetry_space_group_name_H-M   'P 1'
_cell_length_a   6.17764000
_cell_length_b   4.39278900
_cell_length_c   8.79215900
_cell_angle_alpha   90.00000000
_cell_angle_beta   89.99967941
_cell_angle_gamma   90.00000000
_symmetry_Int_Tables_number   1
_chemical_formula_structural   Ti4Tc2IrOs
_chemical_formula_sum   'Ti8 Tc4 Ir2 Os2'
_cell_volume   238.59342577
_cell_formula_units_Z   2
loop_
 _symmetry_equiv_pos_site_id
 _symmetry_equiv_pos_as_xyz
  1  'x, y, z'
loop_
 _atom_site_type_symbol
 _atom_site_label
 _atom_site_symmetry_multiplicity
 _atom_site_fract_x
 _atom_site_fract_y
 _atom_site_fract_z
 _atom_site_occupancy
  Ti  Ti0  1  0.998721  0.749999  0.123351  1
  Ti  Ti1  1  0.501308  0.749999  0.123355  1
  Ti  Ti2  1  0.001293  0.249999  0.376644  1
  Ti  Ti3  1  0.498738  0.249999  0.376649  1
  Ti  Ti4  1  0.498684  0.749999  0.626550  1
  Ti  Ti5  1  0.001285  0.749999  0.626555  1
  Ti  Ti6  1  0.501297  0.249999  0.873446  1
  Ti  Ti7  1  0.998674  0.249999  0.873449  1
  Tc  Tc8  1  0.750016  0.249999  0.126094  1
  Tc  Tc9  1  0.250020  0.749999  0.373900  1
  Tc  Tc10  1  0.749982  0.249999  0.624083  1
  Tc  Tc11  1  0.249984  0.749999  0.875922  1
  Ir  Ir12  1  0.250020  0.249999  0.125330  1
  Ir  Ir13  1  0.750019  0.749999  0.374669  1
  Os  Os14  1  0.249980  0.249999  0.624555  1
  Os  Os15  1  0.749979  0.749999  0.875449  1
