# generated using pymatgen
data_PaNiP2
_symmetry_space_group_name_H-M   'P 1'
_cell_length_a   3.87283900
_cell_length_b   3.86517300
_cell_length_c   13.28415000
_cell_angle_alpha   90.00000000
_cell_angle_beta   90.00000000
_cell_angle_gamma   90.00000000
_symmetry_Int_Tables_number   1
_chemical_formula_structural   PaNiP2
_chemical_formula_sum   'Pa3 Ni3 P6'
_cell_volume   198.85300169
_cell_formula_units_Z   3
loop_
 _symmetry_equiv_pos_site_id
 _symmetry_equiv_pos_as_xyz
  1  'x, y, z'
loop_
 _atom_site_type_symbol
 _atom_site_label
 _atom_site_symmetry_multiplicity
 _atom_site_fract_x
 _atom_site_fract_y
 _atom_site_fract_z
 _atom_site_occupancy
  Pa  Pa0  1  0.500000  0.000000  0.351477  1
  Pa  Pa1  1  0.500000  0.000000  0.659695  1
  Pa  Pa2  1  0.000000  0.500000  0.988267  1
  Ni  Ni3  1  0.000000  0.000000  0.172523  1
  Ni  Ni4  1  0.500000  0.500000  0.168849  1
  Ni  Ni5  1  0.000000  0.000000  0.825571  1
  P  P6  1  0.500000  0.000000  0.081266  1
  P  P7  1  0.500000  0.000000  0.910395  1
  P  P8  1  0.000000  0.500000  0.269839  1
  P  P9  1  0.000000  0.500000  0.734829  1
  P  P10  1  0.500000  0.500000  0.505498  1
  P  P11  1  0.000000  0.000000  0.504491  1
