# generated using pymatgen
data_Dy3Co7NiP6Os
_symmetry_space_group_name_H-M   'P 1'
_cell_length_a   3.73630900
_cell_length_b   10.48986800
_cell_length_c   12.25132500
_cell_angle_alpha   90.00000000
_cell_angle_beta   90.00000000
_cell_angle_gamma   90.00000000
_symmetry_Int_Tables_number   1
_chemical_formula_structural   Dy3Co7NiP6Os
_chemical_formula_sum   'Dy6 Co14 Ni2 P12 Os2'
_cell_volume   480.17093690
_cell_formula_units_Z   2
loop_
 _symmetry_equiv_pos_site_id
 _symmetry_equiv_pos_as_xyz
  1  'x, y, z'
loop_
 _atom_site_type_symbol
 _atom_site_label
 _atom_site_symmetry_multiplicity
 _atom_site_fract_x
 _atom_site_fract_y
 _atom_site_fract_z
 _atom_site_occupancy
  Dy  Dy0  1  0.000000  0.500000  0.523831  1
  Dy  Dy1  1  0.500000  0.000000  0.476169  1
  Dy  Dy2  1  0.500000  0.816111  0.206479  1
  Dy  Dy3  1  0.500000  0.183889  0.206479  1
  Dy  Dy4  1  0.000000  0.683889  0.793521  1
  Dy  Dy5  1  0.000000  0.316111  0.793521  1
  Co  Co6  1  0.000000  0.500000  0.987125  1
  Co  Co7  1  0.500000  0.000000  0.012875  1
  Co  Co8  1  0.500000  0.332581  0.989902  1
  Co  Co9  1  0.500000  0.667419  0.989902  1
  Co  Co10  1  0.000000  0.167419  0.010098  1
  Co  Co11  1  0.000000  0.832581  0.010098  1
  Co  Co12  1  0.500000  0.298858  0.430909  1
  Co  Co13  1  0.500000  0.701142  0.430909  1
  Co  Co14  1  0.000000  0.201142  0.569091  1
  Co  Co15  1  0.000000  0.798858  0.569091  1
  Co  Co16  1  0.500000  0.879447  0.709298  1
  Co  Co17  1  0.500000  0.120553  0.709298  1
  Co  Co18  1  0.000000  0.620553  0.290702  1
  Co  Co19  1  0.000000  0.379447  0.290702  1
  Ni  Ni20  1  0.500000  0.500000  0.703262  1
  Ni  Ni21  1  0.000000  0.000000  0.296738  1
  P  P22  1  0.500000  0.500000  0.881676  1
  P  P23  1  0.000000  0.000000  0.118324  1
  P  P24  1  0.500000  0.500000  0.350224  1
  P  P25  1  0.000000  0.000000  0.649776  1
  P  P26  1  0.500000  0.310583  0.615345  1
  P  P27  1  0.500000  0.689417  0.615345  1
  P  P28  1  0.000000  0.189417  0.384655  1
  P  P29  1  0.000000  0.810583  0.384655  1
  P  P30  1  0.500000  0.846624  0.893264  1
  P  P31  1  0.500000  0.153376  0.893264  1
  P  P32  1  0.000000  0.653376  0.106736  1
  P  P33  1  0.000000  0.346624  0.106736  1
  Os  Os34  1  0.500000  0.500000  0.158526  1
  Os  Os35  1  0.000000  0.000000  0.841474  1
