# generated using pymatgen
data_TbY3MnAl18Pd5
_symmetry_space_group_name_H-M   'P 1'
_cell_length_a   7.60768182
_cell_length_b   7.60809448
_cell_length_c   9.49058393
_cell_angle_alpha   89.90133492
_cell_angle_beta   89.90417756
_cell_angle_gamma   119.48796421
_symmetry_Int_Tables_number   1
_chemical_formula_structural   TbY3MnAl18Pd5
_chemical_formula_sum   'Tb1 Y3 Mn1 Al18 Pd5'
_cell_volume   478.15322189
_cell_formula_units_Z   1
loop_
 _symmetry_equiv_pos_site_id
 _symmetry_equiv_pos_as_xyz
  1  'x, y, z'
loop_
 _atom_site_type_symbol
 _atom_site_label
 _atom_site_symmetry_multiplicity
 _atom_site_fract_x
 _atom_site_fract_y
 _atom_site_fract_z
 _atom_site_occupancy
  Tb  Tb0  1  0.994778  0.669413  0.248959  1
  Y  Y1  1  0.005188  0.330545  0.751116  1
  Y  Y2  1  0.669343  0.994845  0.248920  1
  Y  Y3  1  0.330618  0.005245  0.751046  1
  Mn  Mn4  1  0.999864  0.000089  0.999995  1
  Al  Al5  1  0.124018  0.124000  0.241769  1
  Al  Al6  1  0.876160  0.876186  0.758238  1
  Al  Al7  1  0.998625  0.323721  0.071836  1
  Al  Al8  1  0.001383  0.676077  0.927998  1
  Al  Al9  1  0.997891  0.664738  0.578019  1
  Al  Al10  1  0.335359  0.002155  0.421999  1
  Al  Al11  1  0.002040  0.335080  0.422024  1
  Al  Al12  1  0.664805  0.997932  0.578056  1
  Al  Al13  1  0.676121  0.001407  0.928126  1
  Al  Al14  1  0.324191  0.998847  0.071761  1
  Al  Al15  1  0.334368  0.334353  0.557311  1
  Al  Al16  1  0.665578  0.665626  0.442829  1
  Al  Al17  1  0.676290  0.676491  0.050479  1
  Al  Al18  1  0.323478  0.323458  0.949381  1
  Al  Al19  1  0.340391  0.545693  0.248423  1
  Al  Al20  1  0.659535  0.454178  0.751589  1
  Al  Al21  1  0.545745  0.340509  0.248435  1
  Al  Al22  1  0.454199  0.659549  0.751569  1
  Pd  Pd23  1  0.672033  0.327954  0.999985  1
  Pd  Pd24  1  0.327979  0.672013  0.999987  1
  Pd  Pd25  1  0.327842  0.672177  0.500045  1
  Pd  Pd26  1  0.672161  0.327715  0.500068  1
  Pd  Pd27  1  0.000019  0.000004  0.500035  1
