# generated using pymatgen
data_LaNdCuSiNi8
_symmetry_space_group_name_H-M   'P 1'
_cell_length_a   3.99851100
_cell_length_b   5.10379700
_cell_length_c   8.39716900
_cell_angle_alpha   90.00000000
_cell_angle_beta   90.00000000
_cell_angle_gamma   90.00000000
_symmetry_Int_Tables_number   1
_chemical_formula_structural   LaNdCuSiNi8
_chemical_formula_sum   'La1 Nd1 Cu1 Si1 Ni8'
_cell_volume   171.36596907
_cell_formula_units_Z   1
loop_
 _symmetry_equiv_pos_site_id
 _symmetry_equiv_pos_as_xyz
  1  'x, y, z'
loop_
 _atom_site_type_symbol
 _atom_site_label
 _atom_site_symmetry_multiplicity
 _atom_site_fract_x
 _atom_site_fract_y
 _atom_site_fract_z
 _atom_site_occupancy
  La  La0  1  0.000000  0.000000  0.006227  1
  Nd  Nd1  1  0.000000  0.500000  0.495769  1
  Cu  Cu2  1  0.000000  0.500000  0.834173  1
  Si  Si3  1  0.500000  0.000000  0.499277  1
  Ni  Ni4  1  0.000000  0.000000  0.343931  1
  Ni  Ni5  1  0.000000  0.500000  0.162659  1
  Ni  Ni6  1  0.000000  0.000000  0.659139  1
  Ni  Ni7  1  0.500000  0.500000  0.000368  1
  Ni  Ni8  1  0.500000  0.258571  0.261284  1
  Ni  Ni9  1  0.500000  0.743471  0.737944  1
  Ni  Ni10  1  0.500000  0.741429  0.261284  1
  Ni  Ni11  1  0.500000  0.256529  0.737944  1
