# generated using pymatgen
data_Zr10Ni2(SnBi)3
_symmetry_space_group_name_H-M   'P 1'
_cell_length_a   8.75098800
_cell_length_b   8.75098757
_cell_length_c   5.88421000
_cell_angle_alpha   90.00000000
_cell_angle_beta   90.00000000
_cell_angle_gamma   119.99999406
_symmetry_Int_Tables_number   1
_chemical_formula_structural   Zr10Ni2(SnBi)3
_chemical_formula_sum   'Zr10 Ni2 Sn3 Bi3'
_cell_volume   390.24107278
_cell_formula_units_Z   1
loop_
 _symmetry_equiv_pos_site_id
 _symmetry_equiv_pos_as_xyz
  1  'x, y, z'
loop_
 _atom_site_type_symbol
 _atom_site_label
 _atom_site_symmetry_multiplicity
 _atom_site_fract_x
 _atom_site_fract_y
 _atom_site_fract_z
 _atom_site_occupancy
  Zr  Zr0  1  0.666667  0.333333  0.005092  1
  Zr  Zr1  1  0.333333  0.666667  0.005092  1
  Zr  Zr2  1  0.333333  0.666667  0.494908  1
  Zr  Zr3  1  0.666667  0.333333  0.494908  1
  Zr  Zr4  1  0.751314  0.751314  0.750000  1
  Zr  Zr5  1  0.248686  0.000000  0.750000  1
  Zr  Zr6  1  0.000000  0.248686  0.750000  1
  Zr  Zr7  1  0.253296  0.253296  0.250000  1
  Zr  Zr8  1  0.746704  0.000000  0.250000  1
  Zr  Zr9  1  0.000000  0.746704  0.250000  1
  Ni  Ni10  1  0.000000  0.000000  0.003835  1
  Ni  Ni11  1  0.000000  0.000000  0.496165  1
  Sn  Sn12  1  0.611803  0.611803  0.250000  1
  Sn  Sn13  1  0.388197  0.000000  0.250000  1
  Sn  Sn14  1  0.000000  0.388197  0.250000  1
  Bi  Bi15  1  0.392956  0.392956  0.750000  1
  Bi  Bi16  1  0.607044  0.000000  0.750000  1
  Bi  Bi17  1  0.000000  0.607044  0.750000  1
