# generated using pymatgen
data_Tb3HoAl18(RePd2)2
_symmetry_space_group_name_H-M   'P 1'
_cell_length_a   7.61294381
_cell_length_b   7.61415998
_cell_length_c   9.53022400
_cell_angle_alpha   90.00000000
_cell_angle_beta   90.00000000
_cell_angle_gamma   118.41452682
_symmetry_Int_Tables_number   1
_chemical_formula_structural   Tb3HoAl18(RePd2)2
_chemical_formula_sum   'Tb3 Ho1 Al18 Re2 Pd4'
_cell_volume   485.87815906
_cell_formula_units_Z   1
loop_
 _symmetry_equiv_pos_site_id
 _symmetry_equiv_pos_as_xyz
  1  'x, y, z'
loop_
 _atom_site_type_symbol
 _atom_site_label
 _atom_site_symmetry_multiplicity
 _atom_site_fract_x
 _atom_site_fract_y
 _atom_site_fract_z
 _atom_site_occupancy
  Tb  Tb0  1  0.994449  0.683654  0.250000  1
  Tb  Tb1  1  0.005737  0.316297  0.750000  1
  Tb  Tb2  1  0.683653  0.994428  0.250000  1
  Ho  Ho3  1  0.316040  0.005666  0.750000  1
  Al  Al4  1  0.134505  0.134508  0.250000  1
  Al  Al5  1  0.865673  0.865543  0.750000  1
  Al  Al6  1  0.002602  0.336445  0.077135  1
  Al  Al7  1  0.997507  0.663708  0.922812  1
  Al  Al8  1  0.997507  0.663708  0.577188  1
  Al  Al9  1  0.336433  0.002602  0.423005  1
  Al  Al10  1  0.002602  0.336445  0.422865  1
  Al  Al11  1  0.663413  0.997370  0.577177  1
  Al  Al12  1  0.663413  0.997370  0.922823  1
  Al  Al13  1  0.336433  0.002602  0.076995  1
  Al  Al14  1  0.329629  0.329480  0.547946  1
  Al  Al15  1  0.670357  0.670347  0.452181  1
  Al  Al16  1  0.670357  0.670347  0.047819  1
  Al  Al17  1  0.329629  0.329480  0.952054  1
  Al  Al18  1  0.345164  0.554260  0.250000  1
  Al  Al19  1  0.654696  0.445604  0.750000  1
  Al  Al20  1  0.554262  0.345149  0.250000  1
  Al  Al21  1  0.445723  0.654913  0.750000  1
  Re  Re22  1  0.000156  0.000035  0.999780  1
  Re  Re23  1  0.000156  0.000035  0.500220  1
  Pd  Pd24  1  0.672134  0.327798  0.999976  1
  Pd  Pd25  1  0.327817  0.672204  0.999962  1
  Pd  Pd26  1  0.327817  0.672204  0.500038  1
  Pd  Pd27  1  0.672134  0.327798  0.500024  1
