# generated using pymatgen
data_Dy7TmSc12Si15Ag
_symmetry_space_group_name_H-M   'P 1'
_cell_length_a   7.12142618
_cell_length_b   7.36788991
_cell_length_c   14.05238515
_cell_angle_alpha   89.87035194
_cell_angle_beta   89.56276113
_cell_angle_gamma   90.19022620
_symmetry_Int_Tables_number   1
_chemical_formula_structural   Dy7TmSc12Si15Ag
_chemical_formula_sum   'Dy7 Tm1 Sc12 Si15 Ag1'
_cell_volume   737.29955757
_cell_formula_units_Z   1
loop_
 _symmetry_equiv_pos_site_id
 _symmetry_equiv_pos_as_xyz
  1  'x, y, z'
loop_
 _atom_site_type_symbol
 _atom_site_label
 _atom_site_symmetry_multiplicity
 _atom_site_fract_x
 _atom_site_fract_y
 _atom_site_fract_z
 _atom_site_occupancy
  Dy  Dy0  1  0.011612  0.175422  0.097504  1
  Dy  Dy1  1  0.988374  0.825932  0.904024  1
  Dy  Dy2  1  0.487719  0.677034  0.904221  1
  Dy  Dy3  1  0.989819  0.830406  0.597544  1
  Dy  Dy4  1  0.511611  0.323564  0.096274  1
  Dy  Dy5  1  0.007734  0.171406  0.399084  1
  Dy  Dy6  1  0.511055  0.322270  0.400480  1
  Tm  Tm7  1  0.494881  0.679240  0.600193  1
  Sc  Sc8  1  0.163981  0.501818  0.752888  1
  Sc  Sc9  1  0.837283  0.498631  0.251004  1
  Sc  Sc10  1  0.336903  0.999767  0.248898  1
  Sc  Sc11  1  0.665589  0.996411  0.751139  1
  Sc  Sc12  1  0.343241  0.173488  0.626959  1
  Sc  Sc13  1  0.663431  0.823100  0.373767  1
  Sc  Sc14  1  0.166167  0.674993  0.371505  1
  Sc  Sc15  1  0.669233  0.824351  0.124760  1
  Sc  Sc16  1  0.826554  0.326066  0.625486  1
  Sc  Sc17  1  0.329245  0.175141  0.875996  1
  Sc  Sc18  1  0.830773  0.322951  0.875755  1
  Sc  Sc19  1  0.168710  0.676055  0.125245  1
  Si  Si20  1  0.037009  0.120936  0.750009  1
  Si  Si21  1  0.964186  0.883604  0.248607  1
  Si  Si22  1  0.466041  0.614366  0.248066  1
  Si  Si23  1  0.534962  0.387231  0.752114  1
  Si  Si24  1  0.286844  0.873297  0.750561  1
  Si  Si25  1  0.711820  0.127331  0.248323  1
  Si  Si26  1  0.213836  0.370442  0.248490  1
  Si  Si27  1  0.788172  0.628250  0.752123  1
  Si  Si28  1  0.833867  0.537787  0.459596  1
  Si  Si29  1  0.336408  0.960885  0.461366  1
  Si  Si30  1  0.843343  0.535333  0.039085  1
  Si  Si31  1  0.660151  0.035377  0.537991  1
  Si  Si32  1  0.155554  0.464587  0.961919  1
  Si  Si33  1  0.657668  0.035132  0.960696  1
  Si  Si34  1  0.342259  0.964419  0.039888  1
  Ag  Ag35  1  0.163964  0.462974  0.538442  1
