# generated using pymatgen
data_LiTm2AsP
_symmetry_space_group_name_H-M   'P 1'
_cell_length_a   4.07440900
_cell_length_b   4.07440988
_cell_length_c   13.68166400
_cell_angle_alpha   90.00000000
_cell_angle_beta   90.00000000
_cell_angle_gamma   119.99998477
_symmetry_Int_Tables_number   1
_chemical_formula_structural   LiTm2AsP
_chemical_formula_sum   'Li2 Tm4 As2 P2'
_cell_volume   196.69755311
_cell_formula_units_Z   2
loop_
 _symmetry_equiv_pos_site_id
 _symmetry_equiv_pos_as_xyz
  1  'x, y, z'
loop_
 _atom_site_type_symbol
 _atom_site_label
 _atom_site_symmetry_multiplicity
 _atom_site_fract_x
 _atom_site_fract_y
 _atom_site_fract_z
 _atom_site_occupancy
  Li  Li0  1  0.000000  0.000000  0.750000  1
  Li  Li1  1  0.000000  0.000000  0.250000  1
  Tm  Tm2  1  0.333333  0.666667  0.893296  1
  Tm  Tm3  1  0.666667  0.333333  0.393296  1
  Tm  Tm4  1  0.666667  0.333333  0.106704  1
  Tm  Tm5  1  0.333333  0.666667  0.606704  1
  As  As6  1  0.333333  0.666667  0.250000  1
  As  As7  1  0.666667  0.333333  0.750000  1
  P  P8  1  0.000000  0.000000  0.000000  1
  P  P9  1  0.000000  0.000000  0.500000  1
