# generated using pymatgen
data_Ba6Mn4CdO15
_symmetry_space_group_name_H-M   'P 1'
_cell_length_a   7.36687912
_cell_length_b   7.36686631
_cell_length_c   7.36687377
_cell_angle_alpha   87.33242615
_cell_angle_beta   87.33272946
_cell_angle_gamma   87.33248136
_symmetry_Int_Tables_number   1
_chemical_formula_structural   Ba6Mn4CdO15
_chemical_formula_sum   'Ba6 Mn4 Cd1 O15'
_cell_volume   398.54564572
_cell_formula_units_Z   1
loop_
 _symmetry_equiv_pos_site_id
 _symmetry_equiv_pos_as_xyz
  1  'x, y, z'
loop_
 _atom_site_type_symbol
 _atom_site_label
 _atom_site_symmetry_multiplicity
 _atom_site_fract_x
 _atom_site_fract_y
 _atom_site_fract_z
 _atom_site_occupancy
  Ba  Ba0  1  0.334083  0.665916  0.999995  1
  Ba  Ba1  1  0.999995  0.334085  0.665913  1
  Ba  Ba2  1  0.665916  0.999996  0.334081  1
  Ba  Ba3  1  0.146191  0.853807  0.500001  1
  Ba  Ba4  1  0.499998  0.146191  0.853806  1
  Ba  Ba5  1  0.853808  0.499999  0.146189  1
  Mn  Mn6  1  0.289846  0.289845  0.289848  1
  Mn  Mn7  1  0.710155  0.710157  0.710155  1
  Mn  Mn8  1  0.095116  0.095112  0.095114  1
  Mn  Mn9  1  0.904885  0.904886  0.904885  1
  Cd  Cd10  1  0.499998  0.499995  0.499996  1
  O  O11  1  0.145469  0.000002  0.854544  1
  O  O12  1  0.854545  0.145469  0.000004  1
  O  O13  1  0.000006  0.854540  0.145466  1
  O  O14  1  0.032344  0.191028  0.329777  1
  O  O15  1  0.329778  0.032344  0.191028  1
  O  O16  1  0.191030  0.329780  0.032345  1
  O  O17  1  0.808971  0.967658  0.670223  1
  O  O18  1  0.670224  0.808976  0.967657  1
  O  O19  1  0.967654  0.670223  0.808973  1
  O  O20  1  0.361726  0.215968  0.525232  1
  O  O21  1  0.525233  0.361726  0.215973  1
  O  O22  1  0.215970  0.525231  0.361729  1
  O  O23  1  0.784031  0.638268  0.474766  1
  O  O24  1  0.474766  0.784029  0.638267  1
  O  O25  1  0.638266  0.474770  0.784031  1
