# generated using pymatgen
data_Yb5Mg2CdPt4
_symmetry_space_group_name_H-M   'P 1'
_cell_length_a   4.23400000
_cell_length_b   7.29600995
_cell_length_c   8.66141852
_cell_angle_alpha   89.17517214
_cell_angle_beta   90.00000000
_cell_angle_gamma   90.00000000
_symmetry_Int_Tables_number   1
_chemical_formula_structural   Yb5Mg2CdPt4
_chemical_formula_sum   'Yb5 Mg2 Cd1 Pt4'
_cell_volume   267.53480620
_cell_formula_units_Z   1
loop_
 _symmetry_equiv_pos_site_id
 _symmetry_equiv_pos_as_xyz
  1  'x, y, z'
loop_
 _atom_site_type_symbol
 _atom_site_label
 _atom_site_symmetry_multiplicity
 _atom_site_fract_x
 _atom_site_fract_y
 _atom_site_fract_z
 _atom_site_occupancy
  Yb  Yb0  1  0.750000  0.638202  0.438350  1
  Yb  Yb1  1  0.250000  0.977176  0.320298  1
  Yb  Yb2  1  0.250000  0.456446  0.167460  1
  Yb  Yb3  1  0.750000  0.042665  0.677709  1
  Yb  Yb4  1  0.750000  0.533075  0.829006  1
  Mg  Mg5  1  0.250000  0.862257  0.940962  1
  Mg  Mg6  1  0.750000  0.136067  0.060876  1
  Cd  Cd7  1  0.250000  0.353472  0.569380  1
  Pt  Pt8  1  0.250000  0.234127  0.882559  1
  Pt  Pt9  1  0.250000  0.750928  0.634525  1
  Pt  Pt10  1  0.750000  0.762279  0.118112  1
  Pt  Pt11  1  0.750000  0.253305  0.360762  1
