# generated using pymatgen
data_Ce3Y3Co16(P6W)2
_symmetry_space_group_name_H-M   'P 1'
_cell_length_a   3.75176500
_cell_length_b   10.62109089
_cell_length_c   12.28112053
_cell_angle_alpha   90.15668294
_cell_angle_beta   90.00000000
_cell_angle_gamma   90.00000000
_symmetry_Int_Tables_number   1
_chemical_formula_structural   Ce3Y3Co16(P6W)2
_chemical_formula_sum   'Ce3 Y3 Co16 P12 W2'
_cell_volume   489.37425978
_cell_formula_units_Z   1
loop_
 _symmetry_equiv_pos_site_id
 _symmetry_equiv_pos_as_xyz
  1  'x, y, z'
loop_
 _atom_site_type_symbol
 _atom_site_label
 _atom_site_symmetry_multiplicity
 _atom_site_fract_x
 _atom_site_fract_y
 _atom_site_fract_z
 _atom_site_occupancy
  Ce  Ce0  1  0.000000  0.499572  0.528936  1
  Ce  Ce1  1  0.500000  0.000849  0.472180  1
  Ce  Ce2  1  0.500000  0.822104  0.206785  1
  Y  Y3  1  0.500000  0.183053  0.204109  1
  Y  Y4  1  0.000000  0.681658  0.796168  1
  Y  Y5  1  0.000000  0.317833  0.795483  1
  Co  Co6  1  0.500000  0.499489  0.699301  1
  Co  Co7  1  0.000000  0.996743  0.299148  1
  Co  Co8  1  0.000000  0.499380  0.986655  1
  Co  Co9  1  0.500000  0.000686  0.011647  1
  Co  Co10  1  0.500000  0.332984  0.990072  1
  Co  Co11  1  0.500000  0.666994  0.990333  1
  Co  Co12  1  0.000000  0.168172  0.008867  1
  Co  Co13  1  0.000000  0.833419  0.009140  1
  Co  Co14  1  0.500000  0.296740  0.431623  1
  Co  Co15  1  0.500000  0.702561  0.432576  1
  Co  Co16  1  0.000000  0.202594  0.568080  1
  Co  Co17  1  0.000000  0.797332  0.569805  1
  Co  Co18  1  0.500000  0.879496  0.709357  1
  Co  Co19  1  0.500000  0.120065  0.708736  1
  Co  Co20  1  0.000000  0.620693  0.290850  1
  Co  Co21  1  0.000000  0.379402  0.290996  1
  P  P22  1  0.500000  0.499699  0.879729  1
  P  P23  1  0.000000  0.002624  0.117189  1
  P  P24  1  0.500000  0.499444  0.348385  1
  P  P25  1  0.000000  0.999942  0.651967  1
  P  P26  1  0.500000  0.307468  0.616610  1
  P  P27  1  0.500000  0.691696  0.617544  1
  P  P28  1  0.000000  0.191701  0.382933  1
  P  P29  1  0.000000  0.806000  0.387279  1
  P  P30  1  0.500000  0.844255  0.893240  1
  P  P31  1  0.500000  0.156105  0.892695  1
  P  P32  1  0.000000  0.654593  0.105273  1
  P  P33  1  0.000000  0.344854  0.106457  1
  W  W34  1  0.500000  0.499912  0.154672  1
  W  W35  1  0.000000  0.999891  0.845178  1
