# generated using pymatgen
data_La2B4Ir2Rh3
_symmetry_space_group_name_H-M   'P 1'
_cell_length_a   7.62289696
_cell_length_b   6.33305115
_cell_length_c   5.77973562
_cell_angle_alpha   77.85290115
_cell_angle_beta   54.31067894
_cell_angle_gamma   47.83641942
_symmetry_Int_Tables_number   1
_chemical_formula_structural   La2B4Ir2Rh3
_chemical_formula_sum   'La2 B4 Ir2 Rh3'
_cell_volume   160.19106481
_cell_formula_units_Z   1
loop_
 _symmetry_equiv_pos_site_id
 _symmetry_equiv_pos_as_xyz
  1  'x, y, z'
loop_
 _atom_site_type_symbol
 _atom_site_label
 _atom_site_symmetry_multiplicity
 _atom_site_fract_x
 _atom_site_fract_y
 _atom_site_fract_z
 _atom_site_occupancy
  La  La0  1  0.857217  0.857217  0.142783  1
  La  La1  1  0.142783  0.142783  0.857217  1
  B  B2  1  0.786378  0.474435  0.533820  1
  B  B3  1  0.205366  0.533820  0.474435  1
  B  B4  1  0.533820  0.205366  0.786378  1
  B  B5  1  0.474435  0.786378  0.205366  1
  Ir  Ir6  1  0.750000  0.750000  0.750000  1
  Ir  Ir7  1  0.500000  0.500000  0.500000  1
  Rh  Rh8  1  0.499377  0.499377  0.000623  1
  Rh  Rh9  1  0.000623  0.000623  0.499377  1
  Rh  Rh10  1  0.250000  0.250000  0.250000  1
