# generated using pymatgen
data_Sm6P13Rh20
_symmetry_space_group_name_H-M   'P 1'
_cell_length_a   13.40409600
_cell_length_b   13.40409494
_cell_length_c   3.95527900
_cell_angle_alpha   90.00000000
_cell_angle_beta   90.00000000
_cell_angle_gamma   119.99999769
_symmetry_Int_Tables_number   1
_chemical_formula_structural   Sm6P13Rh20
_chemical_formula_sum   'Sm6 P13 Rh20'
_cell_volume   615.43584868
_cell_formula_units_Z   1
loop_
 _symmetry_equiv_pos_site_id
 _symmetry_equiv_pos_as_xyz
  1  'x, y, z'
loop_
 _atom_site_type_symbol
 _atom_site_label
 _atom_site_symmetry_multiplicity
 _atom_site_fract_x
 _atom_site_fract_y
 _atom_site_fract_z
 _atom_site_occupancy
  Sm  Sm0  1  0.530151  0.717147  0.247342  1
  Sm  Sm1  1  0.282853  0.813004  0.247342  1
  Sm  Sm2  1  0.186996  0.469849  0.247342  1
  Sm  Sm3  1  0.469849  0.282853  0.752658  1
  Sm  Sm4  1  0.717147  0.186996  0.752658  1
  Sm  Sm5  1  0.813004  0.530151  0.752658  1
  P  P6  1  0.523977  0.137651  0.250862  1
  P  P7  1  0.862349  0.386326  0.250862  1
  P  P8  1  0.613674  0.476023  0.250862  1
  P  P9  1  0.947214  0.717164  0.255001  1
  P  P10  1  0.282836  0.230050  0.255001  1
  P  P11  1  0.769950  0.052786  0.255001  1
  P  P12  1  0.386326  0.523977  0.749138  1
  P  P13  1  0.476023  0.862349  0.749138  1
  P  P14  1  0.137651  0.613674  0.749138  1
  P  P15  1  0.717164  0.769950  0.744999  1
  P  P16  1  0.230050  0.947214  0.744999  1
  P  P17  1  0.052786  0.282836  0.744999  1
  P  P18  1  0.000000  0.000000  0.000000  1
  Rh  Rh19  1  0.333333  0.666667  0.751434  1
  Rh  Rh20  1  0.922050  0.249358  0.255752  1
  Rh  Rh21  1  0.750642  0.672692  0.255752  1
  Rh  Rh22  1  0.327308  0.077950  0.255752  1
  Rh  Rh23  1  0.439466  0.024293  0.751974  1
  Rh  Rh24  1  0.975707  0.415173  0.751974  1
  Rh  Rh25  1  0.584827  0.560534  0.751974  1
  Rh  Rh26  1  0.666667  0.333333  0.248566  1
  Rh  Rh27  1  0.093414  0.185904  0.245761  1
  Rh  Rh28  1  0.814096  0.907510  0.245761  1
  Rh  Rh29  1  0.092490  0.906586  0.245761  1
  Rh  Rh30  1  0.024293  0.584827  0.248026  1
  Rh  Rh31  1  0.415173  0.439466  0.248026  1
  Rh  Rh32  1  0.560534  0.975707  0.248026  1
  Rh  Rh33  1  0.672692  0.922050  0.744248  1
  Rh  Rh34  1  0.077950  0.750642  0.744248  1
  Rh  Rh35  1  0.249358  0.327308  0.744248  1
  Rh  Rh36  1  0.906586  0.814096  0.754239  1
  Rh  Rh37  1  0.185904  0.092490  0.754239  1
  Rh  Rh38  1  0.907510  0.093414  0.754239  1
