# generated using pymatgen
data_Pa10Si16B
_symmetry_space_group_name_H-M   'P 1'
_cell_length_a   10.72632804
_cell_length_b   10.72719171
_cell_length_c   10.72632900
_cell_angle_alpha   144.83721289
_cell_angle_beta   133.22914775
_cell_angle_gamma   59.83695644
_symmetry_Int_Tables_number   1
_chemical_formula_structural   Pa10Si16B
_chemical_formula_sum   'Pa10 Si16 B1'
_cell_volume   513.00974584
_cell_formula_units_Z   1
loop_
 _symmetry_equiv_pos_site_id
 _symmetry_equiv_pos_as_xyz
  1  'x, y, z'
loop_
 _atom_site_type_symbol
 _atom_site_label
 _atom_site_symmetry_multiplicity
 _atom_site_fract_x
 _atom_site_fract_y
 _atom_site_fract_z
 _atom_site_occupancy
  Pa  Pa0  1  0.050487  0.563242  0.008145  1
  Pa  Pa1  1  0.350159  0.372189  0.523293  1
  Pa  Pa2  1  0.145761  0.167345  0.516423  1
  Pa  Pa3  1  0.454683  0.964326  0.020536  1
  Pa  Pa4  1  0.650923  0.167345  0.021585  1
  Pa  Pa5  1  0.943789  0.964326  0.509643  1
  Pa  Pa6  1  0.848896  0.372189  0.022030  1
  Pa  Pa7  1  0.555097  0.563242  0.512755  1
  Pa  Pa8  1  0.239872  0.757431  0.000763  1
  Pa  Pa9  1  0.756667  0.757431  0.517559  1
  Si  Si10  1  0.129601  0.109765  0.980164  1
  Si  Si11  1  0.805727  0.217239  0.411512  1
  Si  Si12  1  0.299733  0.896963  0.597232  1
  Si  Si13  1  0.400450  0.498733  0.098282  1
  Si  Si14  1  0.887838  0.820385  0.932548  1
  Si  Si15  1  0.104620  0.714069  0.609450  1
  Si  Si16  1  0.201774  0.554519  0.352745  1
  Si  Si17  1  0.696147  0.293619  0.597474  1
  Si  Si18  1  0.991496  0.434735  0.443238  1
  Si  Si19  1  0.717939  0.678678  0.960739  1
  Si  Si20  1  0.596913  0.698031  0.101118  1
  Si  Si21  1  0.003822  0.087289  0.083467  1
  Si  Si22  1  0.497912  0.348653  0.850740  1
  Si  Si23  1  0.277421  0.245838  0.968417  1
  Si  Si24  1  0.572707  0.043785  0.471077  1
  Si  Si25  1  0.422970  0.892742  0.469770  1
  B  B26  1  0.896595  0.504812  0.608217  1
