# generated using pymatgen
data_Tb16ZnIn3(RuRh)2
_symmetry_space_group_name_H-M   'P 1'
_cell_length_a   9.67731775
_cell_length_b   9.68209482
_cell_length_c   9.67731759
_cell_angle_alpha   59.80567777
_cell_angle_beta   59.71391651
_cell_angle_gamma   59.80567703
_symmetry_Int_Tables_number   1
_chemical_formula_structural   Tb16ZnIn3(RuRh)2
_chemical_formula_sum   'Tb16 Zn1 In3 Ru2 Rh2'
_cell_volume   637.88179298
_cell_formula_units_Z   1
loop_
 _symmetry_equiv_pos_site_id
 _symmetry_equiv_pos_as_xyz
  1  'x, y, z'
loop_
 _atom_site_type_symbol
 _atom_site_label
 _atom_site_symmetry_multiplicity
 _atom_site_fract_x
 _atom_site_fract_y
 _atom_site_fract_z
 _atom_site_occupancy
  Tb  Tb0  1  0.808159  0.807891  0.191087  1
  Tb  Tb1  1  0.808219  0.192492  0.808219  1
  Tb  Tb2  1  0.190095  0.193407  0.810460  1
  Tb  Tb3  1  0.649512  0.049339  0.649512  1
  Tb  Tb4  1  0.060348  0.059943  0.442286  1
  Tb  Tb5  1  0.440732  0.436175  0.066720  1
  Tb  Tb6  1  0.651370  0.649747  0.651370  1
  Tb  Tb7  1  0.810460  0.193407  0.190095  1
  Tb  Tb8  1  0.191087  0.807891  0.808159  1
  Tb  Tb9  1  0.047455  0.649665  0.651137  1
  Tb  Tb10  1  0.442286  0.059943  0.060348  1
  Tb  Tb11  1  0.437035  0.067414  0.437035  1
  Tb  Tb12  1  0.058910  0.441409  0.058910  1
  Tb  Tb13  1  0.651137  0.649665  0.047455  1
  Tb  Tb14  1  0.192388  0.809089  0.192388  1
  Tb  Tb15  1  0.066720  0.436175  0.440732  1
  Zn  Zn16  1  0.417754  0.417000  0.417754  1
  In  In17  1  0.417689  0.417769  0.744031  1
  In  In18  1  0.418014  0.743380  0.418014  1
  In  In19  1  0.744031  0.417769  0.417689  1
  Ru  Ru20  1  0.857700  0.421628  0.857700  1
  Ru  Ru21  1  0.858300  0.861312  0.858300  1
  Rh  Rh22  1  0.858038  0.858743  0.422563  1
  Rh  Rh23  1  0.422563  0.858743  0.858038  1
