# generated using pymatgen
data_Al13IrPt12
_symmetry_space_group_name_H-M   'P 1'
_cell_length_a   5.36865515
_cell_length_b   9.27277480
_cell_length_c   9.27277569
_cell_angle_alpha   116.36784200
_cell_angle_beta   101.12732731
_cell_angle_gamma   101.12731566
_symmetry_Int_Tables_number   1
_chemical_formula_structural   Al13IrPt12
_chemical_formula_sum   'Al13 Ir1 Pt12'
_cell_volume   384.88531687
_cell_formula_units_Z   1
loop_
 _symmetry_equiv_pos_site_id
 _symmetry_equiv_pos_as_xyz
  1  'x, y, z'
loop_
 _atom_site_type_symbol
 _atom_site_label
 _atom_site_symmetry_multiplicity
 _atom_site_fract_x
 _atom_site_fract_y
 _atom_site_fract_z
 _atom_site_occupancy
  Al  Al0  1  0.000000  0.000000  0.000000  1
  Al  Al1  1  0.441817  0.288752  0.042112  1
  Al  Al2  1  0.247231  0.597712  0.154557  1
  Al  Al3  1  0.399704  0.957887  0.246639  1
  Al  Al4  1  0.846935  0.246640  0.288752  1
  Al  Al5  1  0.649519  0.556845  0.402288  1
  Al  Al6  1  0.092674  0.845443  0.443154  1
  Al  Al7  1  0.907326  0.154557  0.556845  1
  Al  Al8  1  0.350482  0.443155  0.597712  1
  Al  Al9  1  0.153065  0.753360  0.711247  1
  Al  Al10  1  0.600294  0.042111  0.753360  1
  Al  Al11  1  0.752767  0.402287  0.845442  1
  Al  Al12  1  0.558184  0.711248  0.957888  1
  Ir  Ir13  1  0.500001  0.000000  0.000000  1
  Pt  Pt14  1  0.937515  0.285974  0.037852  1
  Pt  Pt15  1  0.743787  0.595696  0.153086  1
  Pt  Pt16  1  0.899661  0.962148  0.248122  1
  Pt  Pt17  1  0.348460  0.248121  0.285973  1
  Pt  Pt18  1  0.148091  0.557390  0.404304  1
  Pt  Pt19  1  0.590701  0.846914  0.442610  1
  Pt  Pt20  1  0.409297  0.153085  0.557390  1
  Pt  Pt21  1  0.851909  0.442610  0.595696  1
  Pt  Pt22  1  0.651540  0.751879  0.714026  1
  Pt  Pt23  1  0.100337  0.037851  0.751877  1
  Pt  Pt24  1  0.256214  0.404304  0.846913  1
  Pt  Pt25  1  0.062486  0.714026  0.962148  1
