# generated using pymatgen
data_Gd2Ho2Tm(SiB4)2
_symmetry_space_group_name_H-M   'P 1'
_cell_length_a   7.22726376
_cell_length_b   7.22710377
_cell_length_c   8.09368101
_cell_angle_alpha   90.00505687
_cell_angle_beta   90.00094173
_cell_angle_gamma   90.05259311
_symmetry_Int_Tables_number   1
_chemical_formula_structural   Gd2Ho2Tm(SiB4)2
_chemical_formula_sum   'Gd4 Ho4 Tm2 Si4 B16'
_cell_volume   422.75046527
_cell_formula_units_Z   2
loop_
 _symmetry_equiv_pos_site_id
 _symmetry_equiv_pos_as_xyz
  1  'x, y, z'
loop_
 _atom_site_type_symbol
 _atom_site_label
 _atom_site_symmetry_multiplicity
 _atom_site_fract_x
 _atom_site_fract_y
 _atom_site_fract_z
 _atom_site_occupancy
  Gd  Gd0  1  0.680234  0.180207  0.227022  1
  Gd  Gd1  1  0.319188  0.819309  0.772388  1
  Gd  Gd2  1  0.319684  0.819771  0.227044  1
  Gd  Gd3  1  0.819522  0.680469  0.226492  1
  Ho  Ho4  1  0.819515  0.680311  0.777459  1
  Ho  Ho5  1  0.680420  0.180464  0.776630  1
  Ho  Ho6  1  0.180352  0.319553  0.777114  1
  Ho  Ho7  1  0.180248  0.319784  0.221979  1
  Tm  Tm8  1  0.000342  0.000641  0.500743  1
  Tm  Tm9  1  0.499977  0.499486  0.500729  1
  Si  Si10  1  0.115365  0.613612  0.502043  1
  Si  Si11  1  0.884677  0.383121  0.502738  1
  Si  Si12  1  0.383928  0.117532  0.501878  1
  Si  Si13  1  0.616040  0.885580  0.502603  1
  B  B14  1  0.172524  0.039656  0.998704  1
  B  B15  1  0.827341  0.961098  0.999311  1
  B  B16  1  0.960819  0.173028  0.998976  1
  B  B17  1  0.327412  0.538774  0.998736  1
  B  B18  1  0.039125  0.827943  0.999110  1
  B  B19  1  0.672509  0.460454  0.999347  1
  B  B20  1  0.539249  0.672077  0.998989  1
  B  B21  1  0.460694  0.326897  0.999022  1
  B  B22  1  0.089702  0.589460  0.998763  1
  B  B23  1  0.910623  0.410373  0.998941  1
  B  B24  1  0.410303  0.090015  0.998694  1
  B  B25  1  0.590038  0.910269  0.998812  1
  B  B26  1  0.000586  0.000923  0.161141  1
  B  B27  1  0.999487  0.000435  0.836734  1
  B  B28  1  0.500664  0.499122  0.836716  1
  B  B29  1  0.499432  0.499638  0.161142  1
