# generated using pymatgen
data_LiEr4Co19P12
_symmetry_space_group_name_H-M   'P 1'
_cell_length_a   3.64481600
_cell_length_b   10.22918842
_cell_length_c   11.73631778
_cell_angle_alpha   89.90718550
_cell_angle_beta   90.00000000
_cell_angle_gamma   90.00000000
_symmetry_Int_Tables_number   1
_chemical_formula_structural   LiEr4Co19P12
_chemical_formula_sum   'Li1 Er4 Co19 P12'
_cell_volume   437.57054259
_cell_formula_units_Z   1
loop_
 _symmetry_equiv_pos_site_id
 _symmetry_equiv_pos_as_xyz
  1  'x, y, z'
loop_
 _atom_site_type_symbol
 _atom_site_label
 _atom_site_symmetry_multiplicity
 _atom_site_fract_x
 _atom_site_fract_y
 _atom_site_fract_z
 _atom_site_occupancy
  Li  Li0  1  0.250000  0.702898  0.990074  1
  Er  Er1  1  0.250000  0.581268  0.701497  1
  Er  Er2  1  0.250000  0.919745  0.203439  1
  Er  Er3  1  0.750000  0.418493  0.297822  1
  Er  Er4  1  0.750000  0.080179  0.797259  1
  Co  Co5  1  0.250000  0.783696  0.493118  1
  Co  Co6  1  0.750000  0.288788  0.010450  1
  Co  Co7  1  0.750000  0.216894  0.506440  1
  Co  Co8  1  0.250000  0.406694  0.487359  1
  Co  Co9  1  0.250000  0.095403  0.987167  1
  Co  Co10  1  0.750000  0.592743  0.513865  1
  Co  Co11  1  0.750000  0.908359  0.013656  1
  Co  Co12  1  0.250000  0.223934  0.175937  1
  Co  Co13  1  0.250000  0.277887  0.675448  1
  Co  Co14  1  0.750000  0.779009  0.821557  1
  Co  Co15  1  0.750000  0.721035  0.327680  1
  Co  Co16  1  0.250000  0.883620  0.697993  1
  Co  Co17  1  0.250000  0.619732  0.200412  1
  Co  Co18  1  0.750000  0.118386  0.299895  1
  Co  Co19  1  0.750000  0.379622  0.800479  1
  Co  Co20  1  0.250000  0.464390  0.931733  1
  Co  Co21  1  0.250000  0.033414  0.431012  1
  Co  Co22  1  0.750000  0.534228  0.067265  1
  Co  Co23  1  0.750000  0.968234  0.567405  1
  P  P24  1  0.250000  0.422247  0.113190  1
  P  P25  1  0.250000  0.080817  0.612005  1
  P  P26  1  0.750000  0.577810  0.883349  1
  P  P27  1  0.750000  0.919814  0.387406  1
  P  P28  1  0.250000  0.267625  0.867783  1
  P  P29  1  0.250000  0.231244  0.368896  1
  P  P30  1  0.750000  0.731491  0.137294  1
  P  P31  1  0.750000  0.770372  0.630681  1
  P  P32  1  0.250000  0.601208  0.392971  1
  P  P33  1  0.250000  0.898486  0.891284  1
  P  P34  1  0.750000  0.397606  0.608520  1
  P  P35  1  0.750000  0.102627  0.107656  1
