# generated using pymatgen
data_Tb13Er7Co3Bi8Ru
_symmetry_space_group_name_H-M   'P 1'
_cell_length_a   7.99123907
_cell_length_b   8.92026844
_cell_length_c   12.43669018
_cell_angle_alpha   89.97106805
_cell_angle_beta   90.18968852
_cell_angle_gamma   90.02173950
_symmetry_Int_Tables_number   1
_chemical_formula_structural   Tb13Er7Co3Bi8Ru
_chemical_formula_sum   'Tb13 Er7 Co3 Bi8 Ru1'
_cell_volume   886.53195872
_cell_formula_units_Z   1
loop_
 _symmetry_equiv_pos_site_id
 _symmetry_equiv_pos_as_xyz
  1  'x, y, z'
loop_
 _atom_site_type_symbol
 _atom_site_label
 _atom_site_symmetry_multiplicity
 _atom_site_fract_x
 _atom_site_fract_y
 _atom_site_fract_z
 _atom_site_occupancy
  Tb  Tb0  1  0.848422  0.750213  0.800982  1
  Tb  Tb1  1  0.150479  0.249901  0.197918  1
  Tb  Tb2  1  0.349650  0.249914  0.697969  1
  Tb  Tb3  1  0.651862  0.750045  0.297271  1
  Tb  Tb4  1  0.378580  0.749989  0.692478  1
  Tb  Tb5  1  0.618841  0.250001  0.310894  1
  Tb  Tb6  1  0.880389  0.249789  0.811061  1
  Tb  Tb7  1  0.118341  0.750375  0.187643  1
  Tb  Tb8  1  0.951975  0.750026  0.503776  1
  Tb  Tb9  1  0.047550  0.250016  0.496814  1
  Tb  Tb10  1  0.453818  0.249783  0.997224  1
  Tb  Tb11  1  0.547240  0.750173  0.002669  1
  Tb  Tb12  1  0.176388  0.533178  0.937323  1
  Er  Er13  1  0.675400  0.040573  0.563854  1
  Er  Er14  1  0.324467  0.967099  0.436911  1
  Er  Er15  1  0.174434  0.966672  0.937511  1
  Er  Er16  1  0.324447  0.532878  0.436969  1
  Er  Er17  1  0.825109  0.035325  0.062449  1
  Er  Er18  1  0.675414  0.459472  0.563853  1
  Er  Er19  1  0.824501  0.464715  0.062609  1
  Co  Co20  1  0.437756  0.250003  0.491380  1
  Co  Co21  1  0.058250  0.249393  0.992234  1
  Co  Co22  1  0.938977  0.750674  0.007443  1
  Bi  Bi23  1  0.571840  0.491962  0.826362  1
  Bi  Bi24  1  0.428070  0.507529  0.173739  1
  Bi  Bi25  1  0.071361  0.507366  0.674481  1
  Bi  Bi26  1  0.428160  0.992458  0.173688  1
  Bi  Bi27  1  0.929925  0.492381  0.325642  1
  Bi  Bi28  1  0.571148  0.007916  0.826563  1
  Bi  Bi29  1  0.929959  0.007591  0.325676  1
  Bi  Bi30  1  0.071506  0.992578  0.674808  1
  Ru  Ru31  1  0.565738  0.750011  0.509809  1
