# generated using pymatgen
data_Na4AlIn(GaI8)2
_symmetry_space_group_name_H-M   'P 1'
_cell_length_a   8.05761750
_cell_length_b   8.59072739
_cell_length_c   15.82030765
_cell_angle_alpha   86.98214984
_cell_angle_beta   90.20691584
_cell_angle_gamma   89.98046122
_symmetry_Int_Tables_number   1
_chemical_formula_structural   Na4AlIn(GaI8)2
_chemical_formula_sum   'Na4 Al1 In1 Ga2 I16'
_cell_volume   1093.56829633
_cell_formula_units_Z   1
loop_
 _symmetry_equiv_pos_site_id
 _symmetry_equiv_pos_as_xyz
  1  'x, y, z'
loop_
 _atom_site_type_symbol
 _atom_site_label
 _atom_site_symmetry_multiplicity
 _atom_site_fract_x
 _atom_site_fract_y
 _atom_site_fract_z
 _atom_site_occupancy
  Na  Na0  1  0.993782  0.847457  0.375703  1
  Na  Na1  1  0.496699  0.151671  0.124867  1
  Na  Na2  1  0.005912  0.153129  0.625087  1
  Na  Na3  1  0.506973  0.847565  0.874541  1
  Al  Al4  1  0.186903  0.707492  0.600415  1
  In  In5  1  0.309918  0.703148  0.100673  1
  Ga  Ga6  1  0.687032  0.293617  0.899326  1
  Ga  Ga7  1  0.812850  0.293646  0.399774  1
  I  I8  1  0.320540  0.686237  0.455508  1
  I  I9  1  0.822280  0.315237  0.045946  1
  I  I10  1  0.677873  0.313948  0.546022  1
  I  I11  1  0.172276  0.686210  0.942706  1
  I  I12  1  0.119253  0.198987  0.424408  1
  I  I13  1  0.635263  0.808564  0.075063  1
  I  I14  1  0.882588  0.798858  0.577787  1
  I  I15  1  0.380523  0.199257  0.922832  1
  I  I16  1  0.332870  0.927687  0.678853  1
  I  I17  1  0.833111  0.070616  0.819982  1
  I  I18  1  0.666832  0.069660  0.320835  1
  I  I19  1  0.159667  0.943803  0.184398  1
  I  I20  1  0.204880  0.454203  0.691565  1
  I  I21  1  0.703990  0.547711  0.806307  1
  I  I22  1  0.795129  0.548109  0.306801  1
  I  I23  1  0.292857  0.433185  0.200603  1
