# generated using pymatgen
data_Mn2Te2(PbO4)3
_symmetry_space_group_name_H-M   'P 1'
_cell_length_a   9.32212192
_cell_length_b   9.32222011
_cell_length_c   7.26272973
_cell_angle_alpha   78.93087669
_cell_angle_beta   78.92104950
_cell_angle_gamma   113.08318873
_symmetry_Int_Tables_number   1
_chemical_formula_structural   Mn2Te2(PbO4)3
_chemical_formula_sum   'Mn4 Te4 Pb6 O24'
_cell_volume   544.24427548
_cell_formula_units_Z   2
loop_
 _symmetry_equiv_pos_site_id
 _symmetry_equiv_pos_as_xyz
  1  'x, y, z'
loop_
 _atom_site_type_symbol
 _atom_site_label
 _atom_site_symmetry_multiplicity
 _atom_site_fract_x
 _atom_site_fract_y
 _atom_site_fract_z
 _atom_site_occupancy
  Mn  Mn0  1  0.481794  0.472502  0.879688  1
  Mn  Mn1  1  0.472571  0.481837  0.379676  1
  Mn  Mn2  1  0.823784  0.148253  0.333582  1
  Mn  Mn3  1  0.148139  0.823704  0.833450  1
  Te  Te4  1  0.092494  0.102707  0.597210  1
  Te  Te5  1  0.102671  0.092488  0.097193  1
  Te  Te6  1  0.757062  0.428186  0.139214  1
  Te  Te7  1  0.428260  0.757088  0.639163  1
  Pb  Pb8  1  0.710911  0.826120  0.990752  1
  Pb  Pb9  1  0.826235  0.711010  0.490651  1
  Pb  Pb10  1  0.039193  0.414561  0.758585  1
  Pb  Pb11  1  0.414494  0.039221  0.258768  1
  Pb  Pb12  1  0.539020  0.193567  0.685426  1
  Pb  Pb13  1  0.193663  0.539143  0.185092  1
  O  O14  1  0.302675  0.527920  0.813145  1
  O  O15  1  0.527864  0.302695  0.313185  1
  O  O16  1  0.557282  0.985931  0.489283  1
  O  O17  1  0.985911  0.557256  0.989280  1
  O  O18  1  0.073015  0.277997  0.140540  1
  O  O19  1  0.277993  0.072962  0.640449  1
  O  O20  1  0.140658  0.034810  0.358076  1
  O  O21  1  0.034835  0.140697  0.858114  1
  O  O22  1  0.334925  0.213163  0.986412  1
  O  O23  1  0.213147  0.334907  0.486446  1
  O  O24  1  0.749737  0.220367  0.102628  1
  O  O25  1  0.220367  0.749668  0.602467  1
  O  O26  1  0.544485  0.452145  0.612927  1
  O  O27  1  0.452217  0.544476  0.112889  1
  O  O28  1  0.890758  0.103546  0.574627  1
  O  O29  1  0.103634  0.890826  0.074445  1
  O  O30  1  0.615699  0.744677  0.709137  1
  O  O31  1  0.744689  0.615706  0.209203  1
  O  O32  1  0.689466  0.465629  0.903603  1
  O  O33  1  0.465685  0.689430  0.403570  1
  O  O34  1  0.865202  0.970205  0.247491  1
  O  O35  1  0.970182  0.865192  0.747432  1
  O  O36  1  0.819642  0.351258  0.374935  1
  O  O37  1  0.351160  0.819669  0.874823  1
