# generated using pymatgen
data_Sr8Cd11In5Au12
_symmetry_space_group_name_H-M   'P 1'
_cell_length_a   15.34109105
_cell_length_b   15.32509689
_cell_length_c   4.56804900
_cell_angle_alpha   90.00000000
_cell_angle_beta   90.00000000
_cell_angle_gamma   119.77882902
_symmetry_Int_Tables_number   1
_chemical_formula_structural   Sr8Cd11In5Au12
_chemical_formula_sum   'Sr8 Cd11 In5 Au12'
_cell_volume   932.14709688
_cell_formula_units_Z   1
loop_
 _symmetry_equiv_pos_site_id
 _symmetry_equiv_pos_as_xyz
  1  'x, y, z'
loop_
 _atom_site_type_symbol
 _atom_site_label
 _atom_site_symmetry_multiplicity
 _atom_site_fract_x
 _atom_site_fract_y
 _atom_site_fract_z
 _atom_site_occupancy
  Sr  Sr0  1  0.452434  0.998340  0.000000  1
  Sr  Sr1  1  0.000925  0.452339  0.000000  1
  Sr  Sr2  1  0.547344  0.547988  0.000000  1
  Sr  Sr3  1  0.333996  0.666721  0.000000  1
  Sr  Sr4  1  0.667157  0.334064  0.000000  1
  Sr  Sr5  1  0.819937  0.999325  0.500000  1
  Sr  Sr6  1  0.000536  0.820951  0.500000  1
  Sr  Sr7  1  0.178127  0.180354  0.500000  1
  Cd  Cd8  1  0.181171  0.379665  0.000000  1
  Cd  Cd9  1  0.620220  0.801582  0.000000  1
  Cd  Cd10  1  0.280276  0.000085  0.500000  1
  Cd  Cd11  1  0.005241  0.282761  0.500000  1
  Cd  Cd12  1  0.717317  0.722017  0.500000  1
  Cd  Cd13  1  0.345437  0.470192  0.500000  1
  Cd  Cd14  1  0.529719  0.875992  0.500000  1
  Cd  Cd15  1  0.474290  0.350274  0.500000  1
  Cd  Cd16  1  0.124992  0.651948  0.500000  1
  Cd  Cd17  1  0.875203  0.525674  0.500000  1
  Cd  Cd18  1  0.650791  0.124171  0.500000  1
  In  In19  1  0.378684  0.181143  0.000000  1
  In  In20  1  0.197741  0.817970  0.000000  1
  In  In21  1  0.802340  0.619699  0.000000  1
  In  In22  1  0.817778  0.198595  0.000000  1
  In  In23  1  0.999631  0.000545  0.000000  1
  Au  Au24  1  0.170490  0.493841  0.500000  1
  Au  Au25  1  0.505923  0.675680  0.500000  1
  Au  Au26  1  0.491098  0.169385  0.500000  1
  Au  Au27  1  0.322705  0.829657  0.500000  1
  Au  Au28  1  0.678163  0.508294  0.500000  1
  Au  Au29  1  0.830414  0.321201  0.500000  1
  Au  Au30  1  0.175199  0.999477  0.000000  1
  Au  Au31  1  0.997797  0.174915  0.000000  1
  Au  Au32  1  0.825983  0.823768  0.000000  1
  Au  Au33  1  0.656837  0.000258  0.000000  1
  Au  Au34  1  0.000007  0.658164  0.000000  1
  Au  Au35  1  0.344098  0.342964  0.000000  1
