# generated using pymatgen
data_Ho4Sc2AlGaPt4
_symmetry_space_group_name_H-M   'P 1'
_cell_length_a   4.38262800
_cell_length_b   7.14504495
_cell_length_c   8.07600870
_cell_angle_alpha   90.31710669
_cell_angle_beta   90.00000000
_cell_angle_gamma   90.00000000
_symmetry_Int_Tables_number   1
_chemical_formula_structural   Ho4Sc2AlGaPt4
_chemical_formula_sum   'Ho4 Sc2 Al1 Ga1 Pt4'
_cell_volume   252.88886146
_cell_formula_units_Z   1
loop_
 _symmetry_equiv_pos_site_id
 _symmetry_equiv_pos_as_xyz
  1  'x, y, z'
loop_
 _atom_site_type_symbol
 _atom_site_label
 _atom_site_symmetry_multiplicity
 _atom_site_fract_x
 _atom_site_fract_y
 _atom_site_fract_z
 _atom_site_occupancy
  Ho  Ho0  1  0.250000  0.051955  0.680254  1
  Ho  Ho1  1  0.250000  0.515099  0.826400  1
  Ho  Ho2  1  0.750000  0.985039  0.328121  1
  Ho  Ho3  1  0.750000  0.447547  0.174645  1
  Sc  Sc4  1  0.250000  0.631220  0.435475  1
  Sc  Sc5  1  0.750000  0.871671  0.938156  1
  Al  Al6  1  0.750000  0.362267  0.563465  1
  Ga  Ga7  1  0.250000  0.138058  0.066469  1
  Pt  Pt8  1  0.250000  0.260479  0.383921  1
  Pt  Pt9  1  0.250000  0.756473  0.114464  1
  Pt  Pt10  1  0.750000  0.736779  0.615924  1
  Pt  Pt11  1  0.750000  0.243411  0.872708  1
