# generated using pymatgen
data_DyNp3(B6Mo)2
_symmetry_space_group_name_H-M   'P 1'
_cell_length_a   3.66080900
_cell_length_b   9.30894903
_cell_length_c   11.36282125
_cell_angle_alpha   89.98341593
_cell_angle_beta   90.00000000
_cell_angle_gamma   90.00000000
_symmetry_Int_Tables_number   1
_chemical_formula_structural   DyNp3(B6Mo)2
_chemical_formula_sum   'Dy2 Np6 B24 Mo4'
_cell_volume   387.22543778
_cell_formula_units_Z   2
loop_
 _symmetry_equiv_pos_site_id
 _symmetry_equiv_pos_as_xyz
  1  'x, y, z'
loop_
 _atom_site_type_symbol
 _atom_site_label
 _atom_site_symmetry_multiplicity
 _atom_site_fract_x
 _atom_site_fract_y
 _atom_site_fract_z
 _atom_site_occupancy
  Dy  Dy0  1  0.000000  0.337703  0.407680  1
  Dy  Dy1  1  0.000000  0.662297  0.592320  1
  Np  Np2  1  0.000000  0.837968  0.092792  1
  Np  Np3  1  0.000000  0.162032  0.907208  1
  Np  Np4  1  0.000000  0.958549  0.399953  1
  Np  Np5  1  0.000000  0.041451  0.600047  1
  Np  Np6  1  0.000000  0.458545  0.099646  1
  Np  Np7  1  0.000000  0.541455  0.900354  1
  B  B8  1  0.500000  0.552143  0.431553  1
  B  B9  1  0.500000  0.447857  0.568447  1
  B  B10  1  0.500000  0.051252  0.067590  1
  B  B11  1  0.500000  0.948748  0.932410  1
  B  B12  1  0.500000  0.745547  0.423658  1
  B  B13  1  0.500000  0.254453  0.576342  1
  B  B14  1  0.500000  0.244974  0.075773  1
  B  B15  1  0.500000  0.755026  0.924227  1
  B  B16  1  0.500000  0.806022  0.273638  1
  B  B17  1  0.500000  0.193978  0.726362  1
  B  B18  1  0.500000  0.304871  0.224704  1
  B  B19  1  0.500000  0.695129  0.775296  1
  B  B20  1  0.500000  0.644824  0.186677  1
  B  B21  1  0.500000  0.355176  0.813323  1
  B  B22  1  0.500000  0.143759  0.312548  1
  B  B23  1  0.500000  0.856241  0.687452  1
  B  B24  1  0.500000  0.986726  0.220811  1
  B  B25  1  0.500000  0.013274  0.779189  1
  B  B26  1  0.500000  0.488023  0.278622  1
  B  B27  1  0.500000  0.511977  0.721378  1
  B  B28  1  0.500000  0.641251  0.038961  1
  B  B29  1  0.500000  0.358749  0.961039  1
  B  B30  1  0.500000  0.138146  0.461545  1
  B  B31  1  0.500000  0.861854  0.538455  1
  Mo  Mo32  1  0.000000  0.648962  0.315886  1
  Mo  Mo33  1  0.000000  0.351038  0.684114  1
  Mo  Mo34  1  0.000000  0.144413  0.178749  1
  Mo  Mo35  1  0.000000  0.855587  0.821251  1
