# generated using pymatgen
data_EuSe27
_symmetry_space_group_name_H-M   'P 1'
_cell_length_a   16.36686667
_cell_length_b   16.36686754
_cell_length_c   16.36686608
_cell_angle_alpha   118.84282312
_cell_angle_beta   118.84282084
_cell_angle_gamma   118.84281551
_symmetry_Int_Tables_number   1
_chemical_formula_structural   EuSe27
_chemical_formula_sum   'Eu1 Se27'
_cell_volume   1219.07840836
_cell_formula_units_Z   1
loop_
 _symmetry_equiv_pos_site_id
 _symmetry_equiv_pos_as_xyz
  1  'x, y, z'
loop_
 _atom_site_type_symbol
 _atom_site_label
 _atom_site_symmetry_multiplicity
 _atom_site_fract_x
 _atom_site_fract_y
 _atom_site_fract_z
 _atom_site_occupancy
  Eu  Eu0  1  0.451296  0.451296  0.451296  1
  Se  Se1  1  0.015981  0.618796  0.618796  1
  Se  Se2  1  0.618796  0.618796  0.015981  1
  Se  Se3  1  0.618796  0.015981  0.618796  1
  Se  Se4  1  0.254828  0.869976  0.735175  1
  Se  Se5  1  0.869976  0.735175  0.254828  1
  Se  Se6  1  0.735175  0.254828  0.869976  1
  Se  Se7  1  0.869976  0.254828  0.735175  1
  Se  Se8  1  0.254828  0.735175  0.869976  1
  Se  Se9  1  0.735175  0.869976  0.254828  1
  Se  Se10  1  0.088049  0.618433  0.428707  1
  Se  Se11  1  0.618433  0.428707  0.088049  1
  Se  Se12  1  0.428707  0.088049  0.618433  1
  Se  Se13  1  0.618433  0.088049  0.428707  1
  Se  Se14  1  0.088049  0.428707  0.618433  1
  Se  Se15  1  0.428707  0.618433  0.088049  1
  Se  Se16  1  0.364246  0.745950  0.609756  1
  Se  Se17  1  0.745950  0.609756  0.364246  1
  Se  Se18  1  0.609756  0.364246  0.745950  1
  Se  Se19  1  0.745950  0.364246  0.609756  1
  Se  Se20  1  0.364246  0.609756  0.745950  1
  Se  Se21  1  0.609756  0.745950  0.364246  1
  Se  Se22  1  0.172975  0.440801  0.440801  1
  Se  Se23  1  0.440801  0.440801  0.172975  1
  Se  Se24  1  0.440801  0.172975  0.440801  1
  Se  Se25  1  0.017648  0.919883  0.919883  1
  Se  Se26  1  0.919883  0.919883  0.017648  1
  Se  Se27  1  0.919883  0.017648  0.919883  1
