# generated using pymatgen
data_Li6CrSiO8
_symmetry_space_group_name_H-M   'P 1'
_cell_length_a   5.30201444
_cell_length_b   5.30200470
_cell_length_c   6.26274000
_cell_angle_alpha   89.99990997
_cell_angle_beta   90.00020932
_cell_angle_gamma   91.39596713
_symmetry_Int_Tables_number   1
_chemical_formula_structural   Li6CrSiO8
_chemical_formula_sum   'Li6 Cr1 Si1 O8'
_cell_volume   176.00154600
_cell_formula_units_Z   1
loop_
 _symmetry_equiv_pos_site_id
 _symmetry_equiv_pos_as_xyz
  1  'x, y, z'
loop_
 _atom_site_type_symbol
 _atom_site_label
 _atom_site_symmetry_multiplicity
 _atom_site_fract_x
 _atom_site_fract_y
 _atom_site_fract_z
 _atom_site_occupancy
  Li  Li0  1  0.807036  0.166195  0.727396  1
  Li  Li1  1  0.166191  0.807029  0.272606  1
  Li  Li2  1  0.166200  0.806998  0.727375  1
  Li  Li3  1  0.806999  0.166201  0.272624  1
  Li  Li4  1  0.706276  0.706278  0.000000  1
  Li  Li5  1  0.336742  0.336741  0.500000  1
  Cr  Cr6  1  0.328152  0.328152  0.000000  1
  Si  Si7  1  0.676514  0.676514  0.500000  1
  O  O8  1  0.804549  0.804548  0.717208  1
  O  O9  1  0.198859  0.198879  0.218237  1
  O  O10  1  0.198879  0.198859  0.781762  1
  O  O11  1  0.804547  0.804549  0.282792  1
  O  O12  1  0.639090  0.286103  0.000012  1
  O  O13  1  0.365927  0.707938  0.499990  1
  O  O14  1  0.707939  0.365926  0.500010  1
  O  O15  1  0.286101  0.639090  0.999987  1
