# generated using pymatgen
data_Th6MgCd22Sn
_symmetry_space_group_name_H-M   'P 1'
_cell_length_a   10.12355269
_cell_length_b   10.12355322
_cell_length_c   10.12355300
_cell_angle_alpha   60.00000400
_cell_angle_beta   60.00000224
_cell_angle_gamma   60.00000325
_symmetry_Int_Tables_number   1
_chemical_formula_structural   Th6MgCd22Sn
_chemical_formula_sum   'Th6 Mg1 Cd22 Sn1'
_cell_volume   733.64153694
_cell_formula_units_Z   1
loop_
 _symmetry_equiv_pos_site_id
 _symmetry_equiv_pos_as_xyz
  1  'x, y, z'
loop_
 _atom_site_type_symbol
 _atom_site_label
 _atom_site_symmetry_multiplicity
 _atom_site_fract_x
 _atom_site_fract_y
 _atom_site_fract_z
 _atom_site_occupancy
  Th  Th0  1  0.782854  0.782854  0.217146  1
  Th  Th1  1  0.217146  0.782854  0.217146  1
  Th  Th2  1  0.782854  0.217146  0.217146  1
  Th  Th3  1  0.217146  0.217146  0.782854  1
  Th  Th4  1  0.782854  0.217146  0.782854  1
  Th  Th5  1  0.217146  0.782854  0.782854  1
  Mg  Mg6  1  0.500000  0.500000  0.500000  1
  Cd  Cd7  1  0.838315  0.838315  0.485054  1
  Cd  Cd8  1  0.838315  0.485054  0.838315  1
  Cd  Cd9  1  0.485054  0.838315  0.838315  1
  Cd  Cd10  1  0.838315  0.838315  0.838315  1
  Cd  Cd11  1  0.161685  0.161685  0.514946  1
  Cd  Cd12  1  0.161685  0.514946  0.161685  1
  Cd  Cd13  1  0.514946  0.161685  0.161685  1
  Cd  Cd14  1  0.161685  0.161685  0.161685  1
  Cd  Cd15  1  0.622890  0.622890  0.131333  1
  Cd  Cd16  1  0.622890  0.131333  0.622890  1
  Cd  Cd17  1  0.131333  0.622890  0.622890  1
  Cd  Cd18  1  0.622890  0.622890  0.622890  1
  Cd  Cd19  1  0.377110  0.377110  0.868667  1
  Cd  Cd20  1  0.377110  0.868667  0.377110  1
  Cd  Cd21  1  0.868667  0.377110  0.377110  1
  Cd  Cd22  1  0.377110  0.377110  0.377110  1
  Cd  Cd23  1  0.000000  0.000000  0.500000  1
  Cd  Cd24  1  0.500000  0.000000  0.500000  1
  Cd  Cd25  1  0.000000  0.500000  0.500000  1
  Cd  Cd26  1  0.500000  0.500000  0.000000  1
  Cd  Cd27  1  0.000000  0.500000  0.000000  1
  Cd  Cd28  1  0.500000  0.000000  0.000000  1
  Sn  Sn29  1  0.000000  0.000000  0.000000  1
