# generated using pymatgen
data_Dy4Er8InGaCo4
_symmetry_space_group_name_H-M   'P 1'
_cell_length_a   8.26417088
_cell_length_b   8.26417002
_cell_length_c   8.26417143
_cell_angle_alpha   106.69438455
_cell_angle_beta   109.47259000
_cell_angle_gamma   112.29512900
_symmetry_Int_Tables_number   1
_chemical_formula_structural   Dy4Er8InGaCo4
_chemical_formula_sum   'Dy4 Er8 In1 Ga1 Co4'
_cell_volume   433.44817478
_cell_formula_units_Z   1
loop_
 _symmetry_equiv_pos_site_id
 _symmetry_equiv_pos_as_xyz
  1  'x, y, z'
loop_
 _atom_site_type_symbol
 _atom_site_label
 _atom_site_symmetry_multiplicity
 _atom_site_fract_x
 _atom_site_fract_y
 _atom_site_fract_z
 _atom_site_occupancy
  Dy  Dy0  1  0.700334  0.264971  0.965304  1
  Dy  Dy1  1  0.299666  0.735029  0.034696  1
  Dy  Dy2  1  0.700334  0.735029  0.435365  1
  Dy  Dy3  1  0.299666  0.264971  0.564635  1
  Er  Er4  1  0.812859  0.138993  0.326134  1
  Er  Er5  1  0.812859  0.486725  0.673866  1
  Er  Er6  1  0.187141  0.861007  0.673866  1
  Er  Er7  1  0.187141  0.513275  0.326134  1
  Er  Er8  1  0.601790  0.781588  0.820202  1
  Er  Er9  1  0.961385  0.781588  0.179798  1
  Er  Er10  1  0.038615  0.218412  0.820202  1
  Er  Er11  1  0.398210  0.218412  0.179798  1
  In  In12  1  0.500000  0.000000  0.500000  1
  Ga  Ga13  1  0.500000  0.500000  0.000000  1
  Co  Co14  1  0.840987  0.500000  0.340987  1
  Co  Co15  1  0.159013  0.500000  0.659013  1
  Co  Co16  1  0.000000  0.114697  0.114697  1
  Co  Co17  1  0.000000  0.885303  0.885303  1
