# generated using pymatgen
data_Hf18Co2ReMo5W2
_symmetry_space_group_name_H-M   'P 1'
_cell_length_a   8.66976100
_cell_length_b   8.66322025
_cell_length_c   8.48210900
_cell_angle_alpha   90.00000000
_cell_angle_beta   90.00000000
_cell_angle_gamma   120.02497460
_symmetry_Int_Tables_number   1
_chemical_formula_structural   Hf18Co2ReMo5W2
_chemical_formula_sum   'Hf18 Co2 Re1 Mo5 W2'
_cell_volume   551.58393929
_cell_formula_units_Z   1
loop_
 _symmetry_equiv_pos_site_id
 _symmetry_equiv_pos_as_xyz
  1  'x, y, z'
loop_
 _atom_site_type_symbol
 _atom_site_label
 _atom_site_symmetry_multiplicity
 _atom_site_fract_x
 _atom_site_fract_y
 _atom_site_fract_z
 _atom_site_occupancy
  Hf  Hf0  1  0.200642  0.798936  0.059917  1
  Hf  Hf1  1  0.598294  0.798936  0.059917  1
  Hf  Hf2  1  0.798991  0.597981  0.558033  1
  Hf  Hf3  1  0.201508  0.403017  0.058708  1
  Hf  Hf4  1  0.798536  0.201427  0.558734  1
  Hf  Hf5  1  0.402891  0.201427  0.558734  1
  Hf  Hf6  1  0.798991  0.597981  0.941967  1
  Hf  Hf7  1  0.798536  0.201427  0.941266  1
  Hf  Hf8  1  0.402891  0.201427  0.941266  1
  Hf  Hf9  1  0.598294  0.798936  0.440083  1
  Hf  Hf10  1  0.200642  0.798936  0.440083  1
  Hf  Hf11  1  0.201508  0.403017  0.441292  1
  Hf  Hf12  1  0.542340  0.084680  0.250000  1
  Hf  Hf13  1  0.457469  0.914938  0.750000  1
  Hf  Hf14  1  0.914971  0.459189  0.250000  1
  Hf  Hf15  1  0.544217  0.459189  0.250000  1
  Hf  Hf16  1  0.457691  0.542570  0.750000  1
  Hf  Hf17  1  0.084880  0.542570  0.750000  1
  Co  Co18  1  0.666714  0.333428  0.750000  1
  Co  Co19  1  0.333282  0.666567  0.250000  1
  Re  Re20  1  0.887211  0.774422  0.250000  1
  Mo  Mo21  1  0.112644  0.225287  0.750000  1
  Mo  Mo22  1  0.224045  0.110832  0.250000  1
  Mo  Mo23  1  0.886787  0.110832  0.250000  1
  Mo  Mo24  1  0.111634  0.886988  0.750000  1
  Mo  Mo25  1  0.775354  0.886988  0.750000  1
  W  W26  1  0.999517  0.999036  0.000395  1
  W  W27  1  0.999517  0.999036  0.499605  1
