# generated using pymatgen
data_CaEr7(IO6)4
_symmetry_space_group_name_H-M   'P 1'
_cell_length_a   5.53675300
_cell_length_b   7.69453882
_cell_length_c   11.49371500
_cell_angle_alpha   77.00634764
_cell_angle_beta   90.00000000
_cell_angle_gamma   90.00000000
_symmetry_Int_Tables_number   1
_chemical_formula_structural   CaEr7(IO6)4
_chemical_formula_sum   'Ca1 Er7 I4 O24'
_cell_volume   477.12613566
_cell_formula_units_Z   1
loop_
 _symmetry_equiv_pos_site_id
 _symmetry_equiv_pos_as_xyz
  1  'x, y, z'
loop_
 _atom_site_type_symbol
 _atom_site_label
 _atom_site_symmetry_multiplicity
 _atom_site_fract_x
 _atom_site_fract_y
 _atom_site_fract_z
 _atom_site_occupancy
  Ca  Ca0  1  0.741323  0.000000  0.750000  1
  Er  Er1  1  0.246845  0.000000  0.250000  1
  Er  Er2  1  0.178830  0.788310  0.578016  1
  Er  Er3  1  0.820639  0.789059  0.082757  1
  Er  Er4  1  0.689738  0.500000  0.750000  1
  Er  Er5  1  0.313327  0.500000  0.250000  1
  Er  Er6  1  0.178830  0.211690  0.921984  1
  Er  Er7  1  0.820639  0.210941  0.417243  1
  I  I8  1  0.256367  0.723062  0.882375  1
  I  I9  1  0.732808  0.723064  0.389755  1
  I  I10  1  0.256367  0.276938  0.617625  1
  I  I11  1  0.732808  0.276936  0.110245  1
  O  O12  1  0.073971  0.936182  0.891013  1
  O  O13  1  0.530310  0.823910  0.939873  1
  O  O14  1  0.982188  0.950995  0.405184  1
  O  O15  1  0.436549  0.791512  0.731851  1
  O  O16  1  0.459049  0.843521  0.435745  1
  O  O17  1  0.988304  0.697188  0.776024  1
  O  O18  1  0.552447  0.796353  0.227025  1
  O  O19  1  0.831910  0.651786  0.564319  1
  O  O20  1  0.371434  0.492319  0.881958  1
  O  O21  1  0.053817  0.716517  0.250155  1
  O  O22  1  0.371434  0.507681  0.618042  1
  O  O23  1  0.831910  0.348214  0.935681  1
  O  O24  1  0.123551  0.623369  0.033766  1
  O  O25  1  0.612210  0.490983  0.388353  1
  O  O26  1  0.988304  0.302812  0.723976  1
  O  O27  1  0.612210  0.509017  0.111647  1
  O  O28  1  0.123551  0.376631  0.466234  1
  O  O29  1  0.436549  0.208488  0.768149  1
  O  O30  1  0.053817  0.283483  0.249845  1
  O  O31  1  0.530310  0.176090  0.560127  1
  O  O32  1  0.552447  0.203647  0.272975  1
  O  O33  1  0.073971  0.063818  0.608987  1
  O  O34  1  0.459049  0.156479  0.064255  1
  O  O35  1  0.982188  0.049005  0.094816  1
