# generated using pymatgen
data_La8LuPt6
_symmetry_space_group_name_H-M   'P 1'
_cell_length_a   7.80020084
_cell_length_b   7.80020094
_cell_length_c   7.80020083
_cell_angle_alpha   71.81732359
_cell_angle_beta   71.81732025
_cell_angle_gamma   71.81732254
_symmetry_Int_Tables_number   1
_chemical_formula_structural   La8LuPt6
_chemical_formula_sum   'La8 Lu1 Pt6'
_cell_volume   416.08442056
_cell_formula_units_Z   1
loop_
 _symmetry_equiv_pos_site_id
 _symmetry_equiv_pos_as_xyz
  1  'x, y, z'
loop_
 _atom_site_type_symbol
 _atom_site_label
 _atom_site_symmetry_multiplicity
 _atom_site_fract_x
 _atom_site_fract_y
 _atom_site_fract_z
 _atom_site_occupancy
  La  La0  1  0.801330  0.801330  0.801330  1
  La  La1  1  0.198670  0.198670  0.198670  1
  La  La2  1  0.325862  0.611557  0.838213  1
  La  La3  1  0.838213  0.325862  0.611557  1
  La  La4  1  0.611557  0.838213  0.325862  1
  La  La5  1  0.674138  0.388443  0.161787  1
  La  La6  1  0.161787  0.674138  0.388443  1
  La  La7  1  0.388443  0.161787  0.674138  1
  Lu  Lu8  1  0.000000  0.000000  0.000000  1
  Pt  Pt9  1  0.160198  0.960947  0.599240  1
  Pt  Pt10  1  0.599240  0.160198  0.960947  1
  Pt  Pt11  1  0.960947  0.599240  0.160198  1
  Pt  Pt12  1  0.839802  0.039053  0.400760  1
  Pt  Pt13  1  0.400760  0.839802  0.039053  1
  Pt  Pt14  1  0.039053  0.400760  0.839802  1
