# generated using pymatgen
data_CeNdPd2Pb
_symmetry_space_group_name_H-M   'P 1'
_cell_length_a   7.98973800
_cell_length_b   7.95581200
_cell_length_c   3.79411800
_cell_angle_alpha   90.00000000
_cell_angle_beta   90.00000000
_cell_angle_gamma   90.00000000
_symmetry_Int_Tables_number   1
_chemical_formula_structural   CeNdPd2Pb
_chemical_formula_sum   'Ce2 Nd2 Pd4 Pb2'
_cell_volume   241.17255467
_cell_formula_units_Z   2
loop_
 _symmetry_equiv_pos_site_id
 _symmetry_equiv_pos_as_xyz
  1  'x, y, z'
loop_
 _atom_site_type_symbol
 _atom_site_label
 _atom_site_symmetry_multiplicity
 _atom_site_fract_x
 _atom_site_fract_y
 _atom_site_fract_z
 _atom_site_occupancy
  Ce  Ce0  1  0.824647  0.673778  0.500000  1
  Ce  Ce1  1  0.324647  0.826222  0.500000  1
  Nd  Nd2  1  0.675201  0.175881  0.500000  1
  Nd  Nd3  1  0.175201  0.324119  0.500000  1
  Pd  Pd4  1  0.374498  0.112804  0.000000  1
  Pd  Pd5  1  0.125638  0.636187  0.000000  1
  Pd  Pd6  1  0.625638  0.863813  0.000000  1
  Pd  Pd7  1  0.874498  0.387196  0.000000  1
  Pb  Pb8  1  0.000017  0.000531  0.000000  1
  Pb  Pb9  1  0.500017  0.499469  0.000000  1
