# generated using pymatgen
data_ErZr2SnF15
_symmetry_space_group_name_H-M   'P 1'
_cell_length_a   8.14195503
_cell_length_b   8.14195550
_cell_length_c   8.14173800
_cell_angle_alpha   79.74579811
_cell_angle_beta   79.74580467
_cell_angle_gamma   99.93473546
_symmetry_Int_Tables_number   1
_chemical_formula_structural   ErZr2SnF15
_chemical_formula_sum   'Er2 Zr4 Sn2 F30'
_cell_volume   510.86881818
_cell_formula_units_Z   2
loop_
 _symmetry_equiv_pos_site_id
 _symmetry_equiv_pos_as_xyz
  1  'x, y, z'
loop_
 _atom_site_type_symbol
 _atom_site_label
 _atom_site_symmetry_multiplicity
 _atom_site_fract_x
 _atom_site_fract_y
 _atom_site_fract_z
 _atom_site_occupancy
  Er  Er0  1  0.177906  0.822094  0.250000  1
  Er  Er1  1  0.822094  0.177906  0.750000  1
  Zr  Zr2  1  0.748392  0.678277  0.673743  1
  Zr  Zr3  1  0.321723  0.251608  0.826257  1
  Zr  Zr4  1  0.251608  0.321723  0.326257  1
  Zr  Zr5  1  0.678277  0.748392  0.173743  1
  Sn  Sn6  1  0.750770  0.249230  0.250000  1
  Sn  Sn7  1  0.249230  0.750770  0.750000  1
  F  F8  1  0.314945  0.350439  0.054048  1
  F  F9  1  0.937473  0.811822  0.152737  1
  F  F10  1  0.843896  0.458939  0.685521  1
  F  F11  1  0.458939  0.843896  0.185521  1
  F  F12  1  0.811822  0.937473  0.652737  1
  F  F13  1  0.350439  0.314945  0.554047  1
  F  F14  1  0.685055  0.649561  0.945952  1
  F  F15  1  0.062527  0.188178  0.847263  1
  F  F16  1  0.156104  0.541061  0.314479  1
  F  F17  1  0.541061  0.156104  0.814479  1
  F  F18  1  0.188178  0.062527  0.347263  1
  F  F19  1  0.649561  0.685055  0.445952  1
  F  F20  1  0.772838  0.281017  0.999006  1
  F  F21  1  0.004799  0.274384  0.216351  1
  F  F22  1  0.780563  0.504304  0.223943  1
  F  F23  1  0.504304  0.780563  0.723943  1
  F  F24  1  0.274384  0.004799  0.716351  1
  F  F25  1  0.281017  0.772838  0.499006  1
  F  F26  1  0.227162  0.718983  0.000994  1
  F  F27  1  0.995201  0.725616  0.783649  1
  F  F28  1  0.219437  0.495696  0.776057  1
  F  F29  1  0.495696  0.219437  0.276057  1
  F  F30  1  0.725616  0.995201  0.283649  1
  F  F31  1  0.718983  0.227162  0.500994  1
  F  F32  1  0.468584  0.531416  0.250000  1
  F  F33  1  0.747522  0.956372  0.970838  1
  F  F34  1  0.043628  0.252478  0.529162  1
  F  F35  1  0.252478  0.043628  0.029162  1
  F  F36  1  0.956372  0.747522  0.470838  1
  F  F37  1  0.531416  0.468584  0.750000  1
