# generated using pymatgen
data_Dy2Ho2Zn4Ir3Rh
_symmetry_space_group_name_H-M   'P 1'
_cell_length_a   4.03640100
_cell_length_b   7.00256367
_cell_length_c   8.11847800
_cell_angle_alpha   90.06576875
_cell_angle_beta   90.00000000
_cell_angle_gamma   90.00000000
_symmetry_Int_Tables_number   1
_chemical_formula_structural   Dy2Ho2Zn4Ir3Rh
_chemical_formula_sum   'Dy2 Ho2 Zn4 Ir3 Rh1'
_cell_volume   229.46988793
_cell_formula_units_Z   1
loop_
 _symmetry_equiv_pos_site_id
 _symmetry_equiv_pos_as_xyz
  1  'x, y, z'
loop_
 _atom_site_type_symbol
 _atom_site_label
 _atom_site_symmetry_multiplicity
 _atom_site_fract_x
 _atom_site_fract_y
 _atom_site_fract_z
 _atom_site_occupancy
  Dy  Dy0  1  0.750000  0.459408  0.817261  1
  Dy  Dy1  1  0.750000  0.963206  0.681757  1
  Ho  Ho2  1  0.250000  0.537602  0.183607  1
  Ho  Ho3  1  0.250000  0.039009  0.317470  1
  Zn  Zn4  1  0.250000  0.135913  0.935634  1
  Zn  Zn5  1  0.750000  0.863955  0.064475  1
  Zn  Zn6  1  0.250000  0.636651  0.563925  1
  Zn  Zn7  1  0.750000  0.363583  0.434848  1
  Ir  Ir8  1  0.750000  0.744358  0.376238  1
  Ir  Ir9  1  0.250000  0.257230  0.624616  1
  Ir  Ir10  1  0.750000  0.243697  0.123110  1
  Rh  Rh11  1  0.250000  0.755389  0.877058  1
