# generated using pymatgen
data_HfZr3P8
_symmetry_space_group_name_H-M   'P 1'
_cell_length_a   3.53392400
_cell_length_b   6.51377513
_cell_length_c   8.76796421
_cell_angle_alpha   90.11231100
_cell_angle_beta   90.00000000
_cell_angle_gamma   90.00000000
_symmetry_Int_Tables_number   1
_chemical_formula_structural   HfZr3P8
_chemical_formula_sum   'Hf1 Zr3 P8'
_cell_volume   201.83101352
_cell_formula_units_Z   1
loop_
 _symmetry_equiv_pos_site_id
 _symmetry_equiv_pos_as_xyz
  1  'x, y, z'
loop_
 _atom_site_type_symbol
 _atom_site_label
 _atom_site_symmetry_multiplicity
 _atom_site_fract_x
 _atom_site_fract_y
 _atom_site_fract_z
 _atom_site_occupancy
  Hf  Hf0  1  0.750000  0.221136  0.335823  1
  Zr  Zr1  1  0.250000  0.278396  0.836143  1
  Zr  Zr2  1  0.250000  0.778231  0.663500  1
  Zr  Zr3  1  0.750000  0.721846  0.164465  1
  P  P4  1  0.250000  0.890465  0.960946  1
  P  P5  1  0.250000  0.388630  0.537890  1
  P  P6  1  0.750000  0.109988  0.040286  1
  P  P7  1  0.750000  0.607494  0.460292  1
  P  P8  1  0.250000  0.910146  0.357690  1
  P  P9  1  0.250000  0.403736  0.144694  1
  P  P10  1  0.750000  0.095231  0.640333  1
  P  P11  1  0.750000  0.594703  0.857938  1
