# generated using pymatgen
data_Ho11Er(BBr3)4
_symmetry_space_group_name_H-M   'P 1'
_cell_length_a   9.68808715
_cell_length_b   9.68808548
_cell_length_c   9.69014606
_cell_angle_alpha   109.47317071
_cell_angle_beta   109.47317445
_cell_angle_gamma   109.45498423
_symmetry_Int_Tables_number   1
_chemical_formula_structural   Ho11Er(BBr3)4
_chemical_formula_sum   'Ho11 Er1 B4 Br12'
_cell_volume   700.24578353
_cell_formula_units_Z   1
loop_
 _symmetry_equiv_pos_site_id
 _symmetry_equiv_pos_as_xyz
  1  'x, y, z'
loop_
 _atom_site_type_symbol
 _atom_site_label
 _atom_site_symmetry_multiplicity
 _atom_site_fract_x
 _atom_site_fract_y
 _atom_site_fract_z
 _atom_site_occupancy
  Ho  Ho0  1  0.459370  0.479613  0.229768  1
  Ho  Ho1  1  0.749923  0.229666  0.270380  1
  Ho  Ho2  1  0.749995  0.020343  0.479682  1
  Ho  Ho3  1  0.229716  0.459324  0.479723  1
  Ho  Ho4  1  0.270334  0.750077  0.229620  1
  Ho  Ho5  1  0.040676  0.270284  0.020277  1
  Ho  Ho6  1  0.020387  0.040630  0.270232  1
  Ho  Ho7  1  0.479657  0.750005  0.020318  1
  Ho  Ho8  1  0.479623  0.229729  0.459330  1
  Ho  Ho9  1  0.020453  0.479547  0.750000  1
  Ho  Ho10  1  0.270271  0.020377  0.040670  1
  Er  Er11  1  0.229425  0.270575  0.750000  1
  B  B12  1  0.249950  0.250050  0.250000  1
  B  B13  1  0.500026  0.999974  0.250000  1
  B  B14  1  0.000304  0.249990  0.500326  1
  B  B15  1  0.250010  0.499696  0.999674  1
  Br  Br16  1  0.250035  0.758324  0.741779  1
  Br  Br17  1  0.516627  0.508546  0.758123  1
  Br  Br18  1  0.983565  0.741803  0.991775  1
  Br  Br19  1  0.741676  0.249965  0.758221  1
  Br  Br20  1  0.991454  0.983373  0.741877  1
  Br  Br21  1  0.249946  0.991571  0.508127  1
  Br  Br22  1  0.758197  0.516435  0.508225  1
  Br  Br23  1  0.508429  0.250054  0.991873  1
  Br  Br24  1  0.758203  0.741797  0.250000  1
  Br  Br25  1  0.741777  0.991837  0.983581  1
  Br  Br26  1  0.991806  0.508194  0.250000  1
  Br  Br27  1  0.508163  0.758223  0.516419  1
