# generated using pymatgen
data_Dy4Al17GeIrRh5
_symmetry_space_group_name_H-M   'P 1'
_cell_length_a   7.54492248
_cell_length_b   7.54492185
_cell_length_c   9.45913063
_cell_angle_alpha   90.02099315
_cell_angle_beta   90.02099705
_cell_angle_gamma   119.48332431
_symmetry_Int_Tables_number   1
_chemical_formula_structural   Dy4Al17GeIrRh5
_chemical_formula_sum   'Dy4 Al17 Ge1 Ir1 Rh5'
_cell_volume   468.73663776
_cell_formula_units_Z   1
loop_
 _symmetry_equiv_pos_site_id
 _symmetry_equiv_pos_as_xyz
  1  'x, y, z'
loop_
 _atom_site_type_symbol
 _atom_site_label
 _atom_site_symmetry_multiplicity
 _atom_site_fract_x
 _atom_site_fract_y
 _atom_site_fract_z
 _atom_site_occupancy
  Dy  Dy0  1  0.994243  0.676909  0.750467  1
  Dy  Dy1  1  0.003545  0.328223  0.249554  1
  Dy  Dy2  1  0.676909  0.994243  0.750467  1
  Dy  Dy3  1  0.328223  0.003545  0.249554  1
  Al  Al4  1  0.871511  0.871511  0.250647  1
  Al  Al5  1  0.000253  0.338379  0.574336  1
  Al  Al6  1  0.998459  0.664599  0.424644  1
  Al  Al7  1  0.998462  0.664630  0.075378  1
  Al  Al8  1  0.338403  0.000506  0.925674  1
  Al  Al9  1  0.000506  0.338403  0.925674  1
  Al  Al10  1  0.664630  0.998462  0.075378  1
  Al  Al11  1  0.664599  0.998459  0.424644  1
  Al  Al12  1  0.338379  0.000253  0.574336  1
  Al  Al13  1  0.332656  0.332656  0.057619  1
  Al  Al14  1  0.663580  0.663580  0.949754  1
  Al  Al15  1  0.663619  0.663619  0.550470  1
  Al  Al16  1  0.332487  0.332487  0.441757  1
  Al  Al17  1  0.337306  0.554469  0.750076  1
  Al  Al18  1  0.660936  0.449897  0.250041  1
  Al  Al19  1  0.554469  0.337306  0.750076  1
  Al  Al20  1  0.449897  0.660936  0.250041  1
  Ge  Ge21  1  0.135522  0.135522  0.749077  1
  Ir  Ir22  1  0.999417  0.999417  0.998899  1
  Rh  Rh23  1  0.669515  0.326390  0.500345  1
  Rh  Rh24  1  0.326390  0.669515  0.500345  1
  Rh  Rh25  1  0.326816  0.669783  0.999779  1
  Rh  Rh26  1  0.669783  0.326816  0.999779  1
  Rh  Rh27  1  0.999489  0.999489  0.501192  1
