# generated using pymatgen
data_Dy3Hf(Co4P3)2
_symmetry_space_group_name_H-M   'P 1'
_cell_length_a   3.71870700
_cell_length_b   10.68445100
_cell_length_c   12.39201000
_cell_angle_alpha   90.00000000
_cell_angle_beta   90.00000000
_cell_angle_gamma   90.00000000
_symmetry_Int_Tables_number   1
_chemical_formula_structural   Dy3Hf(Co4P3)2
_chemical_formula_sum   'Dy6 Hf2 Co16 P12'
_cell_volume   492.36358837
_cell_formula_units_Z   2
loop_
 _symmetry_equiv_pos_site_id
 _symmetry_equiv_pos_as_xyz
  1  'x, y, z'
loop_
 _atom_site_type_symbol
 _atom_site_label
 _atom_site_symmetry_multiplicity
 _atom_site_fract_x
 _atom_site_fract_y
 _atom_site_fract_z
 _atom_site_occupancy
  Dy  Dy0  1  0.000000  0.500000  0.528395  1
  Dy  Dy1  1  0.500000  0.000000  0.471605  1
  Dy  Dy2  1  0.500000  0.821751  0.204557  1
  Dy  Dy3  1  0.500000  0.178249  0.204557  1
  Dy  Dy4  1  0.000000  0.678249  0.795443  1
  Dy  Dy5  1  0.000000  0.321751  0.795443  1
  Hf  Hf6  1  0.500000  0.500000  0.157175  1
  Hf  Hf7  1  0.000000  0.000000  0.842825  1
  Co  Co8  1  0.500000  0.500000  0.703096  1
  Co  Co9  1  0.000000  0.000000  0.296904  1
  Co  Co10  1  0.000000  0.500000  0.986728  1
  Co  Co11  1  0.500000  0.000000  0.013272  1
  Co  Co12  1  0.500000  0.332087  0.993382  1
  Co  Co13  1  0.500000  0.667913  0.993382  1
  Co  Co14  1  0.000000  0.167913  0.006618  1
  Co  Co15  1  0.000000  0.832087  0.006618  1
  Co  Co16  1  0.500000  0.295219  0.432969  1
  Co  Co17  1  0.500000  0.704781  0.432969  1
  Co  Co18  1  0.000000  0.204781  0.567031  1
  Co  Co19  1  0.000000  0.795219  0.567031  1
  Co  Co20  1  0.500000  0.877920  0.703007  1
  Co  Co21  1  0.500000  0.122080  0.703007  1
  Co  Co22  1  0.000000  0.622080  0.296993  1
  Co  Co23  1  0.000000  0.377920  0.296993  1
  P  P24  1  0.500000  0.500000  0.883430  1
  P  P25  1  0.000000  0.000000  0.116570  1
  P  P26  1  0.500000  0.500000  0.361458  1
  P  P27  1  0.000000  0.000000  0.638542  1
  P  P28  1  0.500000  0.310032  0.615605  1
  P  P29  1  0.500000  0.689968  0.615605  1
  P  P30  1  0.000000  0.189968  0.384395  1
  P  P31  1  0.000000  0.810032  0.384395  1
  P  P32  1  0.500000  0.838623  0.893269  1
  P  P33  1  0.500000  0.161377  0.893269  1
  P  P34  1  0.000000  0.661377  0.106731  1
  P  P35  1  0.000000  0.338623  0.106731  1
