# generated using pymatgen
data_Nd2Ho5Sc3(In2Pt)4
_symmetry_space_group_name_H-M   'P 1'
_cell_length_a   3.58704400
_cell_length_b   8.12043648
_cell_length_c   18.03394976
_cell_angle_alpha   89.77711902
_cell_angle_beta   90.00000000
_cell_angle_gamma   90.00000000
_symmetry_Int_Tables_number   1
_chemical_formula_structural   Nd2Ho5Sc3(In2Pt)4
_chemical_formula_sum   'Nd2 Ho5 Sc3 In8 Pt4'
_cell_volume   525.29545940
_cell_formula_units_Z   1
loop_
 _symmetry_equiv_pos_site_id
 _symmetry_equiv_pos_as_xyz
  1  'x, y, z'
loop_
 _atom_site_type_symbol
 _atom_site_label
 _atom_site_symmetry_multiplicity
 _atom_site_fract_x
 _atom_site_fract_y
 _atom_site_fract_z
 _atom_site_occupancy
  Nd  Nd0  1  0.000000  0.996692  0.997345  1
  Nd  Nd1  1  0.000000  0.500671  0.501014  1
  Ho  Ho2  1  0.000000  0.620228  0.087377  1
  Ho  Ho3  1  0.000000  0.239137  0.216945  1
  Ho  Ho4  1  0.000000  0.764162  0.784192  1
  Ho  Ho5  1  0.000000  0.264874  0.711249  1
  Ho  Ho6  1  0.000000  0.737401  0.288918  1
  Sc  Sc7  1  0.000000  0.118325  0.412131  1
  Sc  Sc8  1  0.000000  0.881704  0.588927  1
  Sc  Sc9  1  0.000000  0.379495  0.909239  1
  In  In10  1  0.500000  0.405453  0.350428  1
  In  In11  1  0.500000  0.595432  0.652513  1
  In  In12  1  0.500000  0.094700  0.844760  1
  In  In13  1  0.500000  0.917554  0.155106  1
  In  In14  1  0.500000  0.303566  0.060086  1
  In  In15  1  0.500000  0.683930  0.935182  1
  In  In16  1  0.500000  0.181198  0.557284  1
  In  In17  1  0.500000  0.818155  0.443116  1
  Pt  Pt18  1  0.500000  0.026941  0.307970  1
  Pt  Pt19  1  0.500000  0.974314  0.692840  1
  Pt  Pt20  1  0.500000  0.470935  0.804149  1
  Pt  Pt21  1  0.500000  0.525134  0.199229  1
