# generated using pymatgen
data_Er4Si4RuRh3
_symmetry_space_group_name_H-M   'P 1'
_cell_length_a   4.26445400
_cell_length_b   6.87640292
_cell_length_c   7.26452298
_cell_angle_alpha   89.94068411
_cell_angle_beta   90.00000000
_cell_angle_gamma   90.00000000
_symmetry_Int_Tables_number   1
_chemical_formula_structural   Er4Si4RuRh3
_chemical_formula_sum   'Er4 Si4 Ru1 Rh3'
_cell_volume   213.02551261
_cell_formula_units_Z   1
loop_
 _symmetry_equiv_pos_site_id
 _symmetry_equiv_pos_as_xyz
  1  'x, y, z'
loop_
 _atom_site_type_symbol
 _atom_site_label
 _atom_site_symmetry_multiplicity
 _atom_site_fract_x
 _atom_site_fract_y
 _atom_site_fract_z
 _atom_site_occupancy
  Er  Er0  1  0.250000  0.494929  0.690050  1
  Er  Er1  1  0.750000  0.507107  0.311238  1
  Er  Er2  1  0.250000  0.996729  0.812382  1
  Er  Er3  1  0.750000  0.002206  0.187223  1
  Si  Si4  1  0.250000  0.297003  0.107562  1
  Si  Si5  1  0.750000  0.703980  0.887835  1
  Si  Si6  1  0.250000  0.797603  0.400619  1
  Si  Si7  1  0.750000  0.200823  0.603954  1
  Ru  Ru8  1  0.750000  0.845766  0.566874  1
  Rh  Rh9  1  0.250000  0.156054  0.431558  1
  Rh  Rh10  1  0.750000  0.342616  0.931150  1
  Rh  Rh11  1  0.250000  0.655185  0.069556  1
