# generated using pymatgen
data_Dy4Zn10GePb
_symmetry_space_group_name_H-M   'P 1'
_cell_length_a   8.32527345
_cell_length_b   8.32527321
_cell_length_c   8.93355100
_cell_angle_alpha   90.00000000
_cell_angle_beta   90.00000000
_cell_angle_gamma   149.75173832
_symmetry_Int_Tables_number   1
_chemical_formula_structural   Dy4Zn10GePb
_chemical_formula_sum   'Dy4 Zn10 Ge1 Pb1'
_cell_volume   311.91356196
_cell_formula_units_Z   1
loop_
 _symmetry_equiv_pos_site_id
 _symmetry_equiv_pos_as_xyz
  1  'x, y, z'
loop_
 _atom_site_type_symbol
 _atom_site_label
 _atom_site_symmetry_multiplicity
 _atom_site_fract_x
 _atom_site_fract_y
 _atom_site_fract_z
 _atom_site_occupancy
  Dy  Dy0  1  0.199791  0.800209  0.250000  1
  Dy  Dy1  1  0.796787  0.203213  0.750000  1
  Dy  Dy2  1  0.000694  0.999306  0.480786  1
  Dy  Dy3  1  0.000694  0.999306  0.019214  1
  Zn  Zn4  1  0.812941  0.187059  0.390253  1
  Zn  Zn5  1  0.186122  0.813878  0.606783  1
  Zn  Zn6  1  0.812941  0.187059  0.109747  1
  Zn  Zn7  1  0.186122  0.813878  0.893217  1
  Zn  Zn8  1  0.651564  0.348436  0.474991  1
  Zn  Zn9  1  0.342598  0.657402  0.514907  1
  Zn  Zn10  1  0.651564  0.348436  0.025009  1
  Zn  Zn11  1  0.342598  0.657402  0.985093  1
  Zn  Zn12  1  0.399610  0.600390  0.250000  1
  Zn  Zn13  1  0.611828  0.388172  0.750000  1
  Ge  Ge14  1  0.555282  0.444718  0.250000  1
  Pb  Pb15  1  0.448865  0.551135  0.750000  1
