# generated using pymatgen
data_Yb2AsO4F
_symmetry_space_group_name_H-M   'P 1'
_cell_length_a   8.15442816
_cell_length_b   8.15442766
_cell_length_c   10.56263313
_cell_angle_alpha   61.57672748
_cell_angle_beta   61.57672811
_cell_angle_gamma   50.44455346
_symmetry_Int_Tables_number   1
_chemical_formula_structural   Yb2AsO4F
_chemical_formula_sum   'Yb8 As4 O16 F4'
_cell_volume   460.51062755
_cell_formula_units_Z   4
loop_
 _symmetry_equiv_pos_site_id
 _symmetry_equiv_pos_as_xyz
  1  'x, y, z'
loop_
 _atom_site_type_symbol
 _atom_site_label
 _atom_site_symmetry_multiplicity
 _atom_site_fract_x
 _atom_site_fract_y
 _atom_site_fract_z
 _atom_site_occupancy
  Yb  Yb0  1  0.789743  0.288746  0.034581  1
  Yb  Yb1  1  0.711254  0.210257  0.465419  1
  Yb  Yb2  1  0.210257  0.711254  0.965419  1
  Yb  Yb3  1  0.288746  0.789743  0.534581  1
  Yb  Yb4  1  0.970810  0.739613  0.338594  1
  Yb  Yb5  1  0.260387  0.029190  0.161406  1
  Yb  Yb6  1  0.029190  0.260387  0.661406  1
  Yb  Yb7  1  0.739613  0.970810  0.838594  1
  As  As8  1  0.766491  0.594109  0.193660  1
  As  As9  1  0.405891  0.233509  0.306340  1
  As  As10  1  0.233509  0.405891  0.806340  1
  As  As11  1  0.594109  0.766491  0.693660  1
  O  O12  1  0.225565  0.380039  0.438663  1
  O  O13  1  0.619961  0.774435  0.061337  1
  O  O14  1  0.774435  0.619961  0.561337  1
  O  O15  1  0.380039  0.225565  0.938663  1
  O  O16  1  0.060680  0.337666  0.827350  1
  O  O17  1  0.662334  0.939320  0.672650  1
  O  O18  1  0.939320  0.662334  0.172650  1
  O  O19  1  0.337666  0.060680  0.327350  1
  O  O20  1  0.411731  0.413990  0.633480  1
  O  O21  1  0.586010  0.588269  0.866520  1
  O  O22  1  0.588269  0.586010  0.366520  1
  O  O23  1  0.413990  0.411731  0.133480  1
  O  O24  1  0.093389  0.670769  0.821245  1
  O  O25  1  0.329231  0.906611  0.678755  1
  O  O26  1  0.906611  0.329231  0.178755  1
  O  O27  1  0.670769  0.093389  0.321245  1
  F  F28  1  0.925753  0.103970  0.605671  1
  F  F29  1  0.896030  0.074247  0.894329  1
  F  F30  1  0.074247  0.896030  0.394329  1
  F  F31  1  0.103970  0.925753  0.105671  1
