# generated using pymatgen
data_Ce4Ga16Pt7Au
_symmetry_space_group_name_H-M   'P 1'
_cell_length_a   4.36214500
_cell_length_b   6.70272198
_cell_length_c   17.48922100
_cell_angle_alpha   90.25033296
_cell_angle_beta   90.00000000
_cell_angle_gamma   90.00000000
_symmetry_Int_Tables_number   1
_chemical_formula_structural   Ce4Ga16Pt7Au
_chemical_formula_sum   'Ce4 Ga16 Pt7 Au1'
_cell_volume   511.34925039
_cell_formula_units_Z   1
loop_
 _symmetry_equiv_pos_site_id
 _symmetry_equiv_pos_as_xyz
  1  'x, y, z'
loop_
 _atom_site_type_symbol
 _atom_site_label
 _atom_site_symmetry_multiplicity
 _atom_site_fract_x
 _atom_site_fract_y
 _atom_site_fract_z
 _atom_site_occupancy
  Ce  Ce0  1  0.750000  0.984147  0.637956  1
  Ce  Ce1  1  0.250000  0.485027  0.861810  1
  Ce  Ce2  1  0.750000  0.513830  0.140221  1
  Ce  Ce3  1  0.250000  0.014387  0.359833  1
  Ga  Ga4  1  0.250000  0.228673  0.189464  1
  Ga  Ga5  1  0.250000  0.486184  0.428624  1
  Ga  Ga6  1  0.250000  0.013018  0.931425  1
  Ga  Ga7  1  0.250000  0.825861  0.183398  1
  Ga  Ga8  1  0.250000  0.679569  0.682400  1
  Ga  Ga9  1  0.250000  0.263810  0.688767  1
  Ga  Ga10  1  0.250000  0.158698  0.535592  1
  Ga  Ga11  1  0.750000  0.985743  0.070635  1
  Ga  Ga12  1  0.750000  0.169306  0.819596  1
  Ga  Ga13  1  0.250000  0.342706  0.037684  1
  Ga  Ga14  1  0.750000  0.845011  0.461795  1
  Ga  Ga15  1  0.750000  0.655324  0.965227  1
  Ga  Ga16  1  0.750000  0.773387  0.813792  1
  Ga  Ga17  1  0.750000  0.521273  0.565124  1
  Ga  Ga18  1  0.750000  0.326844  0.316232  1
  Ga  Ga19  1  0.750000  0.729040  0.309880  1
  Pt  Pt20  1  0.250000  0.967839  0.784198  1
  Pt  Pt21  1  0.750000  0.031853  0.216712  1
  Pt  Pt22  1  0.250000  0.532587  0.283098  1
  Pt  Pt23  1  0.250000  0.752180  0.535123  1
  Pt  Pt24  1  0.250000  0.747166  0.036677  1
  Pt  Pt25  1  0.750000  0.247867  0.463495  1
  Pt  Pt26  1  0.750000  0.251950  0.965158  1
  Au  Au27  1  0.750000  0.466711  0.716086  1
