# generated using pymatgen
data_Tm(Lu3Ir2)3
_symmetry_space_group_name_H-M   'P 1'
_cell_length_a   10.67531719
_cell_length_b   10.67905500
_cell_length_c   6.26480111
_cell_angle_alpha   90.00000000
_cell_angle_beta   89.97831164
_cell_angle_gamma   90.00000000
_symmetry_Int_Tables_number   1
_chemical_formula_structural   Tm(Lu3Ir2)3
_chemical_formula_sum   'Tm2 Lu18 Ir12'
_cell_volume   714.20168108
_cell_formula_units_Z   2
loop_
 _symmetry_equiv_pos_site_id
 _symmetry_equiv_pos_as_xyz
  1  'x, y, z'
loop_
 _atom_site_type_symbol
 _atom_site_label
 _atom_site_symmetry_multiplicity
 _atom_site_fract_x
 _atom_site_fract_y
 _atom_site_fract_z
 _atom_site_occupancy
  Tm  Tm0  1  0.087352  0.709327  0.624698  1
  Tm  Tm1  1  0.087352  0.290673  0.124698  1
  Lu  Lu2  1  0.291915  0.086396  0.376920  1
  Lu  Lu3  1  0.291915  0.913604  0.876920  1
  Lu  Lu4  1  0.708472  0.087098  0.875976  1
  Lu  Lu5  1  0.708472  0.912902  0.375976  1
  Lu  Lu6  1  0.586988  0.791549  0.876422  1
  Lu  Lu7  1  0.586988  0.208451  0.376422  1
  Lu  Lu8  1  0.412969  0.791435  0.376040  1
  Lu  Lu9  1  0.412969  0.208565  0.876040  1
  Lu  Lu10  1  0.208575  0.412947  0.623611  1
  Lu  Lu11  1  0.208575  0.587053  0.123611  1
  Lu  Lu12  1  0.791109  0.413000  0.123778  1
  Lu  Lu13  1  0.791109  0.587000  0.623778  1
  Lu  Lu14  1  0.912564  0.708257  0.123755  1
  Lu  Lu15  1  0.912564  0.291743  0.623755  1
  Lu  Lu16  1  0.999665  0.000498  0.499819  1
  Lu  Lu17  1  0.999665  0.999502  0.999819  1
  Lu  Lu18  1  0.500066  0.499995  0.999571  1
  Lu  Lu19  1  0.500066  0.500005  0.499571  1
  Ir  Ir20  1  0.845712  0.153516  0.250331  1
  Ir  Ir21  1  0.845712  0.846484  0.750331  1
  Ir  Ir22  1  0.153909  0.153485  0.748744  1
  Ir  Ir23  1  0.153909  0.846515  0.248744  1
  Ir  Ir24  1  0.653773  0.346376  0.749912  1
  Ir  Ir25  1  0.653773  0.653624  0.249912  1
  Ir  Ir26  1  0.347079  0.346139  0.250549  1
  Ir  Ir27  1  0.347079  0.653861  0.750549  1
  Ir  Ir28  1  0.500261  0.000167  0.121577  1
  Ir  Ir29  1  0.500261  0.999833  0.621577  1
  Ir  Ir30  1  0.999590  0.500019  0.878295  1
  Ir  Ir31  1  0.999590  0.499981  0.378295  1
