# generated using pymatgen
data_Nd4Ga4IrPdPt2
_symmetry_space_group_name_H-M   'P 1'
_cell_length_a   4.51697500
_cell_length_b   7.12869755
_cell_length_c   7.81779267
_cell_angle_alpha   89.95521198
_cell_angle_beta   90.00000000
_cell_angle_gamma   90.00000000
_symmetry_Int_Tables_number   1
_chemical_formula_structural   Nd4Ga4IrPdPt2
_chemical_formula_sum   'Nd4 Ga4 Ir1 Pd1 Pt2'
_cell_volume   251.73400895
_cell_formula_units_Z   1
loop_
 _symmetry_equiv_pos_site_id
 _symmetry_equiv_pos_as_xyz
  1  'x, y, z'
loop_
 _atom_site_type_symbol
 _atom_site_label
 _atom_site_symmetry_multiplicity
 _atom_site_fract_x
 _atom_site_fract_y
 _atom_site_fract_z
 _atom_site_occupancy
  Nd  Nd0  1  0.250000  0.018064  0.692767  1
  Nd  Nd1  1  0.250000  0.526932  0.802802  1
  Nd  Nd2  1  0.750000  0.973573  0.309230  1
  Nd  Nd3  1  0.750000  0.477923  0.193838  1
  Ga  Ga4  1  0.250000  0.165922  0.072535  1
  Ga  Ga5  1  0.250000  0.668137  0.428587  1
  Ga  Ga6  1  0.750000  0.830131  0.925414  1
  Ga  Ga7  1  0.750000  0.341557  0.571480  1
  Ir  Ir8  1  0.750000  0.720414  0.604580  1
  Pd  Pd9  1  0.750000  0.214990  0.897985  1
  Pt  Pt10  1  0.250000  0.280895  0.397765  1
  Pt  Pt11  1  0.250000  0.781463  0.103015  1
