# generated using pymatgen
data_Ca5Tb4SmSn8
_symmetry_space_group_name_H-M   'P 1'
_cell_length_a   7.89985900
_cell_length_b   8.46846700
_cell_length_c   16.15179700
_cell_angle_alpha   90.00000000
_cell_angle_beta   90.00000000
_cell_angle_gamma   90.00000000
_symmetry_Int_Tables_number   1
_chemical_formula_structural   Ca5Tb4SmSn8
_chemical_formula_sum   'Ca10 Tb8 Sm2 Sn16'
_cell_volume   1080.55029698
_cell_formula_units_Z   2
loop_
 _symmetry_equiv_pos_site_id
 _symmetry_equiv_pos_as_xyz
  1  'x, y, z'
loop_
 _atom_site_type_symbol
 _atom_site_label
 _atom_site_symmetry_multiplicity
 _atom_site_fract_x
 _atom_site_fract_y
 _atom_site_fract_z
 _atom_site_occupancy
  Ca  Ca0  1  0.503334  0.686689  0.592244  1
  Ca  Ca1  1  0.003334  0.813311  0.907756  1
  Ca  Ca2  1  0.497398  0.315006  0.092075  1
  Ca  Ca3  1  0.997398  0.184994  0.407925  1
  Ca  Ca4  1  0.497398  0.315006  0.407925  1
  Ca  Ca5  1  0.997398  0.184994  0.092075  1
  Ca  Ca6  1  0.503334  0.686689  0.907756  1
  Ca  Ca7  1  0.003334  0.813311  0.592244  1
  Ca  Ca8  1  0.833620  0.510306  0.750000  1
  Ca  Ca9  1  0.333620  0.989694  0.750000  1
  Tb  Tb10  1  0.671152  0.166297  0.622269  1
  Tb  Tb11  1  0.171152  0.333703  0.877731  1
  Tb  Tb12  1  0.328232  0.835025  0.122439  1
  Tb  Tb13  1  0.828232  0.664975  0.377561  1
  Tb  Tb14  1  0.328232  0.835025  0.377561  1
  Tb  Tb15  1  0.828232  0.664975  0.122439  1
  Tb  Tb16  1  0.671152  0.166297  0.877731  1
  Tb  Tb17  1  0.171152  0.333703  0.622269  1
  Sm  Sm18  1  0.168081  0.486953  0.250000  1
  Sm  Sm19  1  0.668081  0.013047  0.250000  1
  Sn  Sn20  1  0.670821  0.963746  0.458064  1
  Sn  Sn21  1  0.170821  0.536254  0.041936  1
  Sn  Sn22  1  0.328408  0.037592  0.959695  1
  Sn  Sn23  1  0.828408  0.462408  0.540305  1
  Sn  Sn24  1  0.328408  0.037592  0.540305  1
  Sn  Sn25  1  0.828408  0.462408  0.959695  1
  Sn  Sn26  1  0.670821  0.963746  0.041936  1
  Sn  Sn27  1  0.170821  0.536254  0.458064  1
  Sn  Sn28  1  0.468661  0.374381  0.750000  1
  Sn  Sn29  1  0.968661  0.125619  0.750000  1
  Sn  Sn30  1  0.530673  0.634425  0.250000  1
  Sn  Sn31  1  0.030673  0.865575  0.250000  1
  Sn  Sn32  1  0.714471  0.873165  0.750000  1
  Sn  Sn33  1  0.214471  0.626835  0.750000  1
  Sn  Sn34  1  0.285804  0.131450  0.250000  1
  Sn  Sn35  1  0.785804  0.368550  0.250000  1
