# generated using pymatgen
data_Tb5Y11Cd4TcPd3
_symmetry_space_group_name_H-M   'P 1'
_cell_length_a   9.73829140
_cell_length_b   9.74529014
_cell_length_c   9.75284147
_cell_angle_alpha   59.51244351
_cell_angle_beta   59.55601222
_cell_angle_gamma   59.49680383
_symmetry_Int_Tables_number   1
_chemical_formula_structural   Tb5Y11Cd4TcPd3
_chemical_formula_sum   'Tb5 Y11 Cd4 Tc1 Pd3'
_cell_volume   647.35805109
_cell_formula_units_Z   1
loop_
 _symmetry_equiv_pos_site_id
 _symmetry_equiv_pos_as_xyz
  1  'x, y, z'
loop_
 _atom_site_type_symbol
 _atom_site_label
 _atom_site_symmetry_multiplicity
 _atom_site_fract_x
 _atom_site_fract_y
 _atom_site_fract_z
 _atom_site_occupancy
  Tb  Tb0  1  0.353172  0.353284  0.353140  1
  Tb  Tb1  1  0.350722  0.349900  0.946330  1
  Tb  Tb2  1  0.350656  0.946478  0.349864  1
  Tb  Tb3  1  0.945357  0.350921  0.350966  1
  Tb  Tb4  1  0.817366  0.187895  0.187944  1
  Y  Y5  1  0.189312  0.809580  0.809716  1
  Y  Y6  1  0.188388  0.816096  0.188091  1
  Y  Y7  1  0.809690  0.189093  0.809423  1
  Y  Y8  1  0.188457  0.188090  0.816039  1
  Y  Y9  1  0.809703  0.809309  0.189175  1
  Y  Y10  1  0.934984  0.565686  0.565620  1
  Y  Y11  1  0.557800  0.936928  0.936976  1
  Y  Y12  1  0.565429  0.935541  0.565314  1
  Y  Y13  1  0.937416  0.556804  0.937514  1
  Y  Y14  1  0.565410  0.565344  0.935542  1
  Y  Y15  1  0.937453  0.937497  0.556743  1
  Cd  Cd16  1  0.579521  0.579506  0.579529  1
  Cd  Cd17  1  0.580933  0.581481  0.253420  1
  Cd  Cd18  1  0.580884  0.253454  0.581492  1
  Cd  Cd19  1  0.253531  0.580981  0.581036  1
  Tc  Tc20  1  0.142416  0.145761  0.145847  1
  Pd  Pd21  1  0.145898  0.145771  0.568569  1
  Pd  Pd22  1  0.145913  0.568539  0.145716  1
  Pd  Pd23  1  0.569588  0.146060  0.145995  1
