# generated using pymatgen
data_Be8V2MoW
_symmetry_space_group_name_H-M   'P 1'
_cell_length_a   4.40958600
_cell_length_b   4.40958557
_cell_length_c   7.16543500
_cell_angle_alpha   90.00000000
_cell_angle_beta   90.00000000
_cell_angle_gamma   120.00000322
_symmetry_Int_Tables_number   1
_chemical_formula_structural   Be8V2MoW
_chemical_formula_sum   'Be8 V2 Mo1 W1'
_cell_volume   120.66151394
_cell_formula_units_Z   1
loop_
 _symmetry_equiv_pos_site_id
 _symmetry_equiv_pos_as_xyz
  1  'x, y, z'
loop_
 _atom_site_type_symbol
 _atom_site_label
 _atom_site_symmetry_multiplicity
 _atom_site_fract_x
 _atom_site_fract_y
 _atom_site_fract_z
 _atom_site_occupancy
  Be  Be0  1  0.000000  0.000000  0.000687  1
  Be  Be1  1  0.000000  0.000000  0.500709  1
  Be  Be2  1  0.829318  0.658636  0.250014  1
  Be  Be3  1  0.170642  0.829358  0.749901  1
  Be  Be4  1  0.658717  0.829358  0.749901  1
  Be  Be5  1  0.341364  0.170682  0.250014  1
  Be  Be6  1  0.829318  0.170682  0.250014  1
  Be  Be7  1  0.170642  0.341283  0.749901  1
  V  V8  1  0.666667  0.333333  0.935442  1
  V  V9  1  0.333333  0.666667  0.434495  1
  Mo  Mo10  1  0.333333  0.666667  0.064495  1
  W  W11  1  0.666667  0.333333  0.564428  1
