# generated using pymatgen
data_CaDy2Ga8Ag3
_symmetry_space_group_name_H-M   'P 1'
_cell_length_a   4.35856185
_cell_length_b   8.41064121
_cell_length_c   8.41064033
_cell_angle_alpha   69.69366298
_cell_angle_beta   74.98273609
_cell_angle_gamma   74.98274372
_symmetry_Int_Tables_number   1
_chemical_formula_structural   CaDy2Ga8Ag3
_chemical_formula_sum   'Ca1 Dy2 Ga8 Ag3'
_cell_volume   274.36765633
_cell_formula_units_Z   1
loop_
 _symmetry_equiv_pos_site_id
 _symmetry_equiv_pos_as_xyz
  1  'x, y, z'
loop_
 _atom_site_type_symbol
 _atom_site_label
 _atom_site_symmetry_multiplicity
 _atom_site_fract_x
 _atom_site_fract_y
 _atom_site_fract_z
 _atom_site_occupancy
  Ca  Ca0  1  0.500000  0.500000  0.500000  1
  Dy  Dy1  1  0.798388  0.201612  0.201612  1
  Dy  Dy2  1  0.201612  0.798388  0.798388  1
  Ga  Ga3  1  0.644903  0.072578  0.637615  1
  Ga  Ga4  1  0.355097  0.927422  0.362385  1
  Ga  Ga5  1  0.644903  0.637615  0.072578  1
  Ga  Ga6  1  0.355097  0.362385  0.927422  1
  Ga  Ga7  1  0.839521  0.792659  0.528298  1
  Ga  Ga8  1  0.160479  0.207341  0.471702  1
  Ga  Ga9  1  0.839521  0.528298  0.792659  1
  Ga  Ga10  1  0.160479  0.471702  0.207341  1
  Ag  Ag11  1  0.500000  0.000000  0.000000  1
  Ag  Ag12  1  0.000000  0.808675  0.191325  1
  Ag  Ag13  1  0.000000  0.191325  0.808675  1
