# generated using pymatgen
data_Ce2YU(AsPt)4
_symmetry_space_group_name_H-M   'P 1'
_cell_length_a   4.30913900
_cell_length_b   4.30913752
_cell_length_c   15.66737400
_cell_angle_alpha   90.00000000
_cell_angle_beta   90.00000000
_cell_angle_gamma   119.99998833
_symmetry_Int_Tables_number   1
_chemical_formula_structural   Ce2YU(AsPt)4
_chemical_formula_sum   'Ce2 Y1 U1 As4 Pt4'
_cell_volume   251.94616440
_cell_formula_units_Z   1
loop_
 _symmetry_equiv_pos_site_id
 _symmetry_equiv_pos_as_xyz
  1  'x, y, z'
loop_
 _atom_site_type_symbol
 _atom_site_label
 _atom_site_symmetry_multiplicity
 _atom_site_fract_x
 _atom_site_fract_y
 _atom_site_fract_z
 _atom_site_occupancy
  Ce  Ce0  1  0.000000  0.000000  0.998159  1
  Ce  Ce1  1  0.000000  0.000000  0.501841  1
  Y  Y2  1  0.000000  0.000000  0.750000  1
  U  U3  1  0.000000  0.000000  0.250000  1
  As  As4  1  0.333333  0.666667  0.883621  1
  As  As5  1  0.666667  0.333333  0.385407  1
  As  As6  1  0.666667  0.333333  0.114593  1
  As  As7  1  0.333333  0.666667  0.616379  1
  Pt  Pt8  1  0.333333  0.666667  0.351391  1
  Pt  Pt9  1  0.666667  0.333333  0.858961  1
  Pt  Pt10  1  0.666667  0.333333  0.641039  1
  Pt  Pt11  1  0.333333  0.666667  0.148609  1
