# generated using pymatgen
data_CeAl5Au3
_symmetry_space_group_name_H-M   'P 1'
_cell_length_a   21.36539800
_cell_length_b   4.23257000
_cell_length_c   7.45648700
_cell_angle_alpha   90.00000000
_cell_angle_beta   90.00000000
_cell_angle_gamma   90.00000000
_symmetry_Int_Tables_number   1
_chemical_formula_structural   CeAl5Au3
_chemical_formula_sum   'Ce4 Al20 Au12'
_cell_volume   674.29416540
_cell_formula_units_Z   4
loop_
 _symmetry_equiv_pos_site_id
 _symmetry_equiv_pos_as_xyz
  1  'x, y, z'
loop_
 _atom_site_type_symbol
 _atom_site_label
 _atom_site_symmetry_multiplicity
 _atom_site_fract_x
 _atom_site_fract_y
 _atom_site_fract_z
 _atom_site_occupancy
  Ce  Ce0  1  0.640849  0.750000  0.119105  1
  Ce  Ce1  1  0.140849  0.750000  0.380895  1
  Ce  Ce2  1  0.859151  0.250001  0.619104  1
  Ce  Ce3  1  0.359151  0.250001  0.880895  1
  Al  Al4  1  0.207360  0.250001  0.075265  1
  Al  Al5  1  0.017847  0.750000  0.114031  1
  Al  Al6  1  0.507648  0.250001  0.132714  1
  Al  Al7  1  0.883646  0.250001  0.143838  1
  Al  Al8  1  0.299266  0.750000  0.187585  1
  Al  Al9  1  0.799266  0.750000  0.312416  1
  Al  Al10  1  0.383646  0.250001  0.356163  1
  Al  Al11  1  0.007648  0.250001  0.367286  1
  Al  Al12  1  0.517848  0.750000  0.385968  1
  Al  Al13  1  0.707360  0.250001  0.424734  1
  Al  Al14  1  0.292640  0.750000  0.575266  1
  Al  Al15  1  0.482153  0.250001  0.614032  1
  Al  Al16  1  0.992352  0.750000  0.632713  1
  Al  Al17  1  0.616354  0.750000  0.643837  1
  Al  Al18  1  0.200735  0.250001  0.687584  1
  Al  Al19  1  0.700734  0.250001  0.812415  1
  Al  Al20  1  0.116354  0.750000  0.856163  1
  Al  Al21  1  0.492352  0.750000  0.867286  1
  Al  Al22  1  0.982153  0.250001  0.885968  1
  Al  Al23  1  0.792640  0.750000  0.924735  1
  Au  Au24  1  0.085294  0.250001  0.080481  1
  Au  Au25  1  0.762336  0.250001  0.117042  1
  Au  Au26  1  0.426314  0.750000  0.158902  1
  Au  Au27  1  0.926313  0.750000  0.341098  1
  Au  Au28  1  0.262335  0.250001  0.382957  1
  Au  Au29  1  0.585294  0.250001  0.419518  1
  Au  Au30  1  0.414706  0.750000  0.580482  1
  Au  Au31  1  0.737665  0.750000  0.617043  1
  Au  Au32  1  0.073687  0.250001  0.658901  1
  Au  Au33  1  0.573686  0.250001  0.841097  1
  Au  Au34  1  0.237664  0.750000  0.882957  1
  Au  Au35  1  0.914706  0.750000  0.919519  1
