# generated using pymatgen
data_SrNb10O18
_symmetry_space_group_name_H-M   'P 1'
_cell_length_a   7.88511057
_cell_length_b   9.36558900
_cell_length_c   10.34726700
_cell_angle_alpha   90.00000000
_cell_angle_beta   110.36712390
_cell_angle_gamma   90.00000000
_symmetry_Int_Tables_number   1
_chemical_formula_structural   SrNb10O18
_chemical_formula_sum   'Sr2 Nb20 O36'
_cell_volume   716.36012639
_cell_formula_units_Z   2
loop_
 _symmetry_equiv_pos_site_id
 _symmetry_equiv_pos_as_xyz
  1  'x, y, z'
loop_
 _atom_site_type_symbol
 _atom_site_label
 _atom_site_symmetry_multiplicity
 _atom_site_fract_x
 _atom_site_fract_y
 _atom_site_fract_z
 _atom_site_occupancy
  Sr  Sr0  1  0.000000  0.000000  0.000000  1
  Sr  Sr1  1  0.000000  0.500001  0.500000  1
  Nb  Nb2  1  0.804081  0.625395  0.021592  1
  Nb  Nb3  1  0.592855  0.123309  0.060713  1
  Nb  Nb4  1  0.183024  0.630175  0.123452  1
  Nb  Nb5  1  0.002070  0.382479  0.165968  1
  Nb  Nb6  1  0.595992  0.616085  0.230575  1
  Nb  Nb7  1  0.404008  0.116085  0.269426  1
  Nb  Nb8  1  0.997932  0.882479  0.334033  1
  Nb  Nb9  1  0.816977  0.130175  0.376548  1
  Nb  Nb10  1  0.407145  0.623310  0.439287  1
  Nb  Nb11  1  0.195920  0.125395  0.478407  1
  Nb  Nb12  1  0.804080  0.874606  0.521592  1
  Nb  Nb13  1  0.592855  0.376690  0.560713  1
  Nb  Nb14  1  0.183024  0.869825  0.623451  1
  Nb  Nb15  1  0.002069  0.117521  0.665968  1
  Nb  Nb16  1  0.595992  0.883915  0.730575  1
  Nb  Nb17  1  0.404009  0.383915  0.769426  1
  Nb  Nb18  1  0.997930  0.617520  0.834031  1
  Nb  Nb19  1  0.816976  0.369825  0.876548  1
  Nb  Nb20  1  0.407146  0.876690  0.939288  1
  Nb  Nb21  1  0.195920  0.374606  0.978407  1
  O  O22  1  0.806948  0.243158  0.038564  1
  O  O23  1  0.585877  0.746861  0.067845  1
  O  O24  1  0.381987  0.001875  0.099779  1
  O  O25  1  0.399839  0.500858  0.104876  1
  O  O26  1  0.198264  0.242156  0.141963  1
  O  O27  1  0.992298  0.766275  0.149070  1
  O  O28  1  0.799071  0.009994  0.195101  1
  O  O29  1  0.804940  0.508221  0.199941  1
  O  O30  1  0.589506  0.243611  0.229521  1
  O  O31  1  0.410496  0.743612  0.270480  1
  O  O32  1  0.195060  0.008221  0.300058  1
  O  O33  1  0.200929  0.509994  0.304899  1
  O  O34  1  0.007701  0.266275  0.350930  1
  O  O35  1  0.801736  0.742157  0.358037  1
  O  O36  1  0.600162  0.000857  0.395124  1
  O  O37  1  0.618011  0.501874  0.400220  1
  O  O38  1  0.414122  0.246861  0.432155  1
  O  O39  1  0.193053  0.743159  0.461435  1
  O  O40  1  0.806947  0.256843  0.538565  1
  O  O41  1  0.585876  0.753139  0.567844  1
  O  O42  1  0.381988  0.498126  0.599780  1
  O  O43  1  0.399838  0.999143  0.604876  1
  O  O44  1  0.198264  0.257842  0.641961  1
  O  O45  1  0.992298  0.733725  0.649069  1
  O  O46  1  0.799070  0.490006  0.695102  1
  O  O47  1  0.804941  0.991779  0.699942  1
  O  O48  1  0.589506  0.256388  0.729521  1
  O  O49  1  0.410495  0.756389  0.770480  1
  O  O50  1  0.195059  0.491779  0.800058  1
  O  O51  1  0.200928  0.990006  0.804899  1
  O  O52  1  0.007702  0.233725  0.850930  1
  O  O53  1  0.801736  0.757843  0.858038  1
  O  O54  1  0.600162  0.499142  0.895125  1
  O  O55  1  0.618012  0.998126  0.900220  1
  O  O56  1  0.414124  0.253139  0.932155  1
  O  O57  1  0.193053  0.756842  0.961435  1
