# generated using pymatgen
data_Tb3Lu2TlSb2
_symmetry_space_group_name_H-M   'P 1'
_cell_length_a   8.93151300
_cell_length_b   8.93793115
_cell_length_c   6.39140000
_cell_angle_alpha   90.00000000
_cell_angle_beta   90.00000000
_cell_angle_gamma   120.02376675
_symmetry_Int_Tables_number   1
_chemical_formula_structural   Tb3Lu2TlSb2
_chemical_formula_sum   'Tb6 Lu4 Tl2 Sb4'
_cell_volume   441.75819070
_cell_formula_units_Z   2
loop_
 _symmetry_equiv_pos_site_id
 _symmetry_equiv_pos_as_xyz
  1  'x, y, z'
loop_
 _atom_site_type_symbol
 _atom_site_label
 _atom_site_symmetry_multiplicity
 _atom_site_fract_x
 _atom_site_fract_y
 _atom_site_fract_z
 _atom_site_occupancy
  Tb  Tb0  1  0.001744  0.758160  0.750000  1
  Tb  Tb1  1  0.001744  0.243583  0.250000  1
  Tb  Tb2  1  0.757576  0.759580  0.250000  1
  Tb  Tb3  1  0.757576  0.997996  0.750000  1
  Tb  Tb4  1  0.241257  0.236942  0.750000  1
  Tb  Tb5  1  0.241257  0.004315  0.250000  1
  Lu  Lu6  1  0.334838  0.667420  0.500000  1
  Lu  Lu7  1  0.664280  0.332140  0.000000  1
  Lu  Lu8  1  0.664280  0.332140  0.500000  1
  Lu  Lu9  1  0.334838  0.667420  0.000000  1
  Tl  Tl10  1  0.396466  0.998280  0.750000  1
  Tl  Tl11  1  0.396466  0.398186  0.250000  1
  Sb  Sb12  1  0.999808  0.606182  0.250000  1
  Sb  Sb13  1  0.999808  0.393626  0.750000  1
  Sb  Sb14  1  0.604032  0.603438  0.750000  1
  Sb  Sb15  1  0.604032  0.000594  0.250000  1
