# generated using pymatgen
data_Tb2DyEr5(ReB6)4
_symmetry_space_group_name_H-M   'P 1'
_cell_length_a   3.66991000
_cell_length_b   9.15160402
_cell_length_c   11.53916800
_cell_angle_alpha   89.99585713
_cell_angle_beta   90.00000000
_cell_angle_gamma   90.00000000
_symmetry_Int_Tables_number   1
_chemical_formula_structural   Tb2DyEr5(ReB6)4
_chemical_formula_sum   'Tb2 Dy1 Er5 Re4 B24'
_cell_volume   387.54945398
_cell_formula_units_Z   1
loop_
 _symmetry_equiv_pos_site_id
 _symmetry_equiv_pos_as_xyz
  1  'x, y, z'
loop_
 _atom_site_type_symbol
 _atom_site_label
 _atom_site_symmetry_multiplicity
 _atom_site_fract_x
 _atom_site_fract_y
 _atom_site_fract_z
 _atom_site_occupancy
  Tb  Tb0  1  0.000000  0.323232  0.413882  1
  Tb  Tb1  1  0.000000  0.676678  0.586220  1
  Dy  Dy2  1  0.000000  0.823390  0.086024  1
  Er  Er3  1  0.000000  0.176476  0.913909  1
  Er  Er4  1  0.000000  0.943176  0.369864  1
  Er  Er5  1  0.000000  0.056951  0.630187  1
  Er  Er6  1  0.000000  0.443116  0.129714  1
  Er  Er7  1  0.000000  0.556744  0.870175  1
  Re  Re8  1  0.000000  0.639022  0.320270  1
  Re  Re9  1  0.000000  0.360734  0.680061  1
  Re  Re10  1  0.000000  0.138773  0.178986  1
  Re  Re11  1  0.000000  0.861577  0.820751  1
  B  B12  1  0.500000  0.553560  0.432552  1
  B  B13  1  0.500000  0.446282  0.567601  1
  B  B14  1  0.500000  0.053618  0.066818  1
  B  B15  1  0.500000  0.946980  0.932800  1
  B  B16  1  0.500000  0.749772  0.418217  1
  B  B17  1  0.500000  0.250211  0.581996  1
  B  B18  1  0.500000  0.249626  0.080947  1
  B  B19  1  0.500000  0.750476  0.918428  1
  B  B20  1  0.500000  0.792357  0.265410  1
  B  B21  1  0.500000  0.207398  0.734985  1
  B  B22  1  0.500000  0.292225  0.234067  1
  B  B23  1  0.500000  0.707820  0.765759  1
  B  B24  1  0.500000  0.630580  0.185351  1
  B  B25  1  0.500000  0.369025  0.814990  1
  B  B26  1  0.500000  0.130517  0.314253  1
  B  B27  1  0.500000  0.869718  0.685733  1
  B  B28  1  0.500000  0.982310  0.211999  1
  B  B29  1  0.500000  0.018296  0.788117  1
  B  B30  1  0.500000  0.482339  0.287558  1
  B  B31  1  0.500000  0.517489  0.712528  1
  B  B32  1  0.500000  0.599225  0.027663  1
  B  B33  1  0.500000  0.400190  0.972124  1
  B  B34  1  0.500000  0.098910  0.472416  1
  B  B35  1  0.500000  0.901206  0.527643  1
