# generated using pymatgen
data_Dy2Sc2B12IrRh
_symmetry_space_group_name_H-M   'P 1'
_cell_length_a   3.55236400
_cell_length_b   9.01208372
_cell_length_c   11.37695091
_cell_angle_alpha   89.95415617
_cell_angle_beta   90.00000000
_cell_angle_gamma   90.00000000
_symmetry_Int_Tables_number   1
_chemical_formula_structural   Dy2Sc2B12IrRh
_chemical_formula_sum   'Dy4 Sc4 B24 Ir2 Rh2'
_cell_volume   364.22388546
_cell_formula_units_Z   2
loop_
 _symmetry_equiv_pos_site_id
 _symmetry_equiv_pos_as_xyz
  1  'x, y, z'
loop_
 _atom_site_type_symbol
 _atom_site_label
 _atom_site_symmetry_multiplicity
 _atom_site_fract_x
 _atom_site_fract_y
 _atom_site_fract_z
 _atom_site_occupancy
  Dy  Dy0  1  0.500000  0.319632  0.413529  1
  Dy  Dy1  1  0.500000  0.680368  0.586471  1
  Dy  Dy2  1  0.500000  0.179181  0.914447  1
  Dy  Dy3  1  0.500000  0.820819  0.085553  1
  Sc  Sc4  1  0.500000  0.444499  0.124377  1
  Sc  Sc5  1  0.500000  0.555501  0.875623  1
  Sc  Sc6  1  0.500000  0.054599  0.624685  1
  Sc  Sc7  1  0.500000  0.945401  0.375315  1
  B  B8  1  0.000000  0.100002  0.472992  1
  B  B9  1  0.000000  0.899998  0.527008  1
  B  B10  1  0.000000  0.399814  0.972962  1
  B  B11  1  0.000000  0.600186  0.027038  1
  B  B12  1  0.000000  0.130255  0.318411  1
  B  B13  1  0.000000  0.869745  0.681589  1
  B  B14  1  0.000000  0.370202  0.818419  1
  B  B15  1  0.000000  0.629798  0.181581  1
  B  B16  1  0.000000  0.054608  0.065703  1
  B  B17  1  0.000000  0.945392  0.934297  1
  B  B18  1  0.000000  0.445150  0.565996  1
  B  B19  1  0.000000  0.554850  0.434004  1
  B  B20  1  0.000000  0.481603  0.285034  1
  B  B21  1  0.000000  0.518397  0.714966  1
  B  B22  1  0.000000  0.017950  0.785196  1
  B  B23  1  0.000000  0.982050  0.214804  1
  B  B24  1  0.000000  0.253740  0.080487  1
  B  B25  1  0.000000  0.746260  0.919513  1
  B  B26  1  0.000000  0.245779  0.580360  1
  B  B27  1  0.000000  0.754221  0.419640  1
  B  B28  1  0.000000  0.295676  0.235563  1
  B  B29  1  0.000000  0.704324  0.764437  1
  B  B30  1  0.000000  0.204080  0.735342  1
  B  B31  1  0.000000  0.795920  0.264658  1
  Ir  Ir32  1  0.500000  0.358666  0.681226  1
  Ir  Ir33  1  0.500000  0.641334  0.318774  1
  Rh  Rh34  1  0.500000  0.141685  0.181948  1
  Rh  Rh35  1  0.500000  0.858315  0.818052  1
