# generated using pymatgen
data_NpSc4Tc6W
_symmetry_space_group_name_H-M   'P 1'
_cell_length_a   5.20876277
_cell_length_b   5.20876365
_cell_length_c   8.73349500
_cell_angle_alpha   90.00000000
_cell_angle_beta   90.00000000
_cell_angle_gamma   116.41923310
_symmetry_Int_Tables_number   1
_chemical_formula_structural   NpSc4Tc6W
_chemical_formula_sum   'Np1 Sc4 Tc6 W1'
_cell_volume   212.20381292
_cell_formula_units_Z   1
loop_
 _symmetry_equiv_pos_site_id
 _symmetry_equiv_pos_as_xyz
  1  'x, y, z'
loop_
 _atom_site_type_symbol
 _atom_site_label
 _atom_site_symmetry_multiplicity
 _atom_site_fract_x
 _atom_site_fract_y
 _atom_site_fract_z
 _atom_site_occupancy
  Np  Np0  1  0.846296  0.153704  0.250000  1
  Sc  Sc1  1  0.330457  0.669543  0.445832  1
  Sc  Sc2  1  0.664153  0.335847  0.571278  1
  Sc  Sc3  1  0.664153  0.335847  0.928722  1
  Sc  Sc4  1  0.330457  0.669543  0.054168  1
  Tc  Tc5  1  0.992141  0.007859  0.489895  1
  Tc  Tc6  1  0.992141  0.007859  0.010105  1
  Tc  Tc7  1  0.841079  0.625479  0.250000  1
  Tc  Tc8  1  0.374521  0.158921  0.250000  1
  Tc  Tc9  1  0.162429  0.353969  0.750000  1
  Tc  Tc10  1  0.646031  0.837571  0.750000  1
  W  W11  1  0.156143  0.843857  0.750000  1
