# generated using pymatgen
data_Y3Ga3Co8Sn
_symmetry_space_group_name_H-M   'P 1'
_cell_length_a   8.61017300
_cell_length_b   8.61048773
_cell_length_c   7.30303800
_cell_angle_alpha   90.00000000
_cell_angle_beta   90.00000000
_cell_angle_gamma   119.99834461
_symmetry_Int_Tables_number   1
_chemical_formula_structural   Y3Ga3Co8Sn
_chemical_formula_sum   'Y6 Ga6 Co16 Sn2'
_cell_volume   468.90089990
_cell_formula_units_Z   2
loop_
 _symmetry_equiv_pos_site_id
 _symmetry_equiv_pos_as_xyz
  1  'x, y, z'
loop_
 _atom_site_type_symbol
 _atom_site_label
 _atom_site_symmetry_multiplicity
 _atom_site_fract_x
 _atom_site_fract_y
 _atom_site_fract_z
 _atom_site_occupancy
  Y  Y0  1  0.527396  0.472611  0.001737  1
  Y  Y1  1  0.472604  0.527389  0.501737  1
  Y  Y2  1  0.945211  0.472620  0.001737  1
  Y  Y3  1  0.527385  0.054792  0.001733  1
  Y  Y4  1  0.472615  0.945208  0.501733  1
  Y  Y5  1  0.054789  0.527380  0.501737  1
  Ga  Ga6  1  0.169593  0.830432  0.794165  1
  Ga  Ga7  1  0.339175  0.169596  0.294124  1
  Ga  Ga8  1  0.830403  0.660843  0.294121  1
  Ga  Ga9  1  0.169597  0.339157  0.794121  1
  Ga  Ga10  1  0.660825  0.830404  0.794124  1
  Ga  Ga11  1  0.830407  0.169568  0.294165  1
  Co  Co12  1  0.099514  0.199022  0.475878  1
  Co  Co13  1  0.999984  0.000006  0.224224  1
  Co  Co14  1  0.000016  0.999994  0.724224  1
  Co  Co15  1  0.666674  0.333358  0.299194  1
  Co  Co16  1  0.333326  0.666642  0.799194  1
  Co  Co17  1  0.900482  0.099493  0.975881  1
  Co  Co18  1  0.158409  0.841598  0.167635  1
  Co  Co19  1  0.316839  0.158427  0.667662  1
  Co  Co20  1  0.841580  0.683184  0.667676  1
  Co  Co21  1  0.158420  0.316816  0.167676  1
  Co  Co22  1  0.683161  0.841573  0.167662  1
  Co  Co23  1  0.841591  0.158402  0.667635  1
  Co  Co24  1  0.099518  0.900507  0.475881  1
  Co  Co25  1  0.199050  0.099516  0.975868  1
  Co  Co26  1  0.900486  0.800978  0.975878  1
  Co  Co27  1  0.800950  0.900484  0.475868  1
  Sn  Sn28  1  0.333342  0.666654  0.167668  1
  Sn  Sn29  1  0.666658  0.333346  0.667668  1
