# generated using pymatgen
data_LuZrNi12As7
_symmetry_space_group_name_H-M   'P 1'
_cell_length_a   9.33258300
_cell_length_b   9.33258365
_cell_length_c   3.77839800
_cell_angle_alpha   90.00000000
_cell_angle_beta   90.00000000
_cell_angle_gamma   119.99999415
_symmetry_Int_Tables_number   1
_chemical_formula_structural   LuZrNi12As7
_chemical_formula_sum   'Lu1 Zr1 Ni12 As7'
_cell_volume   284.99819686
_cell_formula_units_Z   1
loop_
 _symmetry_equiv_pos_site_id
 _symmetry_equiv_pos_as_xyz
  1  'x, y, z'
loop_
 _atom_site_type_symbol
 _atom_site_label
 _atom_site_symmetry_multiplicity
 _atom_site_fract_x
 _atom_site_fract_y
 _atom_site_fract_z
 _atom_site_occupancy
  Lu  Lu0  1  0.000000  0.000000  0.500000  1
  Zr  Zr1  1  0.666667  0.333333  0.000000  1
  Ni  Ni2  1  0.486123  0.948769  0.000000  1
  Ni  Ni3  1  0.051231  0.537354  0.000000  1
  Ni  Ni4  1  0.462646  0.513877  0.000000  1
  Ni  Ni5  1  0.711626  0.092956  0.500000  1
  Ni  Ni6  1  0.907044  0.618671  0.500000  1
  Ni  Ni7  1  0.381329  0.288374  0.500000  1
  Ni  Ni8  1  0.774224  0.722963  0.000000  1
  Ni  Ni9  1  0.277037  0.051260  0.000000  1
  Ni  Ni10  1  0.948740  0.225776  0.000000  1
  Ni  Ni11  1  0.547615  0.759265  0.500000  1
  Ni  Ni12  1  0.240735  0.788350  0.500000  1
  Ni  Ni13  1  0.211650  0.452385  0.500000  1
  As  As14  1  0.333333  0.666667  0.000000  1
  As  As15  1  0.450472  0.082215  0.500000  1
  As  As16  1  0.917785  0.368257  0.500000  1
  As  As17  1  0.631743  0.549528  0.500000  1
  As  As18  1  0.737188  0.949775  0.000000  1
  As  As19  1  0.050225  0.787413  0.000000  1
  As  As20  1  0.212587  0.262812  0.000000  1
