# generated using pymatgen
data_Tl4(Pd3Au)3
_symmetry_space_group_name_H-M   'P 1'
_cell_length_a   7.17850624
_cell_length_b   7.17850669
_cell_length_c   7.17850672
_cell_angle_alpha   107.58102619
_cell_angle_beta   107.58103103
_cell_angle_gamma   113.32159089
_symmetry_Int_Tables_number   1
_chemical_formula_structural   Tl4(Pd3Au)3
_chemical_formula_sum   'Tl4 Pd9 Au3'
_cell_volume   283.78955586
_cell_formula_units_Z   1
loop_
 _symmetry_equiv_pos_site_id
 _symmetry_equiv_pos_as_xyz
  1  'x, y, z'
loop_
 _atom_site_type_symbol
 _atom_site_label
 _atom_site_symmetry_multiplicity
 _atom_site_fract_x
 _atom_site_fract_y
 _atom_site_fract_z
 _atom_site_occupancy
  Tl  Tl0  1  0.243243  0.243243  0.486485  1
  Tl  Tl1  1  0.756757  0.756757  0.513515  1
  Tl  Tl2  1  0.243243  0.756757  0.000000  1
  Tl  Tl3  1  0.756757  0.243243  0.000000  1
  Pd  Pd4  1  0.503535  0.254124  0.249411  1
  Pd  Pd5  1  0.496465  0.745876  0.750589  1
  Pd  Pd6  1  0.004713  0.254124  0.750589  1
  Pd  Pd7  1  0.254124  0.004713  0.750589  1
  Pd  Pd8  1  0.995287  0.745876  0.249411  1
  Pd  Pd9  1  0.745876  0.995287  0.249411  1
  Pd  Pd10  1  0.254124  0.503535  0.249411  1
  Pd  Pd11  1  0.745876  0.496465  0.750589  1
  Pd  Pd12  1  0.000000  0.000000  0.000000  1
  Au  Au13  1  0.500000  0.000000  0.500000  1
  Au  Au14  1  0.000000  0.500000  0.500000  1
  Au  Au15  1  0.500000  0.500000  0.000000  1
