# generated using pymatgen
data_HoEr2Fe(Co4P3)2
_symmetry_space_group_name_H-M   'P 1'
_cell_length_a   3.68456900
_cell_length_b   10.50822900
_cell_length_c   12.15497800
_cell_angle_alpha   90.00000000
_cell_angle_beta   90.00000000
_cell_angle_gamma   90.00000000
_symmetry_Int_Tables_number   1
_chemical_formula_structural   HoEr2Fe(Co4P3)2
_chemical_formula_sum   'Ho2 Er4 Fe2 Co16 P12'
_cell_volume   470.62002171
_cell_formula_units_Z   2
loop_
 _symmetry_equiv_pos_site_id
 _symmetry_equiv_pos_as_xyz
  1  'x, y, z'
loop_
 _atom_site_type_symbol
 _atom_site_label
 _atom_site_symmetry_multiplicity
 _atom_site_fract_x
 _atom_site_fract_y
 _atom_site_fract_z
 _atom_site_occupancy
  Ho  Ho0  1  0.750000  0.250000  0.477991  1
  Ho  Ho1  1  0.250000  0.750000  0.522009  1
  Er  Er2  1  0.250000  0.932389  0.794814  1
  Er  Er3  1  0.250000  0.567611  0.794814  1
  Er  Er4  1  0.750000  0.067611  0.205186  1
  Er  Er5  1  0.750000  0.432389  0.205186  1
  Fe  Fe6  1  0.250000  0.250000  0.842547  1
  Fe  Fe7  1  0.750000  0.750000  0.157453  1
  Co  Co8  1  0.250000  0.250000  0.297966  1
  Co  Co9  1  0.750000  0.750000  0.702034  1
  Co  Co10  1  0.750000  0.250000  0.014045  1
  Co  Co11  1  0.250000  0.750000  0.985955  1
  Co  Co12  1  0.250000  0.417004  0.006025  1
  Co  Co13  1  0.250000  0.082996  0.006025  1
  Co  Co14  1  0.750000  0.582996  0.993975  1
  Co  Co15  1  0.750000  0.917004  0.993975  1
  Co  Co16  1  0.250000  0.453171  0.569337  1
  Co  Co17  1  0.250000  0.046829  0.569337  1
  Co  Co18  1  0.750000  0.546829  0.430663  1
  Co  Co19  1  0.750000  0.953171  0.430663  1
  Co  Co20  1  0.250000  0.871473  0.290989  1
  Co  Co21  1  0.250000  0.628527  0.290989  1
  Co  Co22  1  0.750000  0.128527  0.709011  1
  Co  Co23  1  0.750000  0.371473  0.709011  1
  P  P24  1  0.250000  0.250000  0.118296  1
  P  P25  1  0.750000  0.750000  0.881704  1
  P  P26  1  0.250000  0.250000  0.656667  1
  P  P27  1  0.750000  0.750000  0.343333  1
  P  P28  1  0.250000  0.439159  0.383607  1
  P  P29  1  0.250000  0.060841  0.383607  1
  P  P30  1  0.750000  0.560841  0.616393  1
  P  P31  1  0.750000  0.939159  0.616393  1
  P  P32  1  0.250000  0.902717  0.107617  1
  P  P33  1  0.250000  0.597283  0.107617  1
  P  P34  1  0.750000  0.097283  0.892383  1
  P  P35  1  0.750000  0.402717  0.892383  1
