# generated using pymatgen
data_PrHo3(AuCl6)4
_symmetry_space_group_name_H-M   'P 1'
_cell_length_a   7.95882057
_cell_length_b   9.93370738
_cell_length_c   14.16191700
_cell_angle_alpha   103.02322372
_cell_angle_beta   97.09678638
_cell_angle_gamma   112.91654228
_symmetry_Int_Tables_number   1
_chemical_formula_structural   PrHo3(AuCl6)4
_chemical_formula_sum   'Pr1 Ho3 Au4 Cl24'
_cell_volume   976.50484929
_cell_formula_units_Z   1
loop_
 _symmetry_equiv_pos_site_id
 _symmetry_equiv_pos_as_xyz
  1  'x, y, z'
loop_
 _atom_site_type_symbol
 _atom_site_label
 _atom_site_symmetry_multiplicity
 _atom_site_fract_x
 _atom_site_fract_y
 _atom_site_fract_z
 _atom_site_occupancy
  Pr  Pr0  1  0.578706  0.927986  0.622700  1
  Ho  Ho1  1  0.031817  0.687168  0.128300  1
  Ho  Ho2  1  0.419764  0.070552  0.373173  1
  Ho  Ho3  1  0.972089  0.317517  0.875859  1
  Au  Au4  1  0.288895  0.632710  0.766517  1
  Au  Au5  1  0.496711  0.494785  0.497557  1
  Au  Au6  1  0.710982  0.368036  0.235093  1
  Au  Au7  1  0.001209  0.001296  0.001422  1
  Cl  Cl8  1  0.788958  0.104210  0.973445  1
  Cl  Cl9  1  0.719319  0.150598  0.264936  1
  Cl  Cl10  1  0.274788  0.848805  0.736314  1
  Cl  Cl11  1  0.778461  0.790565  0.031588  1
  Cl  Cl12  1  0.627199  0.202711  0.753045  1
  Cl  Cl13  1  0.297561  0.413289  0.793753  1
  Cl  Cl14  1  0.705053  0.589919  0.209668  1
  Cl  Cl15  1  0.302398  0.619179  0.496013  1
  Cl  Cl16  1  0.224805  0.213445  0.972967  1
  Cl  Cl17  1  0.754778  0.728526  0.527156  1
  Cl  Cl18  1  0.212256  0.896729  0.027659  1
  Cl  Cl19  1  0.715481  0.046997  0.474511  1
  Cl  Cl20  1  0.597736  0.726906  0.750920  1
  Cl  Cl21  1  0.947284  0.067785  0.736978  1
  Cl  Cl22  1  0.241984  0.259991  0.466079  1
  Cl  Cl23  1  0.376408  0.806561  0.252625  1
  Cl  Cl24  1  0.978504  0.535246  0.778232  1
  Cl  Cl25  1  0.776863  0.440481  0.981046  1
  Cl  Cl26  1  0.228522  0.564983  0.023366  1
  Cl  Cl27  1  0.021468  0.464906  0.222622  1
  Cl  Cl28  1  0.402865  0.268830  0.251519  1
  Cl  Cl29  1  0.277912  0.953132  0.510451  1
  Cl  Cl30  1  0.684538  0.364968  0.498539  1
  Cl  Cl31  1  0.064688  0.941185  0.265948  1
