# generated using pymatgen
data_LaNd3Sb10
_symmetry_space_group_name_H-M   'P 1'
_cell_length_a   4.32492500
_cell_length_b   13.61785529
_cell_length_c   15.29907344
_cell_angle_alpha   77.52889695
_cell_angle_beta   90.00000000
_cell_angle_gamma   90.00000000
_symmetry_Int_Tables_number   1
_chemical_formula_structural   LaNd3Sb10
_chemical_formula_sum   'La2 Nd6 Sb20'
_cell_volume   879.79692297
_cell_formula_units_Z   2
loop_
 _symmetry_equiv_pos_site_id
 _symmetry_equiv_pos_as_xyz
  1  'x, y, z'
loop_
 _atom_site_type_symbol
 _atom_site_label
 _atom_site_symmetry_multiplicity
 _atom_site_fract_x
 _atom_site_fract_y
 _atom_site_fract_z
 _atom_site_occupancy
  La  La0  1  0.250000  0.949058  0.364786  1
  La  La1  1  0.750000  0.050942  0.635214  1
  Nd  Nd2  1  0.250000  0.396710  0.773164  1
  Nd  Nd3  1  0.750000  0.603290  0.226836  1
  Nd  Nd4  1  0.250000  0.665966  0.855780  1
  Nd  Nd5  1  0.750000  0.334034  0.144220  1
  Nd  Nd6  1  0.250000  0.666919  0.577783  1
  Nd  Nd7  1  0.750000  0.333081  0.422217  1
  Sb  Sb8  1  0.250000  0.145576  0.779054  1
  Sb  Sb9  1  0.750000  0.854424  0.220946  1
  Sb  Sb10  1  0.250000  0.147874  0.474829  1
  Sb  Sb11  1  0.750000  0.852126  0.525171  1
  Sb  Sb12  1  0.250000  0.148235  0.182393  1
  Sb  Sb13  1  0.750000  0.851765  0.817607  1
  Sb  Sb14  1  0.250000  0.420564  0.975718  1
  Sb  Sb15  1  0.750000  0.579436  0.024282  1
  Sb  Sb16  1  0.750000  0.032392  0.885752  1
  Sb  Sb17  1  0.250000  0.967608  0.114248  1
  Sb  Sb18  1  0.750000  0.140149  0.324796  1
  Sb  Sb19  1  0.250000  0.859851  0.675204  1
  Sb  Sb20  1  0.750000  0.286039  0.940333  1
  Sb  Sb21  1  0.250000  0.713961  0.059667  1
  Sb  Sb22  1  0.750000  0.296470  0.645583  1
  Sb  Sb23  1  0.250000  0.703530  0.354417  1
  Sb  Sb24  1  0.750000  0.577593  0.735729  1
  Sb  Sb25  1  0.250000  0.422407  0.264271  1
  Sb  Sb26  1  0.750000  0.574695  0.443612  1
  Sb  Sb27  1  0.250000  0.425305  0.556388  1
