# generated using pymatgen
data_Li2HfUGe6Ir7
_symmetry_space_group_name_H-M   'P 1'
_cell_length_a   7.06337461
_cell_length_b   7.12810280
_cell_length_c   7.12810301
_cell_angle_alpha   110.36537520
_cell_angle_beta   109.43594454
_cell_angle_gamma   109.43593970
_symmetry_Int_Tables_number   1
_chemical_formula_structural   Li2HfUGe6Ir7
_chemical_formula_sum   'Li2 Hf1 U1 Ge6 Ir7'
_cell_volume   273.41075883
_cell_formula_units_Z   1
loop_
 _symmetry_equiv_pos_site_id
 _symmetry_equiv_pos_as_xyz
  1  'x, y, z'
loop_
 _atom_site_type_symbol
 _atom_site_label
 _atom_site_symmetry_multiplicity
 _atom_site_fract_x
 _atom_site_fract_y
 _atom_site_fract_z
 _atom_site_occupancy
  Li  Li0  1  0.000000  0.500000  0.000000  1
  Li  Li1  1  0.000000  0.000000  0.500000  1
  Hf  Hf2  1  0.500000  0.000000  0.000000  1
  U  U3  1  0.500000  0.500000  0.500000  1
  Ge  Ge4  1  0.708431  0.022473  0.695529  1
  Ge  Ge5  1  0.291569  0.977527  0.304471  1
  Ge  Ge6  1  0.993855  0.306223  0.306223  1
  Ge  Ge7  1  0.006145  0.693777  0.693777  1
  Ge  Ge8  1  0.708431  0.695529  0.022473  1
  Ge  Ge9  1  0.291569  0.304471  0.977527  1
  Ir  Ir10  1  0.255162  0.503739  0.747243  1
  Ir  Ir11  1  0.255162  0.747243  0.503739  1
  Ir  Ir12  1  0.500000  0.252003  0.747997  1
  Ir  Ir13  1  0.500000  0.747997  0.252003  1
  Ir  Ir14  1  0.744838  0.496261  0.252757  1
  Ir  Ir15  1  0.000000  0.000000  0.000000  1
  Ir  Ir16  1  0.744838  0.252757  0.496261  1
