# generated using pymatgen
data_Tb11Ho(AlAu5)4
_symmetry_space_group_name_H-M   'P 1'
_cell_length_a   8.51338614
_cell_length_b   8.51338688
_cell_length_c   13.54099808
_cell_angle_alpha   90.01154383
_cell_angle_beta   89.98845794
_cell_angle_gamma   128.51488748
_symmetry_Int_Tables_number   1
_chemical_formula_structural   Tb11Ho(AlAu5)4
_chemical_formula_sum   'Tb11 Ho1 Al4 Au20'
_cell_volume   767.90934512
_cell_formula_units_Z   1
loop_
 _symmetry_equiv_pos_site_id
 _symmetry_equiv_pos_as_xyz
  1  'x, y, z'
loop_
 _atom_site_type_symbol
 _atom_site_label
 _atom_site_symmetry_multiplicity
 _atom_site_fract_x
 _atom_site_fract_y
 _atom_site_fract_z
 _atom_site_occupancy
  Tb  Tb0  1  0.927598  0.072402  0.250042  1
  Tb  Tb1  1  0.072306  0.927694  0.749983  1
  Tb  Tb2  1  0.320484  0.679516  0.250031  1
  Tb  Tb3  1  0.679494  0.320506  0.749912  1
  Tb  Tb4  1  0.369294  0.630706  0.535232  1
  Tb  Tb5  1  0.630791  0.369209  0.035289  1
  Tb  Tb6  1  0.369198  0.630802  0.964761  1
  Tb  Tb7  1  0.881544  0.118456  0.951283  1
  Tb  Tb8  1  0.118440  0.881560  0.048742  1
  Tb  Tb9  1  0.881471  0.118529  0.548688  1
  Tb  Tb10  1  0.118443  0.881557  0.451290  1
  Ho  Ho11  1  0.630739  0.369261  0.464895  1
  Al  Al12  1  0.720137  0.279863  0.250188  1
  Al  Al13  1  0.279759  0.720241  0.749941  1
  Al  Al14  1  0.532738  0.467262  0.250125  1
  Al  Al15  1  0.467322  0.532678  0.749987  1
  Au  Au16  1  0.323327  0.069372  0.249999  1
  Au  Au17  1  0.069374  0.323271  0.749984  1
  Au  Au18  1  0.676729  0.930626  0.749984  1
  Au  Au19  1  0.930628  0.676673  0.249999  1
  Au  Au20  1  0.570652  0.004817  0.396730  1
  Au  Au21  1  0.003640  0.570264  0.603266  1
  Au  Au22  1  0.570535  0.004079  0.103409  1
  Au  Au23  1  0.004083  0.570503  0.896584  1
  Au  Au24  1  0.429736  0.996360  0.603266  1
  Au  Au25  1  0.995183  0.429348  0.396730  1
  Au  Au26  1  0.429497  0.995917  0.896584  1
  Au  Au27  1  0.995921  0.429465  0.103409  1
  Au  Au28  1  0.685951  0.740696  0.394783  1
  Au  Au29  1  0.741024  0.685356  0.605055  1
  Au  Au30  1  0.686048  0.741305  0.105326  1
  Au  Au31  1  0.741288  0.686014  0.894671  1
  Au  Au32  1  0.314644  0.258976  0.605055  1
  Au  Au33  1  0.259304  0.314049  0.394783  1
  Au  Au34  1  0.313986  0.258712  0.894671  1
  Au  Au35  1  0.258695  0.313952  0.105326  1
