# generated using pymatgen
data_LiSm6Cr(Co4P3)4
_symmetry_space_group_name_H-M   'P 1'
_cell_length_a   3.74487500
_cell_length_b   10.64506100
_cell_length_c   12.34222900
_cell_angle_alpha   90.00000000
_cell_angle_beta   90.00000000
_cell_angle_gamma   90.00000000
_symmetry_Int_Tables_number   1
_chemical_formula_structural   LiSm6Cr(Co4P3)4
_chemical_formula_sum   'Li1 Sm6 Cr1 Co16 P12'
_cell_volume   492.01583530
_cell_formula_units_Z   1
loop_
 _symmetry_equiv_pos_site_id
 _symmetry_equiv_pos_as_xyz
  1  'x, y, z'
loop_
 _atom_site_type_symbol
 _atom_site_label
 _atom_site_symmetry_multiplicity
 _atom_site_fract_x
 _atom_site_fract_y
 _atom_site_fract_z
 _atom_site_occupancy
  Li  Li0  1  0.500000  0.500000  0.150652  1
  Sm  Sm1  1  0.000000  0.500000  0.521796  1
  Sm  Sm2  1  0.500000  0.000000  0.477820  1
  Sm  Sm3  1  0.500000  0.819070  0.205539  1
  Sm  Sm4  1  0.500000  0.180930  0.205539  1
  Sm  Sm5  1  0.000000  0.681867  0.793900  1
  Sm  Sm6  1  0.000000  0.318133  0.793900  1
  Cr  Cr7  1  0.000000  0.000000  0.844417  1
  Co  Co8  1  0.500000  0.500000  0.705621  1
  Co  Co9  1  0.000000  0.000000  0.296102  1
  Co  Co10  1  0.000000  0.500000  0.986887  1
  Co  Co11  1  0.500000  0.000000  0.010622  1
  Co  Co12  1  0.500000  0.330752  0.995163  1
  Co  Co13  1  0.500000  0.669248  0.995163  1
  Co  Co14  1  0.000000  0.165249  0.003579  1
  Co  Co15  1  0.000000  0.834751  0.003579  1
  Co  Co16  1  0.500000  0.295595  0.432145  1
  Co  Co17  1  0.500000  0.704405  0.432145  1
  Co  Co18  1  0.000000  0.202638  0.571040  1
  Co  Co19  1  0.000000  0.797362  0.571040  1
  Co  Co20  1  0.500000  0.881150  0.709718  1
  Co  Co21  1  0.500000  0.118850  0.709718  1
  Co  Co22  1  0.000000  0.621365  0.293309  1
  Co  Co23  1  0.000000  0.378635  0.293309  1
  P  P24  1  0.500000  0.500000  0.887046  1
  P  P25  1  0.000000  0.000000  0.114717  1
  P  P26  1  0.500000  0.500000  0.342610  1
  P  P27  1  0.000000  0.000000  0.655871  1
  P  P28  1  0.500000  0.308029  0.615218  1
  P  P29  1  0.500000  0.691971  0.615218  1
  P  P30  1  0.000000  0.192157  0.386124  1
  P  P31  1  0.000000  0.807843  0.386124  1
  P  P32  1  0.500000  0.847626  0.892975  1
  P  P33  1  0.500000  0.152374  0.892975  1
  P  P34  1  0.000000  0.655832  0.104209  1
  P  P35  1  0.000000  0.344168  0.104209  1
