# generated using pymatgen
data_SmTm3Hf4F28
_symmetry_space_group_name_H-M   'P 1'
_cell_length_a   5.69568345
_cell_length_b   9.01468146
_cell_length_c   12.09742950
_cell_angle_alpha   62.36682817
_cell_angle_beta   89.96077289
_cell_angle_gamma   90.01815625
_symmetry_Int_Tables_number   1
_chemical_formula_structural   SmTm3Hf4F28
_chemical_formula_sum   'Sm1 Tm3 Hf4 F28'
_cell_volume   550.28930783
_cell_formula_units_Z   1
loop_
 _symmetry_equiv_pos_site_id
 _symmetry_equiv_pos_as_xyz
  1  'x, y, z'
loop_
 _atom_site_type_symbol
 _atom_site_label
 _atom_site_symmetry_multiplicity
 _atom_site_fract_x
 _atom_site_fract_y
 _atom_site_fract_z
 _atom_site_occupancy
  Sm  Sm0  1  0.756784  0.816546  0.766439  1
  Tm  Tm1  1  0.743686  0.817275  0.266009  1
  Tm  Tm2  1  0.243481  0.184650  0.234055  1
  Tm  Tm3  1  0.257278  0.188881  0.733414  1
  Hf  Hf4  1  0.743563  0.277523  0.452836  1
  Hf  Hf5  1  0.244509  0.725317  0.049248  1
  Hf  Hf6  1  0.255226  0.725623  0.540921  1
  Hf  Hf7  1  0.755517  0.270343  0.956848  1
  F  F8  1  0.460711  0.708500  0.925315  1
  F  F9  1  0.965440  0.289144  0.577126  1
  F  F10  1  0.532322  0.286952  0.078791  1
  F  F11  1  0.031564  0.710783  0.418905  1
  F  F12  1  0.455237  0.281577  0.549174  1
  F  F13  1  0.956128  0.715480  0.956801  1
  F  F14  1  0.547457  0.719726  0.447944  1
  F  F15  1  0.044406  0.278429  0.051624  1
  F  F16  1  0.768855  0.519372  0.859906  1
  F  F17  1  0.267483  0.474810  0.639944  1
  F  F18  1  0.234582  0.474035  0.143817  1
  F  F19  1  0.732772  0.527430  0.356518  1
  F  F20  1  0.759466  0.020799  0.059277  1
  F  F21  1  0.259006  0.975675  0.440513  1
  F  F22  1  0.239974  0.974272  0.943436  1
  F  F23  1  0.739851  0.027757  0.553212  1
  F  F24  1  0.985882  0.731156  0.645035  1
  F  F25  1  0.485467  0.265938  0.851422  1
  F  F26  1  0.012211  0.265670  0.348951  1
  F  F27  1  0.514748  0.734908  0.152345  1
  F  F28  1  0.032006  0.746899  0.175124  1
  F  F29  1  0.530583  0.254294  0.327116  1
  F  F30  1  0.967640  0.251496  0.828948  1
  F  F31  1  0.459532  0.743362  0.670123  1
  F  F32  1  0.431564  0.975506  0.235433  1
  F  F33  1  0.932253  0.025532  0.264685  1
  F  F34  1  0.568841  0.036047  0.765705  1
  F  F35  1  0.083976  0.978287  0.733040  1
