# generated using pymatgen
data_CeEr3ScIr3
_symmetry_space_group_name_H-M   'P 1'
_cell_length_a   10.82857800
_cell_length_b   10.84055500
_cell_length_c   6.22572400
_cell_angle_alpha   90.00000000
_cell_angle_beta   90.00000000
_cell_angle_gamma   90.00000000
_symmetry_Int_Tables_number   1
_chemical_formula_structural   CeEr3ScIr3
_chemical_formula_sum   'Ce4 Er12 Sc4 Ir12'
_cell_volume   730.82401501
_cell_formula_units_Z   4
loop_
 _symmetry_equiv_pos_site_id
 _symmetry_equiv_pos_as_xyz
  1  'x, y, z'
loop_
 _atom_site_type_symbol
 _atom_site_label
 _atom_site_symmetry_multiplicity
 _atom_site_fract_x
 _atom_site_fract_y
 _atom_site_fract_z
 _atom_site_occupancy
  Ce  Ce0  1  0.290877  0.089876  0.380444  1
  Ce  Ce1  1  0.290877  0.910124  0.880444  1
  Ce  Ce2  1  0.709123  0.089876  0.880444  1
  Ce  Ce3  1  0.709123  0.910124  0.380444  1
  Er  Er4  1  0.586736  0.781888  0.878664  1
  Er  Er5  1  0.586736  0.218112  0.378664  1
  Er  Er6  1  0.413264  0.781888  0.378664  1
  Er  Er7  1  0.413264  0.218112  0.878664  1
  Er  Er8  1  0.209081  0.415887  0.622529  1
  Er  Er9  1  0.209081  0.584113  0.122529  1
  Er  Er10  1  0.790919  0.415887  0.122529  1
  Er  Er11  1  0.790919  0.584113  0.622529  1
  Er  Er12  1  0.915487  0.711194  0.116976  1
  Er  Er13  1  0.915487  0.288806  0.616976  1
  Er  Er14  1  0.084513  0.711194  0.616976  1
  Er  Er15  1  0.084513  0.288806  0.116976  1
  Sc  Sc16  1  0.000000  0.000000  0.495839  1
  Sc  Sc17  1  0.000000  0.000000  0.995839  1
  Sc  Sc18  1  0.500000  0.500000  0.016061  1
  Sc  Sc19  1  0.500000  0.500000  0.516061  1
  Ir  Ir20  1  0.850050  0.148952  0.241569  1
  Ir  Ir21  1  0.850050  0.851048  0.741569  1
  Ir  Ir22  1  0.149950  0.148952  0.741569  1
  Ir  Ir23  1  0.149950  0.851048  0.241569  1
  Ir  Ir24  1  0.647976  0.353058  0.757438  1
  Ir  Ir25  1  0.647976  0.646942  0.257438  1
  Ir  Ir26  1  0.352024  0.353058  0.257438  1
  Ir  Ir27  1  0.352024  0.646942  0.757438  1
  Ir  Ir28  1  0.500000  0.000000  0.118220  1
  Ir  Ir29  1  0.500000  0.000000  0.618220  1
  Ir  Ir30  1  0.000000  0.500000  0.874636  1
  Ir  Ir31  1  0.000000  0.500000  0.374636  1
