# generated using pymatgen
data_LiGd6Mn2VC12
_symmetry_space_group_name_H-M   'P 1'
_cell_length_a   8.19571500
_cell_length_b   8.19571564
_cell_length_c   5.09562700
_cell_angle_alpha   90.00000000
_cell_angle_beta   90.00000000
_cell_angle_gamma   119.99999229
_symmetry_Int_Tables_number   1
_chemical_formula_structural   LiGd6Mn2VC12
_chemical_formula_sum   'Li1 Gd6 Mn2 V1 C12'
_cell_volume   296.41626118
_cell_formula_units_Z   1
loop_
 _symmetry_equiv_pos_site_id
 _symmetry_equiv_pos_as_xyz
  1  'x, y, z'
loop_
 _atom_site_type_symbol
 _atom_site_label
 _atom_site_symmetry_multiplicity
 _atom_site_fract_x
 _atom_site_fract_y
 _atom_site_fract_z
 _atom_site_occupancy
  Li  Li0  1  0.000000  0.000000  0.000000  1
  Gd  Gd1  1  0.620264  0.687873  0.752308  1
  Gd  Gd2  1  0.932391  0.620264  0.247692  1
  Gd  Gd3  1  0.687873  0.067609  0.247692  1
  Gd  Gd4  1  0.312127  0.932391  0.752308  1
  Gd  Gd5  1  0.067609  0.379736  0.752308  1
  Gd  Gd6  1  0.379736  0.312127  0.247692  1
  Mn  Mn7  1  0.666667  0.333333  0.757446  1
  Mn  Mn8  1  0.333333  0.666667  0.242554  1
  V  V9  1  0.000000  0.000000  0.500000  1
  C  C10  1  0.962758  0.763701  0.728545  1
  C  C11  1  0.199057  0.962758  0.271455  1
  C  C12  1  0.763701  0.800943  0.271455  1
  C  C13  1  0.236299  0.199057  0.728545  1
  C  C14  1  0.800943  0.037242  0.728545  1
  C  C15  1  0.037242  0.236299  0.271455  1
  C  C16  1  0.859704  0.573795  0.746707  1
  C  C17  1  0.285908  0.859704  0.253293  1
  C  C18  1  0.573795  0.714092  0.253293  1
  C  C19  1  0.426205  0.285908  0.746707  1
  C  C20  1  0.140296  0.426205  0.253293  1
  C  C21  1  0.714092  0.140296  0.746707  1
