# generated using pymatgen
data_La3Sn2Ir
_symmetry_space_group_name_H-M   'P 1'
_cell_length_a   13.02712600
_cell_length_b   4.61845400
_cell_length_c   12.10285700
_cell_angle_alpha   90.00000000
_cell_angle_beta   90.00000000
_cell_angle_gamma   90.00000000
_symmetry_Int_Tables_number   1
_chemical_formula_structural   La3Sn2Ir
_chemical_formula_sum   'La12 Sn8 Ir4'
_cell_volume   728.17059634
_cell_formula_units_Z   4
loop_
 _symmetry_equiv_pos_site_id
 _symmetry_equiv_pos_as_xyz
  1  'x, y, z'
loop_
 _atom_site_type_symbol
 _atom_site_label
 _atom_site_symmetry_multiplicity
 _atom_site_fract_x
 _atom_site_fract_y
 _atom_site_fract_z
 _atom_site_occupancy
  La  La0  1  0.384160  0.249999  0.049285  1
  La  La1  1  0.059486  0.249999  0.129081  1
  La  La2  1  0.764501  0.749999  0.200669  1
  La  La3  1  0.264501  0.749999  0.299332  1
  La  La4  1  0.559486  0.249999  0.370919  1
  La  La5  1  0.884160  0.249999  0.450715  1
  La  La6  1  0.115840  0.749999  0.549285  1
  La  La7  1  0.440514  0.749999  0.629081  1
  La  La8  1  0.735499  0.249999  0.700669  1
  La  La9  1  0.235499  0.249999  0.799331  1
  La  La10  1  0.940514  0.749999  0.870919  1
  La  La11  1  0.615840  0.749999  0.950715  1
  Sn  Sn12  1  0.803898  0.249999  0.999951  1
  Sn  Sn13  1  0.508892  0.749999  0.192992  1
  Sn  Sn14  1  0.008892  0.749999  0.307007  1
  Sn  Sn15  1  0.303898  0.249999  0.500049  1
  Sn  Sn16  1  0.696102  0.749999  0.499950  1
  Sn  Sn17  1  0.991108  0.249999  0.692993  1
  Sn  Sn18  1  0.491109  0.249999  0.807007  1
  Sn  Sn19  1  0.196102  0.749999  0.000049  1
  Ir  Ir20  1  0.626240  0.249999  0.134320  1
  Ir  Ir21  1  0.126240  0.249999  0.365680  1
  Ir  Ir22  1  0.873760  0.749999  0.634320  1
  Ir  Ir23  1  0.373760  0.749999  0.865680  1
