# generated using pymatgen
data_Lu3Zr2Sn2Sb
_symmetry_space_group_name_H-M   'P 1'
_cell_length_a   8.71947960
_cell_length_b   8.71947998
_cell_length_c   6.00231300
_cell_angle_alpha   90.00000000
_cell_angle_beta   90.00000000
_cell_angle_gamma   119.93052185
_symmetry_Int_Tables_number   1
_chemical_formula_structural   Lu3Zr2Sn2Sb
_chemical_formula_sum   'Lu6 Zr4 Sn4 Sb2'
_cell_volume   395.48867219
_cell_formula_units_Z   2
loop_
 _symmetry_equiv_pos_site_id
 _symmetry_equiv_pos_as_xyz
  1  'x, y, z'
loop_
 _atom_site_type_symbol
 _atom_site_label
 _atom_site_symmetry_multiplicity
 _atom_site_fract_x
 _atom_site_fract_y
 _atom_site_fract_z
 _atom_site_occupancy
  Lu  Lu0  1  0.757936  0.757936  0.750000  1
  Lu  Lu1  1  0.243068  0.000564  0.750000  1
  Lu  Lu2  1  0.000564  0.243068  0.750000  1
  Lu  Lu3  1  0.242719  0.242719  0.250000  1
  Lu  Lu4  1  0.756904  0.998838  0.250000  1
  Lu  Lu5  1  0.998838  0.756904  0.250000  1
  Zr  Zr6  1  0.666829  0.332887  0.999556  1
  Zr  Zr7  1  0.332887  0.666829  0.999556  1
  Zr  Zr8  1  0.332887  0.666829  0.500444  1
  Zr  Zr9  1  0.666829  0.332887  0.500444  1
  Sn  Sn10  1  0.396033  0.396033  0.750000  1
  Sn  Sn11  1  0.604936  0.000311  0.750000  1
  Sn  Sn12  1  0.000311  0.604936  0.750000  1
  Sn  Sn13  1  0.603942  0.603942  0.250000  1
  Sb  Sb14  1  0.395389  0.999929  0.250000  1
  Sb  Sb15  1  0.999929  0.395389  0.250000  1
