# generated using pymatgen
data_SrPr2Nd(USe5)2
_symmetry_space_group_name_H-M   'P 1'
_cell_length_a   7.93991641
_cell_length_b   8.48948241
_cell_length_c   12.52332100
_cell_angle_alpha   90.00000000
_cell_angle_beta   90.00000000
_cell_angle_gamma   90.47337374
_symmetry_Int_Tables_number   1
_chemical_formula_structural   SrPr2Nd(USe5)2
_chemical_formula_sum   'Sr2 Pr4 Nd2 U4 Se20'
_cell_volume   844.11541881
_cell_formula_units_Z   2
loop_
 _symmetry_equiv_pos_site_id
 _symmetry_equiv_pos_as_xyz
  1  'x, y, z'
loop_
 _atom_site_type_symbol
 _atom_site_label
 _atom_site_symmetry_multiplicity
 _atom_site_fract_x
 _atom_site_fract_y
 _atom_site_fract_z
 _atom_site_occupancy
  Sr  Sr0  1  0.531647  0.502177  0.324840  1
  Sr  Sr1  1  0.968353  0.997823  0.824840  1
  Pr  Pr2  1  0.467796  0.500633  0.675867  1
  Pr  Pr3  1  0.032204  0.999367  0.175867  1
  Pr  Pr4  1  0.527967  0.001764  0.323230  1
  Pr  Pr5  1  0.972033  0.498236  0.823230  1
  Nd  Nd6  1  0.473281  0.998585  0.679321  1
  Nd  Nd7  1  0.026719  0.501415  0.179321  1
  U  U8  1  0.067788  0.752165  0.491440  1
  U  U9  1  0.432212  0.747835  0.991440  1
  U  U10  1  0.929478  0.249765  0.508137  1
  U  U11  1  0.570522  0.250235  0.008137  1
  Se  Se12  1  0.832074  0.954136  0.586765  1
  Se  Se13  1  0.667926  0.545864  0.086765  1
  Se  Se14  1  0.157789  0.460845  0.407604  1
  Se  Se15  1  0.342211  0.039155  0.907604  1
  Se  Se16  1  0.166111  0.043790  0.408339  1
  Se  Se17  1  0.333889  0.456210  0.908339  1
  Se  Se18  1  0.833763  0.543636  0.591657  1
  Se  Se19  1  0.666237  0.956364  0.091657  1
  Se  Se20  1  0.841834  0.754835  0.312539  1
  Se  Se21  1  0.658166  0.745165  0.812539  1
  Se  Se22  1  0.168086  0.255801  0.682767  1
  Se  Se23  1  0.331914  0.244199  0.182767  1
  Se  Se24  1  0.448618  0.759238  0.502023  1
  Se  Se25  1  0.051382  0.740762  0.002023  1
  Se  Se26  1  0.549226  0.242972  0.506172  1
  Se  Se27  1  0.950774  0.257028  0.006172  1
  Se  Se28  1  0.190820  0.744787  0.711222  1
  Se  Se29  1  0.309180  0.755213  0.211222  1
  Se  Se30  1  0.814298  0.244274  0.288075  1
  Se  Se31  1  0.685702  0.255726  0.788075  1
