# generated using pymatgen
data_Dy11In9(IrAu)2
_symmetry_space_group_name_H-M   'P 1'
_cell_length_a   3.65214900
_cell_length_b   13.19706234
_cell_length_c   13.27416379
_cell_angle_alpha   110.34663247
_cell_angle_beta   90.00000000
_cell_angle_gamma   90.00000000
_symmetry_Int_Tables_number   1
_chemical_formula_structural   Dy11In9(IrAu)2
_chemical_formula_sum   'Dy11 In9 Ir2 Au2'
_cell_volume   599.86486336
_cell_formula_units_Z   1
loop_
 _symmetry_equiv_pos_site_id
 _symmetry_equiv_pos_as_xyz
  1  'x, y, z'
loop_
 _atom_site_type_symbol
 _atom_site_label
 _atom_site_symmetry_multiplicity
 _atom_site_fract_x
 _atom_site_fract_y
 _atom_site_fract_z
 _atom_site_occupancy
  Dy  Dy0  1  0.000000  0.930494  0.581419  1
  Dy  Dy1  1  0.000000  0.069506  0.418581  1
  Dy  Dy2  1  0.000000  0.580843  0.924360  1
  Dy  Dy3  1  0.000000  0.419157  0.075640  1
  Dy  Dy4  1  0.000000  0.158586  0.843939  1
  Dy  Dy5  1  0.000000  0.841414  0.156061  1
  Dy  Dy6  1  0.000000  0.380680  0.640948  1
  Dy  Dy7  1  0.000000  0.619320  0.359052  1
  Dy  Dy8  1  0.000000  0.684936  0.698759  1
  Dy  Dy9  1  0.000000  0.315064  0.301241  1
  Dy  Dy10  1  0.000000  0.000000  0.000000  1
  In  In11  1  0.500000  0.155267  0.636846  1
  In  In12  1  0.500000  0.844733  0.363154  1
  In  In13  1  0.500000  0.633107  0.154744  1
  In  In14  1  0.500000  0.366893  0.845256  1
  In  In15  1  0.500000  0.929132  0.784240  1
  In  In16  1  0.500000  0.070868  0.215760  1
  In  In17  1  0.500000  0.781124  0.927200  1
  In  In18  1  0.500000  0.218876  0.072800  1
  In  In19  1  0.500000  0.500000  0.500000  1
  Ir  Ir20  1  0.500000  0.548436  0.755148  1
  Ir  Ir21  1  0.500000  0.451564  0.244852  1
  Au  Au22  1  0.500000  0.746788  0.545430  1
  Au  Au23  1  0.500000  0.253212  0.454570  1
