# generated using pymatgen
data_Tb7DySc11Si16Au
_symmetry_space_group_name_H-M   'P 1'
_cell_length_a   7.03882305
_cell_length_b   7.41217518
_cell_length_c   14.05901409
_cell_angle_alpha   89.98839124
_cell_angle_beta   89.99454323
_cell_angle_gamma   89.82967552
_symmetry_Int_Tables_number   1
_chemical_formula_structural   Tb7DySc11Si16Au
_chemical_formula_sum   'Tb7 Dy1 Sc11 Si16 Au1'
_cell_volume   733.49753449
_cell_formula_units_Z   1
loop_
 _symmetry_equiv_pos_site_id
 _symmetry_equiv_pos_as_xyz
  1  'x, y, z'
loop_
 _atom_site_type_symbol
 _atom_site_label
 _atom_site_symmetry_multiplicity
 _atom_site_fract_x
 _atom_site_fract_y
 _atom_site_fract_z
 _atom_site_occupancy
  Tb  Tb0  1  0.991328  0.814820  0.900575  1
  Tb  Tb1  1  0.483992  0.672855  0.900599  1
  Tb  Tb2  1  0.991338  0.814821  0.599471  1
  Tb  Tb3  1  0.510811  0.323678  0.096594  1
  Tb  Tb4  1  0.010827  0.174255  0.403669  1
  Tb  Tb5  1  0.510810  0.323730  0.403388  1
  Tb  Tb6  1  0.484017  0.672889  0.599434  1
  Dy  Dy7  1  0.010934  0.174460  0.096472  1
  Sc  Sc8  1  0.838762  0.497820  0.249944  1
  Sc  Sc9  1  0.339952  0.002860  0.249970  1
  Sc  Sc10  1  0.657197  0.998941  0.749990  1
  Sc  Sc11  1  0.324791  0.183676  0.626783  1
  Sc  Sc12  1  0.671308  0.823552  0.375227  1
  Sc  Sc13  1  0.171035  0.678330  0.374025  1
  Sc  Sc14  1  0.671324  0.823628  0.124755  1
  Sc  Sc15  1  0.836549  0.327914  0.626807  1
  Sc  Sc16  1  0.324763  0.183720  0.873224  1
  Sc  Sc17  1  0.836599  0.327803  0.873188  1
  Sc  Sc18  1  0.171001  0.678363  0.125973  1
  Si  Si19  1  0.027485  0.098840  0.750018  1
  Si  Si20  1  0.968684  0.886251  0.249915  1
  Si  Si21  1  0.467450  0.618243  0.249986  1
  Si  Si22  1  0.536984  0.383936  0.750007  1
  Si  Si23  1  0.289281  0.886353  0.749998  1
  Si  Si24  1  0.713544  0.126400  0.249849  1
  Si  Si25  1  0.212339  0.373061  0.249885  1
  Si  Si26  1  0.778199  0.627477  0.750006  1
  Si  Si27  1  0.160597  0.459432  0.530765  1
  Si  Si28  1  0.843521  0.535548  0.462055  1
  Si  Si29  1  0.345352  0.964910  0.463074  1
  Si  Si30  1  0.843609  0.535327  0.038013  1
  Si  Si31  1  0.657266  0.033713  0.540517  1
  Si  Si32  1  0.160524  0.459155  0.969326  1
  Si  Si33  1  0.657343  0.033764  0.959500  1
  Si  Si34  1  0.345002  0.965061  0.037002  1
  Au  Au35  1  0.155478  0.514417  0.749997  1
