# generated using pymatgen
data_Na4InBiO6
_symmetry_space_group_name_H-M   'P 1'
_cell_length_a   5.74987391
_cell_length_b   5.74982179
_cell_length_c   5.89547877
_cell_angle_alpha   99.46940816
_cell_angle_beta   99.46886551
_cell_angle_gamma   119.92970561
_symmetry_Int_Tables_number   1
_chemical_formula_structural   Na4InBiO6
_chemical_formula_sum   'Na4 In1 Bi1 O6'
_cell_volume   159.53061743
_cell_formula_units_Z   1
loop_
 _symmetry_equiv_pos_site_id
 _symmetry_equiv_pos_as_xyz
  1  'x, y, z'
loop_
 _atom_site_type_symbol
 _atom_site_label
 _atom_site_symmetry_multiplicity
 _atom_site_fract_x
 _atom_site_fract_y
 _atom_site_fract_z
 _atom_site_occupancy
  Na  Na0  1  0.499664  0.500347  0.000008  1
  Na  Na1  1  0.000932  0.999060  0.500003  1
  Na  Na2  1  0.659925  0.340065  0.500007  1
  Na  Na3  1  0.340338  0.659667  0.499997  1
  In  In4  1  0.832903  0.167093  0.999996  1
  Bi  Bi5  1  0.167233  0.832780  0.000006  1
  O  O6  1  0.941101  0.582333  0.217327  1
  O  O7  1  0.564825  0.932814  0.220272  1
  O  O8  1  0.214233  0.206005  0.220346  1
  O  O9  1  0.793997  0.785764  0.779656  1
  O  O10  1  0.067191  0.435173  0.779718  1
  O  O11  1  0.417663  0.058907  0.782670  1
