# generated using pymatgen
data_AgW(SO4)3
_symmetry_space_group_name_H-M   'P 1'
_cell_length_a   8.64085749
_cell_length_b   9.45633117
_cell_length_c   8.74678000
_cell_angle_alpha   109.96167392
_cell_angle_beta   105.32656853
_cell_angle_gamma   110.96134054
_symmetry_Int_Tables_number   1
_chemical_formula_structural   AgW(SO4)3
_chemical_formula_sum   'Ag2 W2 S6 O24'
_cell_volume   563.23587024
_cell_formula_units_Z   2
loop_
 _symmetry_equiv_pos_site_id
 _symmetry_equiv_pos_as_xyz
  1  'x, y, z'
loop_
 _atom_site_type_symbol
 _atom_site_label
 _atom_site_symmetry_multiplicity
 _atom_site_fract_x
 _atom_site_fract_y
 _atom_site_fract_z
 _atom_site_occupancy
  Ag  Ag0  1  0.855940  0.435201  0.231953  1
  Ag  Ag1  1  0.755121  0.145811  0.603661  1
  W  W2  1  0.007283  0.987933  0.999820  1
  W  W3  1  0.495559  0.502146  0.501866  1
  S  S4  1  0.550314  0.884645  0.761975  1
  S  S5  1  0.211664  0.415463  0.100651  1
  S  S6  1  0.092774  0.203101  0.446625  1
  S  S7  1  0.902590  0.792963  0.555051  1
  S  S8  1  0.769539  0.565090  0.895211  1
  S  S9  1  0.473373  0.132515  0.244939  1
  O  O10  1  0.022364  0.896746  0.760794  1
  O  O11  1  0.269079  0.044624  0.113065  1
  O  O12  1  0.007506  0.738536  0.470076  1
  O  O13  1  0.504382  0.009395  0.290198  1
  O  O14  1  0.127657  0.494042  0.199087  1
  O  O15  1  0.425937  0.832959  0.836414  1
  O  O16  1  0.494815  0.726193  0.579507  1
  O  O17  1  0.245296  0.455807  0.966199  1
  O  O18  1  0.246786  0.374551  0.471039  1
  O  O19  1  0.080113  0.211732  0.005677  1
  O  O20  1  0.389511  0.441066  0.235995  1
  O  O21  1  0.814651  0.879899  0.494342  1
  O  O22  1  0.179915  0.135050  0.540344  1
  O  O23  1  0.603091  0.559697  0.766628  1
  O  O24  1  0.926069  0.759758  0.984957  1
  O  O25  1  0.746759  0.621022  0.529836  1
  O  O26  1  0.728044  0.541345  0.036239  1
  O  O27  1  0.501216  0.277159  0.421086  1
  O  O28  1  0.581963  0.211515  0.166586  1
  O  O29  1  0.831315  0.458837  0.796791  1
  O  O30  1  0.571417  0.026967  0.724937  1
  O  O31  1  0.964997  0.252592  0.494219  1
  O  O32  1  0.745527  0.930343  0.886247  1
  O  O33  1  0.996723  0.083790  0.240202  1
