# generated using pymatgen
data_Nb3BiF20
_symmetry_space_group_name_H-M   'P 1'
_cell_length_a   9.06945072
_cell_length_b   9.06945045
_cell_length_c   5.60571409
_cell_angle_alpha   88.45858241
_cell_angle_beta   88.45858153
_cell_angle_gamma   110.95859018
_symmetry_Int_Tables_number   1
_chemical_formula_structural   Nb3BiF20
_chemical_formula_sum   'Nb3 Bi1 F20'
_cell_volume   430.10569409
_cell_formula_units_Z   1
loop_
 _symmetry_equiv_pos_site_id
 _symmetry_equiv_pos_as_xyz
  1  'x, y, z'
loop_
 _atom_site_type_symbol
 _atom_site_label
 _atom_site_symmetry_multiplicity
 _atom_site_fract_x
 _atom_site_fract_y
 _atom_site_fract_z
 _atom_site_occupancy
  Nb  Nb0  1  0.200842  0.799158  0.000000  1
  Nb  Nb1  1  0.257926  0.250956  0.247948  1
  Nb  Nb2  1  0.749044  0.742074  0.752052  1
  Bi  Bi3  1  0.798734  0.201266  0.000000  1
  F  F4  1  0.266503  0.449914  0.341921  1
  F  F5  1  0.456834  0.263820  0.344537  1
  F  F6  1  0.736180  0.543166  0.655463  1
  F  F7  1  0.550086  0.733497  0.658079  1
  F  F8  1  0.317252  0.316030  0.924069  1
  F  F9  1  0.683970  0.682748  0.075931  1
  F  F10  1  0.836788  0.414231  0.137683  1
  F  F11  1  0.398203  0.831164  0.124612  1
  F  F12  1  0.168836  0.601797  0.875388  1
  F  F13  1  0.585769  0.163212  0.862317  1
  F  F14  1  0.026551  0.210867  0.120787  1
  F  F15  1  0.213979  0.023442  0.120096  1
  F  F16  1  0.976558  0.786021  0.879904  1
  F  F17  1  0.789133  0.973449  0.879213  1
  F  F18  1  0.138899  0.137452  0.517776  1
  F  F19  1  0.862548  0.861101  0.482224  1
  F  F20  1  0.917447  0.292041  0.690851  1
  F  F21  1  0.275491  0.915534  0.708713  1
  F  F22  1  0.084466  0.724509  0.291287  1
  F  F23  1  0.707959  0.082553  0.309149  1
