# generated using pymatgen
data_NpMnO4
_symmetry_space_group_name_H-M   'P 1'
_cell_length_a   4.82153657
_cell_length_b   5.64962010
_cell_length_c   5.84835300
_cell_angle_alpha   90.00000000
_cell_angle_beta   90.00000000
_cell_angle_gamma   92.29724248
_symmetry_Int_Tables_number   1
_chemical_formula_structural   NpMnO4
_chemical_formula_sum   'Np2 Mn2 O8'
_cell_volume   159.18022595
_cell_formula_units_Z   2
loop_
 _symmetry_equiv_pos_site_id
 _symmetry_equiv_pos_as_xyz
  1  'x, y, z'
loop_
 _atom_site_type_symbol
 _atom_site_label
 _atom_site_symmetry_multiplicity
 _atom_site_fract_x
 _atom_site_fract_y
 _atom_site_fract_z
 _atom_site_occupancy
  Np  Np0  1  0.500000  0.750000  0.331341  1
  Np  Np1  1  0.500000  0.250000  0.668671  1
  Mn  Mn2  1  0.000000  0.750000  0.839367  1
  Mn  Mn3  1  0.000000  0.250000  0.160566  1
  O  O4  1  0.722914  0.411207  0.407273  1
  O  O5  1  0.277086  0.088793  0.407273  1
  O  O6  1  0.277073  0.588624  0.592751  1
  O  O7  1  0.722926  0.911376  0.592751  1
  O  O8  1  0.758861  0.409846  0.888952  1
  O  O9  1  0.241139  0.090154  0.888952  1
  O  O10  1  0.240958  0.590190  0.111052  1
  O  O11  1  0.759042  0.909810  0.111052  1
