# generated using pymatgen
data_Lu6CdHg9
_symmetry_space_group_name_H-M   'P 1'
_cell_length_a   6.30926343
_cell_length_b   6.30926416
_cell_length_c   10.00409500
_cell_angle_alpha   90.00000000
_cell_angle_beta   90.00000000
_cell_angle_gamma   106.39731692
_symmetry_Int_Tables_number   1
_chemical_formula_structural   Lu6CdHg9
_chemical_formula_sum   'Lu6 Cd1 Hg9'
_cell_volume   382.03392940
_cell_formula_units_Z   1
loop_
 _symmetry_equiv_pos_site_id
 _symmetry_equiv_pos_as_xyz
  1  'x, y, z'
loop_
 _atom_site_type_symbol
 _atom_site_label
 _atom_site_symmetry_multiplicity
 _atom_site_fract_x
 _atom_site_fract_y
 _atom_site_fract_z
 _atom_site_occupancy
  Lu  Lu0  1  0.545297  0.545297  0.250000  1
  Lu  Lu1  1  0.447254  0.447254  0.750000  1
  Lu  Lu2  1  0.222825  0.776931  0.502338  1
  Lu  Lu3  1  0.222825  0.776931  0.997662  1
  Lu  Lu4  1  0.776931  0.222825  0.502338  1
  Lu  Lu5  1  0.776931  0.222825  0.997662  1
  Cd  Cd6  1  0.979153  0.979152  0.250000  1
  Hg  Hg7  1  0.034248  0.034247  0.750000  1
  Hg  Hg8  1  0.279135  0.279135  0.024743  1
  Hg  Hg9  1  0.716754  0.716754  0.978907  1
  Hg  Hg10  1  0.279135  0.279135  0.475257  1
  Hg  Hg11  1  0.716754  0.716754  0.521093  1
  Hg  Hg12  1  0.487437  0.024583  0.250000  1
  Hg  Hg13  1  0.968347  0.522390  0.750000  1
  Hg  Hg14  1  0.522390  0.968347  0.750000  1
  Hg  Hg15  1  0.024583  0.487437  0.250000  1
