# generated using pymatgen
data_Yb7Ho(MgRu)2
_symmetry_space_group_name_H-M   'P 1'
_cell_length_a   9.92204550
_cell_length_b   9.92204600
_cell_length_c   9.80188400
_cell_angle_alpha   60.39980688
_cell_angle_beta   60.39980524
_cell_angle_gamma   60.80668264
_symmetry_Int_Tables_number   1
_chemical_formula_structural   Yb7Ho(MgRu)2
_chemical_formula_sum   'Yb14 Ho2 Mg4 Ru4'
_cell_volume   690.56589271
_cell_formula_units_Z   2
loop_
 _symmetry_equiv_pos_site_id
 _symmetry_equiv_pos_as_xyz
  1  'x, y, z'
loop_
 _atom_site_type_symbol
 _atom_site_label
 _atom_site_symmetry_multiplicity
 _atom_site_fract_x
 _atom_site_fract_y
 _atom_site_fract_z
 _atom_site_occupancy
  Yb  Yb0  1  0.810255  0.190013  0.188776  1
  Yb  Yb1  1  0.190013  0.810255  0.810955  1
  Yb  Yb2  1  0.190013  0.810255  0.188776  1
  Yb  Yb3  1  0.810255  0.190013  0.810955  1
  Yb  Yb4  1  0.189222  0.189222  0.810778  1
  Yb  Yb5  1  0.809208  0.809208  0.190792  1
  Yb  Yb6  1  0.958699  0.545233  0.541373  1
  Yb  Yb7  1  0.545233  0.958699  0.954694  1
  Yb  Yb8  1  0.545233  0.958699  0.541373  1
  Yb  Yb9  1  0.958699  0.545233  0.954694  1
  Yb  Yb10  1  0.545519  0.545519  0.954481  1
  Yb  Yb11  1  0.957878  0.957878  0.542122  1
  Yb  Yb12  1  0.339283  0.339283  0.339792  1
  Yb  Yb13  1  0.339283  0.339283  0.981642  1
  Ho  Ho14  1  0.337518  0.985350  0.338566  1
  Ho  Ho15  1  0.985350  0.337518  0.338566  1
  Mg  Mg16  1  0.581124  0.581124  0.576427  1
  Mg  Mg17  1  0.581124  0.581124  0.261327  1
  Mg  Mg18  1  0.579611  0.268846  0.575772  1
  Mg  Mg19  1  0.268846  0.579611  0.575772  1
  Ru  Ru20  1  0.131886  0.131886  0.149267  1
  Ru  Ru21  1  0.131886  0.131886  0.586960  1
  Ru  Ru22  1  0.123513  0.590348  0.143069  1
  Ru  Ru23  1  0.590348  0.123513  0.143069  1
