# generated using pymatgen
data_TbTh2(AlNi)3
_symmetry_space_group_name_H-M   'P 1'
_cell_length_a   7.07087346
_cell_length_b   7.07087379
_cell_length_c   4.00357400
_cell_angle_alpha   90.00000000
_cell_angle_beta   90.00000000
_cell_angle_gamma   120.79800238
_symmetry_Int_Tables_number   1
_chemical_formula_structural   TbTh2(AlNi)3
_chemical_formula_sum   'Tb1 Th2 Al3 Ni3'
_cell_volume   171.93960492
_cell_formula_units_Z   1
loop_
 _symmetry_equiv_pos_site_id
 _symmetry_equiv_pos_as_xyz
  1  'x, y, z'
loop_
 _atom_site_type_symbol
 _atom_site_label
 _atom_site_symmetry_multiplicity
 _atom_site_fract_x
 _atom_site_fract_y
 _atom_site_fract_z
 _atom_site_occupancy
  Tb  Tb0  1  0.582214  0.582214  0.500000  1
  Th  Th1  1  0.421705  0.000630  0.500000  1
  Th  Th2  1  0.000630  0.421705  0.500000  1
  Al  Al3  1  0.769019  0.993582  0.000000  1
  Al  Al4  1  0.993582  0.769019  0.000000  1
  Al  Al5  1  0.235920  0.235920  0.000000  1
  Ni  Ni6  1  0.325873  0.667061  0.000000  1
  Ni  Ni7  1  0.667061  0.325873  0.000000  1
  Ni  Ni8  1  0.003996  0.003996  0.500000  1
