# generated using pymatgen
data_SrYIn2Pt3
_symmetry_space_group_name_H-M   'P 1'
_cell_length_a   4.41347100
_cell_length_b   8.02209400
_cell_length_c   9.16015800
_cell_angle_alpha   90.00000000
_cell_angle_beta   90.00000000
_cell_angle_gamma   90.00000000
_symmetry_Int_Tables_number   1
_chemical_formula_structural   SrYIn2Pt3
_chemical_formula_sum   'Sr2 Y2 In4 Pt6'
_cell_volume   324.31795177
_cell_formula_units_Z   2
loop_
 _symmetry_equiv_pos_site_id
 _symmetry_equiv_pos_as_xyz
  1  'x, y, z'
loop_
 _atom_site_type_symbol
 _atom_site_label
 _atom_site_symmetry_multiplicity
 _atom_site_fract_x
 _atom_site_fract_y
 _atom_site_fract_z
 _atom_site_occupancy
  Sr  Sr0  1  0.000000  0.000000  0.279588  1
  Sr  Sr1  1  0.500001  0.500000  0.720413  1
  Y  Y2  1  0.000000  0.500000  0.351906  1
  Y  Y3  1  0.500001  0.000000  0.648095  1
  In  In4  1  0.500001  0.305034  0.113331  1
  In  In5  1  0.500001  0.694967  0.113331  1
  In  In6  1  0.000000  0.194966  0.886669  1
  In  In7  1  0.000000  0.805033  0.886669  1
  Pt  Pt8  1  0.000000  0.500000  0.025507  1
  Pt  Pt9  1  0.500001  0.264565  0.409848  1
  Pt  Pt10  1  0.500001  0.735435  0.409848  1
  Pt  Pt11  1  0.000000  0.235435  0.590153  1
  Pt  Pt12  1  0.000000  0.764565  0.590153  1
  Pt  Pt13  1  0.500001  0.000000  0.974494  1
