# generated using pymatgen
data_Nd8HoTmIn6
_symmetry_space_group_name_H-M   'P 1'
_cell_length_a   6.19890448
_cell_length_b   9.39048693
_cell_length_c   9.39048656
_cell_angle_alpha   83.74568981
_cell_angle_beta   70.72740690
_cell_angle_gamma   70.72740491
_symmetry_Int_Tables_number   1
_chemical_formula_structural   Nd8HoTmIn6
_chemical_formula_sum   'Nd8 Ho1 Tm1 In6'
_cell_volume   487.07670142
_cell_formula_units_Z   1
loop_
 _symmetry_equiv_pos_site_id
 _symmetry_equiv_pos_as_xyz
  1  'x, y, z'
loop_
 _atom_site_type_symbol
 _atom_site_label
 _atom_site_symmetry_multiplicity
 _atom_site_fract_x
 _atom_site_fract_y
 _atom_site_fract_z
 _atom_site_occupancy
  Nd  Nd0  1  0.721107  0.864651  0.691970  1
  Nd  Nd1  1  0.277729  0.135349  0.308030  1
  Nd  Nd2  1  0.778893  0.308030  0.135349  1
  Nd  Nd3  1  0.222271  0.691970  0.864651  1
  Nd  Nd4  1  0.586922  0.691970  0.135349  1
  Nd  Nd5  1  0.414242  0.308030  0.864651  1
  Nd  Nd6  1  0.085758  0.135349  0.691970  1
  Nd  Nd7  1  0.913078  0.864651  0.308030  1
  Ho  Ho8  1  0.250000  0.500000  0.500000  1
  Tm  Tm9  1  0.750000  0.500000  0.500000  1
  In  In10  1  0.155485  0.500000  0.187181  1
  In  In11  1  0.842666  0.500000  0.812819  1
  In  In12  1  0.344515  0.812819  0.500000  1
  In  In13  1  0.657334  0.187181  0.500000  1
  In  In14  1  0.250000  0.000000  0.000000  1
  In  In15  1  0.750000  0.000000  0.000000  1
