# generated using pymatgen
data_CsY(TaBr3)6
_symmetry_space_group_name_H-M   'P 1'
_cell_length_a   10.80998687
_cell_length_b   10.80998677
_cell_length_c   10.80998686
_cell_angle_alpha   56.21065245
_cell_angle_beta   56.21065443
_cell_angle_gamma   56.21066326
_symmetry_Int_Tables_number   1
_chemical_formula_structural   CsY(TaBr3)6
_chemical_formula_sum   'Cs1 Y1 Ta6 Br18'
_cell_volume   814.88521409
_cell_formula_units_Z   1
loop_
 _symmetry_equiv_pos_site_id
 _symmetry_equiv_pos_as_xyz
  1  'x, y, z'
loop_
 _atom_site_type_symbol
 _atom_site_label
 _atom_site_symmetry_multiplicity
 _atom_site_fract_x
 _atom_site_fract_y
 _atom_site_fract_z
 _atom_site_occupancy
  Cs  Cs0  1  0.223734  0.223734  0.223734  1
  Y  Y1  1  0.498687  0.498687  0.498687  1
  Ta  Ta2  1  0.817536  0.139370  0.912197  1
  Ta  Ta3  1  0.912197  0.817536  0.139370  1
  Ta  Ta4  1  0.139370  0.912197  0.817536  1
  Ta  Ta5  1  0.183272  0.860864  0.086516  1
  Ta  Ta6  1  0.086516  0.183272  0.860864  1
  Ta  Ta7  1  0.860864  0.086516  0.183272  1
  Br  Br8  1  0.878259  0.402494  0.721226  1
  Br  Br9  1  0.721226  0.878259  0.402494  1
  Br  Br10  1  0.402494  0.721226  0.878259  1
  Br  Br11  1  0.121213  0.597665  0.280391  1
  Br  Br12  1  0.280391  0.121213  0.597665  1
  Br  Br13  1  0.597665  0.280391  0.121213  1
  Br  Br14  1  0.550449  0.335636  0.793243  1
  Br  Br15  1  0.793243  0.550449  0.335636  1
  Br  Br16  1  0.335636  0.793243  0.550449  1
  Br  Br17  1  0.447794  0.666559  0.207711  1
  Br  Br18  1  0.207711  0.447794  0.666559  1
  Br  Br19  1  0.666559  0.207711  0.447794  1
  Br  Br20  1  0.664725  0.944571  0.063179  1
  Br  Br21  1  0.063179  0.664725  0.944571  1
  Br  Br22  1  0.944571  0.063179  0.664725  1
  Br  Br23  1  0.338906  0.053405  0.931535  1
  Br  Br24  1  0.931535  0.338906  0.053405  1
  Br  Br25  1  0.053405  0.931535  0.338906  1
