# generated using pymatgen
data_Cs3Rb10Ti2(In3As5)2
_symmetry_space_group_name_H-M   'P 1'
_cell_length_a   9.69576052
_cell_length_b   9.72217025
_cell_length_c   13.81343542
_cell_angle_alpha   81.06027320
_cell_angle_beta   78.49590762
_cell_angle_gamma   63.13925334
_symmetry_Int_Tables_number   1
_chemical_formula_structural   Cs3Rb10Ti2(In3As5)2
_chemical_formula_sum   'Cs3 Rb10 Ti2 In6 As10'
_cell_volume   1135.10444569
_cell_formula_units_Z   1
loop_
 _symmetry_equiv_pos_site_id
 _symmetry_equiv_pos_as_xyz
  1  'x, y, z'
loop_
 _atom_site_type_symbol
 _atom_site_label
 _atom_site_symmetry_multiplicity
 _atom_site_fract_x
 _atom_site_fract_y
 _atom_site_fract_z
 _atom_site_occupancy
  Cs  Cs0  1  0.684055  0.070519  0.912881  1
  Cs  Cs1  1  0.904198  0.852261  0.166753  1
  Cs  Cs2  1  0.096994  0.147435  0.833817  1
  Rb  Rb3  1  0.496979  0.866726  0.354715  1
  Rb  Rb4  1  0.502755  0.131796  0.646173  1
  Rb  Rb5  1  0.854438  0.587175  0.884635  1
  Rb  Rb6  1  0.144523  0.412990  0.114785  1
  Rb  Rb7  1  0.094403  0.785743  0.430265  1
  Rb  Rb8  1  0.905998  0.214303  0.569116  1
  Rb  Rb9  1  0.744237  0.683246  0.596679  1
  Rb  Rb10  1  0.255414  0.316670  0.403662  1
  Rb  Rb11  1  0.498746  0.501299  0.999886  1
  Rb  Rb12  1  0.326993  0.930697  0.087965  1
  Ti  Ti13  1  0.381847  0.734933  0.773948  1
  Ti  Ti14  1  0.616113  0.265528  0.226546  1
  In  In15  1  0.033993  0.808139  0.706242  1
  In  In16  1  0.966382  0.190446  0.292267  1
  In  In17  1  0.598163  0.444228  0.408573  1
  In  In18  1  0.401400  0.556693  0.590787  1
  In  In19  1  0.721329  0.561871  0.168772  1
  In  In20  1  0.278653  0.437646  0.829948  1
  As  As21  1  0.430432  0.551769  0.251510  1
  As  As22  1  0.569126  0.449729  0.747390  1
  As  As23  1  0.138777  0.740820  0.892309  1
  As  As24  1  0.858887  0.257723  0.106941  1
  As  As25  1  0.704788  0.130534  0.392798  1
  As  As26  1  0.294625  0.870586  0.607380  1
  As  As27  1  0.858573  0.504771  0.351102  1
  As  As28  1  0.142281  0.493887  0.647691  1
  As  As29  1  0.500539  0.859229  0.841205  1
  As  As30  1  0.494360  0.140607  0.163256  1
