# generated using pymatgen
data_GdEr3C5
_symmetry_space_group_name_H-M   'P 1'
_cell_length_a   3.61858700
_cell_length_b   6.52156513
_cell_length_c   11.95511624
_cell_angle_alpha   89.97708534
_cell_angle_beta   90.00000000
_cell_angle_gamma   90.00000000
_symmetry_Int_Tables_number   1
_chemical_formula_structural   GdEr3C5
_chemical_formula_sum   'Gd2 Er6 C10'
_cell_volume   282.12698186
_cell_formula_units_Z   2
loop_
 _symmetry_equiv_pos_site_id
 _symmetry_equiv_pos_as_xyz
  1  'x, y, z'
loop_
 _atom_site_type_symbol
 _atom_site_label
 _atom_site_symmetry_multiplicity
 _atom_site_fract_x
 _atom_site_fract_y
 _atom_site_fract_z
 _atom_site_occupancy
  Gd  Gd0  1  0.000000  0.248274  0.042702  1
  Gd  Gd1  1  0.000000  0.751726  0.957298  1
  Er  Er2  1  0.500000  0.392832  0.305072  1
  Er  Er3  1  0.500000  0.607168  0.694928  1
  Er  Er4  1  0.500000  0.107078  0.803570  1
  Er  Er5  1  0.500000  0.892922  0.196430  1
  Er  Er6  1  0.000000  0.257704  0.542131  1
  Er  Er7  1  0.000000  0.742296  0.457869  1
  C  C8  1  0.500000  0.000000  0.000000  1
  C  C9  1  0.500000  0.500000  0.500000  1
  C  C10  1  0.000000  0.138288  0.237250  1
  C  C11  1  0.000000  0.861713  0.762750  1
  C  C12  1  0.000000  0.359917  0.732268  1
  C  C13  1  0.000000  0.640083  0.267732  1
  C  C14  1  0.000000  0.094014  0.346381  1
  C  C15  1  0.000000  0.905986  0.653619  1
  C  C16  1  0.000000  0.402682  0.840923  1
  C  C17  1  0.000000  0.597318  0.159077  1
