# generated using pymatgen
data_Dy5Ti3Co16(As3P)3
_symmetry_space_group_name_H-M   'P 1'
_cell_length_a   12.43934900
_cell_length_b   12.43934804
_cell_length_c   3.77750900
_cell_angle_alpha   90.00000000
_cell_angle_beta   90.00000000
_cell_angle_gamma   119.99999457
_symmetry_Int_Tables_number   1
_chemical_formula_structural   Dy5Ti3Co16(As3P)3
_chemical_formula_sum   'Dy5 Ti3 Co16 As9 P3'
_cell_volume   506.21083306
_cell_formula_units_Z   1
loop_
 _symmetry_equiv_pos_site_id
 _symmetry_equiv_pos_as_xyz
  1  'x, y, z'
loop_
 _atom_site_type_symbol
 _atom_site_label
 _atom_site_symmetry_multiplicity
 _atom_site_fract_x
 _atom_site_fract_y
 _atom_site_fract_z
 _atom_site_occupancy
  Dy  Dy0  1  0.666667  0.333333  0.000000  1
  Dy  Dy1  1  0.333333  0.666667  0.000000  1
  Dy  Dy2  1  0.179434  0.179434  0.500000  1
  Dy  Dy3  1  0.820566  0.000000  0.500000  1
  Dy  Dy4  1  0.000000  0.820566  0.500000  1
  Ti  Ti5  1  0.562318  0.562318  0.000000  1
  Ti  Ti6  1  0.437682  0.000000  0.000000  1
  Ti  Ti7  1  0.000000  0.437682  0.000000  1
  Co  Co8  1  0.828863  0.197894  0.000000  1
  Co  Co9  1  0.802106  0.630969  0.000000  1
  Co  Co10  1  0.369031  0.171137  0.000000  1
  Co  Co11  1  0.197894  0.828863  0.000000  1
  Co  Co12  1  0.630969  0.802106  0.000000  1
  Co  Co13  1  0.171137  0.369031  0.000000  1
  Co  Co14  1  0.645781  0.123947  0.500000  1
  Co  Co15  1  0.876053  0.521833  0.500000  1
  Co  Co16  1  0.478167  0.354219  0.500000  1
  Co  Co17  1  0.123947  0.645781  0.500000  1
  Co  Co18  1  0.521833  0.876053  0.500000  1
  Co  Co19  1  0.354219  0.478167  0.500000  1
  Co  Co20  1  0.725899  0.725899  0.500000  1
  Co  Co21  1  0.274101  0.000000  0.500000  1
  Co  Co22  1  0.000000  0.274101  0.500000  1
  Co  Co23  1  0.000000  0.000000  0.000000  1
  As  As24  1  0.356242  0.356242  0.000000  1
  As  As25  1  0.643758  0.000000  0.000000  1
  As  As26  1  0.000000  0.643758  0.000000  1
  As  As27  1  0.833246  0.314184  0.500000  1
  As  As28  1  0.685816  0.519062  0.500000  1
  As  As29  1  0.480938  0.166754  0.500000  1
  As  As30  1  0.314184  0.833246  0.500000  1
  As  As31  1  0.519062  0.685816  0.500000  1
  As  As32  1  0.166754  0.480938  0.500000  1
  P  P33  1  0.822708  0.822708  0.000000  1
  P  P34  1  0.177292  0.000000  0.000000  1
  P  P35  1  0.000000  0.177292  0.000000  1
