# generated using pymatgen
data_Sm5Er12Th3Pb16
_symmetry_space_group_name_H-M   'P 1'
_cell_length_a   8.22400876
_cell_length_b   8.29262200
_cell_length_c   15.58441100
_cell_angle_alpha   89.97555508
_cell_angle_beta   90.21659422
_cell_angle_gamma   90.01413190
_symmetry_Int_Tables_number   1
_chemical_formula_structural   Sm5Er12Th3Pb16
_chemical_formula_sum   'Sm5 Er12 Th3 Pb16'
_cell_volume   1062.82722719
_cell_formula_units_Z   1
loop_
 _symmetry_equiv_pos_site_id
 _symmetry_equiv_pos_as_xyz
  1  'x, y, z'
loop_
 _atom_site_type_symbol
 _atom_site_label
 _atom_site_symmetry_multiplicity
 _atom_site_fract_x
 _atom_site_fract_y
 _atom_site_fract_z
 _atom_site_occupancy
  Sm  Sm0  1  0.975069  0.825629  0.097268  1
  Sm  Sm1  1  0.471747  0.676704  0.098919  1
  Sm  Sm2  1  0.973421  0.823397  0.402262  1
  Sm  Sm3  1  0.528338  0.323313  0.598052  1
  Sm  Sm4  1  0.029661  0.176352  0.901611  1
  Er  Er5  1  0.364444  0.842480  0.876914  1
  Er  Er6  1  0.863056  0.657140  0.623480  1
  Er  Er7  1  0.637564  0.157521  0.376245  1
  Er  Er8  1  0.135875  0.343344  0.123323  1
  Er  Er9  1  0.635597  0.160177  0.123628  1
  Er  Er10  1  0.137238  0.340644  0.376441  1
  Er  Er11  1  0.362973  0.838328  0.623250  1
  Er  Er12  1  0.863632  0.660363  0.877391  1
  Er  Er13  1  0.195075  0.502189  0.749694  1
  Er  Er14  1  0.695486  0.996696  0.750645  1
  Er  Er15  1  0.804250  0.496998  0.249085  1
  Er  Er16  1  0.304445  0.002556  0.249772  1
  Th  Th17  1  0.522912  0.322758  0.903773  1
  Th  Th18  1  0.021740  0.175457  0.596145  1
  Th  Th19  1  0.477572  0.677385  0.403079  1
  Pb  Pb20  1  0.294685  0.041791  0.042819  1
  Pb  Pb21  1  0.795987  0.457853  0.457483  1
  Pb  Pb22  1  0.703381  0.956814  0.542506  1
  Pb  Pb23  1  0.205248  0.541161  0.956877  1
  Pb  Pb24  1  0.709371  0.965318  0.956081  1
  Pb  Pb25  1  0.207554  0.534978  0.543712  1
  Pb  Pb26  1  0.293915  0.036972  0.456520  1
  Pb  Pb27  1  0.791639  0.463967  0.043519  1
  Pb  Pb28  1  0.558015  0.627252  0.751336  1
  Pb  Pb29  1  0.057822  0.871475  0.749042  1
  Pb  Pb30  1  0.441466  0.372801  0.251395  1
  Pb  Pb31  1  0.942333  0.128313  0.249611  1
  Pb  Pb32  1  0.335968  0.151047  0.747675  1
  Pb  Pb33  1  0.835515  0.348077  0.751505  1
  Pb  Pb34  1  0.665557  0.848894  0.248536  1
  Pb  Pb35  1  0.161448  0.653856  0.250410  1
