# generated using pymatgen
data_Ba3YbOs2O9
_symmetry_space_group_name_H-M   'P 1'
_cell_length_a   5.98761700
_cell_length_b   5.98761811
_cell_length_c   14.49429700
_cell_angle_alpha   90.00000000
_cell_angle_beta   90.00000000
_cell_angle_gamma   119.99998835
_symmetry_Int_Tables_number   1
_chemical_formula_structural   Ba3YbOs2O9
_chemical_formula_sum   'Ba6 Yb2 Os4 O18'
_cell_volume   450.02427905
_cell_formula_units_Z   2
loop_
 _symmetry_equiv_pos_site_id
 _symmetry_equiv_pos_as_xyz
  1  'x, y, z'
loop_
 _atom_site_type_symbol
 _atom_site_label
 _atom_site_symmetry_multiplicity
 _atom_site_fract_x
 _atom_site_fract_y
 _atom_site_fract_z
 _atom_site_occupancy
  Ba  Ba0  1  0.000000  0.000000  0.250000  1
  Ba  Ba1  1  0.000000  0.000000  0.750000  1
  Ba  Ba2  1  0.333333  0.666667  0.909207  1
  Ba  Ba3  1  0.666667  0.333333  0.409207  1
  Ba  Ba4  1  0.666667  0.333333  0.090793  1
  Ba  Ba5  1  0.333333  0.666667  0.590793  1
  Yb  Yb6  1  0.000000  0.000000  0.000000  1
  Yb  Yb7  1  0.000000  0.000000  0.500000  1
  Os  Os8  1  0.333333  0.666667  0.163859  1
  Os  Os9  1  0.666667  0.333333  0.663859  1
  Os  Os10  1  0.666667  0.333333  0.836141  1
  Os  Os11  1  0.333333  0.666667  0.336141  1
  O  O12  1  0.492871  0.985742  0.250000  1
  O  O13  1  0.507129  0.492871  0.750000  1
  O  O14  1  0.985742  0.492871  0.750000  1
  O  O15  1  0.014258  0.507129  0.250000  1
  O  O16  1  0.492871  0.507129  0.250000  1
  O  O17  1  0.507129  0.014258  0.750000  1
  O  O18  1  0.178606  0.357210  0.410497  1
  O  O19  1  0.821394  0.178606  0.910497  1
  O  O20  1  0.357210  0.178606  0.910497  1
  O  O21  1  0.642790  0.821394  0.410497  1
  O  O22  1  0.178606  0.821394  0.410497  1
  O  O23  1  0.821394  0.642790  0.589503  1
  O  O24  1  0.821394  0.178606  0.589503  1
  O  O25  1  0.821394  0.642790  0.910497  1
  O  O26  1  0.357210  0.178606  0.589503  1
  O  O27  1  0.642790  0.821394  0.089503  1
  O  O28  1  0.178606  0.357210  0.089503  1
  O  O29  1  0.178606  0.821394  0.089503  1
