# generated using pymatgen
data_Tm3CdIr8
_symmetry_space_group_name_H-M   'P 1'
_cell_length_a   5.31731300
_cell_length_b   5.31731400
_cell_length_c   8.63738300
_cell_angle_alpha   90.00000000
_cell_angle_beta   90.00000000
_cell_angle_gamma   120.00000002
_symmetry_Int_Tables_number   1
_chemical_formula_structural   Tm3CdIr8
_chemical_formula_sum   'Tm3 Cd1 Ir8'
_cell_volume   211.49365447
_cell_formula_units_Z   1
loop_
 _symmetry_equiv_pos_site_id
 _symmetry_equiv_pos_as_xyz
  1  'x, y, z'
loop_
 _atom_site_type_symbol
 _atom_site_label
 _atom_site_symmetry_multiplicity
 _atom_site_fract_x
 _atom_site_fract_y
 _atom_site_fract_z
 _atom_site_occupancy
  Tm  Tm0  1  0.333334  0.666668  0.419178  1
  Tm  Tm1  1  0.666667  0.333333  0.569792  1
  Tm  Tm2  1  0.666667  0.333333  0.942313  1
  Cd  Cd3  1  0.333334  0.666668  0.058973  1
  Ir  Ir4  1  0.000000  0.000000  0.002344  1
  Ir  Ir5  1  0.339562  0.169781  0.251892  1
  Ir  Ir6  1  0.830219  0.169781  0.251892  1
  Ir  Ir7  1  0.830219  0.660436  0.251892  1
  Ir  Ir8  1  0.000000  0.000000  0.503234  1
  Ir  Ir9  1  0.170871  0.341742  0.749496  1
  Ir  Ir10  1  0.170872  0.829130  0.749496  1
  Ir  Ir11  1  0.658258  0.829130  0.749496  1
