# generated using pymatgen
data_Ge3Sb4AsPt4
_symmetry_space_group_name_H-M   'P 1'
_cell_length_a   6.44224500
_cell_length_b   6.50371079
_cell_length_c   12.09677743
_cell_angle_alpha   86.19242467
_cell_angle_beta   90.00000000
_cell_angle_gamma   90.00000000
_symmetry_Int_Tables_number   1
_chemical_formula_structural   Ge3Sb4AsPt4
_chemical_formula_sum   'Ge6 Sb8 As2 Pt8'
_cell_volume   505.71806643
_cell_formula_units_Z   2
loop_
 _symmetry_equiv_pos_site_id
 _symmetry_equiv_pos_as_xyz
  1  'x, y, z'
loop_
 _atom_site_type_symbol
 _atom_site_label
 _atom_site_symmetry_multiplicity
 _atom_site_fract_x
 _atom_site_fract_y
 _atom_site_fract_z
 _atom_site_occupancy
  Ge  Ge0  1  0.856293  0.261816  0.428847  1
  Ge  Ge1  1  0.356293  0.238184  0.571152  1
  Ge  Ge2  1  0.138749  0.784253  0.069462  1
  Ge  Ge3  1  0.638749  0.715747  0.930539  1
  Ge  Ge4  1  0.144500  0.740562  0.570092  1
  Ge  Ge5  1  0.644500  0.759438  0.429907  1
  Sb  Sb6  1  0.117763  0.011326  0.329600  1
  Sb  Sb7  1  0.617763  0.488674  0.670400  1
  Sb  Sb8  1  0.881347  0.522543  0.184165  1
  Sb  Sb9  1  0.381347  0.977457  0.815835  1
  Sb  Sb10  1  0.883095  0.989734  0.668088  1
  Sb  Sb11  1  0.383095  0.510266  0.331912  1
  Sb  Sb12  1  0.118937  0.482398  0.818254  1
  Sb  Sb13  1  0.618937  0.017602  0.181746  1
  As  As14  1  0.861870  0.212310  0.928333  1
  As  As15  1  0.361870  0.287690  0.071668  1
  Pt  Pt16  1  0.504009  0.120140  0.389685  1
  Pt  Pt17  1  0.004009  0.379860  0.610315  1
  Pt  Pt18  1  0.491692  0.639688  0.123204  1
  Pt  Pt19  1  0.991692  0.860312  0.876796  1
  Pt  Pt20  1  0.497392  0.878666  0.608219  1
  Pt  Pt21  1  0.997392  0.621334  0.391781  1
  Pt  Pt22  1  0.504354  0.357858  0.878799  1
  Pt  Pt23  1  0.004354  0.142142  0.121201  1
