# generated using pymatgen
data_HoZr2Fe8Co
_symmetry_space_group_name_H-M   'P 1'
_cell_length_a   8.54042023
_cell_length_b   8.54042034
_cell_length_c   8.54042168
_cell_angle_alpha   33.91865140
_cell_angle_beta   33.91865267
_cell_angle_gamma   33.91864664
_symmetry_Int_Tables_number   1
_chemical_formula_structural   HoZr2Fe8Co
_chemical_formula_sum   'Ho1 Zr2 Fe8 Co1'
_cell_volume   172.87500715
_cell_formula_units_Z   1
loop_
 _symmetry_equiv_pos_site_id
 _symmetry_equiv_pos_as_xyz
  1  'x, y, z'
loop_
 _atom_site_type_symbol
 _atom_site_label
 _atom_site_symmetry_multiplicity
 _atom_site_fract_x
 _atom_site_fract_y
 _atom_site_fract_z
 _atom_site_occupancy
  Ho  Ho0  1  0.999907  0.999907  0.999907  1
  Zr  Zr1  1  0.142604  0.142604  0.142604  1
  Zr  Zr2  1  0.857389  0.857389  0.857389  1
  Fe  Fe3  1  0.499695  0.499695  0.499695  1
  Fe  Fe4  1  0.667048  0.667048  0.667048  1
  Fe  Fe5  1  0.081472  0.585252  0.585252  1
  Fe  Fe6  1  0.585252  0.585252  0.081472  1
  Fe  Fe7  1  0.585252  0.081472  0.585252  1
  Fe  Fe8  1  0.415216  0.917799  0.415216  1
  Fe  Fe9  1  0.917799  0.415216  0.415216  1
  Fe  Fe10  1  0.415216  0.415216  0.917799  1
  Co  Co11  1  0.333149  0.333149  0.333149  1
