# generated using pymatgen
data_Cs2SbRh3S8
_symmetry_space_group_name_H-M   'P 1'
_cell_length_a   6.34257900
_cell_length_b   7.33491995
_cell_length_c   16.20052500
_cell_angle_alpha   89.82313466
_cell_angle_beta   90.00000000
_cell_angle_gamma   90.00000000
_symmetry_Int_Tables_number   1
_chemical_formula_structural   Cs2SbRh3S8
_chemical_formula_sum   'Cs4 Sb2 Rh6 S16'
_cell_volume   753.68224270
_cell_formula_units_Z   2
loop_
 _symmetry_equiv_pos_site_id
 _symmetry_equiv_pos_as_xyz
  1  'x, y, z'
loop_
 _atom_site_type_symbol
 _atom_site_label
 _atom_site_symmetry_multiplicity
 _atom_site_fract_x
 _atom_site_fract_y
 _atom_site_fract_z
 _atom_site_occupancy
  Cs  Cs0  1  0.351044  0.000000  0.000000  1
  Cs  Cs1  1  0.648956  0.500000  0.500000  1
  Cs  Cs2  1  0.028573  0.000000  0.500000  1
  Cs  Cs3  1  0.971427  0.500000  0.000000  1
  Sb  Sb4  1  0.500000  0.250000  0.250000  1
  Sb  Sb5  1  0.500000  0.750000  0.750000  1
  Rh  Rh6  1  0.001354  0.998334  0.250249  1
  Rh  Rh7  1  0.001354  0.001666  0.749751  1
  Rh  Rh8  1  0.998646  0.501666  0.249751  1
  Rh  Rh9  1  0.998646  0.498334  0.750249  1
  Rh  Rh10  1  0.500000  0.750000  0.250000  1
  Rh  Rh11  1  0.500000  0.250000  0.750000  1
  S  S12  1  0.853480  0.250312  0.328082  1
  S  S13  1  0.853480  0.749688  0.671918  1
  S  S14  1  0.165163  0.750378  0.176561  1
  S  S15  1  0.165163  0.249622  0.823439  1
  S  S16  1  0.146520  0.249688  0.171918  1
  S  S17  1  0.146520  0.750312  0.828082  1
  S  S18  1  0.834837  0.749622  0.323439  1
  S  S19  1  0.834837  0.250378  0.676561  1
  S  S20  1  0.680079  0.984168  0.172768  1
  S  S21  1  0.680079  0.015832  0.827232  1
  S  S22  1  0.319921  0.515832  0.327232  1
  S  S23  1  0.319921  0.484168  0.672768  1
  S  S24  1  0.326210  0.983058  0.326535  1
  S  S25  1  0.326210  0.016942  0.673465  1
  S  S26  1  0.673790  0.516942  0.173465  1
  S  S27  1  0.673790  0.483058  0.826535  1
