# generated using pymatgen
data_Eu3YTi4(Co4P3)4
_symmetry_space_group_name_H-M   'P 1'
_cell_length_a   3.68895500
_cell_length_b   10.58791261
_cell_length_c   12.10232317
_cell_angle_alpha   89.90513199
_cell_angle_beta   90.00000000
_cell_angle_gamma   90.00000000
_symmetry_Int_Tables_number   1
_chemical_formula_structural   Eu3YTi4(Co4P3)4
_chemical_formula_sum   'Eu3 Y1 Ti4 Co16 P12'
_cell_volume   472.69592239
_cell_formula_units_Z   1
loop_
 _symmetry_equiv_pos_site_id
 _symmetry_equiv_pos_as_xyz
  1  'x, y, z'
loop_
 _atom_site_type_symbol
 _atom_site_label
 _atom_site_symmetry_multiplicity
 _atom_site_fract_x
 _atom_site_fract_y
 _atom_site_fract_z
 _atom_site_occupancy
  Eu  Eu0  1  0.250000  0.917878  0.205168  1
  Eu  Eu1  1  0.750000  0.081894  0.794506  1
  Eu  Eu2  1  0.750000  0.418284  0.295160  1
  Y  Y3  1  0.250000  0.581629  0.706011  1
  Ti  Ti4  1  0.250000  0.799194  0.491128  1
  Ti  Ti5  1  0.750000  0.201272  0.510417  1
  Ti  Ti6  1  0.750000  0.299477  0.008698  1
  Ti  Ti7  1  0.250000  0.700411  0.989791  1
  Co  Co8  1  0.250000  0.093285  0.991174  1
  Co  Co9  1  0.750000  0.905962  0.007501  1
  Co  Co10  1  0.750000  0.595518  0.512959  1
  Co  Co11  1  0.250000  0.409202  0.492875  1
  Co  Co12  1  0.250000  0.281857  0.673553  1
  Co  Co13  1  0.750000  0.718170  0.327522  1
  Co  Co14  1  0.750000  0.777111  0.824989  1
  Co  Co15  1  0.250000  0.219327  0.173246  1
  Co  Co16  1  0.250000  0.617612  0.198729  1
  Co  Co17  1  0.750000  0.385650  0.799118  1
  Co  Co18  1  0.750000  0.117805  0.301077  1
  Co  Co19  1  0.250000  0.880268  0.699295  1
  Co  Co20  1  0.250000  0.035967  0.435038  1
  Co  Co21  1  0.750000  0.963097  0.565955  1
  Co  Co22  1  0.750000  0.535826  0.064599  1
  Co  Co23  1  0.250000  0.464483  0.932945  1
  P  P24  1  0.250000  0.077431  0.614901  1
  P  P25  1  0.750000  0.922272  0.385655  1
  P  P26  1  0.750000  0.577445  0.884417  1
  P  P27  1  0.250000  0.422174  0.114041  1
  P  P28  1  0.250000  0.227487  0.360949  1
  P  P29  1  0.750000  0.770274  0.638808  1
  P  P30  1  0.750000  0.726849  0.139444  1
  P  P31  1  0.250000  0.272637  0.860165  1
  P  P32  1  0.250000  0.904532  0.891017  1
  P  P33  1  0.750000  0.095528  0.108438  1
  P  P34  1  0.750000  0.406712  0.608910  1
  P  P35  1  0.250000  0.595478  0.391800  1
