# generated using pymatgen
data_Tb2UAl3FeRu2
_symmetry_space_group_name_H-M   'P 1'
_cell_length_a   6.79273477
_cell_length_b   6.79273493
_cell_length_c   4.06569100
_cell_angle_alpha   90.00000000
_cell_angle_beta   90.00000000
_cell_angle_gamma   117.20182776
_symmetry_Int_Tables_number   1
_chemical_formula_structural   Tb2UAl3FeRu2
_chemical_formula_sum   'Tb2 U1 Al3 Fe1 Ru2'
_cell_volume   166.84826420
_cell_formula_units_Z   1
loop_
 _symmetry_equiv_pos_site_id
 _symmetry_equiv_pos_as_xyz
  1  'x, y, z'
loop_
 _atom_site_type_symbol
 _atom_site_label
 _atom_site_symmetry_multiplicity
 _atom_site_fract_x
 _atom_site_fract_y
 _atom_site_fract_z
 _atom_site_occupancy
  Tb  Tb0  1  0.415923  0.010534  0.500000  1
  Tb  Tb1  1  0.010534  0.415923  0.500000  1
  U  U2  1  0.634070  0.634070  0.500000  1
  Al  Al3  1  0.756470  0.026574  0.000000  1
  Al  Al4  1  0.026574  0.756470  0.000000  1
  Al  Al5  1  0.200856  0.200856  0.000000  1
  Fe  Fe6  1  0.942222  0.942222  0.500000  1
  Ru  Ru7  1  0.379368  0.633983  0.000000  1
  Ru  Ru8  1  0.633983  0.379368  0.000000  1
