# generated using pymatgen
data_Tb2Yb(BiRh)3
_symmetry_space_group_name_H-M   'P 1'
_cell_length_a   7.61755100
_cell_length_b   7.68643471
_cell_length_c   4.02770000
_cell_angle_alpha   90.00000000
_cell_angle_beta   90.00000000
_cell_angle_gamma   119.70399300
_symmetry_Int_Tables_number   1
_chemical_formula_structural   Tb2Yb(BiRh)3
_chemical_formula_sum   'Tb2 Yb1 Bi3 Rh3'
_cell_volume   204.84046107
_cell_formula_units_Z   1
loop_
 _symmetry_equiv_pos_site_id
 _symmetry_equiv_pos_as_xyz
  1  'x, y, z'
loop_
 _atom_site_type_symbol
 _atom_site_label
 _atom_site_symmetry_multiplicity
 _atom_site_fract_x
 _atom_site_fract_y
 _atom_site_fract_z
 _atom_site_occupancy
  Tb  Tb0  1  0.000246  0.598768  0.000000  1
  Tb  Tb1  1  0.401478  0.401232  0.000000  1
  Yb  Yb2  1  0.599127  0.000000  0.000000  1
  Bi  Bi3  1  0.271394  0.000000  0.500000  1
  Bi  Bi4  1  0.995000  0.261002  0.500000  1
  Bi  Bi5  1  0.733997  0.738998  0.500000  1
  Rh  Rh6  1  0.324106  0.656887  0.500000  1
  Rh  Rh7  1  0.667220  0.343113  0.500000  1
  Rh  Rh8  1  0.007432  0.000000  0.000000  1
