# generated using pymatgen
data_Ca3NdAl18(Pd2Pt)2
_symmetry_space_group_name_H-M   'P 1'
_cell_length_a   7.67074914
_cell_length_b   7.66162416
_cell_length_c   9.54207174
_cell_angle_alpha   90.02751834
_cell_angle_beta   90.01363954
_cell_angle_gamma   119.53816615
_symmetry_Int_Tables_number   1
_chemical_formula_structural   Ca3NdAl18(Pd2Pt)2
_chemical_formula_sum   'Ca3 Nd1 Al18 Pd4 Pt2'
_cell_volume   487.90375490
_cell_formula_units_Z   1
loop_
 _symmetry_equiv_pos_site_id
 _symmetry_equiv_pos_as_xyz
  1  'x, y, z'
loop_
 _atom_site_type_symbol
 _atom_site_label
 _atom_site_symmetry_multiplicity
 _atom_site_fract_x
 _atom_site_fract_y
 _atom_site_fract_z
 _atom_site_occupancy
  Ca  Ca0  1  0.994165  0.669828  0.250502  1
  Ca  Ca1  1  0.004491  0.329663  0.749753  1
  Ca  Ca2  1  0.672370  0.997038  0.250400  1
  Nd  Nd3  1  0.330250  0.003189  0.750042  1
  Al  Al4  1  0.132105  0.133174  0.250339  1
  Al  Al5  1  0.869502  0.868020  0.749593  1
  Al  Al6  1  0.001274  0.335300  0.075496  1
  Al  Al7  1  0.996903  0.662838  0.924668  1
  Al  Al8  1  0.997800  0.662739  0.575113  1
  Al  Al9  1  0.335121  0.999275  0.422260  1
  Al  Al10  1  0.000367  0.335173  0.424961  1
  Al  Al11  1  0.667255  0.000297  0.574693  1
  Al  Al12  1  0.667346  0.999312  0.924974  1
  Al  Al13  1  0.334929  0.000776  0.078054  1
  Al  Al14  1  0.332257  0.332953  0.553480  1
  Al  Al15  1  0.666888  0.667071  0.445972  1
  Al  Al16  1  0.666394  0.666715  0.055978  1
  Al  Al17  1  0.333108  0.333959  0.944918  1
  Al  Al18  1  0.339821  0.546985  0.250031  1
  Al  Al19  1  0.657329  0.453624  0.749781  1
  Al  Al20  1  0.544515  0.341360  0.250150  1
  Al  Al21  1  0.455896  0.661639  0.749671  1
  Pd  Pd22  1  0.670883  0.328808  0.000118  1
  Pd  Pd23  1  0.328966  0.671514  0.999647  1
  Pd  Pd24  1  0.000213  0.999689  0.000029  1
  Pd  Pd25  1  0.000323  0.999696  0.500029  1
  Pt  Pt26  1  0.328320  0.671133  0.500003  1
  Pt  Pt27  1  0.671208  0.328232  0.499343  1
