# generated using pymatgen
data_SrTb6Co3Sn23Ir3
_symmetry_space_group_name_H-M   'P 1'
_cell_length_a   9.84092066
_cell_length_b   9.84349488
_cell_length_c   10.05051379
_cell_angle_alpha   90.13926275
_cell_angle_beta   89.76993943
_cell_angle_gamma   120.01150965
_symmetry_Int_Tables_number   1
_chemical_formula_structural   SrTb6Co3Sn23Ir3
_chemical_formula_sum   'Sr1 Tb6 Co3 Sn23 Ir3'
_cell_volume   843.04355447
_cell_formula_units_Z   1
loop_
 _symmetry_equiv_pos_site_id
 _symmetry_equiv_pos_as_xyz
  1  'x, y, z'
loop_
 _atom_site_type_symbol
 _atom_site_label
 _atom_site_symmetry_multiplicity
 _atom_site_fract_x
 _atom_site_fract_y
 _atom_site_fract_z
 _atom_site_occupancy
  Sr  Sr0  1  0.997047  0.994433  0.002921  1
  Tb  Tb1  1  0.480207  0.520614  0.306305  1
  Tb  Tb2  1  0.519411  0.479512  0.693390  1
  Tb  Tb3  1  0.481265  0.960673  0.305865  1
  Tb  Tb4  1  0.519107  0.040896  0.693889  1
  Tb  Tb5  1  0.039761  0.519222  0.305213  1
  Tb  Tb6  1  0.960048  0.480777  0.693962  1
  Co  Co7  1  0.171779  0.340100  0.799962  1
  Co  Co8  1  0.340164  0.171888  0.199307  1
  Co  Co9  1  0.661024  0.831031  0.798757  1
  Sn  Sn10  1  0.352552  0.005242  0.004643  1
  Sn  Sn11  1  0.647454  0.995284  0.994689  1
  Sn  Sn12  1  0.005988  0.350084  0.994541  1
  Sn  Sn13  1  0.000693  0.645156  0.999626  1
  Sn  Sn14  1  0.645333  0.650767  0.995115  1
  Sn  Sn15  1  0.345907  0.346251  0.999857  1
  Sn  Sn16  1  0.336054  0.664622  0.818689  1
  Sn  Sn17  1  0.660963  0.330790  0.177692  1
  Sn  Sn18  1  0.000156  0.999869  0.501066  1
  Sn  Sn19  1  0.778636  0.221760  0.458286  1
  Sn  Sn20  1  0.221642  0.777822  0.541299  1
  Sn  Sn21  1  0.778130  0.555708  0.458292  1
  Sn  Sn22  1  0.218702  0.438299  0.548633  1
  Sn  Sn23  1  0.438860  0.219393  0.450868  1
  Sn  Sn24  1  0.560016  0.780415  0.549392  1
  Sn  Sn25  1  0.334125  0.667302  0.118498  1
  Sn  Sn26  1  0.666180  0.334100  0.880032  1
  Sn  Sn27  1  0.123745  0.887863  0.279559  1
  Sn  Sn28  1  0.883735  0.118350  0.725058  1
  Sn  Sn29  1  0.123388  0.236574  0.279619  1
  Sn  Sn30  1  0.877685  0.765084  0.719596  1
  Sn  Sn31  1  0.762941  0.882667  0.286888  1
  Sn  Sn32  1  0.236257  0.124146  0.720153  1
  Ir  Ir33  1  0.830482  0.170691  0.198639  1
  Ir  Ir34  1  0.171723  0.832349  0.799248  1
  Ir  Ir35  1  0.828842  0.660269  0.200450  1
