# generated using pymatgen
data_Tm2Ga2CoNi
_symmetry_space_group_name_H-M   'P 1'
_cell_length_a   4.26209000
_cell_length_b   6.68715600
_cell_length_c   7.28731300
_cell_angle_alpha   90.00000000
_cell_angle_beta   90.00000000
_cell_angle_gamma   90.00000000
_symmetry_Int_Tables_number   1
_chemical_formula_structural   Tm2Ga2CoNi
_chemical_formula_sum   'Tm4 Ga4 Co2 Ni2'
_cell_volume   207.69760773
_cell_formula_units_Z   2
loop_
 _symmetry_equiv_pos_site_id
 _symmetry_equiv_pos_as_xyz
  1  'x, y, z'
loop_
 _atom_site_type_symbol
 _atom_site_label
 _atom_site_symmetry_multiplicity
 _atom_site_fract_x
 _atom_site_fract_y
 _atom_site_fract_z
 _atom_site_occupancy
  Tm  Tm0  1  0.250000  0.019449  0.808496  1
  Tm  Tm1  1  0.250000  0.519449  0.691504  1
  Tm  Tm2  1  0.750000  0.986473  0.197690  1
  Tm  Tm3  1  0.750000  0.486473  0.302310  1
  Ga  Ga4  1  0.250000  0.175671  0.419589  1
  Ga  Ga5  1  0.250000  0.675671  0.080411  1
  Ga  Ga6  1  0.750000  0.822168  0.578675  1
  Ga  Ga7  1  0.750000  0.322168  0.921325  1
  Co  Co8  1  0.250000  0.788580  0.405382  1
  Co  Co9  1  0.250000  0.288580  0.094618  1
  Ni  Ni10  1  0.750000  0.207659  0.593990  1
  Ni  Ni11  1  0.750000  0.707659  0.906010  1
