# generated using pymatgen
data_SrTc11MoCl25
_symmetry_space_group_name_H-M   'P 1'
_cell_length_a   9.48102054
_cell_length_b   10.51951698
_cell_length_c   11.18483032
_cell_angle_alpha   85.31033056
_cell_angle_beta   75.73184765
_cell_angle_gamma   86.60031959
_symmetry_Int_Tables_number   1
_chemical_formula_structural   SrTc11MoCl25
_chemical_formula_sum   'Sr1 Tc11 Mo1 Cl25'
_cell_volume   1076.61181741
_cell_formula_units_Z   1
loop_
 _symmetry_equiv_pos_site_id
 _symmetry_equiv_pos_as_xyz
  1  'x, y, z'
loop_
 _atom_site_type_symbol
 _atom_site_label
 _atom_site_symmetry_multiplicity
 _atom_site_fract_x
 _atom_site_fract_y
 _atom_site_fract_z
 _atom_site_occupancy
  Sr  Sr0  1  0.496987  0.001464  0.003146  1
  Tc  Tc1  1  0.176990  0.748938  0.883204  1
  Tc  Tc2  1  0.742369  0.108384  0.285835  1
  Tc  Tc3  1  0.251424  0.882527  0.721877  1
  Tc  Tc4  1  0.074495  0.265905  0.188102  1
  Tc  Tc5  1  0.929472  0.733196  0.814491  1
  Tc  Tc6  1  0.848287  0.433997  0.262072  1
  Tc  Tc7  1  0.152851  0.568833  0.737974  1
  Tc  Tc8  1  0.767418  0.299951  0.422431  1
  Tc  Tc9  1  0.231176  0.700154  0.573100  1
  Tc  Tc10  1  0.992049  0.135904  0.349869  1
  Tc  Tc11  1  0.006271  0.862564  0.649149  1
  Mo  Mo12  1  0.820546  0.243055  0.124667  1
  Cl  Cl13  1  0.938921  0.954093  0.260823  1
  Cl  Cl14  1  0.062600  0.041356  0.741009  1
  Cl  Cl15  1  0.970869  0.275293  0.509472  1
  Cl  Cl16  1  0.025247  0.722636  0.490188  1
  Cl  Cl17  1  0.655607  0.425536  0.161335  1
  Cl  Cl18  1  0.352672  0.579071  0.830981  1
  Cl  Cl19  1  0.091259  0.458517  0.276935  1
  Cl  Cl20  1  0.909654  0.543355  0.720994  1
  Cl  Cl21  1  0.013004  0.530053  0.988661  1
  Cl  Cl22  1  0.586080  0.958525  0.234229  1
  Cl  Cl23  1  0.408120  0.034874  0.763653  1
  Cl  Cl24  1  0.187461  0.019599  0.415134  1
  Cl  Cl25  1  0.805451  0.974117  0.593026  1
  Cl  Cl26  1  0.543361  0.230909  0.398184  1
  Cl  Cl27  1  0.452330  0.772304  0.600596  1
  Cl  Cl28  1  0.052896  0.151663  0.021636  1
  Cl  Cl29  1  0.952581  0.853548  0.976649  1
  Cl  Cl30  1  0.779974  0.645438  0.304626  1
  Cl  Cl31  1  0.215967  0.358117  0.695200  1
  Cl  Cl32  1  0.723300  0.193627  0.951190  1
  Cl  Cl33  1  0.278898  0.796936  0.051669  1
  Cl  Cl34  1  0.335373  0.239038  0.109122  1
  Cl  Cl35  1  0.670058  0.760484  0.888655  1
  Cl  Cl36  1  0.641099  0.403224  0.594924  1
  Cl  Cl37  1  0.356885  0.592813  0.405193  1
