# generated using pymatgen
data_HoLuSn(AsRh2)6
_symmetry_space_group_name_H-M   'P 1'
_cell_length_a   10.07032100
_cell_length_b   10.07032141
_cell_length_c   3.92860000
_cell_angle_alpha   90.00000000
_cell_angle_beta   90.00000000
_cell_angle_gamma   120.00000192
_symmetry_Int_Tables_number   1
_chemical_formula_structural   HoLuSn(AsRh2)6
_chemical_formula_sum   'Ho1 Lu1 Sn1 As6 Rh12'
_cell_volume   345.02858891
_cell_formula_units_Z   1
loop_
 _symmetry_equiv_pos_site_id
 _symmetry_equiv_pos_as_xyz
  1  'x, y, z'
loop_
 _atom_site_type_symbol
 _atom_site_label
 _atom_site_symmetry_multiplicity
 _atom_site_fract_x
 _atom_site_fract_y
 _atom_site_fract_z
 _atom_site_occupancy
  Ho  Ho0  1  0.333333  0.666667  0.751880  1
  Lu  Lu1  1  0.666667  0.333333  0.247523  1
  Sn  Sn2  1  0.000000  0.000000  0.598797  1
  As  As3  1  0.881398  0.592823  0.747637  1
  As  As4  1  0.407177  0.288574  0.747637  1
  As  As5  1  0.711426  0.118602  0.747637  1
  As  As6  1  0.116607  0.405894  0.252961  1
  As  As7  1  0.594106  0.710712  0.252961  1
  As  As8  1  0.289288  0.883393  0.252961  1
  Rh  Rh9  1  0.618515  0.548587  0.749584  1
  Rh  Rh10  1  0.451413  0.069928  0.749584  1
  Rh  Rh11  1  0.930072  0.381485  0.749584  1
  Rh  Rh12  1  0.385572  0.450710  0.251839  1
  Rh  Rh13  1  0.549290  0.934862  0.251839  1
  Rh  Rh14  1  0.065138  0.614428  0.251839  1
  Rh  Rh15  1  0.126340  0.838038  0.755557  1
  Rh  Rh16  1  0.161962  0.288302  0.755557  1
  Rh  Rh17  1  0.711698  0.873660  0.755557  1
  Rh  Rh18  1  0.879237  0.151647  0.244448  1
  Rh  Rh19  1  0.848353  0.727590  0.244448  1
  Rh  Rh20  1  0.272410  0.120763  0.244448  1
