# generated using pymatgen
data_Ho16Cd4CoNiIr2
_symmetry_space_group_name_H-M   'P 1'
_cell_length_a   9.53685645
_cell_length_b   9.54605293
_cell_length_c   9.59020700
_cell_angle_alpha   59.84687898
_cell_angle_beta   59.81477748
_cell_angle_gamma   59.63362887
_symmetry_Int_Tables_number   1
_chemical_formula_structural   Ho16Cd4CoNiIr2
_chemical_formula_sum   'Ho16 Cd4 Co1 Ni1 Ir2'
_cell_volume   614.06727567
_cell_formula_units_Z   1
loop_
 _symmetry_equiv_pos_site_id
 _symmetry_equiv_pos_as_xyz
  1  'x, y, z'
loop_
 _atom_site_type_symbol
 _atom_site_label
 _atom_site_symmetry_multiplicity
 _atom_site_fract_x
 _atom_site_fract_y
 _atom_site_fract_z
 _atom_site_occupancy
  Ho  Ho0  1  0.348796  0.352135  0.341243  1
  Ho  Ho1  1  0.348796  0.352135  0.957824  1
  Ho  Ho2  1  0.354414  0.951238  0.347173  1
  Ho  Ho3  1  0.954241  0.355029  0.345364  1
  Ho  Ho4  1  0.808682  0.187582  0.190643  1
  Ho  Ho5  1  0.186527  0.806453  0.816665  1
  Ho  Ho6  1  0.186527  0.806453  0.190354  1
  Ho  Ho7  1  0.808682  0.187582  0.813092  1
  Ho  Ho8  1  0.188899  0.189464  0.810819  1
  Ho  Ho9  1  0.814688  0.807994  0.188659  1
  Ho  Ho10  1  0.938448  0.561079  0.563984  1
  Ho  Ho11  1  0.560113  0.938404  0.935784  1
  Ho  Ho12  1  0.560113  0.938404  0.565699  1
  Ho  Ho13  1  0.938448  0.561079  0.936489  1
  Ho  Ho14  1  0.564029  0.566828  0.934572  1
  Ho  Ho15  1  0.939620  0.939641  0.560370  1
  Cd  Cd16  1  0.579671  0.579901  0.582963  1
  Cd  Cd17  1  0.579671  0.579901  0.257466  1
  Cd  Cd18  1  0.579811  0.256162  0.582013  1
  Cd  Cd19  1  0.255763  0.580076  0.582081  1
  Co  Co20  1  0.142111  0.576245  0.140822  1
  Ni  Ni21  1  0.575352  0.141462  0.141593  1
  Ir  Ir22  1  0.143298  0.142377  0.141214  1
  Ir  Ir23  1  0.143298  0.142377  0.573110  1
