# generated using pymatgen
data_LiHoCuPt3
_symmetry_space_group_name_H-M   'P 1'
_cell_length_a   5.11000931
_cell_length_b   5.11000825
_cell_length_c   5.11000800
_cell_angle_alpha   63.42480884
_cell_angle_beta   63.42481479
_cell_angle_gamma   63.42482066
_symmetry_Int_Tables_number   1
_chemical_formula_structural   LiHoCuPt3
_chemical_formula_sum   'Li1 Ho1 Cu1 Pt3'
_cell_volume   101.50166026
_cell_formula_units_Z   1
loop_
 _symmetry_equiv_pos_site_id
 _symmetry_equiv_pos_as_xyz
  1  'x, y, z'
loop_
 _atom_site_type_symbol
 _atom_site_label
 _atom_site_symmetry_multiplicity
 _atom_site_fract_x
 _atom_site_fract_y
 _atom_site_fract_z
 _atom_site_occupancy
  Li  Li0  1  0.994774  0.994774  0.994774  1
  Ho  Ho1  1  0.247697  0.247697  0.247697  1
  Cu  Cu2  1  0.627025  0.627025  0.627025  1
  Pt  Pt3  1  0.627645  0.627645  0.125216  1
  Pt  Pt4  1  0.627645  0.125216  0.627645  1
  Pt  Pt5  1  0.125216  0.627645  0.627645  1
