# generated using pymatgen
data_Tm20Ir9Os2Ru
_symmetry_space_group_name_H-M   'P 1'
_cell_length_a   10.71343500
_cell_length_b   10.71343500
_cell_length_c   6.32582700
_cell_angle_alpha   90.00000000
_cell_angle_beta   90.00000000
_cell_angle_gamma   90.00000000
_symmetry_Int_Tables_number   1
_chemical_formula_structural   Tm20Ir9Os2Ru
_chemical_formula_sum   'Tm20 Ir9 Os2 Ru1'
_cell_volume   726.06380723
_cell_formula_units_Z   1
loop_
 _symmetry_equiv_pos_site_id
 _symmetry_equiv_pos_as_xyz
  1  'x, y, z'
loop_
 _atom_site_type_symbol
 _atom_site_label
 _atom_site_symmetry_multiplicity
 _atom_site_fract_x
 _atom_site_fract_y
 _atom_site_fract_z
 _atom_site_occupancy
  Tm  Tm0  1  0.293898  0.086094  0.376324  1
  Tm  Tm1  1  0.293907  0.914129  0.876664  1
  Tm  Tm2  1  0.706093  0.085871  0.876664  1
  Tm  Tm3  1  0.706102  0.913906  0.376324  1
  Tm  Tm4  1  0.585871  0.793907  0.876664  1
  Tm  Tm5  1  0.586094  0.206102  0.376324  1
  Tm  Tm6  1  0.413906  0.793898  0.376324  1
  Tm  Tm7  1  0.414129  0.206093  0.876664  1
  Tm  Tm8  1  0.208111  0.413163  0.624592  1
  Tm  Tm9  1  0.207874  0.586834  0.121352  1
  Tm  Tm10  1  0.792126  0.413166  0.121352  1
  Tm  Tm11  1  0.791889  0.586837  0.624592  1
  Tm  Tm12  1  0.913166  0.707874  0.121352  1
  Tm  Tm13  1  0.913163  0.291889  0.624592  1
  Tm  Tm14  1  0.086837  0.708111  0.624592  1
  Tm  Tm15  1  0.086834  0.292126  0.121352  1
  Tm  Tm16  1  0.000000  0.000000  0.499794  1
  Tm  Tm17  1  0.000000  0.000000  0.999774  1
  Tm  Tm18  1  0.500000  0.500000  0.999774  1
  Tm  Tm19  1  0.500000  0.500000  0.499794  1
  Ir  Ir20  1  0.848208  0.153563  0.250376  1
  Ir  Ir21  1  0.847963  0.846515  0.750029  1
  Ir  Ir22  1  0.152037  0.153485  0.750029  1
  Ir  Ir23  1  0.151792  0.846437  0.250376  1
  Ir  Ir24  1  0.653485  0.347963  0.750029  1
  Ir  Ir25  1  0.653563  0.651792  0.250376  1
  Ir  Ir26  1  0.346437  0.348208  0.250376  1
  Ir  Ir27  1  0.346515  0.652037  0.750029  1
  Ir  Ir28  1  0.000000  0.500000  0.377994  1
  Os  Os29  1  0.500000  0.000000  0.123997  1
  Os  Os30  1  0.500000  0.000000  0.624091  1
  Ru  Ru31  1  0.000000  0.500000  0.877431  1
