# generated using pymatgen
data_KMn3CoO8
_symmetry_space_group_name_H-M   'P 1'
_cell_length_a   5.77627133
_cell_length_b   5.77627124
_cell_length_c   7.04338208
_cell_angle_alpha   67.79621031
_cell_angle_beta   67.79621034
_cell_angle_gamma   60.07819385
_symmetry_Int_Tables_number   1
_chemical_formula_structural   KMn3CoO8
_chemical_formula_sum   'K1 Mn3 Co1 O8'
_cell_volume   183.24836192
_cell_formula_units_Z   1
loop_
 _symmetry_equiv_pos_site_id
 _symmetry_equiv_pos_as_xyz
  1  'x, y, z'
loop_
 _atom_site_type_symbol
 _atom_site_label
 _atom_site_symmetry_multiplicity
 _atom_site_fract_x
 _atom_site_fract_y
 _atom_site_fract_z
 _atom_site_occupancy
  K  K0  1  0.500000  0.500000  0.500000  1
  Mn  Mn1  1  0.000000  0.000000  0.000000  1
  Mn  Mn2  1  0.000000  0.500000  0.000000  1
  Mn  Mn3  1  0.500000  0.000000  0.000000  1
  Co  Co4  1  0.500000  0.500000  0.000000  1
  O  O5  1  0.714937  0.714937  0.845224  1
  O  O6  1  0.714249  0.214063  0.845792  1
  O  O7  1  0.214063  0.714249  0.845792  1
  O  O8  1  0.215541  0.215541  0.842295  1
  O  O9  1  0.784459  0.784459  0.157705  1
  O  O10  1  0.785937  0.285751  0.154208  1
  O  O11  1  0.285751  0.785937  0.154208  1
  O  O12  1  0.285063  0.285063  0.154776  1
