# generated using pymatgen
data_YEr5(AlAu)6
_symmetry_space_group_name_H-M   'P 1'
_cell_length_a   7.38606710
_cell_length_b   7.38633509
_cell_length_c   7.93927300
_cell_angle_alpha   90.00000000
_cell_angle_beta   90.00000000
_cell_angle_gamma   120.04247196
_symmetry_Int_Tables_number   1
_chemical_formula_structural   YEr5(AlAu)6
_chemical_formula_sum   'Y1 Er5 Al6 Au6'
_cell_volume   374.94502527
_cell_formula_units_Z   1
loop_
 _symmetry_equiv_pos_site_id
 _symmetry_equiv_pos_as_xyz
  1  'x, y, z'
loop_
 _atom_site_type_symbol
 _atom_site_label
 _atom_site_symmetry_multiplicity
 _atom_site_fract_x
 _atom_site_fract_y
 _atom_site_fract_z
 _atom_site_occupancy
  Y  Y0  1  0.413466  0.410095  0.250000  1
  Er  Er1  1  0.587429  0.996617  0.750000  1
  Er  Er2  1  0.003470  0.590818  0.750000  1
  Er  Er3  1  0.409796  0.413006  0.750000  1
  Er  Er4  1  0.996774  0.586719  0.250000  1
  Er  Er5  1  0.590007  0.003417  0.250000  1
  Al  Al6  1  0.752094  0.752075  0.999070  1
  Al  Al7  1  0.247638  0.999727  0.999668  1
  Al  Al8  1  0.999781  0.247680  0.999650  1
  Al  Al9  1  0.752094  0.752075  0.500930  1
  Al  Al10  1  0.247638  0.999727  0.500332  1
  Al  Al11  1  0.999781  0.247680  0.500350  1
  Au  Au12  1  0.999720  0.999687  0.750000  1
  Au  Au13  1  0.997822  0.997892  0.250000  1
  Au  Au14  1  0.668288  0.333024  0.993475  1
  Au  Au15  1  0.668288  0.333024  0.506525  1
  Au  Au16  1  0.332956  0.668369  0.497015  1
  Au  Au17  1  0.332956  0.668369  0.002985  1
