# generated using pymatgen
data_Ba2Sr(ZnAs2)2
_symmetry_space_group_name_H-M   'P 1'
_cell_length_a   8.62207756
_cell_length_b   8.62207698
_cell_length_c   7.04121721
_cell_angle_alpha   69.43422625
_cell_angle_beta   69.43422934
_cell_angle_gamma   30.72062313
_symmetry_Int_Tables_number   1
_chemical_formula_structural   Ba2Sr(ZnAs2)2
_chemical_formula_sum   'Ba2 Sr1 Zn2 As4'
_cell_volume   249.02840110
_cell_formula_units_Z   1
loop_
 _symmetry_equiv_pos_site_id
 _symmetry_equiv_pos_as_xyz
  1  'x, y, z'
loop_
 _atom_site_type_symbol
 _atom_site_label
 _atom_site_symmetry_multiplicity
 _atom_site_fract_x
 _atom_site_fract_y
 _atom_site_fract_z
 _atom_site_occupancy
  Ba  Ba0  1  0.145136  0.145136  0.412898  1
  Ba  Ba1  1  0.854864  0.854864  0.587102  1
  Sr  Sr2  1  0.000000  0.000000  0.000000  1
  Zn  Zn3  1  0.331032  0.331032  0.964042  1
  Zn  Zn4  1  0.668968  0.668968  0.035958  1
  As  As5  1  0.202242  0.202242  0.836852  1
  As  As6  1  0.797758  0.797758  0.163148  1
  As  As7  1  0.490025  0.490025  0.688540  1
  As  As8  1  0.509975  0.509975  0.311460  1
