# generated using pymatgen
data_Pr12Nd4Cd4Os3Pt
_symmetry_space_group_name_H-M   'P 1'
_cell_length_a   9.98087320
_cell_length_b   10.04009786
_cell_length_c   10.04009700
_cell_angle_alpha   59.99999952
_cell_angle_beta   59.80351560
_cell_angle_gamma   59.80351861
_symmetry_Int_Tables_number   1
_chemical_formula_structural   Pr12Nd4Cd4Os3Pt
_chemical_formula_sum   'Pr12 Nd4 Cd4 Os3 Pt1'
_cell_volume   709.30529923
_cell_formula_units_Z   1
loop_
 _symmetry_equiv_pos_site_id
 _symmetry_equiv_pos_as_xyz
  1  'x, y, z'
loop_
 _atom_site_type_symbol
 _atom_site_label
 _atom_site_symmetry_multiplicity
 _atom_site_fract_x
 _atom_site_fract_y
 _atom_site_fract_z
 _atom_site_occupancy
  Pr  Pr0  1  0.813767  0.191406  0.191406  1
  Pr  Pr1  1  0.190717  0.809898  0.809898  1
  Pr  Pr2  1  0.190717  0.809898  0.189487  1
  Pr  Pr3  1  0.813767  0.191406  0.803422  1
  Pr  Pr4  1  0.190717  0.189487  0.809898  1
  Pr  Pr5  1  0.813767  0.803422  0.191406  1
  Pr  Pr6  1  0.938558  0.560899  0.560899  1
  Pr  Pr7  1  0.556672  0.939432  0.939432  1
  Pr  Pr8  1  0.556672  0.939432  0.564464  1
  Pr  Pr9  1  0.938558  0.560899  0.939643  1
  Pr  Pr10  1  0.556672  0.564464  0.939432  1
  Pr  Pr11  1  0.938558  0.939643  0.560899  1
  Nd  Nd12  1  0.343198  0.349044  0.349044  1
  Nd  Nd13  1  0.343198  0.349044  0.958715  1
  Nd  Nd14  1  0.343198  0.958715  0.349044  1
  Nd  Nd15  1  0.964510  0.345163  0.345163  1
  Cd  Cd16  1  0.579189  0.579735  0.579735  1
  Cd  Cd17  1  0.579189  0.579735  0.261340  1
  Cd  Cd18  1  0.579189  0.261340  0.579735  1
  Cd  Cd19  1  0.261377  0.579541  0.579541  1
  Os  Os20  1  0.143721  0.138307  0.138307  1
  Os  Os21  1  0.143721  0.138307  0.579666  1
  Os  Os22  1  0.143721  0.579666  0.138307  1
  Pt  Pt23  1  0.576646  0.141118  0.141118  1
