# generated using pymatgen
data_Tb4Cu2PtRh
_symmetry_space_group_name_H-M   'P 1'
_cell_length_a   4.39491200
_cell_length_b   5.58851867
_cell_length_c   7.12610905
_cell_angle_alpha   90.08775164
_cell_angle_beta   90.00000000
_cell_angle_gamma   90.00000000
_symmetry_Int_Tables_number   1
_chemical_formula_structural   Tb4Cu2PtRh
_chemical_formula_sum   'Tb4 Cu2 Pt1 Rh1'
_cell_volume   175.02449947
_cell_formula_units_Z   1
loop_
 _symmetry_equiv_pos_site_id
 _symmetry_equiv_pos_as_xyz
  1  'x, y, z'
loop_
 _atom_site_type_symbol
 _atom_site_label
 _atom_site_symmetry_multiplicity
 _atom_site_fract_x
 _atom_site_fract_y
 _atom_site_fract_z
 _atom_site_occupancy
  Tb  Tb0  1  0.000000  0.115788  0.679747  1
  Tb  Tb1  1  0.000000  0.884519  0.185149  1
  Tb  Tb2  1  0.500000  0.396216  0.320610  1
  Tb  Tb3  1  0.500000  0.606544  0.813008  1
  Cu  Cu4  1  0.500000  0.890237  0.463464  1
  Cu  Cu5  1  0.500000  0.110129  0.964300  1
  Pt  Pt6  1  0.000000  0.385036  0.036996  1
  Rh  Rh7  1  0.000000  0.611532  0.536727  1
