# generated using pymatgen
data_PaNbFe4P3
_symmetry_space_group_name_H-M   'P 1'
_cell_length_a   3.68937200
_cell_length_b   10.55386700
_cell_length_c   12.20586600
_cell_angle_alpha   90.00000000
_cell_angle_beta   90.00000000
_cell_angle_gamma   90.00000000
_symmetry_Int_Tables_number   1
_chemical_formula_structural   PaNbFe4P3
_chemical_formula_sum   'Pa4 Nb4 Fe16 P12'
_cell_volume   475.26153037
_cell_formula_units_Z   4
loop_
 _symmetry_equiv_pos_site_id
 _symmetry_equiv_pos_as_xyz
  1  'x, y, z'
loop_
 _atom_site_type_symbol
 _atom_site_label
 _atom_site_symmetry_multiplicity
 _atom_site_fract_x
 _atom_site_fract_y
 _atom_site_fract_z
 _atom_site_occupancy
  Pa  Pa0  1  0.250000  0.581141  0.709093  1
  Pa  Pa1  1  0.250000  0.918859  0.209093  1
  Pa  Pa2  1  0.750000  0.418859  0.290907  1
  Pa  Pa3  1  0.750000  0.081141  0.790907  1
  Nb  Nb4  1  0.250000  0.702117  0.996169  1
  Nb  Nb5  1  0.250000  0.797883  0.496169  1
  Nb  Nb6  1  0.750000  0.297883  0.003831  1
  Nb  Nb7  1  0.750000  0.202117  0.503831  1
  Fe  Fe8  1  0.250000  0.410178  0.480514  1
  Fe  Fe9  1  0.250000  0.089823  0.980514  1
  Fe  Fe10  1  0.750000  0.589822  0.519486  1
  Fe  Fe11  1  0.750000  0.910178  0.019486  1
  Fe  Fe12  1  0.250000  0.218305  0.169594  1
  Fe  Fe13  1  0.250000  0.281695  0.669594  1
  Fe  Fe14  1  0.750000  0.781695  0.830406  1
  Fe  Fe15  1  0.750000  0.718305  0.330406  1
  Fe  Fe16  1  0.250000  0.889226  0.703861  1
  Fe  Fe17  1  0.250000  0.610774  0.203861  1
  Fe  Fe18  1  0.750000  0.110774  0.296139  1
  Fe  Fe19  1  0.750000  0.389226  0.796139  1
  Fe  Fe20  1  0.250000  0.466553  0.931568  1
  Fe  Fe21  1  0.250000  0.033447  0.431568  1
  Fe  Fe22  1  0.750000  0.533447  0.068432  1
  Fe  Fe23  1  0.750000  0.966553  0.568432  1
  P  P24  1  0.250000  0.422573  0.111344  1
  P  P25  1  0.250000  0.077427  0.611344  1
  P  P26  1  0.750000  0.577427  0.888656  1
  P  P27  1  0.750000  0.922573  0.388656  1
  P  P28  1  0.250000  0.278187  0.852012  1
  P  P29  1  0.250000  0.221813  0.352012  1
  P  P30  1  0.750000  0.721813  0.147988  1
  P  P31  1  0.750000  0.778187  0.647988  1
  P  P32  1  0.250000  0.597145  0.386747  1
  P  P33  1  0.250000  0.902855  0.886747  1
  P  P34  1  0.750000  0.402855  0.613253  1
  P  P35  1  0.750000  0.097145  0.113253  1
