# generated using pymatgen
data_LaHo2Ga2Co9B4
_symmetry_space_group_name_H-M   'P 1'
_cell_length_a   5.18529084
_cell_length_b   5.17728700
_cell_length_c   9.59215000
_cell_angle_alpha   89.99949346
_cell_angle_beta   90.00071253
_cell_angle_gamma   119.97742998
_symmetry_Int_Tables_number   1
_chemical_formula_structural   LaHo2Ga2Co9B4
_chemical_formula_sum   'La1 Ho2 Ga2 Co9 B4'
_cell_volume   223.05947812
_cell_formula_units_Z   1
loop_
 _symmetry_equiv_pos_site_id
 _symmetry_equiv_pos_as_xyz
  1  'x, y, z'
loop_
 _atom_site_type_symbol
 _atom_site_label
 _atom_site_symmetry_multiplicity
 _atom_site_fract_x
 _atom_site_fract_y
 _atom_site_fract_z
 _atom_site_occupancy
  La  La0  1  0.999980  0.999980  0.000213  1
  Ho  Ho1  1  0.000001  0.000008  0.342012  1
  Ho  Ho2  1  0.999999  0.000003  0.658135  1
  Ga  Ga3  1  0.333810  0.666916  0.999945  1
  Ga  Ga4  1  0.666152  0.333049  0.999948  1
  Co  Co5  1  0.499998  0.000003  0.499985  1
  Co  Co6  1  0.499998  0.500003  0.499987  1
  Co  Co7  1  0.999997  0.500002  0.499981  1
  Co  Co8  1  0.499992  0.000002  0.210735  1
  Co  Co9  1  0.499992  0.500004  0.210801  1
  Co  Co10  1  0.999992  0.500004  0.210817  1
  Co  Co11  1  0.499998  0.000002  0.789240  1
  Co  Co12  1  0.500001  0.500003  0.789131  1
  Co  Co13  1  0.999999  0.500002  0.789137  1
  B  B14  1  0.333383  0.666914  0.350749  1
  B  B15  1  0.666608  0.333094  0.350748  1
  B  B16  1  0.666692  0.333109  0.649219  1
  B  B17  1  0.333306  0.666899  0.649219  1
