# generated using pymatgen
data_Pr4YHoSi4
_symmetry_space_group_name_H-M   'P 1'
_cell_length_a   7.65249900
_cell_length_b   7.65249900
_cell_length_c   4.44447600
_cell_angle_alpha   90.00000000
_cell_angle_beta   90.00000000
_cell_angle_gamma   90.00000000
_symmetry_Int_Tables_number   1
_chemical_formula_structural   Pr4YHoSi4
_chemical_formula_sum   'Pr4 Y1 Ho1 Si4'
_cell_volume   260.27180767
_cell_formula_units_Z   1
loop_
 _symmetry_equiv_pos_site_id
 _symmetry_equiv_pos_as_xyz
  1  'x, y, z'
loop_
 _atom_site_type_symbol
 _atom_site_label
 _atom_site_symmetry_multiplicity
 _atom_site_fract_x
 _atom_site_fract_y
 _atom_site_fract_z
 _atom_site_occupancy
  Pr  Pr0  1  0.677243  0.177696  0.500000  1
  Pr  Pr1  1  0.322757  0.822304  0.500000  1
  Pr  Pr2  1  0.177696  0.322757  0.500000  1
  Pr  Pr3  1  0.822304  0.677243  0.500000  1
  Y  Y4  1  0.000000  0.000000  0.000000  1
  Ho  Ho5  1  0.500000  0.500000  0.000000  1
  Si  Si6  1  0.113379  0.613184  0.000000  1
  Si  Si7  1  0.886621  0.386816  0.000000  1
  Si  Si8  1  0.613184  0.886621  0.000000  1
  Si  Si9  1  0.386816  0.113379  0.000000  1
