# generated using pymatgen
data_Dy3Er(Ga2Ag)4
_symmetry_space_group_name_H-M   'P 1'
_cell_length_a   4.38140100
_cell_length_b   6.94748002
_cell_length_c   10.25886637
_cell_angle_alpha   89.95841770
_cell_angle_beta   90.00000000
_cell_angle_gamma   90.00000000
_symmetry_Int_Tables_number   1
_chemical_formula_structural   Dy3Er(Ga2Ag)4
_chemical_formula_sum   'Dy3 Er1 Ga8 Ag4'
_cell_volume   312.27669046
_cell_formula_units_Z   1
loop_
 _symmetry_equiv_pos_site_id
 _symmetry_equiv_pos_as_xyz
  1  'x, y, z'
loop_
 _atom_site_type_symbol
 _atom_site_label
 _atom_site_symmetry_multiplicity
 _atom_site_fract_x
 _atom_site_fract_y
 _atom_site_fract_z
 _atom_site_occupancy
  Dy  Dy0  1  0.250000  0.779455  0.825302  1
  Dy  Dy1  1  0.750000  0.220917  0.174052  1
  Dy  Dy2  1  0.750000  0.720785  0.326239  1
  Er  Er3  1  0.250000  0.278695  0.674178  1
  Ga  Ga4  1  0.250000  0.702055  0.536370  1
  Ga  Ga5  1  0.750000  0.298413  0.463620  1
  Ga  Ga6  1  0.750000  0.796291  0.037026  1
  Ga  Ga7  1  0.250000  0.202076  0.963299  1
  Ga  Ga8  1  0.250000  0.927968  0.154334  1
  Ga  Ga9  1  0.750000  0.071828  0.846988  1
  Ga  Ga10  1  0.750000  0.570716  0.653042  1
  Ga  Ga11  1  0.250000  0.428350  0.345667  1
  Ag  Ag12  1  0.250000  0.543915  0.096220  1
  Ag  Ag13  1  0.750000  0.456044  0.902195  1
  Ag  Ag14  1  0.750000  0.957520  0.597514  1
  Ag  Ag15  1  0.250000  0.044970  0.403957  1
