# generated using pymatgen
data_Er12GaCo2Ni2Sn
_symmetry_space_group_name_H-M   'P 1'
_cell_length_a   8.27434534
_cell_length_b   8.27434435
_cell_length_c   8.27434567
_cell_angle_alpha   111.96731824
_cell_angle_beta   109.80204211
_cell_angle_gamma   106.68745825
_symmetry_Int_Tables_number   1
_chemical_formula_structural   Er12GaCo2Ni2Sn
_chemical_formula_sum   'Er12 Ga1 Co2 Ni2 Sn1'
_cell_volume   435.16176729
_cell_formula_units_Z   1
loop_
 _symmetry_equiv_pos_site_id
 _symmetry_equiv_pos_as_xyz
  1  'x, y, z'
loop_
 _atom_site_type_symbol
 _atom_site_label
 _atom_site_symmetry_multiplicity
 _atom_site_fract_x
 _atom_site_fract_y
 _atom_site_fract_z
 _atom_site_occupancy
  Er  Er0  1  0.319525  0.130069  0.810543  1
  Er  Er1  1  0.680475  0.491020  0.810543  1
  Er  Er2  1  0.432271  0.732207  0.700064  1
  Er  Er3  1  0.567729  0.267793  0.299936  1
  Er  Er4  1  0.967856  0.267793  0.700064  1
  Er  Er5  1  0.032144  0.732207  0.299936  1
  Er  Er6  1  0.319525  0.508980  0.189457  1
  Er  Er7  1  0.680475  0.869931  0.189457  1
  Er  Er8  1  0.181164  0.785260  0.966423  1
  Er  Er9  1  0.818836  0.785260  0.604096  1
  Er  Er10  1  0.181164  0.214740  0.395904  1
  Er  Er11  1  0.818836  0.214740  0.033577  1
  Ga  Ga12  1  0.000000  0.500000  0.500000  1
  Co  Co13  1  0.885787  0.885787  0.000000  1
  Co  Co14  1  0.114213  0.114213  0.000000  1
  Ni  Ni15  1  0.650037  0.500000  0.150037  1
  Ni  Ni16  1  0.349963  0.500000  0.849963  1
  Sn  Sn17  1  0.500000  0.000000  0.500000  1
