# generated using pymatgen
data_Y6FeCo15(P6Os)2
_symmetry_space_group_name_H-M   'P 1'
_cell_length_a   3.71960200
_cell_length_b   10.52605400
_cell_length_c   12.21943800
_cell_angle_alpha   90.00000000
_cell_angle_beta   90.00000000
_cell_angle_gamma   90.00000000
_symmetry_Int_Tables_number   1
_chemical_formula_structural   Y6FeCo15(P6Os)2
_chemical_formula_sum   'Y6 Fe1 Co15 P12 Os2'
_cell_volume   478.42437522
_cell_formula_units_Z   1
loop_
 _symmetry_equiv_pos_site_id
 _symmetry_equiv_pos_as_xyz
  1  'x, y, z'
loop_
 _atom_site_type_symbol
 _atom_site_label
 _atom_site_symmetry_multiplicity
 _atom_site_fract_x
 _atom_site_fract_y
 _atom_site_fract_z
 _atom_site_occupancy
  Y  Y0  1  0.000000  0.500000  0.523990  1
  Y  Y1  1  0.500000  0.000000  0.475109  1
  Y  Y2  1  0.500000  0.816897  0.206262  1
  Y  Y3  1  0.500000  0.183103  0.206262  1
  Y  Y4  1  0.000000  0.681716  0.794776  1
  Y  Y5  1  0.000000  0.318284  0.794776  1
  Fe  Fe6  1  0.000000  0.500000  0.988585  1
  Co  Co7  1  0.500000  0.500000  0.702272  1
  Co  Co8  1  0.000000  0.000000  0.297375  1
  Co  Co9  1  0.500000  0.000000  0.013207  1
  Co  Co10  1  0.500000  0.331011  0.990636  1
  Co  Co11  1  0.500000  0.668989  0.990636  1
  Co  Co12  1  0.000000  0.166474  0.009611  1
  Co  Co13  1  0.000000  0.833526  0.009611  1
  Co  Co14  1  0.500000  0.297011  0.430921  1
  Co  Co15  1  0.500000  0.702989  0.430921  1
  Co  Co16  1  0.000000  0.202951  0.569342  1
  Co  Co17  1  0.000000  0.797049  0.569342  1
  Co  Co18  1  0.500000  0.879495  0.708925  1
  Co  Co19  1  0.500000  0.120505  0.708925  1
  Co  Co20  1  0.000000  0.620576  0.290958  1
  Co  Co21  1  0.000000  0.379424  0.290958  1
  P  P22  1  0.500000  0.500000  0.882292  1
  P  P23  1  0.000000  0.000000  0.119469  1
  P  P24  1  0.500000  0.500000  0.349013  1
  P  P25  1  0.000000  0.000000  0.649765  1
  P  P26  1  0.500000  0.311197  0.616302  1
  P  P27  1  0.500000  0.688803  0.616302  1
  P  P28  1  0.000000  0.188833  0.383739  1
  P  P29  1  0.000000  0.811167  0.383739  1
  P  P30  1  0.500000  0.846845  0.893398  1
  P  P31  1  0.500000  0.153155  0.893398  1
  P  P32  1  0.000000  0.653693  0.105702  1
  P  P33  1  0.000000  0.346307  0.105702  1
  Os  Os34  1  0.500000  0.500000  0.156799  1
  Os  Os35  1  0.000000  0.000000  0.840982  1
