# generated using pymatgen
data_YTh2In3Ir2Rh
_symmetry_space_group_name_H-M   'P 1'
_cell_length_a   7.66211400
_cell_length_b   7.76198394
_cell_length_c   3.93330300
_cell_angle_alpha   90.00000000
_cell_angle_beta   90.00000000
_cell_angle_gamma   119.57528296
_symmetry_Int_Tables_number   1
_chemical_formula_structural   YTh2In3Ir2Rh
_chemical_formula_sum   'Y1 Th2 In3 Ir2 Rh1'
_cell_volume   203.44741844
_cell_formula_units_Z   1
loop_
 _symmetry_equiv_pos_site_id
 _symmetry_equiv_pos_as_xyz
  1  'x, y, z'
loop_
 _atom_site_type_symbol
 _atom_site_label
 _atom_site_symmetry_multiplicity
 _atom_site_fract_x
 _atom_site_fract_y
 _atom_site_fract_z
 _atom_site_occupancy
  Y  Y0  1  0.591021  0.000000  0.500000  1
  Th  Th1  1  0.997340  0.585269  0.500000  1
  Th  Th2  1  0.412072  0.414731  0.500000  1
  In  In3  1  0.985649  0.238229  0.000000  1
  In  In4  1  0.267567  0.000000  0.000000  1
  In  In5  1  0.747420  0.761771  0.000000  1
  Ir  Ir6  1  0.315357  0.645654  0.000000  1
  Ir  Ir7  1  0.669704  0.354346  0.000000  1
  Rh  Rh8  1  0.013872  0.000000  0.500000  1
