# generated using pymatgen
data_Tb2Dy10Os3Ru
_symmetry_space_group_name_H-M   'P 1'
_cell_length_a   6.33208801
_cell_length_b   7.37098240
_cell_length_c   9.12636300
_cell_angle_alpha   90.00000000
_cell_angle_beta   90.00000000
_cell_angle_gamma   90.04389372
_symmetry_Int_Tables_number   1
_chemical_formula_structural   Tb2Dy10Os3Ru
_chemical_formula_sum   'Tb2 Dy10 Os3 Ru1'
_cell_volume   425.96108800
_cell_formula_units_Z   1
loop_
 _symmetry_equiv_pos_site_id
 _symmetry_equiv_pos_as_xyz
  1  'x, y, z'
loop_
 _atom_site_type_symbol
 _atom_site_label
 _atom_site_symmetry_multiplicity
 _atom_site_fract_x
 _atom_site_fract_y
 _atom_site_fract_z
 _atom_site_occupancy
  Tb  Tb0  1  0.868780  0.539571  0.250000  1
  Tb  Tb1  1  0.632577  0.038603  0.250000  1
  Dy  Dy2  1  0.331471  0.675155  0.062659  1
  Dy  Dy3  1  0.169288  0.175869  0.436721  1
  Dy  Dy4  1  0.669743  0.324335  0.563278  1
  Dy  Dy5  1  0.829519  0.824062  0.935557  1
  Dy  Dy6  1  0.669743  0.324335  0.936722  1
  Dy  Dy7  1  0.829519  0.824062  0.564443  1
  Dy  Dy8  1  0.331471  0.675155  0.437341  1
  Dy  Dy9  1  0.169288  0.175869  0.063279  1
  Dy  Dy10  1  0.131560  0.461536  0.750000  1
  Dy  Dy11  1  0.368442  0.961693  0.750000  1
  Os  Os12  1  0.459675  0.383814  0.250000  1
  Os  Os13  1  0.960219  0.115820  0.750000  1
  Os  Os14  1  0.540036  0.616205  0.750000  1
  Ru  Ru15  1  0.038669  0.883914  0.250000  1
