# generated using pymatgen
data_Y3Ho9(TcPd)2
_symmetry_space_group_name_H-M   'P 1'
_cell_length_a   6.37890693
_cell_length_b   7.37687809
_cell_length_c   9.18811300
_cell_angle_alpha   90.00000000
_cell_angle_beta   90.00000000
_cell_angle_gamma   90.04845549
_symmetry_Int_Tables_number   1
_chemical_formula_structural   Y3Ho9(TcPd)2
_chemical_formula_sum   'Y3 Ho9 Tc2 Pd2'
_cell_volume   432.35953814
_cell_formula_units_Z   1
loop_
 _symmetry_equiv_pos_site_id
 _symmetry_equiv_pos_as_xyz
  1  'x, y, z'
loop_
 _atom_site_type_symbol
 _atom_site_label
 _atom_site_symmetry_multiplicity
 _atom_site_fract_x
 _atom_site_fract_y
 _atom_site_fract_z
 _atom_site_occupancy
  Y  Y0  1  0.372075  0.962344  0.750000  1
  Y  Y1  1  0.122733  0.469305  0.750000  1
  Y  Y2  1  0.876871  0.530202  0.250000  1
  Ho  Ho3  1  0.628674  0.039025  0.250000  1
  Ho  Ho4  1  0.177720  0.185655  0.064819  1
  Ho  Ho5  1  0.822566  0.814485  0.935655  1
  Ho  Ho6  1  0.660629  0.326614  0.940732  1
  Ho  Ho7  1  0.822566  0.814485  0.564345  1
  Ho  Ho8  1  0.339497  0.673297  0.059750  1
  Ho  Ho9  1  0.177720  0.185655  0.435181  1
  Ho  Ho10  1  0.339497  0.673297  0.440250  1
  Ho  Ho11  1  0.660629  0.326614  0.559268  1
  Tc  Tc12  1  0.463906  0.381962  0.250000  1
  Tc  Tc13  1  0.537609  0.616377  0.750000  1
  Pd  Pd14  1  0.945319  0.111681  0.750000  1
  Pd  Pd15  1  0.051988  0.889004  0.250000  1
