# generated using pymatgen
data_HoSi3AsRh6
_symmetry_space_group_name_H-M   'P 1'
_cell_length_a   7.10618828
_cell_length_b   7.10618907
_cell_length_c   3.77840200
_cell_angle_alpha   90.00000000
_cell_angle_beta   90.00000000
_cell_angle_gamma   120.00372500
_symmetry_Int_Tables_number   1
_chemical_formula_structural   HoSi3AsRh6
_chemical_formula_sum   'Ho1 Si3 As1 Rh6'
_cell_volume   165.23268481
_cell_formula_units_Z   1
loop_
 _symmetry_equiv_pos_site_id
 _symmetry_equiv_pos_as_xyz
  1  'x, y, z'
loop_
 _atom_site_type_symbol
 _atom_site_label
 _atom_site_symmetry_multiplicity
 _atom_site_fract_x
 _atom_site_fract_y
 _atom_site_fract_z
 _atom_site_occupancy
  Ho  Ho0  1  0.004848  0.995152  0.000000  1
  Si  Si1  1  0.799686  0.604810  0.500000  1
  Si  Si2  1  0.333305  0.666695  0.000000  1
  Si  Si3  1  0.395190  0.200314  0.500000  1
  As  As4  1  0.807113  0.192887  0.500000  1
  Rh  Rh5  1  0.523996  0.064120  0.000000  1
  Rh  Rh6  1  0.599339  0.795862  0.500000  1
  Rh  Rh7  1  0.204138  0.400661  0.500000  1
  Rh  Rh8  1  0.533762  0.466238  0.000000  1
  Rh  Rh9  1  0.196079  0.803921  0.500000  1
  Rh  Rh10  1  0.935880  0.476004  0.000000  1
