# generated using pymatgen
data_Ca7Ce(MgSn3)2
_symmetry_space_group_name_H-M   'P 1'
_cell_length_a   9.22157680
_cell_length_b   9.22162644
_cell_length_c   9.19800793
_cell_angle_alpha   96.67133914
_cell_angle_beta   96.08763207
_cell_angle_gamma   141.10999386
_symmetry_Int_Tables_number   1
_chemical_formula_structural   Ca7Ce(MgSn3)2
_chemical_formula_sum   'Ca7 Ce1 Mg2 Sn6'
_cell_volume   462.90588058
_cell_formula_units_Z   1
loop_
 _symmetry_equiv_pos_site_id
 _symmetry_equiv_pos_as_xyz
  1  'x, y, z'
loop_
 _atom_site_type_symbol
 _atom_site_label
 _atom_site_symmetry_multiplicity
 _atom_site_fract_x
 _atom_site_fract_y
 _atom_site_fract_z
 _atom_site_occupancy
  Ca  Ca0  1  0.916898  0.783232  0.700128  1
  Ca  Ca1  1  0.781470  0.082078  0.863547  1
  Ca  Ca2  1  0.413762  0.716217  0.129979  1
  Ca  Ca3  1  0.215372  0.916281  0.131651  1
  Ca  Ca4  1  0.580504  0.284334  0.864837  1
  Ca  Ca5  1  0.718130  0.578377  0.296508  1
  Ca  Ca6  1  0.286730  0.421060  0.707790  1
  Ce  Ce7  1  0.085656  0.219136  0.304794  1
  Mg  Mg8  1  0.251024  0.749812  0.502003  1
  Mg  Mg9  1  0.752194  0.250983  0.502006  1
  Sn  Sn10  1  0.150856  0.652642  0.803498  1
  Sn  Sn11  1  0.852465  0.344932  0.197397  1
  Sn  Sn12  1  0.343085  0.150847  0.493929  1
  Sn  Sn13  1  0.650318  0.842854  0.493173  1
  Sn  Sn14  1  0.246721  0.249568  0.004370  1
  Sn  Sn15  1  0.754816  0.757647  0.004389  1
