# generated using pymatgen
data_LaPa(AsRh)2
_symmetry_space_group_name_H-M   'P 1'
_cell_length_a   4.31000400
_cell_length_b   4.31000367
_cell_length_c   15.63701600
_cell_angle_alpha   90.00000000
_cell_angle_beta   90.00000000
_cell_angle_gamma   120.00001786
_symmetry_Int_Tables_number   1
_chemical_formula_structural   LaPa(AsRh)2
_chemical_formula_sum   'La2 Pa2 As4 Rh4'
_cell_volume   251.55893511
_cell_formula_units_Z   2
loop_
 _symmetry_equiv_pos_site_id
 _symmetry_equiv_pos_as_xyz
  1  'x, y, z'
loop_
 _atom_site_type_symbol
 _atom_site_label
 _atom_site_symmetry_multiplicity
 _atom_site_fract_x
 _atom_site_fract_y
 _atom_site_fract_z
 _atom_site_occupancy
  La  La0  1  0.000000  0.000000  0.000000  1
  La  La1  1  0.000000  0.000000  0.500000  1
  Pa  Pa2  1  0.000000  0.000000  0.250000  1
  Pa  Pa3  1  0.000000  0.000000  0.750000  1
  As  As4  1  0.333333  0.666667  0.622373  1
  As  As5  1  0.666667  0.333333  0.377627  1
  As  As6  1  0.666667  0.333333  0.122373  1
  As  As7  1  0.333333  0.666667  0.877627  1
  Rh  Rh8  1  0.333333  0.666667  0.152279  1
  Rh  Rh9  1  0.666667  0.333333  0.847721  1
  Rh  Rh10  1  0.666667  0.333333  0.652279  1
  Rh  Rh11  1  0.333333  0.666667  0.347721  1
