# generated using pymatgen
data_Ac3NdSe8
_symmetry_space_group_name_H-M   'P 1'
_cell_length_a   8.70202691
_cell_length_b   4.35516290
_cell_length_c   8.83374487
_cell_angle_alpha   90.24585290
_cell_angle_beta   89.85982780
_cell_angle_gamma   89.76641964
_symmetry_Int_Tables_number   1
_chemical_formula_structural   Ac3NdSe8
_chemical_formula_sum   'Ac3 Nd1 Se8'
_cell_volume   334.78096189
_cell_formula_units_Z   1
loop_
 _symmetry_equiv_pos_site_id
 _symmetry_equiv_pos_as_xyz
  1  'x, y, z'
loop_
 _atom_site_type_symbol
 _atom_site_label
 _atom_site_symmetry_multiplicity
 _atom_site_fract_x
 _atom_site_fract_y
 _atom_site_fract_z
 _atom_site_occupancy
  Ac  Ac0  1  0.374967  0.274157  0.276962  1
  Ac  Ac1  1  0.871155  0.224930  0.277528  1
  Ac  Ac2  1  0.127308  0.783009  0.723809  1
  Nd  Nd3  1  0.626764  0.719994  0.724147  1
  Se  Se4  1  0.388843  0.820800  0.996959  1
  Se  Se5  1  0.879603  0.676351  0.998954  1
  Se  Se6  1  0.125561  0.757518  0.366302  1
  Se  Se7  1  0.624695  0.745178  0.372849  1
  Se  Se8  1  0.383505  0.259191  0.637499  1
  Se  Se9  1  0.864904  0.243894  0.637710  1
  Se  Se10  1  0.114294  0.325723  0.997096  1
  Se  Se11  1  0.618401  0.169256  0.990181  1
