# generated using pymatgen
data_Y8Nb9Si16Mo3
_symmetry_space_group_name_H-M   'P 1'
_cell_length_a   6.81512345
_cell_length_b   7.07004910
_cell_length_c   13.37502600
_cell_angle_alpha   90.00000000
_cell_angle_beta   90.00000000
_cell_angle_gamma   90.02772511
_symmetry_Int_Tables_number   1
_chemical_formula_structural   Y8Nb9Si16Mo3
_chemical_formula_sum   'Y8 Nb9 Si16 Mo3'
_cell_volume   644.45224497
_cell_formula_units_Z   1
loop_
 _symmetry_equiv_pos_site_id
 _symmetry_equiv_pos_as_xyz
  1  'x, y, z'
loop_
 _atom_site_type_symbol
 _atom_site_label
 _atom_site_symmetry_multiplicity
 _atom_site_fract_x
 _atom_site_fract_y
 _atom_site_fract_z
 _atom_site_occupancy
  Y  Y0  1  0.502129  0.328408  0.094975  1
  Y  Y1  1  0.002034  0.171768  0.405023  1
  Y  Y2  1  0.497489  0.671823  0.595095  1
  Y  Y3  1  0.997287  0.828253  0.905384  1
  Y  Y4  1  0.497489  0.671823  0.904905  1
  Y  Y5  1  0.997287  0.828253  0.594616  1
  Y  Y6  1  0.502129  0.328408  0.405025  1
  Y  Y7  1  0.002034  0.171768  0.094977  1
  Nb  Nb8  1  0.835228  0.329497  0.625960  1
  Nb  Nb9  1  0.334758  0.171501  0.874341  1
  Nb  Nb10  1  0.165130  0.670116  0.126672  1
  Nb  Nb11  1  0.665884  0.829600  0.372881  1
  Nb  Nb12  1  0.165130  0.670116  0.373328  1
  Nb  Nb13  1  0.665884  0.829600  0.127119  1
  Nb  Nb14  1  0.835228  0.329497  0.874040  1
  Nb  Nb15  1  0.334758  0.171501  0.625659  1
  Nb  Nb16  1  0.660731  0.008903  0.750000  1
  Si  Si17  1  0.662885  0.038770  0.541373  1
  Si  Si18  1  0.162692  0.460327  0.957268  1
  Si  Si19  1  0.337701  0.960591  0.043318  1
  Si  Si20  1  0.837372  0.539564  0.456988  1
  Si  Si21  1  0.337701  0.960591  0.456682  1
  Si  Si22  1  0.837372  0.539564  0.043012  1
  Si  Si23  1  0.662885  0.038770  0.958627  1
  Si  Si24  1  0.162692  0.460327  0.542732  1
  Si  Si25  1  0.534037  0.379701  0.750000  1
  Si  Si26  1  0.038907  0.123106  0.750000  1
  Si  Si27  1  0.464462  0.622341  0.250000  1
  Si  Si28  1  0.965647  0.878473  0.250000  1
  Si  Si29  1  0.798259  0.627105  0.750000  1
  Si  Si30  1  0.293478  0.868359  0.750000  1
  Si  Si31  1  0.201705  0.369947  0.250000  1
  Si  Si32  1  0.701729  0.130602  0.250000  1
  Mo  Mo33  1  0.160227  0.490570  0.750000  1
  Mo  Mo34  1  0.339907  0.991038  0.250000  1
  Mo  Mo35  1  0.839736  0.509420  0.250000  1
