# generated using pymatgen
data_La2ThScSb5
_symmetry_space_group_name_H-M   'P 1'
_cell_length_a   9.59594100
_cell_length_b   9.58938769
_cell_length_c   6.41976800
_cell_angle_alpha   90.00000000
_cell_angle_beta   90.00000000
_cell_angle_gamma   120.02260553
_symmetry_Int_Tables_number   1
_chemical_formula_structural   La2ThScSb5
_chemical_formula_sum   'La4 Th2 Sc2 Sb10'
_cell_volume   511.48092204
_cell_formula_units_Z   2
loop_
 _symmetry_equiv_pos_site_id
 _symmetry_equiv_pos_as_xyz
  1  'x, y, z'
loop_
 _atom_site_type_symbol
 _atom_site_label
 _atom_site_symmetry_multiplicity
 _atom_site_fract_x
 _atom_site_fract_y
 _atom_site_fract_z
 _atom_site_occupancy
  La  La0  1  0.384993  0.000000  0.750000  1
  La  La1  1  0.617447  0.618825  0.750000  1
  La  La2  1  0.620336  0.000000  0.250000  1
  La  La3  1  0.998622  0.381175  0.750000  1
  Th  Th4  1  0.999833  0.619361  0.250000  1
  Th  Th5  1  0.380471  0.380639  0.250000  1
  Sc  Sc6  1  0.999318  0.000000  0.997761  1
  Sc  Sc7  1  0.999318  0.000000  0.502239  1
  Sb  Sb8  1  0.003548  0.264194  0.250000  1
  Sb  Sb9  1  0.329900  0.663352  0.493751  1
  Sb  Sb10  1  0.666549  0.336648  0.006249  1
  Sb  Sb11  1  0.329900  0.663352  0.006249  1
  Sb  Sb12  1  0.263673  0.263090  0.750000  1
  Sb  Sb13  1  0.739508  0.000000  0.750000  1
  Sb  Sb14  1  0.000583  0.736910  0.750000  1
  Sb  Sb15  1  0.739355  0.735806  0.250000  1
  Sb  Sb16  1  0.260092  0.000000  0.250000  1
  Sb  Sb17  1  0.666549  0.336648  0.493751  1
