# generated using pymatgen
data_Dy4YSi12Ir19
_symmetry_space_group_name_H-M   'P 1'
_cell_length_a   12.83189400
_cell_length_b   12.83189831
_cell_length_c   3.98669900
_cell_angle_alpha   90.00000000
_cell_angle_beta   90.00000000
_cell_angle_gamma   120.00001261
_symmetry_Int_Tables_number   1
_chemical_formula_structural   Dy4YSi12Ir19
_chemical_formula_sum   'Dy4 Y1 Si12 Ir19'
_cell_volume   568.49375238
_cell_formula_units_Z   1
loop_
 _symmetry_equiv_pos_site_id
 _symmetry_equiv_pos_as_xyz
  1  'x, y, z'
loop_
 _atom_site_type_symbol
 _atom_site_label
 _atom_site_symmetry_multiplicity
 _atom_site_fract_x
 _atom_site_fract_y
 _atom_site_fract_z
 _atom_site_occupancy
  Dy  Dy0  1  0.333334  0.666667  0.500000  1
  Dy  Dy1  1  0.666666  0.333332  0.500000  1
  Dy  Dy2  1  0.184679  0.184678  0.000000  1
  Dy  Dy3  1  0.815321  0.000000  0.000000  1
  Y  Y4  1  0.000000  0.815315  0.000000  1
  Si  Si5  1  0.000000  0.632453  0.500000  1
  Si  Si6  1  0.367537  0.367537  0.500000  1
  Si  Si7  1  0.632463  0.000000  0.500000  1
  Si  Si8  1  0.518764  0.687492  0.000000  1
  Si  Si9  1  0.312506  0.831270  0.000000  1
  Si  Si10  1  0.168729  0.481238  0.000000  1
  Si  Si11  1  0.481236  0.168728  0.000000  1
  Si  Si12  1  0.687494  0.518764  0.000000  1
  Si  Si13  1  0.831271  0.312509  0.000000  1
  Si  Si14  1  0.000000  0.181684  0.500000  1
  Si  Si15  1  0.818307  0.818315  0.500000  1
  Si  Si16  1  0.181693  0.000008  0.500000  1
  Ir  Ir17  1  0.512546  0.873538  0.000000  1
  Ir  Ir18  1  0.126465  0.639004  0.000000  1
  Ir  Ir19  1  0.360992  0.487455  0.000000  1
  Ir  Ir20  1  0.487454  0.360992  0.000000  1
  Ir  Ir21  1  0.873535  0.512540  0.000000  1
  Ir  Ir22  1  0.639008  0.126463  0.000000  1
  Ir  Ir23  1  0.000000  0.447704  0.500000  1
  Ir  Ir24  1  0.552293  0.552294  0.500000  1
  Ir  Ir25  1  0.447707  0.000001  0.500000  1
  Ir  Ir26  1  0.000000  0.283232  0.000000  1
  Ir  Ir27  1  0.716760  0.716768  0.000000  1
  Ir  Ir28  1  0.283240  0.000008  0.000000  1
  Ir  Ir29  1  0.623071  0.805430  0.500000  1
  Ir  Ir30  1  0.194587  0.817640  0.500000  1
  Ir  Ir31  1  0.182357  0.376928  0.500000  1
  Ir  Ir32  1  0.376929  0.182360  0.500000  1
  Ir  Ir33  1  0.805413  0.623054  0.500000  1
  Ir  Ir34  1  0.817643  0.194572  0.500000  1
  Ir  Ir35  1  0.000000  0.000030  0.500000  1
