# generated using pymatgen
data_La7CeSe12
_symmetry_space_group_name_H-M   'P 1'
_cell_length_a   7.93891800
_cell_length_b   4.30153400
_cell_length_c   16.50444901
_cell_angle_alpha   90.00000000
_cell_angle_beta   90.00284665
_cell_angle_gamma   90.00000000
_symmetry_Int_Tables_number   1
_chemical_formula_structural   La7CeSe12
_chemical_formula_sum   'La7 Ce1 Se12'
_cell_volume   563.61910495
_cell_formula_units_Z   1
loop_
 _symmetry_equiv_pos_site_id
 _symmetry_equiv_pos_as_xyz
  1  'x, y, z'
loop_
 _atom_site_type_symbol
 _atom_site_label
 _atom_site_symmetry_multiplicity
 _atom_site_fract_x
 _atom_site_fract_y
 _atom_site_fract_z
 _atom_site_occupancy
  La  La0  1  0.141747  0.000000  0.205115  1
  La  La1  1  0.643381  0.000000  0.295161  1
  La  La2  1  0.235361  0.500000  0.456231  1
  La  La3  1  0.764851  0.000000  0.543697  1
  La  La4  1  0.356877  0.500000  0.704803  1
  La  La5  1  0.856773  0.500000  0.795163  1
  La  La6  1  0.264975  0.000000  0.956524  1
  Ce  Ce7  1  0.734708  0.500000  0.043211  1
  Se  Se8  1  0.126376  0.500000  0.067110  1
  Se  Se9  1  0.513064  0.000000  0.108242  1
  Se  Se10  1  0.853233  0.500000  0.218168  1
  Se  Se11  1  0.354716  0.500000  0.279938  1
  Se  Se12  1  0.008373  0.000000  0.389880  1
  Se  Se13  1  0.628080  0.500000  0.432577  1
  Se  Se14  1  0.372031  0.000000  0.567443  1
  Se  Se15  1  0.991597  0.500000  0.609980  1
  Se  Se16  1  0.645229  0.000000  0.719993  1
  Se  Se17  1  0.144985  0.000000  0.780740  1
  Se  Se18  1  0.493346  0.500000  0.891527  1
  Se  Se19  1  0.870299  0.000000  0.934496  1
