# generated using pymatgen
data_YHfP7Ru12
_symmetry_space_group_name_H-M   'P 1'
_cell_length_a   9.39591300
_cell_length_b   9.39591281
_cell_length_c   3.91874900
_cell_angle_alpha   90.00000000
_cell_angle_beta   90.00000000
_cell_angle_gamma   119.99999619
_symmetry_Int_Tables_number   1
_chemical_formula_structural   YHfP7Ru12
_chemical_formula_sum   'Y1 Hf1 P7 Ru12'
_cell_volume   299.60983178
_cell_formula_units_Z   1
loop_
 _symmetry_equiv_pos_site_id
 _symmetry_equiv_pos_as_xyz
  1  'x, y, z'
loop_
 _atom_site_type_symbol
 _atom_site_label
 _atom_site_symmetry_multiplicity
 _atom_site_fract_x
 _atom_site_fract_y
 _atom_site_fract_z
 _atom_site_occupancy
  Y  Y0  1  0.333333  0.666667  0.000000  1
  Hf  Hf1  1  0.666667  0.333333  0.500000  1
  P  P2  1  0.599765  0.719411  0.500000  1
  P  P3  1  0.000000  0.000000  0.000000  1
  P  P4  1  0.280589  0.880355  0.500000  1
  P  P5  1  0.119645  0.400235  0.500000  1
  P  P6  1  0.884889  0.573092  0.000000  1
  P  P7  1  0.426908  0.311797  0.000000  1
  P  P8  1  0.688203  0.115111  0.000000  1
  Ru  Ru9  1  0.557601  0.954467  0.500000  1
  Ru  Ru10  1  0.396867  0.442399  0.500000  1
  Ru  Ru11  1  0.913491  0.122581  0.500000  1
  Ru  Ru12  1  0.209089  0.086509  0.500000  1
  Ru  Ru13  1  0.877419  0.790911  0.500000  1
  Ru  Ru14  1  0.726506  0.889927  0.000000  1
  Ru  Ru15  1  0.110073  0.836576  0.000000  1
  Ru  Ru16  1  0.163424  0.273494  0.000000  1
  Ru  Ru17  1  0.428838  0.074374  0.000000  1
  Ru  Ru18  1  0.925626  0.354466  0.000000  1
  Ru  Ru19  1  0.645534  0.571162  0.000000  1
  Ru  Ru20  1  0.045533  0.603133  0.500000  1
