# generated using pymatgen
data_Hf8In4FeCu6Ni
_symmetry_space_group_name_H-M   'P 1'
_cell_length_a   7.19882786
_cell_length_b   7.19882763
_cell_length_c   6.78952801
_cell_angle_alpha   90.09032781
_cell_angle_beta   90.09032665
_cell_angle_gamma   90.59582534
_symmetry_Int_Tables_number   1
_chemical_formula_structural   Hf8In4FeCu6Ni
_chemical_formula_sum   'Hf8 In4 Fe1 Cu6 Ni1'
_cell_volume   351.83462254
_cell_formula_units_Z   1
loop_
 _symmetry_equiv_pos_site_id
 _symmetry_equiv_pos_as_xyz
  1  'x, y, z'
loop_
 _atom_site_type_symbol
 _atom_site_label
 _atom_site_symmetry_multiplicity
 _atom_site_fract_x
 _atom_site_fract_y
 _atom_site_fract_z
 _atom_site_occupancy
  Hf  Hf0  1  0.150357  0.150357  0.008104  1
  Hf  Hf1  1  0.839924  0.839924  0.989974  1
  Hf  Hf2  1  0.652413  0.355678  0.507396  1
  Hf  Hf3  1  0.355678  0.652413  0.507396  1
  Hf  Hf4  1  0.680076  0.326651  0.996297  1
  Hf  Hf5  1  0.326651  0.680076  0.996297  1
  Hf  Hf6  1  0.806156  0.806156  0.509308  1
  Hf  Hf7  1  0.191584  0.191584  0.493141  1
  In  In8  1  0.501994  0.004467  0.248545  1
  In  In9  1  0.498702  0.999349  0.752469  1
  In  In10  1  0.004467  0.501994  0.248545  1
  In  In11  1  0.999349  0.498702  0.752469  1
  Fe  Fe12  1  0.622229  0.622229  0.768722  1
  Cu  Cu13  1  0.626139  0.626139  0.211186  1
  Cu  Cu14  1  0.878386  0.124814  0.710707  1
  Cu  Cu15  1  0.873750  0.122460  0.289784  1
  Cu  Cu16  1  0.368920  0.368920  0.792083  1
  Cu  Cu17  1  0.122460  0.873750  0.289784  1
  Cu  Cu18  1  0.124814  0.878386  0.710707  1
  Ni  Ni19  1  0.375951  0.375951  0.217088  1
