# generated using pymatgen
data_YbEr(Ni5Sn)2
_symmetry_space_group_name_H-M   'P 1'
_cell_length_a   4.83071700
_cell_length_b   7.98854200
_cell_length_c   10.20230600
_cell_angle_alpha   90.00000000
_cell_angle_beta   90.00000000
_cell_angle_gamma   90.00000000
_symmetry_Int_Tables_number   1
_chemical_formula_structural   YbEr(Ni5Sn)2
_chemical_formula_sum   'Yb2 Er2 Ni20 Sn4'
_cell_volume   393.71092300
_cell_formula_units_Z   2
loop_
 _symmetry_equiv_pos_site_id
 _symmetry_equiv_pos_as_xyz
  1  'x, y, z'
loop_
 _atom_site_type_symbol
 _atom_site_label
 _atom_site_symmetry_multiplicity
 _atom_site_fract_x
 _atom_site_fract_y
 _atom_site_fract_z
 _atom_site_occupancy
  Yb  Yb0  1  0.750000  0.746137  0.940843  1
  Yb  Yb1  1  0.250000  0.753863  0.440843  1
  Er  Er2  1  0.750000  0.247364  0.560218  1
  Er  Er3  1  0.250000  0.252636  0.060218  1
  Ni  Ni4  1  0.750000  0.912606  0.482059  1
  Ni  Ni5  1  0.250000  0.587394  0.982059  1
  Ni  Ni6  1  0.750000  0.414332  0.016482  1
  Ni  Ni7  1  0.250000  0.085668  0.516482  1
  Ni  Ni8  1  0.250000  0.188650  0.742965  1
  Ni  Ni9  1  0.750000  0.311350  0.242965  1
  Ni  Ni10  1  0.250000  0.688727  0.756891  1
  Ni  Ni11  1  0.750000  0.811273  0.256891  1
  Ni  Ni12  1  0.750000  0.547490  0.400463  1
  Ni  Ni13  1  0.250000  0.952510  0.900463  1
  Ni  Ni14  1  0.750000  0.048668  0.100140  1
  Ni  Ni15  1  0.250000  0.451332  0.600140  1
  Ni  Ni16  1  0.498101  0.065730  0.309505  1
  Ni  Ni17  1  0.501899  0.434270  0.809505  1
  Ni  Ni18  1  0.001378  0.565463  0.190083  1
  Ni  Ni19  1  0.998622  0.934537  0.690083  1
  Ni  Ni20  1  0.501378  0.934537  0.690083  1
  Ni  Ni21  1  0.498622  0.565463  0.190083  1
  Ni  Ni22  1  0.998101  0.434270  0.809505  1
  Ni  Ni23  1  0.001899  0.065730  0.309505  1
  Sn  Sn24  1  0.750000  0.641132  0.639266  1
  Sn  Sn25  1  0.250000  0.858868  0.139266  1
  Sn  Sn26  1  0.750000  0.137818  0.861499  1
  Sn  Sn27  1  0.250000  0.362182  0.361499  1
