# generated using pymatgen
data_Li4Cd3SbPd8
_symmetry_space_group_name_H-M   'P 1'
_cell_length_a   5.88541500
_cell_length_b   5.88586001
_cell_length_c   7.39657000
_cell_angle_alpha   90.00011263
_cell_angle_beta   89.99986214
_cell_angle_gamma   90.00224858
_symmetry_Int_Tables_number   1
_chemical_formula_structural   Li4Cd3SbPd8
_chemical_formula_sum   'Li4 Cd3 Sb1 Pd8'
_cell_volume   256.22257523
_cell_formula_units_Z   1
loop_
 _symmetry_equiv_pos_site_id
 _symmetry_equiv_pos_as_xyz
  1  'x, y, z'
loop_
 _atom_site_type_symbol
 _atom_site_label
 _atom_site_symmetry_multiplicity
 _atom_site_fract_x
 _atom_site_fract_y
 _atom_site_fract_z
 _atom_site_occupancy
  Li  Li0  1  0.750004  0.250017  0.999998  1
  Li  Li1  1  0.249995  0.749981  0.999996  1
  Li  Li2  1  0.250006  0.749982  0.500004  1
  Li  Li3  1  0.749993  0.250021  0.500002  1
  Cd  Cd4  1  0.750018  0.750004  0.999999  1
  Cd  Cd5  1  0.749983  0.750005  0.500001  1
  Cd  Cd6  1  0.250020  0.249997  0.500000  1
  Sb  Sb7  1  0.249989  0.249994  0.999999  1
  Pd  Pd8  1  0.498272  0.001732  0.243228  1
  Pd  Pd9  1  0.498277  0.498273  0.243231  1
  Pd  Pd10  1  0.001728  0.001730  0.243249  1
  Pd  Pd11  1  0.001729  0.498265  0.243245  1
  Pd  Pd12  1  0.001725  0.001735  0.756748  1
  Pd  Pd13  1  0.001725  0.498265  0.756750  1
  Pd  Pd14  1  0.498269  0.001732  0.756776  1
  Pd  Pd15  1  0.498267  0.498272  0.756773  1
