# generated using pymatgen
data_Ba2SmPaSe6
_symmetry_space_group_name_H-M   'P 1'
_cell_length_a   7.49818212
_cell_length_b   7.90891816
_cell_length_c   13.18510500
_cell_angle_alpha   90.00457125
_cell_angle_beta   124.55045379
_cell_angle_gamma   89.97209068
_symmetry_Int_Tables_number   1
_chemical_formula_structural   Ba2SmPaSe6
_chemical_formula_sum   'Ba4 Sm2 Pa2 Se12'
_cell_volume   644.00201079
_cell_formula_units_Z   2
loop_
 _symmetry_equiv_pos_site_id
 _symmetry_equiv_pos_as_xyz
  1  'x, y, z'
loop_
 _atom_site_type_symbol
 _atom_site_label
 _atom_site_symmetry_multiplicity
 _atom_site_fract_x
 _atom_site_fract_y
 _atom_site_fract_z
 _atom_site_occupancy
  Ba  Ba0  1  0.770902  0.927009  0.249697  1
  Ba  Ba1  1  0.228977  0.426976  0.250190  1
  Ba  Ba2  1  0.771023  0.573025  0.749810  1
  Ba  Ba3  1  0.229098  0.072991  0.750303  1
  Sm  Sm4  1  0.500000  0.500001  0.000000  1
  Sm  Sm5  1  0.500000  0.000000  0.500000  1
  Pa  Pa6  1  0.000000  0.000000  0.000000  1
  Pa  Pa7  1  0.000000  0.500001  0.500000  1
  Se  Se8  1  0.860398  0.704441  0.049408  1
  Se  Se9  1  0.748323  0.193402  0.047632  1
  Se  Se10  1  0.337593  0.021460  0.244701  1
  Se  Se11  1  0.662565  0.521547  0.255381  1
  Se  Se12  1  0.251590  0.693284  0.452433  1
  Se  Se13  1  0.139413  0.204492  0.450514  1
  Se  Se14  1  0.860588  0.795507  0.549486  1
  Se  Se15  1  0.748410  0.306716  0.547568  1
  Se  Se16  1  0.337435  0.478453  0.744619  1
  Se  Se17  1  0.662407  0.978540  0.755298  1
  Se  Se18  1  0.251676  0.806598  0.952368  1
  Se  Se19  1  0.139601  0.295560  0.950592  1
