# generated using pymatgen
data_TbThTe4
_symmetry_space_group_name_H-M   'P 1'
_cell_length_a   8.10130609
_cell_length_b   8.10130608
_cell_length_c   8.10130626
_cell_angle_alpha   148.94717398
_cell_angle_beta   135.62455044
_cell_angle_gamma   55.14758829
_symmetry_Int_Tables_number   1
_chemical_formula_structural   TbThTe4
_chemical_formula_sum   'Tb1 Th1 Te4'
_cell_volume   190.57383823
_cell_formula_units_Z   1
loop_
 _symmetry_equiv_pos_site_id
 _symmetry_equiv_pos_as_xyz
  1  'x, y, z'
loop_
 _atom_site_type_symbol
 _atom_site_label
 _atom_site_symmetry_multiplicity
 _atom_site_fract_x
 _atom_site_fract_y
 _atom_site_fract_z
 _atom_site_occupancy
  Tb  Tb0  1  0.138247  0.138247  0.000000  1
  Th  Th1  1  0.861681  0.861681  0.000000  1
  Te  Te2  1  0.703643  0.203643  0.500000  1
  Te  Te3  1  0.293719  0.793719  0.500000  1
  Te  Te4  1  0.755529  0.501356  0.254174  1
  Te  Te5  1  0.247182  0.501356  0.745826  1
