# generated using pymatgen
data_Tb9Cd5Ir4
_symmetry_space_group_name_H-M   'P 1'
_cell_length_a   10.82610600
_cell_length_b   10.82610600
_cell_length_c   3.75943400
_cell_angle_alpha   90.00000000
_cell_angle_beta   90.00000000
_cell_angle_gamma   90.00000000
_symmetry_Int_Tables_number   1
_chemical_formula_structural   Tb9Cd5Ir4
_chemical_formula_sum   'Tb9 Cd5 Ir4'
_cell_volume   440.62284964
_cell_formula_units_Z   1
loop_
 _symmetry_equiv_pos_site_id
 _symmetry_equiv_pos_as_xyz
  1  'x, y, z'
loop_
 _atom_site_type_symbol
 _atom_site_label
 _atom_site_symmetry_multiplicity
 _atom_site_fract_x
 _atom_site_fract_y
 _atom_site_fract_z
 _atom_site_occupancy
  Tb  Tb0  1  0.326348  0.326348  0.500000  1
  Tb  Tb1  1  0.673652  0.673652  0.500000  1
  Tb  Tb2  1  0.326348  0.673652  0.500000  1
  Tb  Tb3  1  0.673652  0.326348  0.500000  1
  Tb  Tb4  1  0.000000  0.283475  0.500000  1
  Tb  Tb5  1  0.000000  0.716525  0.500000  1
  Tb  Tb6  1  0.283475  0.000000  0.500000  1
  Tb  Tb7  1  0.716525  0.000000  0.500000  1
  Tb  Tb8  1  0.000000  0.000000  0.000000  1
  Cd  Cd9  1  0.500000  0.144346  0.000000  1
  Cd  Cd10  1  0.500000  0.855654  0.000000  1
  Cd  Cd11  1  0.144346  0.500000  0.000000  1
  Cd  Cd12  1  0.855654  0.500000  0.000000  1
  Cd  Cd13  1  0.500000  0.500000  0.000000  1
  Ir  Ir14  1  0.190424  0.190424  0.000000  1
  Ir  Ir15  1  0.809576  0.809576  0.000000  1
  Ir  Ir16  1  0.190424  0.809576  0.000000  1
  Ir  Ir17  1  0.809576  0.190424  0.000000  1
