# generated using pymatgen
data_PrNd7(HoSn3)2
_symmetry_space_group_name_H-M   'P 1'
_cell_length_a   9.23020403
_cell_length_b   9.22083666
_cell_length_c   6.79070300
_cell_angle_alpha   89.99039979
_cell_angle_beta   90.00479213
_cell_angle_gamma   119.96642515
_symmetry_Int_Tables_number   1
_chemical_formula_structural   PrNd7(HoSn3)2
_chemical_formula_sum   'Pr1 Nd7 Ho2 Sn6'
_cell_volume   500.69565670
_cell_formula_units_Z   1
loop_
 _symmetry_equiv_pos_site_id
 _symmetry_equiv_pos_as_xyz
  1  'x, y, z'
loop_
 _atom_site_type_symbol
 _atom_site_label
 _atom_site_symmetry_multiplicity
 _atom_site_fract_x
 _atom_site_fract_y
 _atom_site_fract_z
 _atom_site_occupancy
  Pr  Pr0  1  0.000000  0.757852  0.748059  1
  Nd  Nd1  1  0.333439  0.666663  0.000122  1
  Nd  Nd2  1  0.666561  0.333223  0.000122  1
  Nd  Nd3  1  0.757136  0.757268  0.252059  1
  Nd  Nd4  1  0.242864  0.000132  0.252059  1
  Nd  Nd5  1  0.000000  0.242513  0.252102  1
  Nd  Nd6  1  0.242694  0.242694  0.747981  1
  Nd  Nd7  1  0.757306  0.000001  0.747981  1
  Ho  Ho8  1  0.666607  0.333231  0.499905  1
  Ho  Ho9  1  0.333393  0.666624  0.499905  1
  Sn  Sn10  1  0.396634  0.396729  0.260057  1
  Sn  Sn11  1  0.603366  0.000094  0.260057  1
  Sn  Sn12  1  0.000000  0.603336  0.259915  1
  Sn  Sn13  1  0.602162  0.602848  0.739807  1
  Sn  Sn14  1  0.397838  0.000685  0.739807  1
  Sn  Sn15  1  0.000000  0.396105  0.740057  1
