# generated using pymatgen
data_Nd16Cd2TcHg2Pd3
_symmetry_space_group_name_H-M   'P 1'
_cell_length_a   10.03645347
_cell_length_b   10.03645394
_cell_length_c   10.05501731
_cell_angle_alpha   59.26118506
_cell_angle_beta   59.26117897
_cell_angle_gamma   59.30768287
_symmetry_Int_Tables_number   1
_chemical_formula_structural   Nd16Cd2TcHg2Pd3
_chemical_formula_sum   'Nd16 Cd2 Tc1 Hg2 Pd3'
_cell_volume   704.39262059
_cell_formula_units_Z   1
loop_
 _symmetry_equiv_pos_site_id
 _symmetry_equiv_pos_as_xyz
  1  'x, y, z'
loop_
 _atom_site_type_symbol
 _atom_site_label
 _atom_site_symmetry_multiplicity
 _atom_site_fract_x
 _atom_site_fract_y
 _atom_site_fract_z
 _atom_site_occupancy
  Nd  Nd0  1  0.353984  0.353984  0.353418  1
  Nd  Nd1  1  0.348579  0.348579  0.950412  1
  Nd  Nd2  1  0.349505  0.947936  0.349029  1
  Nd  Nd3  1  0.947936  0.349505  0.349029  1
  Nd  Nd4  1  0.816493  0.188236  0.189260  1
  Nd  Nd5  1  0.189135  0.807086  0.807298  1
  Nd  Nd6  1  0.188236  0.816493  0.189260  1
  Nd  Nd7  1  0.807086  0.189135  0.807298  1
  Nd  Nd8  1  0.188357  0.188357  0.816896  1
  Nd  Nd9  1  0.805654  0.805654  0.191119  1
  Nd  Nd10  1  0.934505  0.564204  0.565051  1
  Nd  Nd11  1  0.556211  0.937709  0.938061  1
  Nd  Nd12  1  0.564204  0.934505  0.565051  1
  Nd  Nd13  1  0.937709  0.556211  0.938061  1
  Nd  Nd14  1  0.564223  0.564223  0.935595  1
  Nd  Nd15  1  0.937487  0.937487  0.556924  1
  Cd  Cd16  1  0.579632  0.258269  0.580678  1
  Cd  Cd17  1  0.258269  0.579632  0.580678  1
  Tc  Tc18  1  0.142622  0.142622  0.143307  1
  Hg  Hg19  1  0.582968  0.582968  0.585427  1
  Hg  Hg20  1  0.584027  0.584027  0.244810  1
  Pd  Pd21  1  0.146002  0.146002  0.570899  1
  Pd  Pd22  1  0.145629  0.571547  0.146219  1
  Pd  Pd23  1  0.571547  0.145629  0.146219  1
