# generated using pymatgen
data_NaYb(SnPd)2
_symmetry_space_group_name_H-M   'P 1'
_cell_length_a   4.40143600
_cell_length_b   7.39746731
_cell_length_c   8.26012909
_cell_angle_alpha   91.79962481
_cell_angle_beta   90.00000000
_cell_angle_gamma   90.00000000
_symmetry_Int_Tables_number   1
_chemical_formula_structural   NaYb(SnPd)2
_chemical_formula_sum   'Na2 Yb2 Sn4 Pd4'
_cell_volume   268.81284610
_cell_formula_units_Z   2
loop_
 _symmetry_equiv_pos_site_id
 _symmetry_equiv_pos_as_xyz
  1  'x, y, z'
loop_
 _atom_site_type_symbol
 _atom_site_label
 _atom_site_symmetry_multiplicity
 _atom_site_fract_x
 _atom_site_fract_y
 _atom_site_fract_z
 _atom_site_occupancy
  Na  Na0  1  0.250000  0.523755  0.170313  1
  Na  Na1  1  0.750000  0.476245  0.829687  1
  Yb  Yb2  1  0.250000  0.028478  0.321555  1
  Yb  Yb3  1  0.750000  0.971522  0.678445  1
  Sn  Sn4  1  0.250000  0.157091  0.935894  1
  Sn  Sn5  1  0.750000  0.354954  0.437632  1
  Sn  Sn6  1  0.250000  0.645046  0.562368  1
  Sn  Sn7  1  0.750000  0.842909  0.064106  1
  Pd  Pd8  1  0.750000  0.211607  0.129894  1
  Pd  Pd9  1  0.250000  0.272731  0.626310  1
  Pd  Pd10  1  0.750000  0.727269  0.373690  1
  Pd  Pd11  1  0.250000  0.788393  0.870106  1
