# generated using pymatgen
data_Nd2Al2Ru2C
_symmetry_space_group_name_H-M   'P 1'
_cell_length_a   6.14737692
_cell_length_b   6.14737714
_cell_length_c   7.35677677
_cell_angle_alpha   127.80330921
_cell_angle_beta   127.80331044
_cell_angle_gamma   40.49837535
_symmetry_Int_Tables_number   1
_chemical_formula_structural   Nd2Al2Ru2C
_chemical_formula_sum   'Nd2 Al2 Ru2 C1'
_cell_volume   136.68935021
_cell_formula_units_Z   1
loop_
 _symmetry_equiv_pos_site_id
 _symmetry_equiv_pos_as_xyz
  1  'x, y, z'
loop_
 _atom_site_type_symbol
 _atom_site_label
 _atom_site_symmetry_multiplicity
 _atom_site_fract_x
 _atom_site_fract_y
 _atom_site_fract_z
 _atom_site_occupancy
  Nd  Nd0  1  0.557684  0.557684  0.287699  1
  Nd  Nd1  1  0.442316  0.442316  0.712300  1
  Al  Al2  1  0.837884  0.837884  0.280839  1
  Al  Al3  1  0.162116  0.162116  0.719162  1
  Ru  Ru4  1  0.195866  0.195866  0.092708  1
  Ru  Ru5  1  0.804133  0.804133  0.907292  1
  C  C6  1  0.000000  0.000000  0.000000  1
