# generated using pymatgen
data_Zr4BI6
_symmetry_space_group_name_H-M   'P 1'
_cell_length_a   3.82978400
_cell_length_b   13.26210200
_cell_length_c   13.78805300
_cell_angle_alpha   90.00000000
_cell_angle_beta   90.00000000
_cell_angle_gamma   90.00000000
_symmetry_Int_Tables_number   1
_chemical_formula_structural   Zr4BI6
_chemical_formula_sum   'Zr8 B2 I12'
_cell_volume   700.30880752
_cell_formula_units_Z   2
loop_
 _symmetry_equiv_pos_site_id
 _symmetry_equiv_pos_as_xyz
  1  'x, y, z'
loop_
 _atom_site_type_symbol
 _atom_site_label
 _atom_site_symmetry_multiplicity
 _atom_site_fract_x
 _atom_site_fract_y
 _atom_site_fract_z
 _atom_site_occupancy
  Zr  Zr0  1  0.000000  0.090492  0.072158  1
  Zr  Zr1  1  0.000000  0.909508  0.927842  1
  Zr  Zr2  1  0.000000  0.590492  0.427842  1
  Zr  Zr3  1  0.000000  0.409508  0.572158  1
  Zr  Zr4  1  0.500000  0.111261  0.870866  1
  Zr  Zr5  1  0.500000  0.888739  0.129134  1
  Zr  Zr6  1  0.500000  0.611261  0.629134  1
  Zr  Zr7  1  0.500000  0.388739  0.370866  1
  B  B8  1  0.500000  0.000000  0.000000  1
  B  B9  1  0.500000  0.500000  0.500000  1
  I  I10  1  0.500000  0.269115  0.679405  1
  I  I11  1  0.500000  0.730885  0.320595  1
  I  I12  1  0.500000  0.769115  0.820595  1
  I  I13  1  0.500000  0.230885  0.179405  1
  I  I14  1  0.000000  0.263637  0.936347  1
  I  I15  1  0.000000  0.736363  0.063653  1
  I  I16  1  0.000000  0.484522  0.238949  1
  I  I17  1  0.000000  0.515478  0.761051  1
  I  I18  1  0.000000  0.984522  0.261051  1
  I  I19  1  0.000000  0.015478  0.738949  1
  I  I20  1  0.000000  0.236363  0.436347  1
  I  I21  1  0.000000  0.763637  0.563653  1
