# generated using pymatgen
data_Ti2MnCo3(MoP2)2
_symmetry_space_group_name_H-M   'P 1'
_cell_length_a   3.58171600
_cell_length_b   5.97459654
_cell_length_c   6.81974011
_cell_angle_alpha   89.72202057
_cell_angle_beta   90.00000000
_cell_angle_gamma   90.00000000
_symmetry_Int_Tables_number   1
_chemical_formula_structural   Ti2MnCo3(MoP2)2
_chemical_formula_sum   'Ti2 Mn1 Co3 Mo2 P4'
_cell_volume   145.93600167
_cell_formula_units_Z   1
loop_
 _symmetry_equiv_pos_site_id
 _symmetry_equiv_pos_as_xyz
  1  'x, y, z'
loop_
 _atom_site_type_symbol
 _atom_site_label
 _atom_site_symmetry_multiplicity
 _atom_site_fract_x
 _atom_site_fract_y
 _atom_site_fract_z
 _atom_site_occupancy
  Ti  Ti0  1  0.750000  0.025370  0.679340  1
  Ti  Ti1  1  0.750000  0.525193  0.826940  1
  Mn  Mn2  1  0.750000  0.140546  0.057948  1
  Co  Co3  1  0.250000  0.855896  0.936135  1
  Co  Co4  1  0.250000  0.355870  0.566219  1
  Co  Co5  1  0.750000  0.640431  0.439725  1
  Mo  Mo6  1  0.250000  0.978502  0.327186  1
  Mo  Mo7  1  0.250000  0.472144  0.168412  1
  P  P8  1  0.250000  0.230076  0.878852  1
  P  P9  1  0.250000  0.729589  0.620307  1
  P  P10  1  0.750000  0.774542  0.124477  1
  P  P11  1  0.750000  0.271840  0.374460  1
