# generated using pymatgen
data_Na2Er3Ge4P8Ir19
_symmetry_space_group_name_H-M   'P 1'
_cell_length_a   12.87792130
_cell_length_b   12.85675164
_cell_length_c   3.95980500
_cell_angle_alpha   90.00000000
_cell_angle_beta   90.00000000
_cell_angle_gamma   120.12093646
_symmetry_Int_Tables_number   1
_chemical_formula_structural   Na2Er3Ge4P8Ir19
_chemical_formula_sum   'Na2 Er3 Ge4 P8 Ir19'
_cell_volume   567.08859716
_cell_formula_units_Z   1
loop_
 _symmetry_equiv_pos_site_id
 _symmetry_equiv_pos_as_xyz
  1  'x, y, z'
loop_
 _atom_site_type_symbol
 _atom_site_label
 _atom_site_symmetry_multiplicity
 _atom_site_fract_x
 _atom_site_fract_y
 _atom_site_fract_z
 _atom_site_occupancy
  Na  Na0  1  0.822264  0.820337  0.500000  1
  Na  Na1  1  0.178246  0.998915  0.500000  1
  Er  Er2  1  0.666413  0.333154  0.000000  1
  Er  Er3  1  0.332950  0.666575  0.000000  1
  Er  Er4  1  0.000453  0.175144  0.500000  1
  Ge  Ge5  1  0.682771  0.165638  0.500000  1
  Ge  Ge6  1  0.646669  0.647012  0.000000  1
  Ge  Ge7  1  0.353429  0.000389  0.000000  1
  Ge  Ge8  1  0.001302  0.357988  0.000000  1
  P  P9  1  0.826924  0.518105  0.500000  1
  P  P10  1  0.480386  0.310375  0.500000  1
  P  P11  1  0.173665  0.692118  0.500000  1
  P  P12  1  0.517568  0.826497  0.500000  1
  P  P13  1  0.309932  0.483262  0.500000  1
  P  P14  1  0.180734  0.178592  0.000000  1
  P  P15  1  0.820186  0.995136  0.000000  1
  P  P16  1  0.000551  0.821173  0.000000  1
  Ir  Ir17  1  0.808243  0.174330  0.000000  1
  Ir  Ir18  1  0.822545  0.616258  0.000000  1
  Ir  Ir19  1  0.381590  0.209015  0.000000  1
  Ir  Ir20  1  0.177691  0.794780  0.000000  1
  Ir  Ir21  1  0.611952  0.820267  0.000000  1
  Ir  Ir22  1  0.204170  0.380988  0.000000  1
  Ir  Ir23  1  0.453712  0.458009  0.000000  1
  Ir  Ir24  1  0.549657  0.008431  0.000000  1
  Ir  Ir25  1  0.002916  0.548152  0.000000  1
  Ir  Ir26  1  0.283494  0.287424  0.500000  1
  Ir  Ir27  1  0.718883  0.993762  0.500000  1
  Ir  Ir28  1  0.000096  0.713761  0.500000  1
  Ir  Ir29  1  0.868622  0.366398  0.500000  1
  Ir  Ir30  1  0.635741  0.502654  0.500000  1
  Ir  Ir31  1  0.481260  0.129840  0.500000  1
  Ir  Ir32  1  0.365340  0.866884  0.500000  1
  Ir  Ir33  1  0.502598  0.636272  0.500000  1
  Ir  Ir34  1  0.135259  0.498217  0.500000  1
  Ir  Ir35  1  0.001790  0.004145  0.000000  1
