# generated using pymatgen
data_NdSmTeAs
_symmetry_space_group_name_H-M   'P 1'
_cell_length_a   7.67751566
_cell_length_b   7.67751689
_cell_length_c   7.67751500
_cell_angle_alpha   32.80786955
_cell_angle_beta   32.80785529
_cell_angle_gamma   32.80785735
_symmetry_Int_Tables_number   1
_chemical_formula_structural   NdSmTeAs
_chemical_formula_sum   'Nd1 Sm1 Te1 As1'
_cell_volume   118.19280502
_cell_formula_units_Z   1
loop_
 _symmetry_equiv_pos_site_id
 _symmetry_equiv_pos_as_xyz
  1  'x, y, z'
loop_
 _atom_site_type_symbol
 _atom_site_label
 _atom_site_symmetry_multiplicity
 _atom_site_fract_x
 _atom_site_fract_y
 _atom_site_fract_z
 _atom_site_occupancy
  Nd  Nd0  1  0.740141  0.740141  0.740141  1
  Sm  Sm1  1  0.259912  0.259912  0.259912  1
  Te  Te2  1  0.501349  0.501349  0.501349  1
  As  As3  1  0.998599  0.998599  0.998599  1
