# generated using pymatgen
data_Sr4LuSc7Se16
_symmetry_space_group_name_H-M   'P 1'
_cell_length_a   3.99352200
_cell_length_b   12.31352014
_cell_length_c   14.43537185
_cell_angle_alpha   90.14004779
_cell_angle_beta   90.00000000
_cell_angle_gamma   90.00000000
_symmetry_Int_Tables_number   1
_chemical_formula_structural   Sr4LuSc7Se16
_chemical_formula_sum   'Sr4 Lu1 Sc7 Se16'
_cell_volume   709.84738125
_cell_formula_units_Z   1
loop_
 _symmetry_equiv_pos_site_id
 _symmetry_equiv_pos_as_xyz
  1  'x, y, z'
loop_
 _atom_site_type_symbol
 _atom_site_label
 _atom_site_symmetry_multiplicity
 _atom_site_fract_x
 _atom_site_fract_y
 _atom_site_fract_z
 _atom_site_occupancy
  Sr  Sr0  1  0.250000  0.761956  0.330464  1
  Sr  Sr1  1  0.250000  0.261028  0.166664  1
  Sr  Sr2  1  0.750000  0.241062  0.671634  1
  Sr  Sr3  1  0.750000  0.738150  0.831664  1
  Lu  Lu4  1  0.750000  0.083411  0.404211  1
  Sc  Sc5  1  0.250000  0.444071  0.389149  1
  Sc  Sc6  1  0.250000  0.940511  0.107834  1
  Sc  Sc7  1  0.750000  0.558190  0.609994  1
  Sc  Sc8  1  0.750000  0.057630  0.889345  1
  Sc  Sc9  1  0.250000  0.419293  0.903104  1
  Sc  Sc10  1  0.250000  0.916458  0.598708  1
  Sc  Sc11  1  0.750000  0.581383  0.096722  1
  Se  Se12  1  0.250000  0.203351  0.841168  1
  Se  Se13  1  0.250000  0.702153  0.661424  1
  Se  Se14  1  0.750000  0.796067  0.158698  1
  Se  Se15  1  0.750000  0.300820  0.336944  1
  Se  Se16  1  0.250000  0.124866  0.535239  1
  Se  Se17  1  0.250000  0.624082  0.971632  1
  Se  Se18  1  0.750000  0.871911  0.474295  1
  Se  Se19  1  0.750000  0.376101  0.027904  1
  Se  Se20  1  0.250000  0.026776  0.281018  1
  Se  Se21  1  0.250000  0.530429  0.214617  1
  Se  Se22  1  0.750000  0.969111  0.716008  1
  Se  Se23  1  0.750000  0.470990  0.785020  1
  Se  Se24  1  0.250000  0.412532  0.573839  1
  Se  Se25  1  0.250000  0.911453  0.923929  1
  Se  Se26  1  0.750000  0.588951  0.425385  1
  Se  Se27  1  0.750000  0.087264  0.073386  1
