# generated using pymatgen
data_Er11TmZnInCo4
_symmetry_space_group_name_H-M   'P 1'
_cell_length_a   8.25740701
_cell_length_b   8.25818431
_cell_length_c   8.25740911
_cell_angle_alpha   111.65137567
_cell_angle_beta   110.25373892
_cell_angle_gamma   106.54703609
_symmetry_Int_Tables_number   1
_chemical_formula_structural   Er11TmZnInCo4
_chemical_formula_sum   'Er11 Tm1 Zn1 In1 Co4'
_cell_volume   432.57245301
_cell_formula_units_Z   1
loop_
 _symmetry_equiv_pos_site_id
 _symmetry_equiv_pos_as_xyz
  1  'x, y, z'
loop_
 _atom_site_type_symbol
 _atom_site_label
 _atom_site_symmetry_multiplicity
 _atom_site_fract_x
 _atom_site_fract_y
 _atom_site_fract_z
 _atom_site_occupancy
  Er  Er0  1  0.426985  0.223277  0.203271  1
  Er  Er1  1  0.573360  0.776451  0.796947  1
  Er  Er2  1  0.020005  0.223277  0.796291  1
  Er  Er3  1  0.979505  0.776451  0.203091  1
  Er  Er4  1  0.185484  0.287826  0.473820  1
  Er  Er5  1  0.814149  0.712393  0.526133  1
  Er  Er6  1  0.186260  0.712393  0.898245  1
  Er  Er7  1  0.814006  0.287826  0.102340  1
  Er  Er8  1  0.315107  0.618538  0.303431  1
  Er  Er9  1  0.685028  0.380930  0.695902  1
  Er  Er10  1  0.315280  0.011637  0.696358  1
  Tm  Tm11  1  0.684979  0.989023  0.304043  1
  Zn  Zn12  1  0.000072  0.001068  0.000995  1
  In  In13  1  0.499663  0.500123  0.000460  1
  Co  Co14  1  0.376335  0.999475  0.375438  1
  Co  Co15  1  0.624037  0.999475  0.623138  1
  Co  Co16  1  0.113173  0.613449  0.500276  1
  Co  Co17  1  0.886572  0.386391  0.499819  1
