# generated using pymatgen
data_Tb7DyTe4
_symmetry_space_group_name_H-M   'P 1'
_cell_length_a   4.08935400
_cell_length_b   11.57756706
_cell_length_c   22.24702012
_cell_angle_alpha   90.01182729
_cell_angle_beta   90.00000000
_cell_angle_gamma   90.00000000
_symmetry_Int_Tables_number   1
_chemical_formula_structural   Tb7DyTe4
_chemical_formula_sum   'Tb21 Dy3 Te12'
_cell_volume   1053.28003212
_cell_formula_units_Z   3
loop_
 _symmetry_equiv_pos_site_id
 _symmetry_equiv_pos_as_xyz
  1  'x, y, z'
loop_
 _atom_site_type_symbol
 _atom_site_label
 _atom_site_symmetry_multiplicity
 _atom_site_fract_x
 _atom_site_fract_y
 _atom_site_fract_z
 _atom_site_occupancy
  Tb  Tb0  1  0.250000  0.151838  0.391821  1
  Tb  Tb1  1  0.750000  0.848159  0.608159  1
  Tb  Tb2  1  0.750000  0.651964  0.108266  1
  Tb  Tb3  1  0.250000  0.348145  0.891774  1
  Tb  Tb4  1  0.250000  0.455963  0.340177  1
  Tb  Tb5  1  0.750000  0.544086  0.659839  1
  Tb  Tb6  1  0.750000  0.955987  0.159858  1
  Tb  Tb7  1  0.250000  0.044039  0.840153  1
  Tb  Tb8  1  0.250000  0.734392  0.233754  1
  Tb  Tb9  1  0.750000  0.265684  0.766222  1
  Tb  Tb10  1  0.750000  0.234376  0.266247  1
  Tb  Tb11  1  0.250000  0.765605  0.733693  1
  Tb  Tb12  1  0.250000  0.115709  0.034506  1
  Tb  Tb13  1  0.750000  0.884495  0.965489  1
  Tb  Tb14  1  0.750000  0.615664  0.465505  1
  Tb  Tb15  1  0.250000  0.384354  0.534514  1
  Tb  Tb16  1  0.250000  0.413765  0.147019  1
  Tb  Tb17  1  0.750000  0.586284  0.852790  1
  Tb  Tb18  1  0.750000  0.913783  0.352975  1
  Tb  Tb19  1  0.250000  0.086186  0.647031  1
  Tb  Tb20  1  0.250000  0.612246  0.983049  1
  Dy  Dy21  1  0.750000  0.387077  0.017252  1
  Dy  Dy22  1  0.750000  0.112461  0.517188  1
  Dy  Dy23  1  0.250000  0.887420  0.482844  1
  Te  Te24  1  0.250000  0.850351  0.068777  1
  Te  Te25  1  0.750000  0.149736  0.931308  1
  Te  Te26  1  0.750000  0.350167  0.431271  1
  Te  Te27  1  0.250000  0.649848  0.568722  1
  Te  Te28  1  0.250000  0.712246  0.372916  1
  Te  Te29  1  0.750000  0.287749  0.627079  1
  Te  Te30  1  0.750000  0.212250  0.127062  1
  Te  Te31  1  0.250000  0.787923  0.872782  1
  Te  Te32  1  0.250000  0.020604  0.261206  1
  Te  Te33  1  0.750000  0.979389  0.738777  1
  Te  Te34  1  0.750000  0.520652  0.238793  1
  Te  Te35  1  0.250000  0.479404  0.761183  1
