# generated using pymatgen
data_Tb3Dy5(GeBr6)2
_symmetry_space_group_name_H-M   'P 1'
_cell_length_a   4.09495900
_cell_length_b   13.27027201
_cell_length_c   14.09738301
_cell_angle_alpha   89.99489008
_cell_angle_beta   90.00000000
_cell_angle_gamma   90.00000000
_symmetry_Int_Tables_number   1
_chemical_formula_structural   Tb3Dy5(GeBr6)2
_chemical_formula_sum   'Tb3 Dy5 Ge2 Br12'
_cell_volume   766.06898610
_cell_formula_units_Z   1
loop_
 _symmetry_equiv_pos_site_id
 _symmetry_equiv_pos_as_xyz
  1  'x, y, z'
loop_
 _atom_site_type_symbol
 _atom_site_label
 _atom_site_symmetry_multiplicity
 _atom_site_fract_x
 _atom_site_fract_y
 _atom_site_fract_z
 _atom_site_occupancy
  Tb  Tb0  1  0.000000  0.118954  0.578815  1
  Tb  Tb1  1  0.000000  0.881004  0.421055  1
  Tb  Tb2  1  0.000000  0.618815  0.921256  1
  Dy  Dy3  1  0.500000  0.118662  0.340349  1
  Dy  Dy4  1  0.500000  0.881324  0.659810  1
  Dy  Dy5  1  0.500000  0.618706  0.159715  1
  Dy  Dy6  1  0.500000  0.381206  0.840293  1
  Dy  Dy7  1  0.000000  0.381281  0.078519  1
  Ge  Ge8  1  0.500000  0.999883  0.500001  1
  Ge  Ge9  1  0.500000  0.499706  0.000180  1
  Br  Br10  1  0.500000  0.244610  0.162700  1
  Br  Br11  1  0.500000  0.755992  0.837024  1
  Br  Br12  1  0.500000  0.743806  0.336972  1
  Br  Br13  1  0.500000  0.256036  0.663129  1
  Br  Br14  1  0.000000  0.254204  0.410989  1
  Br  Br15  1  0.000000  0.745769  0.589158  1
  Br  Br16  1  0.000000  0.754287  0.089052  1
  Br  Br17  1  0.000000  0.245835  0.911067  1
  Br  Br18  1  0.000000  0.002649  0.244112  1
  Br  Br19  1  0.000000  0.997494  0.756044  1
  Br  Br20  1  0.000000  0.502231  0.255566  1
  Br  Br21  1  0.000000  0.497546  0.744194  1
