# generated using pymatgen
data_YbV9Se16
_symmetry_space_group_name_H-M   'P 1'
_cell_length_a   6.69230400
_cell_length_b   6.69230513
_cell_length_c   13.94149800
_cell_angle_alpha   90.00000000
_cell_angle_beta   90.00000000
_cell_angle_gamma   120.00000431
_symmetry_Int_Tables_number   1
_chemical_formula_structural   YbV9Se16
_chemical_formula_sum   'Yb1 V9 Se16'
_cell_volume   540.74367503
_cell_formula_units_Z   1
loop_
 _symmetry_equiv_pos_site_id
 _symmetry_equiv_pos_as_xyz
  1  'x, y, z'
loop_
 _atom_site_type_symbol
 _atom_site_label
 _atom_site_symmetry_multiplicity
 _atom_site_fract_x
 _atom_site_fract_y
 _atom_site_fract_z
 _atom_site_occupancy
  Yb  Yb0  1  0.000000  0.000000  0.000000  1
  V  V1  1  0.000000  0.000000  0.273625  1
  V  V2  1  0.000000  0.000000  0.726375  1
  V  V3  1  0.507389  0.014779  0.273430  1
  V  V4  1  0.492611  0.985221  0.726570  1
  V  V5  1  0.985221  0.492611  0.273430  1
  V  V6  1  0.014779  0.507389  0.726570  1
  V  V7  1  0.507389  0.492611  0.273430  1
  V  V8  1  0.492611  0.507389  0.726570  1
  V  V9  1  0.000000  0.000000  0.500000  1
  Se  Se10  1  0.333333  0.666667  0.610497  1
  Se  Se11  1  0.666667  0.333333  0.389503  1
  Se  Se12  1  0.666667  0.333333  0.155918  1
  Se  Se13  1  0.333333  0.666667  0.844082  1
  Se  Se14  1  0.167599  0.335199  0.160496  1
  Se  Se15  1  0.832401  0.664801  0.839504  1
  Se  Se16  1  0.664801  0.832401  0.160496  1
  Se  Se17  1  0.832044  0.664088  0.615345  1
  Se  Se18  1  0.335199  0.167599  0.839504  1
  Se  Se19  1  0.167956  0.335912  0.384655  1
  Se  Se20  1  0.167599  0.832401  0.160496  1
  Se  Se21  1  0.335912  0.167956  0.615345  1
  Se  Se22  1  0.832401  0.167599  0.839504  1
  Se  Se23  1  0.664088  0.832044  0.384655  1
  Se  Se24  1  0.832044  0.167956  0.615345  1
  Se  Se25  1  0.167956  0.832044  0.384655  1
