# generated using pymatgen
data_Yb3InGePd2
_symmetry_space_group_name_H-M   'P 1'
_cell_length_a   5.68302000
_cell_length_b   8.24027900
_cell_length_c   13.82772700
_cell_angle_alpha   90.00000000
_cell_angle_beta   90.00000000
_cell_angle_gamma   90.00000000
_symmetry_Int_Tables_number   1
_chemical_formula_structural   Yb3InGePd2
_chemical_formula_sum   'Yb12 In4 Ge4 Pd8'
_cell_volume   647.54789727
_cell_formula_units_Z   4
loop_
 _symmetry_equiv_pos_site_id
 _symmetry_equiv_pos_as_xyz
  1  'x, y, z'
loop_
 _atom_site_type_symbol
 _atom_site_label
 _atom_site_symmetry_multiplicity
 _atom_site_fract_x
 _atom_site_fract_y
 _atom_site_fract_z
 _atom_site_occupancy
  Yb  Yb0  1  0.649245  0.255651  0.250000  1
  Yb  Yb1  1  0.350755  0.744349  0.750000  1
  Yb  Yb2  1  0.350755  0.755651  0.250000  1
  Yb  Yb3  1  0.649245  0.244349  0.750000  1
  Yb  Yb4  1  0.154496  0.395934  0.103739  1
  Yb  Yb5  1  0.845504  0.604066  0.896261  1
  Yb  Yb6  1  0.845504  0.604066  0.603739  1
  Yb  Yb7  1  0.845504  0.895934  0.396261  1
  Yb  Yb8  1  0.154496  0.395934  0.396261  1
  Yb  Yb9  1  0.154496  0.104066  0.603739  1
  Yb  Yb10  1  0.154496  0.104066  0.896261  1
  Yb  Yb11  1  0.845504  0.895934  0.103739  1
  In  In12  1  0.664396  0.250000  0.000000  1
  In  In13  1  0.335604  0.750000  0.000000  1
  In  In14  1  0.335604  0.750000  0.500000  1
  In  In15  1  0.664396  0.250000  0.500000  1
  Ge  Ge16  1  0.143453  0.106737  0.250000  1
  Ge  Ge17  1  0.856547  0.893263  0.750000  1
  Ge  Ge18  1  0.856547  0.606737  0.250000  1
  Ge  Ge19  1  0.143453  0.393263  0.750000  1
  Pd  Pd20  1  0.367146  0.040230  0.096555  1
  Pd  Pd21  1  0.632854  0.959770  0.903445  1
  Pd  Pd22  1  0.632854  0.959770  0.596555  1
  Pd  Pd23  1  0.632854  0.540230  0.403445  1
  Pd  Pd24  1  0.367146  0.040230  0.403445  1
  Pd  Pd25  1  0.367146  0.459770  0.596555  1
  Pd  Pd26  1  0.367146  0.459770  0.903445  1
  Pd  Pd27  1  0.632854  0.540230  0.096555  1
