# generated using pymatgen
data_LiLu3Zn(SiAg)2
_symmetry_space_group_name_H-M   'P 1'
_cell_length_a   7.00434420
_cell_length_b   7.00434507
_cell_length_c   4.08935800
_cell_angle_alpha   90.00000000
_cell_angle_beta   90.00000000
_cell_angle_gamma   119.97259839
_symmetry_Int_Tables_number   1
_chemical_formula_structural   LiLu3Zn(SiAg)2
_chemical_formula_sum   'Li1 Lu3 Zn1 Si2 Ag2'
_cell_volume   173.79634013
_cell_formula_units_Z   1
loop_
 _symmetry_equiv_pos_site_id
 _symmetry_equiv_pos_as_xyz
  1  'x, y, z'
loop_
 _atom_site_type_symbol
 _atom_site_label
 _atom_site_symmetry_multiplicity
 _atom_site_fract_x
 _atom_site_fract_y
 _atom_site_fract_z
 _atom_site_occupancy
  Li  Li0  1  0.756074  0.756074  0.000000  1
  Lu  Lu1  1  0.423034  0.423034  0.500000  1
  Lu  Lu2  1  0.576436  0.997658  0.500000  1
  Lu  Lu3  1  0.997658  0.576436  0.500000  1
  Zn  Zn4  1  0.992950  0.992950  0.500000  1
  Si  Si5  1  0.666925  0.337352  0.000000  1
  Si  Si6  1  0.337352  0.666925  0.000000  1
  Ag  Ag7  1  0.250552  0.999020  0.000000  1
  Ag  Ag8  1  0.999020  0.250552  0.000000  1
