# generated using pymatgen
data_NdTh3(Nb3Ge4)2
_symmetry_space_group_name_H-M   'P 1'
_cell_length_a   7.18117100
_cell_length_b   7.32705415
_cell_length_c   13.81693728
_cell_angle_alpha   89.97689682
_cell_angle_beta   90.00000000
_cell_angle_gamma   90.00000000
_symmetry_Int_Tables_number   1
_chemical_formula_structural   NdTh3(Nb3Ge4)2
_chemical_formula_sum   'Nd2 Th6 Nb12 Ge16'
_cell_volume   727.00336392
_cell_formula_units_Z   2
loop_
 _symmetry_equiv_pos_site_id
 _symmetry_equiv_pos_as_xyz
  1  'x, y, z'
loop_
 _atom_site_type_symbol
 _atom_site_label
 _atom_site_symmetry_multiplicity
 _atom_site_fract_x
 _atom_site_fract_y
 _atom_site_fract_z
 _atom_site_occupancy
  Nd  Nd0  1  0.495611  0.328900  0.095402  1
  Nd  Nd1  1  0.995611  0.171100  0.404598  1
  Th  Th2  1  0.506241  0.670480  0.593068  1
  Th  Th3  1  0.006241  0.829520  0.906932  1
  Th  Th4  1  0.505949  0.671243  0.906163  1
  Th  Th5  1  0.005949  0.828757  0.593837  1
  Th  Th6  1  0.496828  0.329784  0.405687  1
  Th  Th7  1  0.996828  0.170216  0.094313  1
  Nb  Nb8  1  0.665528  0.008039  0.749557  1
  Nb  Nb9  1  0.165528  0.491961  0.750443  1
  Nb  Nb10  1  0.333627  0.988936  0.251010  1
  Nb  Nb11  1  0.833627  0.511064  0.248990  1
  Nb  Nb12  1  0.835937  0.335436  0.625937  1
  Nb  Nb13  1  0.335937  0.164564  0.874063  1
  Nb  Nb14  1  0.157950  0.669801  0.125934  1
  Nb  Nb15  1  0.657950  0.830199  0.374066  1
  Nb  Nb16  1  0.164436  0.666450  0.374469  1
  Nb  Nb17  1  0.664436  0.833550  0.125531  1
  Nb  Nb18  1  0.838902  0.334032  0.874443  1
  Nb  Nb19  1  0.338902  0.165968  0.625557  1
  Ge  Ge20  1  0.808937  0.629498  0.750208  1
  Ge  Ge21  1  0.308937  0.870502  0.749792  1
  Ge  Ge22  1  0.191107  0.372353  0.250200  1
  Ge  Ge23  1  0.691107  0.127647  0.249800  1
  Ge  Ge24  1  0.537026  0.366957  0.750548  1
  Ge  Ge25  1  0.037026  0.133043  0.749452  1
  Ge  Ge26  1  0.461412  0.631845  0.248174  1
  Ge  Ge27  1  0.961412  0.868155  0.251826  1
  Ge  Ge28  1  0.670387  0.046502  0.544360  1
  Ge  Ge29  1  0.170387  0.453498  0.955640  1
  Ge  Ge30  1  0.333415  0.955368  0.046188  1
  Ge  Ge31  1  0.833415  0.544632  0.453812  1
  Ge  Ge32  1  0.328261  0.955531  0.454619  1
  Ge  Ge33  1  0.828261  0.544469  0.045381  1
  Ge  Ge34  1  0.668448  0.047469  0.954967  1
  Ge  Ge35  1  0.168448  0.452531  0.545033  1
