# generated using pymatgen
data_Y12Si12Tc3Ir
_symmetry_space_group_name_H-M   'P 1'
_cell_length_a   4.19622500
_cell_length_b   10.85189803
_cell_length_c   12.42776910
_cell_angle_alpha   90.09986489
_cell_angle_beta   90.00000000
_cell_angle_gamma   90.00000000
_symmetry_Int_Tables_number   1
_chemical_formula_structural   Y12Si12Tc3Ir
_chemical_formula_sum   'Y12 Si12 Tc3 Ir1'
_cell_volume   565.92253432
_cell_formula_units_Z   1
loop_
 _symmetry_equiv_pos_site_id
 _symmetry_equiv_pos_as_xyz
  1  'x, y, z'
loop_
 _atom_site_type_symbol
 _atom_site_label
 _atom_site_symmetry_multiplicity
 _atom_site_fract_x
 _atom_site_fract_y
 _atom_site_fract_z
 _atom_site_occupancy
  Y  Y0  1  0.250000  0.879829  0.021421  1
  Y  Y1  1  0.250000  0.622053  0.522841  1
  Y  Y2  1  0.750000  0.119769  0.978335  1
  Y  Y3  1  0.750000  0.380249  0.478432  1
  Y  Y4  1  0.250000  0.921294  0.605474  1
  Y  Y5  1  0.250000  0.578150  0.103466  1
  Y  Y6  1  0.750000  0.078297  0.396056  1
  Y  Y7  1  0.750000  0.421163  0.894422  1
  Y  Y8  1  0.250000  0.664993  0.799935  1
  Y  Y9  1  0.250000  0.834587  0.299734  1
  Y  Y10  1  0.750000  0.335570  0.200040  1
  Y  Y11  1  0.750000  0.159148  0.699432  1
  Si  Si12  1  0.250000  0.009185  0.822126  1
  Si  Si13  1  0.250000  0.491339  0.321518  1
  Si  Si14  1  0.750000  0.989206  0.178966  1
  Si  Si15  1  0.750000  0.512032  0.679053  1
  Si  Si16  1  0.250000  0.248272  0.841842  1
  Si  Si17  1  0.250000  0.248883  0.343650  1
  Si  Si18  1  0.750000  0.749292  0.155720  1
  Si  Si19  1  0.750000  0.751302  0.658854  1
  Si  Si20  1  0.250000  0.201646  0.542739  1
  Si  Si21  1  0.250000  0.297695  0.041859  1
  Si  Si22  1  0.750000  0.800382  0.458379  1
  Si  Si23  1  0.750000  0.702675  0.955686  1
  Tc  Tc24  1  0.250000  0.391119  0.682011  1
  Tc  Tc25  1  0.250000  0.110378  0.180575  1
  Tc  Tc26  1  0.750000  0.611473  0.318311  1
  Ir  Ir27  1  0.750000  0.890016  0.819124  1
