# generated using pymatgen
data_TbYb3(Al3Ir)2
_symmetry_space_group_name_H-M   'P 1'
_cell_length_a   5.53522000
_cell_length_b   5.53521828
_cell_length_c   8.74162800
_cell_angle_alpha   90.00000152
_cell_angle_beta   90.00004037
_cell_angle_gamma   120.00006521
_symmetry_Int_Tables_number   1
_chemical_formula_structural   TbYb3(Al3Ir)2
_chemical_formula_sum   'Tb1 Yb3 Al6 Ir2'
_cell_volume   231.94889424
_cell_formula_units_Z   1
loop_
 _symmetry_equiv_pos_site_id
 _symmetry_equiv_pos_as_xyz
  1  'x, y, z'
loop_
 _atom_site_type_symbol
 _atom_site_label
 _atom_site_symmetry_multiplicity
 _atom_site_fract_x
 _atom_site_fract_y
 _atom_site_fract_z
 _atom_site_occupancy
  Tb  Tb0  1  0.666666  0.333334  0.050546  1
  Yb  Yb1  1  0.666666  0.333333  0.446848  1
  Yb  Yb2  1  0.333333  0.666666  0.554998  1
  Yb  Yb3  1  0.333333  0.666666  0.944763  1
  Al  Al4  1  0.161486  0.322972  0.249713  1
  Al  Al5  1  0.161486  0.838514  0.249713  1
  Al  Al6  1  0.677028  0.838514  0.249713  1
  Al  Al7  1  0.323273  0.161636  0.750972  1
  Al  Al8  1  0.838362  0.161636  0.750972  1
  Al  Al9  1  0.838363  0.676726  0.750972  1
  Ir  Ir10  1  0.000000  0.000001  0.000252  1
  Ir  Ir11  1  0.000000  0.000000  0.500538  1
