# generated using pymatgen
data_Ac3Si2Rh3
_symmetry_space_group_name_H-M   'P 1'
_cell_length_a   6.22966600
_cell_length_b   7.97745400
_cell_length_c   15.23299600
_cell_angle_alpha   90.00000000
_cell_angle_beta   90.00000000
_cell_angle_gamma   90.00000000
_symmetry_Int_Tables_number   1
_chemical_formula_structural   Ac3Si2Rh3
_chemical_formula_sum   'Ac12 Si8 Rh12'
_cell_volume   757.03228210
_cell_formula_units_Z   4
loop_
 _symmetry_equiv_pos_site_id
 _symmetry_equiv_pos_as_xyz
  1  'x, y, z'
loop_
 _atom_site_type_symbol
 _atom_site_label
 _atom_site_symmetry_multiplicity
 _atom_site_fract_x
 _atom_site_fract_y
 _atom_site_fract_z
 _atom_site_occupancy
  Ac  Ac0  1  0.150345  0.483214  0.890890  1
  Ac  Ac1  1  0.349655  0.983214  0.890890  1
  Ac  Ac2  1  0.629668  0.343263  0.750000  1
  Ac  Ac3  1  0.370332  0.656737  0.250000  1
  Ac  Ac4  1  0.650345  0.016786  0.390890  1
  Ac  Ac5  1  0.849655  0.516786  0.109110  1
  Ac  Ac6  1  0.849655  0.516786  0.390890  1
  Ac  Ac7  1  0.349655  0.983214  0.609110  1
  Ac  Ac8  1  0.870332  0.843263  0.750000  1
  Ac  Ac9  1  0.150345  0.483214  0.609110  1
  Ac  Ac10  1  0.650345  0.016786  0.109110  1
  Ac  Ac11  1  0.129668  0.156737  0.250000  1
  Si  Si12  1  0.364961  0.362521  0.089542  1
  Si  Si13  1  0.635039  0.637479  0.910458  1
  Si  Si14  1  0.864961  0.137479  0.910458  1
  Si  Si15  1  0.364961  0.362521  0.410458  1
  Si  Si16  1  0.864961  0.137479  0.589542  1
  Si  Si17  1  0.635039  0.637479  0.589542  1
  Si  Si18  1  0.135039  0.862521  0.410458  1
  Si  Si19  1  0.135039  0.862521  0.089542  1
  Rh  Rh20  1  0.607155  0.347012  0.961291  1
  Rh  Rh21  1  0.392845  0.652988  0.038709  1
  Rh  Rh22  1  0.544827  0.316920  0.250000  1
  Rh  Rh23  1  0.392845  0.652988  0.461291  1
  Rh  Rh24  1  0.044827  0.183080  0.750000  1
  Rh  Rh25  1  0.107155  0.152988  0.461291  1
  Rh  Rh26  1  0.455173  0.683080  0.750000  1
  Rh  Rh27  1  0.955173  0.816920  0.250000  1
  Rh  Rh28  1  0.107155  0.152988  0.038709  1
  Rh  Rh29  1  0.607155  0.347012  0.538709  1
  Rh  Rh30  1  0.892845  0.847012  0.538709  1
  Rh  Rh31  1  0.892845  0.847012  0.961291  1
