# generated using pymatgen
data_Mn3Pt4PbO14
_symmetry_space_group_name_H-M   'P 1'
_cell_length_a   7.07244385
_cell_length_b   7.16734620
_cell_length_c   7.07244400
_cell_angle_alpha   60.43704771
_cell_angle_beta   59.99999931
_cell_angle_gamma   60.43704529
_symmetry_Int_Tables_number   1
_chemical_formula_structural   Mn3Pt4PbO14
_chemical_formula_sum   'Mn3 Pt4 Pb1 O14'
_cell_volume   255.16433480
_cell_formula_units_Z   1
loop_
 _symmetry_equiv_pos_site_id
 _symmetry_equiv_pos_as_xyz
  1  'x, y, z'
loop_
 _atom_site_type_symbol
 _atom_site_label
 _atom_site_symmetry_multiplicity
 _atom_site_fract_x
 _atom_site_fract_y
 _atom_site_fract_z
 _atom_site_occupancy
  Mn  Mn0  1  0.125000  0.125000  0.625000  1
  Mn  Mn1  1  0.625000  0.125000  0.125000  1
  Mn  Mn2  1  0.125000  0.125000  0.125000  1
  Pt  Pt3  1  0.625000  0.625000  0.125000  1
  Pt  Pt4  1  0.625000  0.125000  0.625000  1
  Pt  Pt5  1  0.125000  0.625000  0.625000  1
  Pt  Pt6  1  0.625000  0.625000  0.625000  1
  Pb  Pb7  1  0.125000  0.625000  0.125000  1
  O  O8  1  0.257860  0.226421  0.257860  1
  O  O9  1  0.992140  0.023579  0.992140  1
  O  O10  1  0.533549  0.965683  0.533549  1
  O  O11  1  0.283035  0.721516  0.283035  1
  O  O12  1  0.537586  0.528484  0.966965  1
  O  O13  1  0.966965  0.528484  0.537586  1
  O  O14  1  0.533549  0.965683  0.967219  1
  O  O15  1  0.967219  0.965683  0.533549  1
  O  O16  1  0.966965  0.528484  0.966965  1
  O  O17  1  0.716451  0.284317  0.282781  1
  O  O18  1  0.283035  0.721516  0.712414  1
  O  O19  1  0.716451  0.284317  0.716451  1
  O  O20  1  0.282781  0.284317  0.716451  1
  O  O21  1  0.712414  0.721516  0.283035  1
