# generated using pymatgen
data_ThCdCuPt3
_symmetry_space_group_name_H-M   'P 1'
_cell_length_a   5.27573182
_cell_length_b   5.50066734
_cell_length_c   5.50066900
_cell_angle_alpha   59.99999605
_cell_angle_beta   58.57929757
_cell_angle_gamma   58.57930699
_symmetry_Int_Tables_number   1
_chemical_formula_structural   ThCdCuPt3
_chemical_formula_sum   'Th1 Cd1 Cu1 Pt3'
_cell_volume   110.39030022
_cell_formula_units_Z   1
loop_
 _symmetry_equiv_pos_site_id
 _symmetry_equiv_pos_as_xyz
  1  'x, y, z'
loop_
 _atom_site_type_symbol
 _atom_site_label
 _atom_site_symmetry_multiplicity
 _atom_site_fract_x
 _atom_site_fract_y
 _atom_site_fract_z
 _atom_site_occupancy
  Th  Th0  1  0.747749  0.750750  0.750750  1
  Cd  Cd1  1  0.992107  0.002631  0.002631  1
  Cu  Cu2  1  0.878172  0.373943  0.373943  1
  Pt  Pt3  1  0.377324  0.373003  0.876668  1
  Pt  Pt4  1  0.377324  0.876668  0.373003  1
  Pt  Pt5  1  0.377324  0.373003  0.373003  1
