# generated using pymatgen
data_Tb3Sm4Er(ReB6)4
_symmetry_space_group_name_H-M   'P 1'
_cell_length_a   3.72083800
_cell_length_b   9.23384205
_cell_length_c   11.65913306
_cell_angle_alpha   90.01201033
_cell_angle_beta   90.00000000
_cell_angle_gamma   90.00000000
_symmetry_Int_Tables_number   1
_chemical_formula_structural   Tb3Sm4Er(ReB6)4
_chemical_formula_sum   'Tb3 Sm4 Er1 Re4 B24'
_cell_volume   400.58017566
_cell_formula_units_Z   1
loop_
 _symmetry_equiv_pos_site_id
 _symmetry_equiv_pos_as_xyz
  1  'x, y, z'
loop_
 _atom_site_type_symbol
 _atom_site_label
 _atom_site_symmetry_multiplicity
 _atom_site_fract_x
 _atom_site_fract_y
 _atom_site_fract_z
 _atom_site_occupancy
  Tb  Tb0  1  0.000000  0.942623  0.369458  1
  Tb  Tb1  1  0.000000  0.057408  0.630778  1
  Tb  Tb2  1  0.000000  0.442849  0.129913  1
  Sm  Sm3  1  0.000000  0.323346  0.414350  1
  Sm  Sm4  1  0.000000  0.676644  0.586040  1
  Sm  Sm5  1  0.000000  0.823020  0.085561  1
  Sm  Sm6  1  0.000000  0.176884  0.914173  1
  Er  Er7  1  0.000000  0.557552  0.869092  1
  Re  Re8  1  0.000000  0.638514  0.320009  1
  Re  Re9  1  0.000000  0.362080  0.680559  1
  Re  Re10  1  0.000000  0.138738  0.179683  1
  Re  Re11  1  0.000000  0.860318  0.820208  1
  B  B12  1  0.500000  0.554049  0.431587  1
  B  B13  1  0.500000  0.446056  0.568778  1
  B  B14  1  0.500000  0.053957  0.068374  1
  B  B15  1  0.500000  0.945500  0.931438  1
  B  B16  1  0.500000  0.748539  0.416585  1
  B  B17  1  0.500000  0.251657  0.583599  1
  B  B18  1  0.500000  0.248577  0.083383  1
  B  B19  1  0.500000  0.750106  0.916614  1
  B  B20  1  0.500000  0.790891  0.265590  1
  B  B21  1  0.500000  0.209537  0.734529  1
  B  B22  1  0.500000  0.291034  0.234312  1
  B  B23  1  0.500000  0.708037  0.765891  1
  B  B24  1  0.500000  0.630167  0.186172  1
  B  B25  1  0.500000  0.370742  0.814357  1
  B  B26  1  0.500000  0.130259  0.313715  1
  B  B27  1  0.500000  0.869456  0.686513  1
  B  B28  1  0.500000  0.983517  0.212259  1
  B  B29  1  0.500000  0.016215  0.787859  1
  B  B30  1  0.500000  0.483444  0.287637  1
  B  B31  1  0.500000  0.517190  0.713010  1
  B  B32  1  0.500000  0.597886  0.026055  1
  B  B33  1  0.500000  0.403176  0.971816  1
  B  B34  1  0.500000  0.098212  0.472741  1
  B  B35  1  0.500000  0.901820  0.527363  1
