# generated using pymatgen
data_Zr2Mn2SiP
_symmetry_space_group_name_H-M   'P 1'
_cell_length_a   3.65852100
_cell_length_b   6.52941200
_cell_length_c   7.61777600
_cell_angle_alpha   90.00000000
_cell_angle_beta   90.00000000
_cell_angle_gamma   90.00000000
_symmetry_Int_Tables_number   1
_chemical_formula_structural   Zr2Mn2SiP
_chemical_formula_sum   'Zr4 Mn4 Si2 P2'
_cell_volume   181.97336392
_cell_formula_units_Z   2
loop_
 _symmetry_equiv_pos_site_id
 _symmetry_equiv_pos_as_xyz
  1  'x, y, z'
loop_
 _atom_site_type_symbol
 _atom_site_label
 _atom_site_symmetry_multiplicity
 _atom_site_fract_x
 _atom_site_fract_y
 _atom_site_fract_z
 _atom_site_occupancy
  Zr  Zr0  1  0.250000  0.527164  0.679056  1
  Zr  Zr1  1  0.250000  0.027164  0.820944  1
  Zr  Zr2  1  0.750000  0.967976  0.173357  1
  Zr  Zr3  1  0.750000  0.467976  0.326643  1
  Mn  Mn4  1  0.750000  0.366016  0.935532  1
  Mn  Mn5  1  0.250000  0.138215  0.441907  1
  Mn  Mn6  1  0.750000  0.866016  0.564468  1
  Mn  Mn7  1  0.250000  0.638215  0.058093  1
  Si  Si8  1  0.250000  0.270961  0.122829  1
  Si  Si9  1  0.250000  0.770961  0.377171  1
  P  P10  1  0.750000  0.729668  0.873794  1
  P  P11  1  0.750000  0.229668  0.626206  1
