# generated using pymatgen
data_Yb6Ta4Al12Os7
_symmetry_space_group_name_H-M   'P 1'
_cell_length_a   9.04323814
_cell_length_b   9.04323891
_cell_length_c   9.04323900
_cell_angle_alpha   60.00000332
_cell_angle_beta   60.00000051
_cell_angle_gamma   60.00000315
_symmetry_Int_Tables_number   1
_chemical_formula_structural   Yb6Ta4Al12Os7
_chemical_formula_sum   'Yb6 Ta4 Al12 Os7'
_cell_volume   522.94619281
_cell_formula_units_Z   1
loop_
 _symmetry_equiv_pos_site_id
 _symmetry_equiv_pos_as_xyz
  1  'x, y, z'
loop_
 _atom_site_type_symbol
 _atom_site_label
 _atom_site_symmetry_multiplicity
 _atom_site_fract_x
 _atom_site_fract_y
 _atom_site_fract_z
 _atom_site_occupancy
  Yb  Yb0  1  0.707395  0.707395  0.292605  1
  Yb  Yb1  1  0.292605  0.707395  0.292605  1
  Yb  Yb2  1  0.707395  0.292605  0.292605  1
  Yb  Yb3  1  0.292605  0.292605  0.707395  1
  Yb  Yb4  1  0.707395  0.292605  0.707395  1
  Yb  Yb5  1  0.292605  0.707395  0.707395  1
  Ta  Ta6  1  0.880328  0.880328  0.359013  1
  Ta  Ta7  1  0.880328  0.359013  0.880328  1
  Ta  Ta8  1  0.359013  0.880328  0.880328  1
  Ta  Ta9  1  0.880328  0.880328  0.880328  1
  Al  Al10  1  0.119547  0.119547  0.641359  1
  Al  Al11  1  0.119547  0.641359  0.119547  1
  Al  Al12  1  0.641359  0.119547  0.119547  1
  Al  Al13  1  0.119547  0.119547  0.119547  1
  Al  Al14  1  0.669483  0.669483  0.991552  1
  Al  Al15  1  0.669483  0.991552  0.669483  1
  Al  Al16  1  0.991552  0.669483  0.669483  1
  Al  Al17  1  0.669483  0.669483  0.669483  1
  Al  Al18  1  0.328114  0.328114  0.015657  1
  Al  Al19  1  0.328114  0.015657  0.328114  1
  Al  Al20  1  0.015657  0.328114  0.328114  1
  Al  Al21  1  0.328114  0.328114  0.328114  1
  Os  Os22  1  0.000000  0.000000  0.000000  1
  Os  Os23  1  0.995829  0.995829  0.504171  1
  Os  Os24  1  0.504171  0.995829  0.504171  1
  Os  Os25  1  0.995829  0.504171  0.504171  1
  Os  Os26  1  0.504171  0.504171  0.995829  1
  Os  Os27  1  0.995829  0.504171  0.995829  1
  Os  Os28  1  0.504171  0.995829  0.995829  1
