# generated using pymatgen
data_Dy2Co3Si4Ir3
_symmetry_space_group_name_H-M   'P 1'
_cell_length_a   6.53069582
_cell_length_b   6.45260135
_cell_length_c   6.53069610
_cell_angle_alpha   131.64569978
_cell_angle_beta   114.25784886
_cell_angle_gamma   86.08734847
_symmetry_Int_Tables_number   1
_chemical_formula_structural   Dy2Co3Si4Ir3
_chemical_formula_sum   'Dy2 Co3 Si4 Ir3'
_cell_volume   178.82289001
_cell_formula_units_Z   1
loop_
 _symmetry_equiv_pos_site_id
 _symmetry_equiv_pos_as_xyz
  1  'x, y, z'
loop_
 _atom_site_type_symbol
 _atom_site_label
 _atom_site_symmetry_multiplicity
 _atom_site_fract_x
 _atom_site_fract_y
 _atom_site_fract_z
 _atom_site_occupancy
  Dy  Dy0  1  0.254738  0.974784  0.725912  1
  Dy  Dy1  1  0.751129  0.025216  0.279954  1
  Co  Co2  1  0.276030  0.000000  0.276030  1
  Co  Co3  1  0.721636  0.000000  0.721636  1
  Co  Co4  1  0.220746  0.500000  0.720746  1
  Si  Si5  1  0.077987  0.270987  0.202789  1
  Si  Si6  1  0.931802  0.729013  0.807001  1
  Si  Si7  1  0.421870  0.640548  0.204541  1
  Si  Si8  1  0.563993  0.359452  0.781322  1
  Ir  Ir9  1  0.498775  0.507863  0.510153  1
  Ir  Ir10  1  0.002289  0.492137  0.990911  1
  Ir  Ir11  1  0.779007  0.500000  0.279007  1
