# generated using pymatgen
data_Tb8Dy12CoBi8Ru3
_symmetry_space_group_name_H-M   'P 1'
_cell_length_a   8.00945484
_cell_length_b   9.00349600
_cell_length_c   12.47563441
_cell_angle_alpha   90.00000000
_cell_angle_beta   90.27999825
_cell_angle_gamma   90.00000000
_symmetry_Int_Tables_number   1
_chemical_formula_structural   Tb8Dy12CoBi8Ru3
_chemical_formula_sum   'Tb8 Dy12 Co1 Bi8 Ru3'
_cell_volume   899.64586174
_cell_formula_units_Z   1
loop_
 _symmetry_equiv_pos_site_id
 _symmetry_equiv_pos_as_xyz
  1  'x, y, z'
loop_
 _atom_site_type_symbol
 _atom_site_label
 _atom_site_symmetry_multiplicity
 _atom_site_fract_x
 _atom_site_fract_y
 _atom_site_fract_z
 _atom_site_occupancy
  Tb  Tb0  1  0.377225  0.750000  0.694256  1
  Tb  Tb1  1  0.621501  0.250000  0.306577  1
  Tb  Tb2  1  0.877543  0.250000  0.807614  1
  Tb  Tb3  1  0.119744  0.750000  0.188904  1
  Tb  Tb4  1  0.945833  0.750000  0.504604  1
  Tb  Tb5  1  0.053900  0.250000  0.496010  1
  Tb  Tb6  1  0.449214  0.250000  0.996505  1
  Tb  Tb7  1  0.550762  0.750000  0.003507  1
  Dy  Dy8  1  0.845992  0.750000  0.800024  1
  Dy  Dy9  1  0.155254  0.250000  0.204949  1
  Dy  Dy10  1  0.344583  0.250000  0.706252  1
  Dy  Dy11  1  0.654395  0.750000  0.295022  1
  Dy  Dy12  1  0.675640  0.041186  0.564293  1
  Dy  Dy13  1  0.323743  0.957981  0.435664  1
  Dy  Dy14  1  0.176245  0.957678  0.935700  1
  Dy  Dy15  1  0.323743  0.542019  0.435664  1
  Dy  Dy16  1  0.824956  0.036062  0.062875  1
  Dy  Dy17  1  0.675640  0.458814  0.564293  1
  Dy  Dy18  1  0.824956  0.463938  0.062875  1
  Dy  Dy19  1  0.176245  0.542322  0.935700  1
  Co  Co20  1  0.932750  0.750000  0.009200  1
  Bi  Bi21  1  0.572020  0.492455  0.827325  1
  Bi  Bi22  1  0.428890  0.507714  0.172549  1
  Bi  Bi23  1  0.070267  0.507624  0.673541  1
  Bi  Bi24  1  0.428890  0.992286  0.172549  1
  Bi  Bi25  1  0.929031  0.492884  0.326325  1
  Bi  Bi26  1  0.572020  0.007545  0.827325  1
  Bi  Bi27  1  0.929031  0.007116  0.326325  1
  Bi  Bi28  1  0.070267  0.992376  0.673541  1
  Ru  Ru29  1  0.572716  0.750000  0.511281  1
  Ru  Ru30  1  0.425960  0.250000  0.488932  1
  Ru  Ru31  1  0.071045  0.250000  0.989817  1
