# generated using pymatgen
data_Sm12B3CCl12
_symmetry_space_group_name_H-M   'P 1'
_cell_length_a   9.61239596
_cell_length_b   9.61239535
_cell_length_c   9.61239947
_cell_angle_alpha   109.31198512
_cell_angle_beta   109.31195983
_cell_angle_gamma   109.31191960
_symmetry_Int_Tables_number   1
_chemical_formula_structural   Sm12B3CCl12
_chemical_formula_sum   'Sm12 B3 C1 Cl12'
_cell_volume   687.71406266
_cell_formula_units_Z   1
loop_
 _symmetry_equiv_pos_site_id
 _symmetry_equiv_pos_as_xyz
  1  'x, y, z'
loop_
 _atom_site_type_symbol
 _atom_site_label
 _atom_site_symmetry_multiplicity
 _atom_site_fract_x
 _atom_site_fract_y
 _atom_site_fract_z
 _atom_site_occupancy
  Sm  Sm0  1  0.468316  0.480560  0.236385  1
  Sm  Sm1  1  0.750000  0.237423  0.262577  1
  Sm  Sm2  1  0.750001  0.013403  0.486597  1
  Sm  Sm3  1  0.236385  0.468315  0.480560  1
  Sm  Sm4  1  0.262577  0.750000  0.237422  1
  Sm  Sm5  1  0.031684  0.263615  0.019440  1
  Sm  Sm6  1  0.019440  0.031684  0.263615  1
  Sm  Sm7  1  0.486598  0.750001  0.013403  1
  Sm  Sm8  1  0.480560  0.236385  0.468316  1
  Sm  Sm9  1  0.013403  0.486598  0.750000  1
  Sm  Sm10  1  0.263615  0.019439  0.031684  1
  Sm  Sm11  1  0.237422  0.262576  0.750000  1
  B  B12  1  0.499236  0.000764  0.250000  1
  B  B13  1  0.000764  0.250000  0.499236  1
  B  B14  1  0.250000  0.499235  0.000764  1
  C  C15  1  0.250000  0.250000  0.250000  1
  Cl  Cl16  1  0.250000  0.755710  0.744291  1
  Cl  Cl17  1  0.511078  0.505423  0.753591  1
  Cl  Cl18  1  0.988923  0.746410  0.994578  1
  Cl  Cl19  1  0.744291  0.250000  0.755709  1
  Cl  Cl20  1  0.994578  0.988922  0.746409  1
  Cl  Cl21  1  0.249999  0.994655  0.505345  1
  Cl  Cl22  1  0.753591  0.511078  0.505423  1
  Cl  Cl23  1  0.505345  0.249999  0.994655  1
  Cl  Cl24  1  0.755710  0.744292  0.250001  1
  Cl  Cl25  1  0.746409  0.994577  0.988922  1
  Cl  Cl26  1  0.994655  0.505345  0.250000  1
  Cl  Cl27  1  0.505422  0.753592  0.511078  1
