# generated using pymatgen
data_Tb3Y3Si24OsRu7
_symmetry_space_group_name_H-M   'P 1'
_cell_length_a   10.13155110
_cell_length_b   10.13148007
_cell_length_c   8.16483201
_cell_angle_alpha   89.99270869
_cell_angle_beta   90.00338613
_cell_angle_gamma   132.48705471
_symmetry_Int_Tables_number   1
_chemical_formula_structural   Tb3Y3Si24OsRu7
_chemical_formula_sum   'Tb3 Y3 Si24 Os1 Ru7'
_cell_volume   618.04039474
_cell_formula_units_Z   1
loop_
 _symmetry_equiv_pos_site_id
 _symmetry_equiv_pos_as_xyz
  1  'x, y, z'
loop_
 _atom_site_type_symbol
 _atom_site_label
 _atom_site_symmetry_multiplicity
 _atom_site_fract_x
 _atom_site_fract_y
 _atom_site_fract_z
 _atom_site_occupancy
  Tb  Tb0  1  0.997524  0.497454  0.249865  1
  Tb  Tb1  1  0.497530  0.997235  0.249765  1
  Tb  Tb2  1  0.002766  0.502471  0.750236  1
  Y  Y3  1  0.499892  0.500110  0.500012  1
  Y  Y4  1  0.000027  0.999975  0.999987  1
  Y  Y5  1  0.502539  0.002469  0.750149  1
  Si  Si6  1  0.795412  0.204541  0.500025  1
  Si  Si7  1  0.294895  0.705138  0.999979  1
  Si  Si8  1  0.205199  0.794837  0.500019  1
  Si  Si9  1  0.705223  0.294726  0.999970  1
  Si  Si10  1  0.332489  0.332663  0.833671  1
  Si  Si11  1  0.667328  0.667513  0.166332  1
  Si  Si12  1  0.166782  0.166573  0.332765  1
  Si  Si13  1  0.833416  0.833220  0.667231  1
  Si  Si14  1  0.122172  0.887958  0.728683  1
  Si  Si15  1  0.112031  0.877802  0.271311  1
  Si  Si16  1  0.611959  0.377897  0.227181  1
  Si  Si17  1  0.622120  0.388075  0.772829  1
  Si  Si18  1  0.877193  0.111267  0.270813  1
  Si  Si19  1  0.888769  0.122825  0.729178  1
  Si  Si20  1  0.387891  0.622491  0.771924  1
  Si  Si21  1  0.377482  0.612098  0.228079  1
  Si  Si22  1  0.344127  0.110742  0.505439  1
  Si  Si23  1  0.889251  0.655853  0.494550  1
  Si  Si24  1  0.387961  0.154253  0.005197  1
  Si  Si25  1  0.845762  0.612030  0.994806  1
  Si  Si26  1  0.654050  0.887993  0.493711  1
  Si  Si27  1  0.111997  0.345964  0.506285  1
  Si  Si28  1  0.611861  0.845514  0.994771  1
  Si  Si29  1  0.154470  0.388136  0.005238  1
  Os  Os30  1  0.669047  0.330866  0.500034  1
  Ru  Ru31  1  0.169163  0.830906  0.999985  1
  Ru  Ru32  1  0.330974  0.669104  0.500012  1
  Ru  Ru33  1  0.830852  0.169060  0.999968  1
  Ru  Ru34  1  0.127114  0.127378  0.626619  1
  Ru  Ru35  1  0.872642  0.872908  0.373378  1
  Ru  Ru36  1  0.374035  0.373962  0.127589  1
  Ru  Ru37  1  0.626057  0.625990  0.872413  1
