# generated using pymatgen
data_FeAg2HgF7
_symmetry_space_group_name_H-M   'P 1'
_cell_length_a   7.88617105
_cell_length_b   7.88639524
_cell_length_c   7.88643908
_cell_angle_alpha   119.66534024
_cell_angle_beta   120.21592180
_cell_angle_gamma   90.10552303
_symmetry_Int_Tables_number   1
_chemical_formula_structural   FeAg2HgF7
_chemical_formula_sum   'Fe2 Ag4 Hg2 F14'
_cell_volume   347.11977547
_cell_formula_units_Z   2
loop_
 _symmetry_equiv_pos_site_id
 _symmetry_equiv_pos_as_xyz
  1  'x, y, z'
loop_
 _atom_site_type_symbol
 _atom_site_label
 _atom_site_symmetry_multiplicity
 _atom_site_fract_x
 _atom_site_fract_y
 _atom_site_fract_z
 _atom_site_occupancy
  Fe  Fe0  1  0.000000  0.000000  0.500000  1
  Fe  Fe1  1  0.000000  0.500000  0.000000  1
  Ag  Ag2  1  0.000000  0.000000  0.000000  1
  Ag  Ag3  1  0.500000  0.500000  0.000000  1
  Ag  Ag4  1  0.500000  0.000000  0.000000  1
  Ag  Ag5  1  0.500000  0.500000  0.500000  1
  Hg  Hg6  1  0.500000  0.000000  0.500000  1
  Hg  Hg7  1  0.000000  0.500000  0.500000  1
  F  F8  1  0.383735  0.110971  0.272769  1
  F  F9  1  0.661786  0.389020  0.272759  1
  F  F10  1  0.699927  0.377144  0.822714  1
  F  F11  1  0.945579  0.122848  0.322793  1
  F  F12  1  0.945570  0.622783  0.822726  1
  F  F13  1  0.699929  0.877206  0.322767  1
  F  F14  1  0.300071  0.122794  0.677233  1
  F  F15  1  0.054430  0.377217  0.177274  1
  F  F16  1  0.054421  0.877152  0.677207  1
  F  F17  1  0.300073  0.622856  0.177286  1
  F  F18  1  0.998694  0.750001  0.248693  1
  F  F19  1  0.616265  0.889029  0.727231  1
  F  F20  1  0.338214  0.610980  0.727241  1
  F  F21  1  0.001306  0.249999  0.751307  1
