# generated using pymatgen
data_Sr7TaSi2N9
_symmetry_space_group_name_H-M   'P 1'
_cell_length_a   10.40157200
_cell_length_b   6.42784776
_cell_length_c   9.53200652
_cell_angle_alpha   89.56976797
_cell_angle_beta   90.00000000
_cell_angle_gamma   90.00000000
_symmetry_Int_Tables_number   1
_chemical_formula_structural   Sr7TaSi2N9
_chemical_formula_sum   'Sr14 Ta2 Si4 N18'
_cell_volume   637.28933168
_cell_formula_units_Z   2
loop_
 _symmetry_equiv_pos_site_id
 _symmetry_equiv_pos_as_xyz
  1  'x, y, z'
loop_
 _atom_site_type_symbol
 _atom_site_label
 _atom_site_symmetry_multiplicity
 _atom_site_fract_x
 _atom_site_fract_y
 _atom_site_fract_z
 _atom_site_occupancy
  Sr  Sr0  1  0.945973  0.430427  0.168719  1
  Sr  Sr1  1  0.078852  0.248794  0.493299  1
  Sr  Sr2  1  0.250000  0.100090  0.794202  1
  Sr  Sr3  1  0.445973  0.569573  0.831281  1
  Sr  Sr4  1  0.578852  0.751206  0.506701  1
  Sr  Sr5  1  0.581998  0.071613  0.832594  1
  Sr  Sr6  1  0.918002  0.071613  0.832594  1
  Sr  Sr7  1  0.418002  0.928387  0.167406  1
  Sr  Sr8  1  0.421148  0.248794  0.493299  1
  Sr  Sr9  1  0.081998  0.928387  0.167406  1
  Sr  Sr10  1  0.921148  0.751206  0.506701  1
  Sr  Sr11  1  0.054027  0.569573  0.831281  1
  Sr  Sr12  1  0.750000  0.899910  0.205798  1
  Sr  Sr13  1  0.554027  0.430427  0.168719  1
  Ta  Ta14  1  0.750000  0.284609  0.439700  1
  Ta  Ta15  1  0.250000  0.715391  0.560300  1
  Si  Si16  1  0.250000  0.325771  0.066279  1
  Si  Si17  1  0.750000  0.460174  0.719672  1
  Si  Si18  1  0.750000  0.674229  0.933721  1
  Si  Si19  1  0.250000  0.539826  0.280328  1
  N  N20  1  0.393664  0.235063  0.987079  1
  N  N21  1  0.250000  0.260529  0.253888  1
  N  N22  1  0.894886  0.127063  0.348132  1
  N  N23  1  0.617302  0.366855  0.627399  1
  N  N24  1  0.750000  0.543817  0.337527  1
  N  N25  1  0.250000  0.606855  0.095364  1
  N  N26  1  0.882698  0.366855  0.627399  1
  N  N27  1  0.382698  0.633145  0.372601  1
  N  N28  1  0.750000  0.393145  0.904636  1
  N  N29  1  0.105114  0.872937  0.651868  1
  N  N30  1  0.750000  0.739471  0.746112  1
  N  N31  1  0.117302  0.633145  0.372601  1
  N  N32  1  0.606336  0.764937  0.012921  1
  N  N33  1  0.250000  0.456183  0.662473  1
  N  N34  1  0.394886  0.872937  0.651868  1
  N  N35  1  0.605114  0.127063  0.348132  1
  N  N36  1  0.106336  0.235063  0.987079  1
  N  N37  1  0.893664  0.764937  0.012921  1
