# generated using pymatgen
data_Ta6MnAl4PtC2
_symmetry_space_group_name_H-M   'P 1'
_cell_length_a   8.28472736
_cell_length_b   8.28472836
_cell_length_c   8.25035100
_cell_angle_alpha   60.13716522
_cell_angle_beta   60.13716126
_cell_angle_gamma   60.26214194
_symmetry_Int_Tables_number   1
_chemical_formula_structural   Ta6MnAl4PtC2
_chemical_formula_sum   'Ta12 Mn2 Al8 Pt2 C4'
_cell_volume   402.03863484
_cell_formula_units_Z   2
loop_
 _symmetry_equiv_pos_site_id
 _symmetry_equiv_pos_as_xyz
  1  'x, y, z'
loop_
 _atom_site_type_symbol
 _atom_site_label
 _atom_site_symmetry_multiplicity
 _atom_site_fract_x
 _atom_site_fract_y
 _atom_site_fract_z
 _atom_site_occupancy
  Ta  Ta0  1  0.567724  0.937873  0.555456  1
  Ta  Ta1  1  0.312127  0.682276  0.694544  1
  Ta  Ta2  1  0.682276  0.312127  0.311053  1
  Ta  Ta3  1  0.312127  0.682276  0.311053  1
  Ta  Ta4  1  0.692933  0.692933  0.307067  1
  Ta  Ta5  1  0.316428  0.316428  0.683572  1
  Ta  Ta6  1  0.557067  0.557067  0.942933  1
  Ta  Ta7  1  0.937873  0.567724  0.555456  1
  Ta  Ta8  1  0.567724  0.937873  0.938947  1
  Ta  Ta9  1  0.933572  0.933572  0.566428  1
  Ta  Ta10  1  0.682276  0.312127  0.694544  1
  Ta  Ta11  1  0.937873  0.567724  0.938947  1
  Mn  Mn12  1  0.625000  0.125000  0.125000  1
  Mn  Mn13  1  0.125000  0.625000  0.125000  1
  Al  Al14  1  0.915563  0.915563  0.923614  1
  Al  Al15  1  0.997504  0.341871  0.330312  1
  Al  Al16  1  0.341871  0.997504  0.330312  1
  Al  Al17  1  0.334437  0.334437  0.004737  1
  Al  Al18  1  0.908129  0.252496  0.919688  1
  Al  Al19  1  0.915563  0.915563  0.245263  1
  Al  Al20  1  0.252496  0.908129  0.919688  1
  Al  Al21  1  0.334437  0.334437  0.326386  1
  Pt  Pt22  1  0.125000  0.125000  0.125000  1
  Pt  Pt23  1  0.125000  0.125000  0.625000  1
  C  C24  1  0.625000  0.625000  0.625000  1
  C  C25  1  0.125000  0.625000  0.625000  1
  C  C26  1  0.625000  0.125000  0.625000  1
  C  C27  1  0.625000  0.625000  0.125000  1
