# generated using pymatgen
data_Cs7RbV7MoN16
_symmetry_space_group_name_H-M   'P 1'
_cell_length_a   5.96335066
_cell_length_b   8.46000420
_cell_length_c   11.93498400
_cell_angle_alpha   90.00000000
_cell_angle_beta   90.00000000
_cell_angle_gamma   89.98561441
_symmetry_Int_Tables_number   1
_chemical_formula_structural   Cs7RbV7MoN16
_chemical_formula_sum   'Cs7 Rb1 V7 Mo1 N16'
_cell_volume   602.11958523
_cell_formula_units_Z   1
loop_
 _symmetry_equiv_pos_site_id
 _symmetry_equiv_pos_as_xyz
  1  'x, y, z'
loop_
 _atom_site_type_symbol
 _atom_site_label
 _atom_site_symmetry_multiplicity
 _atom_site_fract_x
 _atom_site_fract_y
 _atom_site_fract_z
 _atom_site_occupancy
  Cs  Cs0  1  0.748626  0.127018  0.001646  1
  Cs  Cs1  1  0.248227  0.870818  0.494137  1
  Cs  Cs2  1  0.248227  0.870818  0.005863  1
  Cs  Cs3  1  0.748626  0.127018  0.498354  1
  Cs  Cs4  1  0.239713  0.619120  0.250000  1
  Cs  Cs5  1  0.262840  0.626750  0.750000  1
  Cs  Cs6  1  0.762802  0.385402  0.750000  1
  Rb  Rb7  1  0.738595  0.372877  0.250000  1
  V  V8  1  0.248725  0.378510  0.004608  1
  V  V9  1  0.748634  0.624891  0.497172  1
  V  V10  1  0.748634  0.624891  0.002828  1
  V  V11  1  0.248725  0.378510  0.495392  1
  V  V12  1  0.243224  0.125487  0.250000  1
  V  V13  1  0.743263  0.877167  0.250000  1
  V  V14  1  0.759315  0.865382  0.750000  1
  Mo  Mo15  1  0.259137  0.124802  0.750000  1
  N  N16  1  0.988635  0.006082  0.250000  1
  N  N17  1  0.490217  0.997703  0.250000  1
  N  N18  1  0.016221  0.985223  0.750000  1
  N  N19  1  0.521392  0.003471  0.750000  1
  N  N20  1  0.248169  0.251609  0.373068  1
  N  N21  1  0.747785  0.752565  0.125046  1
  N  N22  1  0.750507  0.743953  0.874391  1
  N  N23  1  0.250060  0.253656  0.622188  1
  N  N24  1  0.750507  0.743953  0.625609  1
  N  N25  1  0.250060  0.253656  0.877812  1
  N  N26  1  0.248169  0.251609  0.126932  1
  N  N27  1  0.747785  0.752565  0.374954  1
  N  N28  1  0.498053  0.501469  0.495160  1
  N  N29  1  0.998541  0.500776  0.004832  1
  N  N30  1  0.498053  0.501469  0.004840  1
  N  N31  1  0.998541  0.500776  0.495168  1
