# generated using pymatgen
data_Fe3Ni(NO3)8
_symmetry_space_group_name_H-M   'P 1'
_cell_length_a   7.60248520
_cell_length_b   7.59966458
_cell_length_c   7.60116783
_cell_angle_alpha   90.71388356
_cell_angle_beta   90.64167421
_cell_angle_gamma   90.69613952
_symmetry_Int_Tables_number   1
_chemical_formula_structural   Fe3Ni(NO3)8
_chemical_formula_sum   'Fe3 Ni1 N8 O24'
_cell_volume   439.07284238
_cell_formula_units_Z   1
loop_
 _symmetry_equiv_pos_site_id
 _symmetry_equiv_pos_as_xyz
  1  'x, y, z'
loop_
 _atom_site_type_symbol
 _atom_site_label
 _atom_site_symmetry_multiplicity
 _atom_site_fract_x
 _atom_site_fract_y
 _atom_site_fract_z
 _atom_site_occupancy
  Fe  Fe0  1  0.000000  0.500000  0.500000  1
  Fe  Fe1  1  0.500000  0.500000  0.000000  1
  Fe  Fe2  1  0.500000  0.000000  0.500000  1
  Ni  Ni3  1  0.000000  0.000000  0.000000  1
  N  N4  1  0.336212  0.336241  0.336342  1
  N  N5  1  0.845135  0.155545  0.657700  1
  N  N6  1  0.155632  0.657688  0.845161  1
  N  N7  1  0.657774  0.845150  0.155675  1
  N  N8  1  0.154865  0.844455  0.342300  1
  N  N9  1  0.663788  0.663759  0.663658  1
  N  N10  1  0.342226  0.154850  0.844325  1
  N  N11  1  0.844368  0.342312  0.154839  1
  O  O12  1  0.984706  0.243331  0.636431  1
  O  O13  1  0.015294  0.756669  0.363569  1
  O  O14  1  0.636360  0.984751  0.243484  1
  O  O15  1  0.243334  0.636385  0.984696  1
  O  O16  1  0.329359  0.223387  0.457069  1
  O  O17  1  0.457094  0.329306  0.223506  1
  O  O18  1  0.223400  0.456998  0.329474  1
  O  O19  1  0.670641  0.776613  0.542931  1
  O  O20  1  0.542906  0.670694  0.776494  1
  O  O21  1  0.776600  0.543002  0.670526  1
  O  O22  1  0.719645  0.168618  0.546988  1
  O  O23  1  0.547077  0.719560  0.168847  1
  O  O24  1  0.168829  0.546968  0.719528  1
  O  O25  1  0.280355  0.831382  0.453012  1
  O  O26  1  0.452923  0.280440  0.831153  1
  O  O27  1  0.831171  0.453032  0.280472  1
  O  O28  1  0.172033  0.946296  0.212761  1
  O  O29  1  0.212670  0.171970  0.946159  1
  O  O30  1  0.946200  0.212758  0.171839  1
  O  O31  1  0.827967  0.053704  0.787239  1
  O  O32  1  0.787330  0.828030  0.053841  1
  O  O33  1  0.053800  0.787242  0.828161  1
  O  O34  1  0.363640  0.015249  0.756516  1
  O  O35  1  0.756666  0.363615  0.015304  1
