# generated using pymatgen
data_DyY2(HoRu)2
_symmetry_space_group_name_H-M   'P 1'
_cell_length_a   6.34890093
_cell_length_b   7.29848828
_cell_length_c   8.48686248
_cell_angle_alpha   96.76632072
_cell_angle_beta   111.96516910
_cell_angle_gamma   89.99999704
_symmetry_Int_Tables_number   1
_chemical_formula_structural   DyY2(HoRu)2
_chemical_formula_sum   'Dy2 Y4 Ho4 Ru4'
_cell_volume   361.75770327
_cell_formula_units_Z   2
loop_
 _symmetry_equiv_pos_site_id
 _symmetry_equiv_pos_as_xyz
  1  'x, y, z'
loop_
 _atom_site_type_symbol
 _atom_site_label
 _atom_site_symmetry_multiplicity
 _atom_site_fract_x
 _atom_site_fract_y
 _atom_site_fract_z
 _atom_site_occupancy
  Dy  Dy0  1  0.639737  0.814959  0.434364  1
  Dy  Dy1  1  0.205373  0.685041  0.565636  1
  Y  Y2  1  0.978075  0.916336  0.187151  1
  Y  Y3  1  0.790923  0.583664  0.812849  1
  Y  Y4  1  0.021949  0.083960  0.812854  1
  Y  Y5  1  0.209096  0.416040  0.187146  1
  Ho  Ho6  1  0.360354  0.185047  0.565657  1
  Ho  Ho7  1  0.794697  0.314953  0.434343  1
  Ho  Ho8  1  0.420767  0.750000  0.000000  1
  Ho  Ho9  1  0.579280  0.250000  0.000000  1
  Ru  Ru10  1  0.820520  0.575002  0.221198  1
  Ru  Ru11  1  0.599322  0.924998  0.778802  1
  Ru  Ru12  1  0.179236  0.424607  0.778565  1
  Ru  Ru13  1  0.400671  0.075393  0.221435  1
