# generated using pymatgen
data_Ho3Zn2Cd3Pt
_symmetry_space_group_name_H-M   'P 1'
_cell_length_a   7.75790900
_cell_length_b   7.75791001
_cell_length_c   3.79929800
_cell_angle_alpha   90.00000000
_cell_angle_beta   90.00000000
_cell_angle_gamma   120.00001700
_symmetry_Int_Tables_number   1
_chemical_formula_structural   Ho3Zn2Cd3Pt
_chemical_formula_sum   'Ho3 Zn2 Cd3 Pt1'
_cell_volume   198.02651067
_cell_formula_units_Z   1
loop_
 _symmetry_equiv_pos_site_id
 _symmetry_equiv_pos_as_xyz
  1  'x, y, z'
loop_
 _atom_site_type_symbol
 _atom_site_label
 _atom_site_symmetry_multiplicity
 _atom_site_fract_x
 _atom_site_fract_y
 _atom_site_fract_z
 _atom_site_occupancy
  Ho  Ho0  1  0.023057  0.422137  0.500000  1
  Ho  Ho1  1  0.577863  0.600920  0.500000  1
  Ho  Ho2  1  0.399080  0.976943  0.500000  1
  Zn  Zn3  1  0.666667  0.333333  0.000000  1
  Zn  Zn4  1  0.000000  0.000000  0.500000  1
  Cd  Cd5  1  0.988985  0.734952  0.000000  1
  Cd  Cd6  1  0.265048  0.254032  0.000000  1
  Cd  Cd7  1  0.745968  0.011015  0.000000  1
  Pt  Pt8  1  0.333333  0.666667  0.000000  1
