# generated using pymatgen
data_LiAl5Ir2
_symmetry_space_group_name_H-M   'P 1'
_cell_length_a   4.23259000
_cell_length_b   4.23258745
_cell_length_c   7.96218500
_cell_angle_alpha   89.99976633
_cell_angle_beta   90.00024794
_cell_angle_gamma   119.99992570
_symmetry_Int_Tables_number   1
_chemical_formula_structural   LiAl5Ir2
_chemical_formula_sum   'Li1 Al5 Ir2'
_cell_volume   123.53083102
_cell_formula_units_Z   1
loop_
 _symmetry_equiv_pos_site_id
 _symmetry_equiv_pos_as_xyz
  1  'x, y, z'
loop_
 _atom_site_type_symbol
 _atom_site_label
 _atom_site_symmetry_multiplicity
 _atom_site_fract_x
 _atom_site_fract_y
 _atom_site_fract_z
 _atom_site_occupancy
  Li  Li0  1  0.333314  0.666668  0.574897  1
  Al  Al1  1  0.666656  0.333334  0.084832  1
  Al  Al2  1  0.666654  0.333335  0.436334  1
  Al  Al3  1  0.333323  0.666667  0.911711  1
  Al  Al4  1  0.999989  0.000001  0.266188  1
  Al  Al5  1  0.999988  0.000001  0.724541  1
  Ir  Ir6  1  0.333321  0.666668  0.237464  1
  Ir  Ir7  1  0.666654  0.333334  0.764036  1
