# generated using pymatgen
data_Tb3Ho5(GaBr6)2
_symmetry_space_group_name_H-M   'P 1'
_cell_length_a   4.05120200
_cell_length_b   13.37709892
_cell_length_c   14.12037529
_cell_angle_alpha   90.09771527
_cell_angle_beta   90.00000000
_cell_angle_gamma   90.00000000
_symmetry_Int_Tables_number   1
_chemical_formula_structural   Tb3Ho5(GaBr6)2
_chemical_formula_sum   'Tb3 Ho5 Ga2 Br12'
_cell_volume   765.22904353
_cell_formula_units_Z   1
loop_
 _symmetry_equiv_pos_site_id
 _symmetry_equiv_pos_as_xyz
  1  'x, y, z'
loop_
 _atom_site_type_symbol
 _atom_site_label
 _atom_site_symmetry_multiplicity
 _atom_site_fract_x
 _atom_site_fract_y
 _atom_site_fract_z
 _atom_site_occupancy
  Tb  Tb0  1  0.000000  0.878138  0.419113  1
  Tb  Tb1  1  0.000000  0.622417  0.918689  1
  Tb  Tb2  1  0.000000  0.377592  0.081244  1
  Ho  Ho3  1  0.500000  0.118130  0.340763  1
  Ho  Ho4  1  0.500000  0.882475  0.659653  1
  Ho  Ho5  1  0.500000  0.618140  0.159823  1
  Ho  Ho6  1  0.500000  0.381593  0.839956  1
  Ho  Ho7  1  0.000000  0.121140  0.580439  1
  Ga  Ga8  1  0.500000  0.000278  0.500168  1
  Ga  Ga9  1  0.500000  0.499967  0.999754  1
  Br  Br10  1  0.500000  0.244028  0.166556  1
  Br  Br11  1  0.500000  0.756263  0.833572  1
  Br  Br12  1  0.500000  0.744481  0.333817  1
  Br  Br13  1  0.500000  0.253514  0.665302  1
  Br  Br14  1  0.000000  0.253641  0.411132  1
  Br  Br15  1  0.000000  0.746537  0.591037  1
  Br  Br16  1  0.000000  0.753951  0.091226  1
  Br  Br17  1  0.000000  0.245862  0.908705  1
  Br  Br18  1  0.000000  0.004619  0.243402  1
  Br  Br19  1  0.000000  0.997757  0.755910  1
  Br  Br20  1  0.000000  0.504615  0.257174  1
  Br  Br21  1  0.000000  0.494863  0.742565  1
