# generated using pymatgen
data_ZrU3(NiP2)2
_symmetry_space_group_name_H-M   'P 1'
_cell_length_a   3.86559000
_cell_length_b   3.86558951
_cell_length_c   13.89027900
_cell_angle_alpha   90.00000000
_cell_angle_beta   90.00000000
_cell_angle_gamma   120.00002129
_symmetry_Int_Tables_number   1
_chemical_formula_structural   ZrU3(NiP2)2
_chemical_formula_sum   'Zr1 U3 Ni2 P4'
_cell_volume   179.75171019
_cell_formula_units_Z   1
loop_
 _symmetry_equiv_pos_site_id
 _symmetry_equiv_pos_as_xyz
  1  'x, y, z'
loop_
 _atom_site_type_symbol
 _atom_site_label
 _atom_site_symmetry_multiplicity
 _atom_site_fract_x
 _atom_site_fract_y
 _atom_site_fract_z
 _atom_site_occupancy
  Zr  Zr0  1  0.333333  0.666667  0.110551  1
  U  U1  1  0.333333  0.666667  0.380603  1
  U  U2  1  0.666667  0.333333  0.614616  1
  U  U3  1  0.666667  0.333333  0.894558  1
  Ni  Ni4  1  0.000000  0.000000  0.237164  1
  Ni  Ni5  1  0.000000  0.000000  0.757482  1
  P  P6  1  0.000000  0.000000  0.498150  1
  P  P7  1  0.000000  0.000000  0.009518  1
  P  P8  1  0.333333  0.666667  0.754694  1
  P  P9  1  0.666667  0.333333  0.242664  1
