# generated using pymatgen
data_Yb3Mn2O5
_symmetry_space_group_name_H-M   'P 1'
_cell_length_a   5.66666857
_cell_length_b   5.68490804
_cell_length_c   8.71627617
_cell_angle_alpha   109.14385936
_cell_angle_beta   71.04965688
_cell_angle_gamma   100.32244381
_symmetry_Int_Tables_number   1
_chemical_formula_structural   Yb3Mn2O5
_chemical_formula_sum   'Yb6 Mn4 O10'
_cell_volume   250.05344431
_cell_formula_units_Z   2
loop_
 _symmetry_equiv_pos_site_id
 _symmetry_equiv_pos_as_xyz
  1  'x, y, z'
loop_
 _atom_site_type_symbol
 _atom_site_label
 _atom_site_symmetry_multiplicity
 _atom_site_fract_x
 _atom_site_fract_y
 _atom_site_fract_z
 _atom_site_occupancy
  Yb  Yb0  1  0.699026  0.501392  0.099436  1
  Yb  Yb1  1  0.199026  0.001395  0.599438  1
  Yb  Yb2  1  0.098360  0.497642  0.300983  1
  Yb  Yb3  1  0.598361  0.997639  0.800983  1
  Yb  Yb4  1  0.299842  0.505265  0.897965  1
  Yb  Yb5  1  0.799842  0.005267  0.397967  1
  Mn  Mn6  1  0.998643  0.000057  0.999557  1
  Mn  Mn7  1  0.900128  0.502203  0.699255  1
  Mn  Mn8  1  0.498640  0.500075  0.499552  1
  Mn  Mn9  1  0.400111  0.002203  0.199255  1
  O  O10  1  0.948991  0.251876  0.849241  1
  O  O11  1  0.448992  0.751873  0.349240  1
  O  O12  1  0.339966  0.242514  0.049447  1
  O  O13  1  0.839968  0.742518  0.549447  1
  O  O14  1  0.057847  0.760369  0.149544  1
  O  O15  1  0.557847  0.260368  0.649545  1
  O  O16  1  0.238784  0.745620  0.747954  1
  O  O17  1  0.738786  0.245621  0.247954  1
  O  O18  1  0.658869  0.758250  0.951690  1
  O  O19  1  0.158868  0.258247  0.451686  1
