# generated using pymatgen
data_Ca20Ni8AgHg3
_symmetry_space_group_name_H-M   'P 1'
_cell_length_a   7.68933100
_cell_length_b   7.68933100
_cell_length_c   14.93285800
_cell_angle_alpha   90.00000000
_cell_angle_beta   90.00000000
_cell_angle_gamma   90.00000000
_symmetry_Int_Tables_number   1
_chemical_formula_structural   Ca20Ni8AgHg3
_chemical_formula_sum   'Ca20 Ni8 Ag1 Hg3'
_cell_volume   882.91734320
_cell_formula_units_Z   1
loop_
 _symmetry_equiv_pos_site_id
 _symmetry_equiv_pos_as_xyz
  1  'x, y, z'
loop_
 _atom_site_type_symbol
 _atom_site_label
 _atom_site_symmetry_multiplicity
 _atom_site_fract_x
 _atom_site_fract_y
 _atom_site_fract_z
 _atom_site_occupancy
  Ca  Ca0  1  0.674028  0.168384  0.114084  1
  Ca  Ca1  1  0.171732  0.670937  0.618265  1
  Ca  Ca2  1  0.325972  0.831616  0.114084  1
  Ca  Ca3  1  0.828268  0.329063  0.618265  1
  Ca  Ca4  1  0.831616  0.674028  0.114084  1
  Ca  Ca5  1  0.329063  0.171732  0.618265  1
  Ca  Ca6  1  0.168384  0.325972  0.114084  1
  Ca  Ca7  1  0.670937  0.828268  0.618265  1
  Ca  Ca8  1  0.831616  0.325972  0.885916  1
  Ca  Ca9  1  0.329063  0.828268  0.381735  1
  Ca  Ca10  1  0.168384  0.674028  0.885916  1
  Ca  Ca11  1  0.670937  0.171732  0.381735  1
  Ca  Ca12  1  0.674028  0.831616  0.885916  1
  Ca  Ca13  1  0.171732  0.329063  0.381735  1
  Ca  Ca14  1  0.325972  0.168384  0.885916  1
  Ca  Ca15  1  0.828268  0.670937  0.381735  1
  Ca  Ca16  1  0.500000  0.500000  0.754872  1
  Ca  Ca17  1  0.000000  0.000000  0.248891  1
  Ca  Ca18  1  0.000000  0.000000  0.751109  1
  Ca  Ca19  1  0.500000  0.500000  0.245128  1
  Ni  Ni20  1  0.609267  0.109385  0.751924  1
  Ni  Ni21  1  0.109385  0.609267  0.248076  1
  Ni  Ni22  1  0.890615  0.390733  0.248076  1
  Ni  Ni23  1  0.390733  0.890615  0.751924  1
  Ni  Ni24  1  0.890615  0.609267  0.751924  1
  Ni  Ni25  1  0.390733  0.109385  0.248076  1
  Ni  Ni26  1  0.109385  0.390733  0.751924  1
  Ni  Ni27  1  0.609267  0.890615  0.248076  1
  Ag  Ag28  1  0.000000  0.000000  0.000000  1
  Hg  Hg29  1  0.500000  0.500000  0.500000  1
  Hg  Hg30  1  0.500000  0.500000  0.000000  1
  Hg  Hg31  1  0.000000  0.000000  0.500000  1
