# generated using pymatgen
data_Y8Lu2(IrRh)3
_symmetry_space_group_name_H-M   'P 1'
_cell_length_a   10.89779203
_cell_length_b   10.89899200
_cell_length_c   6.37827400
_cell_angle_alpha   90.00135104
_cell_angle_beta   89.99575189
_cell_angle_gamma   89.99907487
_symmetry_Int_Tables_number   1
_chemical_formula_structural   Y8Lu2(IrRh)3
_chemical_formula_sum   'Y16 Lu4 Ir6 Rh6'
_cell_volume   757.57916157
_cell_formula_units_Z   2
loop_
 _symmetry_equiv_pos_site_id
 _symmetry_equiv_pos_as_xyz
  1  'x, y, z'
loop_
 _atom_site_type_symbol
 _atom_site_label
 _atom_site_symmetry_multiplicity
 _atom_site_fract_x
 _atom_site_fract_y
 _atom_site_fract_z
 _atom_site_occupancy
  Y  Y0  1  0.288988  0.087902  0.379207  1
  Y  Y1  1  0.288946  0.912221  0.879197  1
  Y  Y2  1  0.709787  0.088914  0.878991  1
  Y  Y3  1  0.709780  0.911130  0.378973  1
  Y  Y4  1  0.586696  0.788803  0.879543  1
  Y  Y5  1  0.586682  0.211212  0.379556  1
  Y  Y6  1  0.411939  0.789049  0.379170  1
  Y  Y7  1  0.411909  0.210951  0.879153  1
  Y  Y8  1  0.210960  0.412043  0.620414  1
  Y  Y9  1  0.210986  0.587873  0.120414  1
  Y  Y10  1  0.788902  0.413242  0.120452  1
  Y  Y11  1  0.788885  0.586664  0.620521  1
  Y  Y12  1  0.912383  0.710408  0.121501  1
  Y  Y13  1  0.912378  0.289528  0.621477  1
  Y  Y14  1  0.089217  0.710497  0.620881  1
  Y  Y15  1  0.089224  0.289476  0.120927  1
  Lu  Lu16  1  0.000603  0.999882  0.500048  1
  Lu  Lu17  1  0.000595  0.000054  0.000048  1
  Lu  Lu18  1  0.500193  0.499803  0.000010  1
  Lu  Lu19  1  0.500189  0.500210  0.500021  1
  Ir  Ir20  1  0.149628  0.150786  0.749698  1
  Ir  Ir21  1  0.149717  0.849260  0.249738  1
  Ir  Ir22  1  0.651535  0.348774  0.749868  1
  Ir  Ir23  1  0.651598  0.651223  0.249996  1
  Ir  Ir24  1  0.349621  0.349360  0.250234  1
  Ir  Ir25  1  0.349584  0.650676  0.750243  1
  Rh  Rh26  1  0.849000  0.150200  0.249985  1
  Rh  Rh27  1  0.848986  0.849912  0.749943  1
  Rh  Rh28  1  0.501025  0.000075  0.123027  1
  Rh  Rh29  1  0.501037  0.999918  0.623039  1
  Rh  Rh30  1  0.999519  0.500148  0.876857  1
  Rh  Rh31  1  0.999510  0.499807  0.376871  1
