# generated using pymatgen
data_Hf4AsPRh10
_symmetry_space_group_name_H-M   'P 1'
_cell_length_a   4.02319800
_cell_length_b   5.61871417
_cell_length_c   10.85667723
_cell_angle_alpha   90.12231192
_cell_angle_beta   90.00000000
_cell_angle_gamma   90.00000000
_symmetry_Int_Tables_number   1
_chemical_formula_structural   Hf4AsPRh10
_chemical_formula_sum   'Hf4 As1 P1 Rh10'
_cell_volume   245.41679701
_cell_formula_units_Z   1
loop_
 _symmetry_equiv_pos_site_id
 _symmetry_equiv_pos_as_xyz
  1  'x, y, z'
loop_
 _atom_site_type_symbol
 _atom_site_label
 _atom_site_symmetry_multiplicity
 _atom_site_fract_x
 _atom_site_fract_y
 _atom_site_fract_z
 _atom_site_occupancy
  Hf  Hf0  1  0.500000  0.327107  0.358610  1
  Hf  Hf1  1  0.500000  0.672893  0.641390  1
  Hf  Hf2  1  0.500000  0.172503  0.856411  1
  Hf  Hf3  1  0.500000  0.827497  0.143589  1
  As  As4  1  0.000000  0.500000  0.000000  1
  P  P5  1  0.000000  0.000000  0.500000  1
  Rh  Rh6  1  0.500000  0.313718  0.105955  1
  Rh  Rh7  1  0.500000  0.686282  0.894045  1
  Rh  Rh8  1  0.500000  0.821964  0.399181  1
  Rh  Rh9  1  0.500000  0.178036  0.600819  1
  Rh  Rh10  1  0.000000  0.930412  0.738925  1
  Rh  Rh11  1  0.000000  0.069588  0.261075  1
  Rh  Rh12  1  0.000000  0.428589  0.756357  1
  Rh  Rh13  1  0.000000  0.571411  0.243643  1
  Rh  Rh14  1  0.000000  0.500000  0.500000  1
  Rh  Rh15  1  0.000000  0.000000  0.000000  1
