# generated using pymatgen
data_Er2MgZrRh2
_symmetry_space_group_name_H-M   'P 1'
_cell_length_a   4.45720900
_cell_length_b   6.97445296
_cell_length_c   8.35252325
_cell_angle_alpha   94.39341863
_cell_angle_beta   90.00000000
_cell_angle_gamma   90.00000000
_symmetry_Int_Tables_number   1
_chemical_formula_structural   Er2MgZrRh2
_chemical_formula_sum   'Er4 Mg2 Zr2 Rh4'
_cell_volume   258.88853243
_cell_formula_units_Z   2
loop_
 _symmetry_equiv_pos_site_id
 _symmetry_equiv_pos_as_xyz
  1  'x, y, z'
loop_
 _atom_site_type_symbol
 _atom_site_label
 _atom_site_symmetry_multiplicity
 _atom_site_fract_x
 _atom_site_fract_y
 _atom_site_fract_z
 _atom_site_occupancy
  Er  Er0  1  0.250000  0.528910  0.186322  1
  Er  Er1  1  0.750000  0.471090  0.813678  1
  Er  Er2  1  0.250000  0.021317  0.336531  1
  Er  Er3  1  0.750000  0.978683  0.663469  1
  Mg  Mg4  1  0.250000  0.644547  0.571542  1
  Mg  Mg5  1  0.750000  0.355453  0.428458  1
  Zr  Zr6  1  0.250000  0.135254  0.926753  1
  Zr  Zr7  1  0.750000  0.864746  0.073247  1
  Rh  Rh8  1  0.750000  0.743475  0.374431  1
  Rh  Rh9  1  0.250000  0.256525  0.625569  1
  Rh  Rh10  1  0.750000  0.245651  0.090360  1
  Rh  Rh11  1  0.250000  0.754349  0.909640  1
