# generated using pymatgen
data_Na4YbUSe6
_symmetry_space_group_name_H-M   'P 1'
_cell_length_a   7.26525611
_cell_length_b   7.26525629
_cell_length_c   7.29343118
_cell_angle_alpha   80.37204992
_cell_angle_beta   80.37205142
_cell_angle_gamma   120.03113134
_symmetry_Int_Tables_number   1
_chemical_formula_structural   Na4YbUSe6
_chemical_formula_sum   'Na4 Yb1 U1 Se6'
_cell_volume   314.07669536
_cell_formula_units_Z   1
loop_
 _symmetry_equiv_pos_site_id
 _symmetry_equiv_pos_as_xyz
  1  'x, y, z'
loop_
 _atom_site_type_symbol
 _atom_site_label
 _atom_site_symmetry_multiplicity
 _atom_site_fract_x
 _atom_site_fract_y
 _atom_site_fract_z
 _atom_site_occupancy
  Na  Na0  1  0.000003  0.999997  0.000000  1
  Na  Na1  1  0.500699  0.499301  0.500000  1
  Na  Na2  1  0.838412  0.161588  0.500000  1
  Na  Na3  1  0.160421  0.839579  0.500000  1
  Yb  Yb4  1  0.666630  0.333370  0.000000  1
  U  U5  1  0.332856  0.667144  0.000000  1
  Se  Se6  1  0.266339  0.287510  0.229760  1
  Se  Se7  1  0.419478  0.054618  0.769987  1
  Se  Se8  1  0.099860  0.442570  0.774050  1
  Se  Se9  1  0.712490  0.733661  0.770240  1
  Se  Se10  1  0.557430  0.900140  0.225950  1
  Se  Se11  1  0.945382  0.580522  0.230013  1
