# generated using pymatgen
data_La8Zn5Ga3Ir8
_symmetry_space_group_name_H-M   'P 1'
_cell_length_a   4.07284400
_cell_length_b   7.49855140
_cell_length_c   16.69532649
_cell_angle_alpha   89.64963851
_cell_angle_beta   90.00000000
_cell_angle_gamma   90.00000000
_symmetry_Int_Tables_number   1
_chemical_formula_structural   La8Zn5Ga3Ir8
_chemical_formula_sum   'La8 Zn5 Ga3 Ir8'
_cell_volume   509.87291849
_cell_formula_units_Z   1
loop_
 _symmetry_equiv_pos_site_id
 _symmetry_equiv_pos_as_xyz
  1  'x, y, z'
loop_
 _atom_site_type_symbol
 _atom_site_label
 _atom_site_symmetry_multiplicity
 _atom_site_fract_x
 _atom_site_fract_y
 _atom_site_fract_z
 _atom_site_occupancy
  La  La0  1  0.750000  0.328455  0.440117  1
  La  La1  1  0.250000  0.049643  0.717582  1
  La  La2  1  0.250000  0.546538  0.782218  1
  La  La3  1  0.250000  0.672023  0.560671  1
  La  La4  1  0.750000  0.826130  0.058520  1
  La  La5  1  0.250000  0.174049  0.941042  1
  La  La6  1  0.750000  0.452665  0.217352  1
  La  La7  1  0.750000  0.950254  0.281784  1
  Zn  Zn8  1  0.750000  0.002580  0.562871  1
  Zn  Zn9  1  0.250000  0.502313  0.058828  1
  Zn  Zn10  1  0.750000  0.376228  0.648889  1
  Zn  Zn11  1  0.750000  0.497762  0.940584  1
  Zn  Zn12  1  0.250000  0.621231  0.349845  1
  Ga  Ga13  1  0.250000  0.120821  0.149216  1
  Ga  Ga14  1  0.250000  0.998595  0.439037  1
  Ga  Ga15  1  0.750000  0.879106  0.850393  1
  Ir  Ir16  1  0.750000  0.242423  0.818210  1
  Ir  Ir17  1  0.250000  0.241120  0.315419  1
  Ir  Ir18  1  0.250000  0.742112  0.929558  1
  Ir  Ir19  1  0.250000  0.236371  0.564708  1
  Ir  Ir20  1  0.250000  0.757390  0.181655  1
  Ir  Ir21  1  0.750000  0.770055  0.434219  1
  Ir  Ir22  1  0.750000  0.258452  0.070485  1
  Ir  Ir23  1  0.750000  0.753687  0.686796  1
