# generated using pymatgen
data_Er3Al6Fe3Si6Ru
_symmetry_space_group_name_H-M   'P 1'
_cell_length_a   8.51549100
_cell_length_b   8.50534797
_cell_length_c   9.04069340
_cell_angle_alpha   89.97030073
_cell_angle_beta   90.00000000
_cell_angle_gamma   120.03945310
_symmetry_Int_Tables_number   1
_chemical_formula_structural   Er3Al6Fe3Si6Ru
_chemical_formula_sum   'Er6 Al12 Fe6 Si12 Ru2'
_cell_volume   566.84103466
_cell_formula_units_Z   2
loop_
 _symmetry_equiv_pos_site_id
 _symmetry_equiv_pos_as_xyz
  1  'x, y, z'
loop_
 _atom_site_type_symbol
 _atom_site_label
 _atom_site_symmetry_multiplicity
 _atom_site_fract_x
 _atom_site_fract_y
 _atom_site_fract_z
 _atom_site_occupancy
  Er  Er0  1  0.193650  0.387299  0.248890  1
  Er  Er1  1  0.806350  0.612701  0.751110  1
  Er  Er2  1  0.613563  0.807261  0.248076  1
  Er  Er3  1  0.386437  0.192739  0.751924  1
  Er  Er4  1  0.193698  0.807261  0.248076  1
  Er  Er5  1  0.806302  0.192739  0.751924  1
  Al  Al6  1  0.161983  0.323964  0.580918  1
  Al  Al7  1  0.838017  0.676036  0.419082  1
  Al  Al8  1  0.673869  0.840649  0.579954  1
  Al  Al9  1  0.836567  0.673134  0.077192  1
  Al  Al10  1  0.326131  0.159351  0.420046  1
  Al  Al11  1  0.163433  0.326866  0.922808  1
  Al  Al12  1  0.166781  0.840649  0.579954  1
  Al  Al13  1  0.328199  0.163546  0.077891  1
  Al  Al14  1  0.833219  0.159351  0.420046  1
  Al  Al15  1  0.671801  0.836454  0.922109  1
  Al  Al16  1  0.835346  0.163546  0.077891  1
  Al  Al17  1  0.164654  0.836454  0.922109  1
  Fe  Fe18  1  0.500000  0.000000  0.000000  1
  Fe  Fe19  1  0.000000  0.500000  0.000000  1
  Fe  Fe20  1  0.500000  0.000000  0.500000  1
  Fe  Fe21  1  0.500000  0.500000  0.000000  1
  Fe  Fe22  1  0.000000  0.000000  0.000000  1
  Fe  Fe23  1  0.000000  0.000000  0.500000  1
  Si  Si24  1  0.333469  0.666939  0.034281  1
  Si  Si25  1  0.666531  0.333061  0.965719  1
  Si  Si26  1  0.662699  0.325398  0.536424  1
  Si  Si27  1  0.337301  0.674602  0.463576  1
  Si  Si28  1  0.558451  0.116901  0.249117  1
  Si  Si29  1  0.441549  0.883099  0.750883  1
  Si  Si30  1  0.878224  0.439848  0.243332  1
  Si  Si31  1  0.121776  0.560152  0.756668  1
  Si  Si32  1  0.561625  0.439848  0.243332  1
  Si  Si33  1  0.438375  0.560152  0.756668  1
  Si  Si34  1  0.999876  0.999751  0.249916  1
  Si  Si35  1  0.000124  0.000249  0.750084  1
  Ru  Ru36  1  0.000000  0.500000  0.500000  1
  Ru  Ru37  1  0.500000  0.500000  0.500000  1
