# generated using pymatgen
data_LuTa4Nb(ReSi)6
_symmetry_space_group_name_H-M   'P 1'
_cell_length_a   7.65012426
_cell_length_b   7.59121120
_cell_length_c   7.65012419
_cell_angle_alpha   126.93564554
_cell_angle_beta   125.70515435
_cell_angle_gamma   79.55448283
_symmetry_Int_Tables_number   1
_chemical_formula_structural   LuTa4Nb(ReSi)6
_chemical_formula_sum   'Lu1 Ta4 Nb1 Re6 Si6'
_cell_volume   278.36630024
_cell_formula_units_Z   1
loop_
 _symmetry_equiv_pos_site_id
 _symmetry_equiv_pos_as_xyz
  1  'x, y, z'
loop_
 _atom_site_type_symbol
 _atom_site_label
 _atom_site_symmetry_multiplicity
 _atom_site_fract_x
 _atom_site_fract_y
 _atom_site_fract_z
 _atom_site_occupancy
  Lu  Lu0  1  0.536731  0.067350  0.030621  1
  Ta  Ta1  1  0.946449  0.485134  0.038685  1
  Ta  Ta2  1  0.054701  0.104766  0.550065  1
  Ta  Ta3  1  0.744952  0.903006  0.658053  1
  Ta  Ta4  1  0.252578  0.907400  0.154823  1
  Nb  Nb5  1  0.458856  0.499565  0.540710  1
  Re  Re6  1  0.487253  0.244823  0.730993  1
  Re  Re7  1  0.013828  0.244823  0.257570  1
  Re  Re8  1  0.085948  0.750037  0.584687  1
  Re  Re9  1  0.894821  0.498438  0.644326  1
  Re  Re10  1  0.665350  0.750037  0.164089  1
  Re  Re11  1  0.354111  0.498438  0.103615  1
  Si  Si12  1  0.735332  0.475680  0.240348  1
  Si  Si13  1  0.276093  0.543702  0.767610  1
  Si  Si14  1  0.321236  0.823555  0.481398  1
  Si  Si15  1  0.671591  0.160946  0.502931  1
  Si  Si16  1  0.842158  0.823555  0.002320  1
  Si  Si17  1  0.158015  0.160946  0.989354  1
