# generated using pymatgen
data_U3Ga3Co2Cu
_symmetry_space_group_name_H-M   'P 1'
_cell_length_a   3.94509900
_cell_length_b   6.67407249
_cell_length_c   6.67470416
_cell_angle_alpha   119.99686375
_cell_angle_beta   90.00000000
_cell_angle_gamma   90.00000000
_symmetry_Int_Tables_number   1
_chemical_formula_structural   U3Ga3Co2Cu
_chemical_formula_sum   'U3 Ga3 Co2 Cu1'
_cell_volume   152.20369755
_cell_formula_units_Z   1
loop_
 _symmetry_equiv_pos_site_id
 _symmetry_equiv_pos_as_xyz
  1  'x, y, z'
loop_
 _atom_site_type_symbol
 _atom_site_label
 _atom_site_symmetry_multiplicity
 _atom_site_fract_x
 _atom_site_fract_y
 _atom_site_fract_z
 _atom_site_occupancy
  U  U0  1  0.500000  0.564998  0.000000  1
  U  U1  1  0.500000  0.434188  0.434110  1
  U  U2  1  0.500000  0.000079  0.565890  1
  Ga  Ga3  1  0.000000  0.239934  0.000000  1
  Ga  Ga4  1  0.000000  0.759901  0.759885  1
  Ga  Ga5  1  0.000000  0.000016  0.240115  1
  Co  Co6  1  0.000000  0.333076  0.665379  1
  Co  Co7  1  0.000000  0.667697  0.334621  1
  Cu  Cu8  1  0.500000  0.000013  0.000000  1
