# generated using pymatgen
data_Th3Co3Si7
_symmetry_space_group_name_H-M   'P 1'
_cell_length_a   13.06953063
_cell_length_b   13.06953022
_cell_length_c   4.12116800
_cell_angle_alpha   90.00000000
_cell_angle_beta   90.00000000
_cell_angle_gamma   161.73592590
_symmetry_Int_Tables_number   1
_chemical_formula_structural   Th3Co3Si7
_chemical_formula_sum   'Th3 Co3 Si7'
_cell_volume   220.61509956
_cell_formula_units_Z   1
loop_
 _symmetry_equiv_pos_site_id
 _symmetry_equiv_pos_as_xyz
  1  'x, y, z'
loop_
 _atom_site_type_symbol
 _atom_site_label
 _atom_site_symmetry_multiplicity
 _atom_site_fract_x
 _atom_site_fract_y
 _atom_site_fract_z
 _atom_site_occupancy
  Th  Th0  1  0.000846  0.999154  0.000000  1
  Th  Th1  1  0.685746  0.314254  0.500000  1
  Th  Th2  1  0.319198  0.680802  0.500000  1
  Co  Co3  1  0.864025  0.135975  0.000000  1
  Co  Co4  1  0.134218  0.865782  0.000000  1
  Co  Co5  1  0.451806  0.548194  0.500000  1
  Si  Si6  1  0.593872  0.406128  0.000000  1
  Si  Si7  1  0.409441  0.590559  0.000000  1
  Si  Si8  1  0.774688  0.225312  0.000000  1
  Si  Si9  1  0.226789  0.773211  0.000000  1
  Si  Si10  1  0.907809  0.092191  0.500000  1
  Si  Si11  1  0.093326  0.906674  0.500000  1
  Si  Si12  1  0.538236  0.461764  0.500000  1
