# generated using pymatgen
data_Ho3Cr(Co4P3)2
_symmetry_space_group_name_H-M   'P 1'
_cell_length_a   3.67684000
_cell_length_b   10.50603800
_cell_length_c   12.15601600
_cell_angle_alpha   90.00000000
_cell_angle_beta   90.00000000
_cell_angle_gamma   90.00000000
_symmetry_Int_Tables_number   1
_chemical_formula_structural   Ho3Cr(Co4P3)2
_chemical_formula_sum   'Ho6 Cr2 Co16 P12'
_cell_volume   469.57499442
_cell_formula_units_Z   2
loop_
 _symmetry_equiv_pos_site_id
 _symmetry_equiv_pos_as_xyz
  1  'x, y, z'
loop_
 _atom_site_type_symbol
 _atom_site_label
 _atom_site_symmetry_multiplicity
 _atom_site_fract_x
 _atom_site_fract_y
 _atom_site_fract_z
 _atom_site_occupancy
  Ho  Ho0  1  0.000000  0.500000  0.523243  1
  Ho  Ho1  1  0.500000  0.000000  0.476757  1
  Ho  Ho2  1  0.500000  0.817928  0.204710  1
  Ho  Ho3  1  0.500000  0.182072  0.204710  1
  Ho  Ho4  1  0.000000  0.682072  0.795290  1
  Ho  Ho5  1  0.000000  0.317928  0.795290  1
  Cr  Cr6  1  0.500000  0.500000  0.156171  1
  Cr  Cr7  1  0.000000  0.000000  0.843829  1
  Co  Co8  1  0.500000  0.500000  0.702280  1
  Co  Co9  1  0.000000  0.000000  0.297720  1
  Co  Co10  1  0.000000  0.500000  0.986885  1
  Co  Co11  1  0.500000  0.000000  0.013115  1
  Co  Co12  1  0.500000  0.332610  0.992609  1
  Co  Co13  1  0.500000  0.667390  0.992609  1
  Co  Co14  1  0.000000  0.167390  0.007391  1
  Co  Co15  1  0.000000  0.832610  0.007391  1
  Co  Co16  1  0.500000  0.296300  0.430818  1
  Co  Co17  1  0.500000  0.703700  0.430818  1
  Co  Co18  1  0.000000  0.203700  0.569182  1
  Co  Co19  1  0.000000  0.796300  0.569182  1
  Co  Co20  1  0.500000  0.879263  0.708625  1
  Co  Co21  1  0.500000  0.120737  0.708625  1
  Co  Co22  1  0.000000  0.620737  0.291375  1
  Co  Co23  1  0.000000  0.379263  0.291375  1
  P  P24  1  0.500000  0.500000  0.882042  1
  P  P25  1  0.000000  0.000000  0.117958  1
  P  P26  1  0.500000  0.500000  0.345155  1
  P  P27  1  0.000000  0.000000  0.654845  1
  P  P28  1  0.500000  0.311477  0.616227  1
  P  P29  1  0.500000  0.688523  0.616227  1
  P  P30  1  0.000000  0.188523  0.383773  1
  P  P31  1  0.000000  0.811477  0.383773  1
  P  P32  1  0.500000  0.847432  0.892037  1
  P  P33  1  0.500000  0.152568  0.892037  1
  P  P34  1  0.000000  0.652568  0.107963  1
  P  P35  1  0.000000  0.347432  0.107963  1
