# generated using pymatgen
data_TbDy15(In3Fe)2
_symmetry_space_group_name_H-M   'P 1'
_cell_length_a   10.35426502
_cell_length_b   10.35485793
_cell_length_c   7.05212400
_cell_angle_alpha   89.99959338
_cell_angle_beta   89.99674900
_cell_angle_gamma   119.99831244
_symmetry_Int_Tables_number   1
_chemical_formula_structural   TbDy15(In3Fe)2
_chemical_formula_sum   'Tb1 Dy15 In6 Fe2'
_cell_volume   654.81915764
_cell_formula_units_Z   1
loop_
 _symmetry_equiv_pos_site_id
 _symmetry_equiv_pos_as_xyz
  1  'x, y, z'
loop_
 _atom_site_type_symbol
 _atom_site_label
 _atom_site_symmetry_multiplicity
 _atom_site_fract_x
 _atom_site_fract_y
 _atom_site_fract_z
 _atom_site_occupancy
  Tb  Tb0  1  0.000019  0.999982  0.275317  1
  Dy  Dy1  1  0.822171  0.644363  0.492750  1
  Dy  Dy2  1  0.355648  0.177834  0.492748  1
  Dy  Dy3  1  0.822175  0.177829  0.492730  1
  Dy  Dy4  1  0.177830  0.355633  0.992724  1
  Dy  Dy5  1  0.644365  0.822171  0.992719  1
  Dy  Dy6  1  0.177834  0.822172  0.992684  1
  Dy  Dy7  1  0.666652  0.333344  0.177980  1
  Dy  Dy8  1  0.333348  0.666661  0.678054  1
  Dy  Dy9  1  0.536967  0.073918  0.787673  1
  Dy  Dy10  1  0.926072  0.463032  0.787668  1
  Dy  Dy11  1  0.536975  0.463030  0.787677  1
  Dy  Dy12  1  0.463037  0.926077  0.287633  1
  Dy  Dy13  1  0.073938  0.536970  0.287631  1
  Dy  Dy14  1  0.463027  0.536975  0.287639  1
  Dy  Dy15  1  0.999984  0.000019  0.775296  1
  In  In16  1  0.836701  0.673392  0.036231  1
  In  In17  1  0.326560  0.163282  0.036214  1
  In  In18  1  0.836694  0.163303  0.036241  1
  In  In19  1  0.163305  0.326572  0.536180  1
  In  In20  1  0.673444  0.836705  0.536142  1
  In  In21  1  0.163244  0.836734  0.536150  1
  Fe  Fe22  1  0.666683  0.333322  0.560067  1
  Fe  Fe23  1  0.333324  0.666681  0.059923  1
