# generated using pymatgen
data_ScOs3Pb4O13
_symmetry_space_group_name_H-M   'P 1'
_cell_length_a   7.49659642
_cell_length_b   7.49659632
_cell_length_c   7.49659499
_cell_angle_alpha   59.06228533
_cell_angle_beta   59.06228787
_cell_angle_gamma   59.06228823
_symmetry_Int_Tables_number   1
_chemical_formula_structural   ScOs3Pb4O13
_chemical_formula_sum   'Sc1 Os3 Pb4 O13'
_cell_volume   291.53490680
_cell_formula_units_Z   1
loop_
 _symmetry_equiv_pos_site_id
 _symmetry_equiv_pos_as_xyz
  1  'x, y, z'
loop_
 _atom_site_type_symbol
 _atom_site_label
 _atom_site_symmetry_multiplicity
 _atom_site_fract_x
 _atom_site_fract_y
 _atom_site_fract_z
 _atom_site_occupancy
  Sc  Sc0  1  0.501411  0.501411  0.501411  1
  Os  Os1  1  0.000722  0.501282  0.501282  1
  Os  Os2  1  0.501282  0.501282  0.000722  1
  Os  Os3  1  0.501282  0.000722  0.501282  1
  Pb  Pb4  1  0.997414  0.997414  0.997414  1
  Pb  Pb5  1  0.504319  0.002176  0.002176  1
  Pb  Pb6  1  0.002176  0.002176  0.504319  1
  Pb  Pb7  1  0.002176  0.504319  0.002176  1
  O  O8  1  0.851393  0.414850  0.414850  1
  O  O9  1  0.425719  0.806822  0.806822  1
  O  O10  1  0.414850  0.414850  0.851393  1
  O  O11  1  0.806822  0.806822  0.425719  1
  O  O12  1  0.806822  0.425719  0.806822  1
  O  O13  1  0.414850  0.851393  0.414850  1
  O  O14  1  0.159871  0.577700  0.577700  1
  O  O15  1  0.583982  0.187064  0.187064  1
  O  O16  1  0.577700  0.577700  0.159871  1
  O  O17  1  0.187064  0.187064  0.583982  1
  O  O18  1  0.187064  0.583982  0.187064  1
  O  O19  1  0.577700  0.159871  0.577700  1
  O  O20  1  0.120380  0.120380  0.120380  1
