# generated using pymatgen
data_Nd3Th(NiB10)2
_symmetry_space_group_name_H-M   'P 1'
_cell_length_a   4.19241200
_cell_length_b   5.63762792
_cell_length_c   11.21641785
_cell_angle_alpha   89.93438291
_cell_angle_beta   90.00000000
_cell_angle_gamma   90.00000000
_symmetry_Int_Tables_number   1
_chemical_formula_structural   Nd3Th(NiB10)2
_chemical_formula_sum   'Nd3 Th1 Ni2 B20'
_cell_volume   265.10276639
_cell_formula_units_Z   1
loop_
 _symmetry_equiv_pos_site_id
 _symmetry_equiv_pos_as_xyz
  1  'x, y, z'
loop_
 _atom_site_type_symbol
 _atom_site_label
 _atom_site_symmetry_multiplicity
 _atom_site_fract_x
 _atom_site_fract_y
 _atom_site_fract_z
 _atom_site_occupancy
  Nd  Nd0  1  0.500000  0.690702  0.138078  1
  Nd  Nd1  1  0.500000  0.809278  0.635662  1
  Nd  Nd2  1  0.500000  0.190797  0.363210  1
  Th  Th3  1  0.500000  0.310438  0.863175  1
  Ni  Ni4  1  0.000000  0.499930  0.500174  1
  Ni  Ni5  1  0.000000  0.001280  0.999655  1
  B  B6  1  0.000000  0.125896  0.541373  1
  B  B7  1  0.000000  0.874007  0.458771  1
  B  B8  1  0.000000  0.625120  0.958573  1
  B  B9  1  0.000000  0.373189  0.040700  1
  B  B10  1  0.000000  0.156143  0.698034  1
  B  B11  1  0.000000  0.843546  0.302303  1
  B  B12  1  0.300734  0.202600  0.114216  1
  B  B13  1  0.300508  0.798008  0.885289  1
  B  B14  1  0.699702  0.702468  0.385721  1
  B  B15  1  0.700018  0.297093  0.614568  1
  B  B16  1  0.699492  0.798008  0.885289  1
  B  B17  1  0.699266  0.202600  0.114216  1
  B  B18  1  0.299982  0.297093  0.614568  1
  B  B19  1  0.300298  0.702468  0.385721  1
  B  B20  1  0.000000  0.033957  0.187319  1
  B  B21  1  0.000000  0.966602  0.813152  1
  B  B22  1  0.000000  0.533966  0.312779  1
  B  B23  1  0.000000  0.465908  0.687587  1
  B  B24  1  0.000000  0.343527  0.197758  1
  B  B25  1  0.000000  0.655378  0.802109  1
