# generated using pymatgen
data_Cs3LiRhO4
_symmetry_space_group_name_H-M   'P 1'
_cell_length_a   7.81947890
_cell_length_b   7.81947953
_cell_length_c   6.48679684
_cell_angle_alpha   78.29682982
_cell_angle_beta   78.29682667
_cell_angle_gamma   87.02541133
_symmetry_Int_Tables_number   1
_chemical_formula_structural   Cs3LiRhO4
_chemical_formula_sum   'Cs6 Li2 Rh2 O8'
_cell_volume   380.28723910
_cell_formula_units_Z   2
loop_
 _symmetry_equiv_pos_site_id
 _symmetry_equiv_pos_as_xyz
  1  'x, y, z'
loop_
 _atom_site_type_symbol
 _atom_site_label
 _atom_site_symmetry_multiplicity
 _atom_site_fract_x
 _atom_site_fract_y
 _atom_site_fract_z
 _atom_site_occupancy
  Cs  Cs0  1  0.068031  0.246222  0.022585  1
  Cs  Cs1  1  0.594008  0.405992  0.250000  1
  Cs  Cs2  1  0.246222  0.068031  0.522585  1
  Cs  Cs3  1  0.753778  0.931969  0.477415  1
  Cs  Cs4  1  0.931969  0.753778  0.977415  1
  Cs  Cs5  1  0.405992  0.594008  0.750000  1
  Li  Li6  1  0.731990  0.268010  0.750000  1
  Li  Li7  1  0.268010  0.731990  0.250000  1
  Rh  Rh8  1  0.500000  0.000000  0.000000  1
  Rh  Rh9  1  0.000000  0.500000  0.500000  1
  O  O10  1  0.195181  0.489102  0.262056  1
  O  O11  1  0.911528  0.276926  0.482130  1
  O  O12  1  0.489102  0.195181  0.762056  1
  O  O13  1  0.276926  0.911528  0.982130  1
  O  O14  1  0.088472  0.723074  0.517870  1
  O  O15  1  0.723074  0.088472  0.017870  1
  O  O16  1  0.510898  0.804819  0.237944  1
  O  O17  1  0.804819  0.510898  0.737944  1
