# generated using pymatgen
data_Dy3Lu(IrO4)4
_symmetry_space_group_name_H-M   'P 1'
_cell_length_a   5.34483025
_cell_length_b   7.41956263
_cell_length_c   7.66434000
_cell_angle_alpha   80.16281350
_cell_angle_beta   86.33478520
_cell_angle_gamma   89.03893701
_symmetry_Int_Tables_number   1
_chemical_formula_structural   Dy3Lu(IrO4)4
_chemical_formula_sum   'Dy3 Lu1 Ir4 O16'
_cell_volume   298.85280888
_cell_formula_units_Z   1
loop_
 _symmetry_equiv_pos_site_id
 _symmetry_equiv_pos_as_xyz
  1  'x, y, z'
loop_
 _atom_site_type_symbol
 _atom_site_label
 _atom_site_symmetry_multiplicity
 _atom_site_fract_x
 _atom_site_fract_y
 _atom_site_fract_z
 _atom_site_occupancy
  Dy  Dy0  1  0.301210  0.104121  0.667114  1
  Dy  Dy1  1  0.760698  0.387619  0.376297  1
  Dy  Dy2  1  0.238739  0.612322  0.622028  1
  Lu  Lu3  1  0.698661  0.892629  0.333321  1
  Ir  Ir4  1  0.783146  0.300501  0.836164  1
  Ir  Ir5  1  0.216462  0.700600  0.164706  1
  Ir  Ir6  1  0.255893  0.203298  0.161416  1
  Ir  Ir7  1  0.743261  0.795403  0.839370  1
  O  O8  1  0.898275  0.808689  0.063963  1
  O  O9  1  0.096041  0.191002  0.939373  1
  O  O10  1  0.362666  0.944266  0.174894  1
  O  O11  1  0.645220  0.055462  0.825413  1
  O  O12  1  0.105485  0.448374  0.172068  1
  O  O13  1  0.894545  0.550779  0.831911  1
  O  O14  1  0.570339  0.307372  0.046714  1
  O  O15  1  0.423966  0.695322  0.950282  1
  O  O16  1  0.007077  0.324822  0.607538  1
  O  O17  1  0.991061  0.681816  0.391302  1
  O  O18  1  0.449237  0.172740  0.385560  1
  O  O19  1  0.555863  0.825986  0.610129  1
  O  O20  1  0.480902  0.620913  0.334391  1
  O  O21  1  0.522814  0.382984  0.664536  1
  O  O22  1  0.947238  0.122706  0.299287  1
  O  O23  1  0.051202  0.870271  0.702225  1
