# generated using pymatgen
data_GaHgBr3Cl
_symmetry_space_group_name_H-M   'P 1'
_cell_length_a   6.98055422
_cell_length_b   7.11500559
_cell_length_c   10.07857422
_cell_angle_alpha   82.13392397
_cell_angle_beta   75.50089899
_cell_angle_gamma   61.27157723
_symmetry_Int_Tables_number   1
_chemical_formula_structural   GaHgBr3Cl
_chemical_formula_sum   'Ga2 Hg2 Br6 Cl2'
_cell_volume   424.89276311
_cell_formula_units_Z   2
loop_
 _symmetry_equiv_pos_site_id
 _symmetry_equiv_pos_as_xyz
  1  'x, y, z'
loop_
 _atom_site_type_symbol
 _atom_site_label
 _atom_site_symmetry_multiplicity
 _atom_site_fract_x
 _atom_site_fract_y
 _atom_site_fract_z
 _atom_site_occupancy
  Ga  Ga0  1  0.379971  0.859098  0.758921  1
  Ga  Ga1  1  0.620029  0.140902  0.241079  1
  Hg  Hg2  1  0.930488  0.521093  0.886275  1
  Hg  Hg3  1  0.069512  0.478907  0.113725  1
  Br  Br4  1  0.752454  0.554577  0.675534  1
  Br  Br5  1  0.247546  0.445423  0.324466  1
  Br  Br6  1  0.330922  0.827349  0.998259  1
  Br  Br7  1  0.669078  0.172651  0.001741  1
  Br  Br8  1  0.129498  0.810330  0.669816  1
  Br  Br9  1  0.870502  0.189670  0.330184  1
  Cl  Cl10  1  0.393223  0.157755  0.686986  1
  Cl  Cl11  1  0.606777  0.842245  0.313014  1
