# generated using pymatgen
data_SrPr3(USe5)2
_symmetry_space_group_name_H-M   'P 1'
_cell_length_a   7.94973362
_cell_length_b   8.49945251
_cell_length_c   12.54377700
_cell_angle_alpha   90.00000000
_cell_angle_beta   90.00000000
_cell_angle_gamma   90.40576426
_symmetry_Int_Tables_number   1
_chemical_formula_structural   SrPr3(USe5)2
_chemical_formula_sum   'Sr2 Pr6 U4 Se20'
_cell_volume   847.54148004
_cell_formula_units_Z   2
loop_
 _symmetry_equiv_pos_site_id
 _symmetry_equiv_pos_as_xyz
  1  'x, y, z'
loop_
 _atom_site_type_symbol
 _atom_site_label
 _atom_site_symmetry_multiplicity
 _atom_site_fract_x
 _atom_site_fract_y
 _atom_site_fract_z
 _atom_site_occupancy
  Sr  Sr0  1  0.530726  0.502093  0.324456  1
  Sr  Sr1  1  0.969274  0.997907  0.824456  1
  Pr  Pr2  1  0.472587  0.999038  0.679445  1
  Pr  Pr3  1  0.027413  0.500962  0.179445  1
  Pr  Pr4  1  0.468509  0.501044  0.676042  1
  Pr  Pr5  1  0.031491  0.998956  0.176042  1
  Pr  Pr6  1  0.527177  0.001722  0.323107  1
  Pr  Pr7  1  0.972823  0.498278  0.823107  1
  U  U8  1  0.067830  0.751866  0.491630  1
  U  U9  1  0.432170  0.748134  0.991630  1
  U  U10  1  0.929220  0.249884  0.507914  1
  U  U11  1  0.570780  0.250116  0.007914  1
  Se  Se12  1  0.832805  0.953671  0.586894  1
  Se  Se13  1  0.667195  0.546329  0.086894  1
  Se  Se14  1  0.158502  0.461117  0.407550  1
  Se  Se15  1  0.341498  0.038883  0.907550  1
  Se  Se16  1  0.166286  0.043184  0.408254  1
  Se  Se17  1  0.333714  0.456816  0.908254  1
  Se  Se18  1  0.833768  0.543713  0.592162  1
  Se  Se19  1  0.666232  0.956287  0.092162  1
  Se  Se20  1  0.841426  0.755193  0.312938  1
  Se  Se21  1  0.658574  0.744807  0.812938  1
  Se  Se22  1  0.167328  0.256813  0.682526  1
  Se  Se23  1  0.332672  0.243187  0.182526  1
  Se  Se24  1  0.448776  0.758475  0.501524  1
  Se  Se25  1  0.051224  0.741525  0.001524  1
  Se  Se26  1  0.550201  0.243857  0.505831  1
  Se  Se27  1  0.949799  0.256143  0.005831  1
  Se  Se28  1  0.190163  0.743964  0.711217  1
  Se  Se29  1  0.309837  0.756036  0.211217  1
  Se  Se30  1  0.813640  0.243391  0.288509  1
  Se  Se31  1  0.686360  0.256609  0.788509  1
