# generated using pymatgen
data_Ho12Tc2Ni2SnRu
_symmetry_space_group_name_H-M   'P 1'
_cell_length_a   8.36570983
_cell_length_b   8.36571083
_cell_length_c   8.36571134
_cell_angle_alpha   113.63217644
_cell_angle_beta   109.77147378
_cell_angle_gamma   105.12151553
_symmetry_Int_Tables_number   1
_chemical_formula_structural   Ho12Tc2Ni2SnRu
_chemical_formula_sum   'Ho12 Tc2 Ni2 Sn1 Ru1'
_cell_volume   448.21693161
_cell_formula_units_Z   1
loop_
 _symmetry_equiv_pos_site_id
 _symmetry_equiv_pos_as_xyz
  1  'x, y, z'
loop_
 _atom_site_type_symbol
 _atom_site_label
 _atom_site_symmetry_multiplicity
 _atom_site_fract_x
 _atom_site_fract_y
 _atom_site_fract_z
 _atom_site_occupancy
  Ho  Ho0  1  0.420858  0.232010  0.188846  1
  Ho  Ho1  1  0.579142  0.767990  0.811154  1
  Ho  Ho2  1  0.043163  0.232010  0.811154  1
  Ho  Ho3  1  0.956837  0.767990  0.188846  1
  Ho  Ho4  1  0.177358  0.271474  0.448832  1
  Ho  Ho5  1  0.822642  0.728526  0.551168  1
  Ho  Ho6  1  0.177358  0.728526  0.905885  1
  Ho  Ho7  1  0.822642  0.271474  0.094115  1
  Ho  Ho8  1  0.329940  0.644714  0.314774  1
  Ho  Ho9  1  0.670060  0.355286  0.685226  1
  Ho  Ho10  1  0.329940  0.015166  0.685226  1
  Ho  Ho11  1  0.670060  0.984834  0.314774  1
  Tc  Tc12  1  0.332118  0.000000  0.332118  1
  Tc  Tc13  1  0.667882  0.000000  0.667882  1
  Ni  Ni14  1  0.114453  0.614453  0.500000  1
  Ni  Ni15  1  0.885547  0.385547  0.500000  1
  Sn  Sn16  1  0.500000  0.500000  0.000000  1
  Ru  Ru17  1  0.000000  0.000000  0.000000  1
