# generated using pymatgen
data_La7CeZn8Ir5Rh3
_symmetry_space_group_name_H-M   'P 1'
_cell_length_a   4.03227100
_cell_length_b   7.48995110
_cell_length_c   16.65035437
_cell_angle_alpha   89.93001089
_cell_angle_beta   90.00000000
_cell_angle_gamma   90.00000000
_symmetry_Int_Tables_number   1
_chemical_formula_structural   La7CeZn8Ir5Rh3
_chemical_formula_sum   'La7 Ce1 Zn8 Ir5 Rh3'
_cell_volume   502.86551217
_cell_formula_units_Z   1
loop_
 _symmetry_equiv_pos_site_id
 _symmetry_equiv_pos_as_xyz
  1  'x, y, z'
loop_
 _atom_site_type_symbol
 _atom_site_label
 _atom_site_symmetry_multiplicity
 _atom_site_fract_x
 _atom_site_fract_y
 _atom_site_fract_z
 _atom_site_occupancy
  La  La0  1  0.250000  0.050893  0.716821  1
  La  La1  1  0.250000  0.548284  0.782374  1
  La  La2  1  0.250000  0.669886  0.558676  1
  La  La3  1  0.750000  0.827890  0.060092  1
  La  La4  1  0.250000  0.171661  0.939442  1
  La  La5  1  0.750000  0.452385  0.218497  1
  La  La6  1  0.750000  0.950162  0.283917  1
  Ce  Ce7  1  0.750000  0.322705  0.441221  1
  Zn  Zn8  1  0.250000  0.123454  0.150210  1
  Zn  Zn9  1  0.250000  0.995175  0.439936  1
  Zn  Zn10  1  0.750000  0.874783  0.850393  1
  Zn  Zn11  1  0.750000  0.001624  0.557823  1
  Zn  Zn12  1  0.250000  0.499363  0.059641  1
  Zn  Zn13  1  0.750000  0.372461  0.647217  1
  Zn  Zn14  1  0.750000  0.502448  0.940495  1
  Zn  Zn15  1  0.250000  0.617462  0.351738  1
  Ir  Ir16  1  0.750000  0.257883  0.812507  1
  Ir  Ir17  1  0.250000  0.252441  0.324319  1
  Ir  Ir18  1  0.250000  0.741449  0.933847  1
  Ir  Ir19  1  0.250000  0.248779  0.558499  1
  Ir  Ir20  1  0.250000  0.746267  0.186363  1
  Rh  Rh21  1  0.750000  0.753212  0.434614  1
  Rh  Rh22  1  0.750000  0.259841  0.067026  1
  Rh  Rh23  1  0.750000  0.759492  0.684333  1
