# generated using pymatgen
data_CeTh3In2PtRh3
_symmetry_space_group_name_H-M   'P 1'
_cell_length_a   7.83636518
_cell_length_b   7.83636571
_cell_length_c   3.78443200
_cell_angle_alpha   90.00000000
_cell_angle_beta   90.00000000
_cell_angle_gamma   89.73422526
_symmetry_Int_Tables_number   1
_chemical_formula_structural   CeTh3In2PtRh3
_chemical_formula_sum   'Ce1 Th3 In2 Pt1 Rh3'
_cell_volume   232.39425911
_cell_formula_units_Z   1
loop_
 _symmetry_equiv_pos_site_id
 _symmetry_equiv_pos_as_xyz
  1  'x, y, z'
loop_
 _atom_site_type_symbol
 _atom_site_label
 _atom_site_symmetry_multiplicity
 _atom_site_fract_x
 _atom_site_fract_y
 _atom_site_fract_z
 _atom_site_occupancy
  Ce  Ce0  1  0.166562  0.666562  0.500000  1
  Th  Th1  1  0.675659  0.828709  0.500000  1
  Th  Th2  1  0.829046  0.329046  0.500000  1
  Th  Th3  1  0.328709  0.175659  0.500000  1
  In  In4  1  0.497822  0.500538  0.000000  1
  In  In5  1  0.000538  0.997822  0.000000  1
  Pt  Pt6  1  0.368927  0.868927  0.000000  1
  Rh  Rh7  1  0.633991  0.133991  0.000000  1
  Rh  Rh8  1  0.866034  0.632712  0.000000  1
  Rh  Rh9  1  0.132712  0.366034  0.000000  1
