# generated using pymatgen
data_Ti8TcMo3Ir4
_symmetry_space_group_name_H-M   'P 1'
_cell_length_a   6.23108400
_cell_length_b   4.40551100
_cell_length_c   8.85130400
_cell_angle_alpha   90.00000000
_cell_angle_beta   90.00016691
_cell_angle_gamma   90.00000000
_symmetry_Int_Tables_number   1
_chemical_formula_structural   Ti8TcMo3Ir4
_chemical_formula_sum   'Ti8 Tc1 Mo3 Ir4'
_cell_volume   242.97811182
_cell_formula_units_Z   1
loop_
 _symmetry_equiv_pos_site_id
 _symmetry_equiv_pos_as_xyz
  1  'x, y, z'
loop_
 _atom_site_type_symbol
 _atom_site_label
 _atom_site_symmetry_multiplicity
 _atom_site_fract_x
 _atom_site_fract_y
 _atom_site_fract_z
 _atom_site_occupancy
  Ti  Ti0  1  0.001018  0.749999  0.124338  1
  Ti  Ti1  1  0.499030  0.749999  0.124345  1
  Ti  Ti2  1  0.000027  0.249999  0.374995  1
  Ti  Ti3  1  0.500040  0.249999  0.375002  1
  Ti  Ti4  1  0.498959  0.749999  0.625661  1
  Ti  Ti5  1  0.000971  0.749999  0.625666  1
  Ti  Ti6  1  0.499201  0.249999  0.874994  1
  Ti  Ti7  1  0.000750  0.249999  0.875001  1
  Tc  Tc8  1  0.249984  0.749999  0.874991  1
  Mo  Mo9  1  0.750029  0.249999  0.124273  1
  Mo  Mo10  1  0.250039  0.749999  0.374996  1
  Mo  Mo11  1  0.749952  0.249999  0.625736  1
  Ir  Ir12  1  0.250036  0.249999  0.124651  1
  Ir  Ir13  1  0.750040  0.749999  0.375005  1
  Ir  Ir14  1  0.249961  0.249999  0.625351  1
  Ir  Ir15  1  0.749962  0.749999  0.874998  1
