# generated using pymatgen
data_Er3Hf(Ga3Rh)6
_symmetry_space_group_name_H-M   'P 1'
_cell_length_a   7.53478409
_cell_length_b   7.51680318
_cell_length_c   9.43762700
_cell_angle_alpha   90.00000000
_cell_angle_beta   90.00000000
_cell_angle_gamma   119.79742244
_symmetry_Int_Tables_number   1
_chemical_formula_structural   Er3Hf(Ga3Rh)6
_chemical_formula_sum   'Er3 Hf1 Ga18 Rh6'
_cell_volume   463.85297351
_cell_formula_units_Z   1
loop_
 _symmetry_equiv_pos_site_id
 _symmetry_equiv_pos_as_xyz
  1  'x, y, z'
loop_
 _atom_site_type_symbol
 _atom_site_label
 _atom_site_symmetry_multiplicity
 _atom_site_fract_x
 _atom_site_fract_y
 _atom_site_fract_z
 _atom_site_occupancy
  Er  Er0  1  0.004076  0.329035  0.750000  1
  Er  Er1  1  0.670665  0.998582  0.250000  1
  Er  Er2  1  0.329966  0.003418  0.750000  1
  Hf  Hf3  1  0.996754  0.669746  0.250000  1
  Ga  Ga4  1  0.337069  0.549553  0.250000  1
  Ga  Ga5  1  0.662079  0.452131  0.750000  1
  Ga  Ga6  1  0.552059  0.340197  0.250000  1
  Ga  Ga7  1  0.450651  0.660307  0.750000  1
  Ga  Ga8  1  0.999060  0.338408  0.083841  1
  Ga  Ga9  1  0.000782  0.664726  0.922149  1
  Ga  Ga10  1  0.000782  0.664726  0.577851  1
  Ga  Ga11  1  0.331366  0.996420  0.415741  1
  Ga  Ga12  1  0.999060  0.338408  0.416159  1
  Ga  Ga13  1  0.665109  0.999851  0.580137  1
  Ga  Ga14  1  0.665109  0.999851  0.919863  1
  Ga  Ga15  1  0.331366  0.996420  0.084259  1
  Ga  Ga16  1  0.332981  0.332676  0.565601  1
  Ga  Ga17  1  0.670825  0.668543  0.428330  1
  Ga  Ga18  1  0.670825  0.668543  0.071670  1
  Ga  Ga19  1  0.332981  0.332676  0.934399  1
  Ga  Ga20  1  0.124670  0.124258  0.250000  1
  Ga  Ga21  1  0.871911  0.871318  0.750000  1
  Rh  Rh22  1  0.672045  0.328554  0.001227  1
  Rh  Rh23  1  0.328121  0.672313  0.001891  1
  Rh  Rh24  1  0.328121  0.672313  0.498109  1
  Rh  Rh25  1  0.672045  0.328554  0.498773  1
  Rh  Rh26  1  0.999759  0.999234  0.001230  1
  Rh  Rh27  1  0.999759  0.999234  0.498770  1
