# generated using pymatgen
data_Y3Ni2PtPb3
_symmetry_space_group_name_H-M   'P 1'
_cell_length_a   7.72241500
_cell_length_b   7.72241512
_cell_length_c   3.83162000
_cell_angle_alpha   90.00000000
_cell_angle_beta   90.00000000
_cell_angle_gamma   119.99999519
_symmetry_Int_Tables_number   1
_chemical_formula_structural   Y3Ni2PtPb3
_chemical_formula_sum   'Y3 Ni2 Pt1 Pb3'
_cell_volume   197.88795693
_cell_formula_units_Z   1
loop_
 _symmetry_equiv_pos_site_id
 _symmetry_equiv_pos_as_xyz
  1  'x, y, z'
loop_
 _atom_site_type_symbol
 _atom_site_label
 _atom_site_symmetry_multiplicity
 _atom_site_fract_x
 _atom_site_fract_y
 _atom_site_fract_z
 _atom_site_occupancy
  Y  Y0  1  0.402369  0.000205  0.500000  1
  Y  Y1  1  0.999795  0.402164  0.500000  1
  Y  Y2  1  0.597836  0.597631  0.500000  1
  Ni  Ni3  1  0.000000  0.000000  0.500000  1
  Ni  Ni4  1  0.333333  0.666667  0.000000  1
  Pt  Pt5  1  0.666667  0.333333  0.000000  1
  Pb  Pb6  1  0.736638  0.990767  0.000000  1
  Pb  Pb7  1  0.009233  0.745871  0.000000  1
  Pb  Pb8  1  0.254129  0.263362  0.000000  1
