# generated using pymatgen
data_Zr3Al3IrPt2
_symmetry_space_group_name_H-M   'P 1'
_cell_length_a   7.14317100
_cell_length_b   7.14317164
_cell_length_c   7.29930900
_cell_angle_alpha   90.00000000
_cell_angle_beta   90.00000000
_cell_angle_gamma   120.00000167
_symmetry_Int_Tables_number   1
_chemical_formula_structural   Zr3Al3IrPt2
_chemical_formula_sum   'Zr6 Al6 Ir2 Pt4'
_cell_volume   322.54811327
_cell_formula_units_Z   2
loop_
 _symmetry_equiv_pos_site_id
 _symmetry_equiv_pos_as_xyz
  1  'x, y, z'
loop_
 _atom_site_type_symbol
 _atom_site_label
 _atom_site_symmetry_multiplicity
 _atom_site_fract_x
 _atom_site_fract_y
 _atom_site_fract_z
 _atom_site_occupancy
  Zr  Zr0  1  0.015436  0.602400  0.743358  1
  Zr  Zr1  1  0.984564  0.586964  0.256642  1
  Zr  Zr2  1  0.602400  0.015436  0.256642  1
  Zr  Zr3  1  0.586964  0.984564  0.743358  1
  Zr  Zr4  1  0.413036  0.397600  0.256642  1
  Zr  Zr5  1  0.397600  0.413036  0.743358  1
  Al  Al6  1  0.000000  0.257320  0.500000  1
  Al  Al7  1  0.740790  0.740790  0.000000  1
  Al  Al8  1  0.000000  0.259210  0.000000  1
  Al  Al9  1  0.257320  0.000000  0.500000  1
  Al  Al10  1  0.259210  0.000000  0.000000  1
  Al  Al11  1  0.742680  0.742680  0.500000  1
  Ir  Ir12  1  0.333333  0.666667  0.481031  1
  Ir  Ir13  1  0.666667  0.333333  0.518969  1
  Pt  Pt14  1  0.666667  0.333333  0.975837  1
  Pt  Pt15  1  0.000000  0.000000  0.248279  1
  Pt  Pt16  1  0.000000  0.000000  0.751721  1
  Pt  Pt17  1  0.333333  0.666667  0.024163  1
