# generated using pymatgen
data_Na3TbFe4(P3Ir4)4
_symmetry_space_group_name_H-M   'P 1'
_cell_length_a   3.89456500
_cell_length_b   10.51424659
_cell_length_c   12.57159594
_cell_angle_alpha   90.10434572
_cell_angle_beta   90.00000000
_cell_angle_gamma   90.00000000
_symmetry_Int_Tables_number   1
_chemical_formula_structural   Na3TbFe4(P3Ir4)4
_chemical_formula_sum   'Na3 Tb1 Fe4 P12 Ir16'
_cell_volume   514.78609645
_cell_formula_units_Z   1
loop_
 _symmetry_equiv_pos_site_id
 _symmetry_equiv_pos_as_xyz
  1  'x, y, z'
loop_
 _atom_site_type_symbol
 _atom_site_label
 _atom_site_symmetry_multiplicity
 _atom_site_fract_x
 _atom_site_fract_y
 _atom_site_fract_z
 _atom_site_occupancy
  Na  Na0  1  0.250000  0.580455  0.712480  1
  Na  Na1  1  0.250000  0.919898  0.212462  1
  Na  Na2  1  0.750000  0.419771  0.287542  1
  Tb  Tb3  1  0.750000  0.080515  0.786880  1
  Fe  Fe4  1  0.250000  0.457489  0.939165  1
  Fe  Fe5  1  0.250000  0.043804  0.437156  1
  Fe  Fe6  1  0.750000  0.545124  0.062205  1
  Fe  Fe7  1  0.750000  0.952727  0.561467  1
  P  P8  1  0.250000  0.431339  0.108297  1
  P  P9  1  0.250000  0.068125  0.604280  1
  P  P10  1  0.750000  0.570609  0.893067  1
  P  P11  1  0.750000  0.931487  0.391197  1
  P  P12  1  0.250000  0.270240  0.865137  1
  P  P13  1  0.250000  0.235612  0.363781  1
  P  P14  1  0.750000  0.736669  0.137141  1
  P  P15  1  0.750000  0.761793  0.634260  1
  P  P16  1  0.250000  0.596193  0.385133  1
  P  P17  1  0.250000  0.899558  0.886053  1
  P  P18  1  0.750000  0.404762  0.614881  1
  P  P19  1  0.750000  0.096660  0.117380  1
  Ir  Ir20  1  0.250000  0.711158  0.981163  1
  Ir  Ir21  1  0.250000  0.783876  0.484639  1
  Ir  Ir22  1  0.750000  0.286444  0.018385  1
  Ir  Ir23  1  0.750000  0.213466  0.520399  1
  Ir  Ir24  1  0.250000  0.405942  0.480400  1
  Ir  Ir25  1  0.250000  0.094416  0.974547  1
  Ir  Ir26  1  0.750000  0.590981  0.519200  1
  Ir  Ir27  1  0.750000  0.908455  0.021039  1
  Ir  Ir28  1  0.250000  0.228163  0.173612  1
  Ir  Ir29  1  0.250000  0.266998  0.676486  1
  Ir  Ir30  1  0.750000  0.770901  0.823415  1
  Ir  Ir31  1  0.750000  0.729486  0.325677  1
  Ir  Ir32  1  0.250000  0.880942  0.697654  1
  Ir  Ir33  1  0.250000  0.622687  0.198379  1
  Ir  Ir34  1  0.750000  0.123868  0.303157  1
  Ir  Ir35  1  0.750000  0.379386  0.801884  1
