# generated using pymatgen
data_Y12Co6Ag
_symmetry_space_group_name_H-M   'P 1'
_cell_length_a   8.38214830
_cell_length_b   8.38214786
_cell_length_c   8.38214900
_cell_angle_alpha   109.47122582
_cell_angle_beta   109.47122475
_cell_angle_gamma   109.47121416
_symmetry_Int_Tables_number   1
_chemical_formula_structural   Y12Co6Ag
_chemical_formula_sum   'Y12 Co6 Ag1'
_cell_volume   453.36096900
_cell_formula_units_Z   1
loop_
 _symmetry_equiv_pos_site_id
 _symmetry_equiv_pos_as_xyz
  1  'x, y, z'
loop_
 _atom_site_type_symbol
 _atom_site_label
 _atom_site_symmetry_multiplicity
 _atom_site_fract_x
 _atom_site_fract_y
 _atom_site_fract_z
 _atom_site_occupancy
  Y  Y0  1  0.805174  0.697203  0.502377  1
  Y  Y1  1  0.194826  0.302797  0.497623  1
  Y  Y2  1  0.194826  0.697203  0.892028  1
  Y  Y3  1  0.805174  0.302797  0.107972  1
  Y  Y4  1  0.697203  0.502377  0.805174  1
  Y  Y5  1  0.302797  0.497623  0.194826  1
  Y  Y6  1  0.697203  0.892028  0.194826  1
  Y  Y7  1  0.302797  0.107972  0.805174  1
  Y  Y8  1  0.502377  0.805174  0.697203  1
  Y  Y9  1  0.497623  0.194826  0.302797  1
  Y  Y10  1  0.107972  0.805174  0.302797  1
  Y  Y11  1  0.892028  0.194826  0.697203  1
  Co  Co12  1  0.887012  0.387012  0.500000  1
  Co  Co13  1  0.112988  0.612988  0.500000  1
  Co  Co14  1  0.387012  0.500000  0.887012  1
  Co  Co15  1  0.612988  0.500000  0.112988  1
  Co  Co16  1  0.500000  0.887012  0.387012  1
  Co  Co17  1  0.500000  0.112988  0.612988  1
  Ag  Ag18  1  0.000000  0.000000  0.000000  1
