# generated using pymatgen
data_Dy(GaCu)6
_symmetry_space_group_name_H-M   'P 1'
_cell_length_a   5.16638634
_cell_length_b   6.61446113
_cell_length_c   6.61446136
_cell_angle_alpha   80.23332571
_cell_angle_beta   67.01207261
_cell_angle_gamma   67.01206889
_symmetry_Int_Tables_number   1
_chemical_formula_structural   Dy(GaCu)6
_chemical_formula_sum   'Dy1 Ga6 Cu6'
_cell_volume   191.52128504
_cell_formula_units_Z   1
loop_
 _symmetry_equiv_pos_site_id
 _symmetry_equiv_pos_as_xyz
  1  'x, y, z'
loop_
 _atom_site_type_symbol
 _atom_site_label
 _atom_site_symmetry_multiplicity
 _atom_site_fract_x
 _atom_site_fract_y
 _atom_site_fract_z
 _atom_site_occupancy
  Dy  Dy0  1  0.000000  0.000000  0.000000  1
  Ga  Ga1  1  0.000000  0.653150  0.346850  1
  Ga  Ga2  1  0.000000  0.346850  0.653150  1
  Ga  Ga3  1  0.347385  0.652615  0.652615  1
  Ga  Ga4  1  0.652615  0.347385  0.347385  1
  Ga  Ga5  1  0.308305  0.191695  0.191695  1
  Ga  Ga6  1  0.691695  0.808305  0.808305  1
  Cu  Cu7  1  0.500000  0.234481  0.765519  1
  Cu  Cu8  1  0.500000  0.765519  0.234481  1
  Cu  Cu9  1  0.000000  0.500000  0.000000  1
  Cu  Cu10  1  0.500000  0.500000  0.000000  1
  Cu  Cu11  1  0.000000  0.000000  0.500000  1
  Cu  Cu12  1  0.500000  0.000000  0.500000  1
