# generated using pymatgen
data_Zr6Ti16Re7
_symmetry_space_group_name_H-M   'P 1'
_cell_length_a   9.00564668
_cell_length_b   9.00564666
_cell_length_c   9.00564600
_cell_angle_alpha   60.00000242
_cell_angle_beta   60.00000250
_cell_angle_gamma   60.00000371
_symmetry_Int_Tables_number   1
_chemical_formula_structural   Zr6Ti16Re7
_chemical_formula_sum   'Zr6 Ti16 Re7'
_cell_volume   516.45169767
_cell_formula_units_Z   1
loop_
 _symmetry_equiv_pos_site_id
 _symmetry_equiv_pos_as_xyz
  1  'x, y, z'
loop_
 _atom_site_type_symbol
 _atom_site_label
 _atom_site_symmetry_multiplicity
 _atom_site_fract_x
 _atom_site_fract_y
 _atom_site_fract_z
 _atom_site_occupancy
  Zr  Zr0  1  0.691254  0.691254  0.308746  1
  Zr  Zr1  1  0.308746  0.691254  0.308746  1
  Zr  Zr2  1  0.691254  0.308746  0.308746  1
  Zr  Zr3  1  0.308746  0.308746  0.691254  1
  Zr  Zr4  1  0.691254  0.308746  0.691254  1
  Zr  Zr5  1  0.308746  0.691254  0.691254  1
  Ti  Ti6  1  0.882775  0.882775  0.351675  1
  Ti  Ti7  1  0.882775  0.351675  0.882775  1
  Ti  Ti8  1  0.351675  0.882775  0.882775  1
  Ti  Ti9  1  0.882775  0.882775  0.882775  1
  Ti  Ti10  1  0.117225  0.117225  0.648325  1
  Ti  Ti11  1  0.117225  0.648325  0.117225  1
  Ti  Ti12  1  0.648325  0.117225  0.117225  1
  Ti  Ti13  1  0.117225  0.117225  0.117225  1
  Ti  Ti14  1  0.667950  0.667950  0.996149  1
  Ti  Ti15  1  0.667950  0.996149  0.667950  1
  Ti  Ti16  1  0.996149  0.667950  0.667950  1
  Ti  Ti17  1  0.667950  0.667950  0.667950  1
  Ti  Ti18  1  0.332050  0.332050  0.003851  1
  Ti  Ti19  1  0.332050  0.003851  0.332050  1
  Ti  Ti20  1  0.003851  0.332050  0.332050  1
  Ti  Ti21  1  0.332050  0.332050  0.332050  1
  Re  Re22  1  0.000000  0.000000  0.000000  1
  Re  Re23  1  0.000000  0.000000  0.500000  1
  Re  Re24  1  0.500000  0.000000  0.500000  1
  Re  Re25  1  0.000000  0.500000  0.500000  1
  Re  Re26  1  0.500000  0.500000  0.000000  1
  Re  Re27  1  0.000000  0.500000  0.000000  1
  Re  Re28  1  0.500000  0.000000  0.000000  1
