# generated using pymatgen
data_HgMoF6
_symmetry_space_group_name_H-M   'P 1'
_cell_length_a   5.96360155
_cell_length_b   6.03385652
_cell_length_c   6.07064957
_cell_angle_alpha   54.56844877
_cell_angle_beta   53.92097286
_cell_angle_gamma   55.64374339
_symmetry_Int_Tables_number   1
_chemical_formula_structural   HgMoF6
_chemical_formula_sum   'Hg1 Mo1 F6'
_cell_volume   135.35840303
_cell_formula_units_Z   1
loop_
 _symmetry_equiv_pos_site_id
 _symmetry_equiv_pos_as_xyz
  1  'x, y, z'
loop_
 _atom_site_type_symbol
 _atom_site_label
 _atom_site_symmetry_multiplicity
 _atom_site_fract_x
 _atom_site_fract_y
 _atom_site_fract_z
 _atom_site_occupancy
  Hg  Hg0  1  0.500000  0.500000  0.500000  1
  Mo  Mo1  1  0.000000  0.000000  0.000000  1
  F  F2  1  0.226722  0.908162  0.643548  1
  F  F3  1  0.641517  0.217257  0.915009  1
  F  F4  1  0.102584  0.371702  0.764183  1
  F  F5  1  0.358483  0.782743  0.084991  1
  F  F6  1  0.773278  0.091838  0.356452  1
  F  F7  1  0.897416  0.628298  0.235817  1
