# generated using pymatgen
data_Pr16Tm4SnPb15
_symmetry_space_group_name_H-M   'P 1'
_cell_length_a   8.36473400
_cell_length_b   8.52228904
_cell_length_c   16.17240600
_cell_angle_alpha   90.00000000
_cell_angle_beta   90.00000000
_cell_angle_gamma   89.97171613
_symmetry_Int_Tables_number   1
_chemical_formula_structural   Pr16Tm4SnPb15
_chemical_formula_sum   'Pr16 Tm4 Sn1 Pb15'
_cell_volume   1152.87700507
_cell_formula_units_Z   1
loop_
 _symmetry_equiv_pos_site_id
 _symmetry_equiv_pos_as_xyz
  1  'x, y, z'
loop_
 _atom_site_type_symbol
 _atom_site_label
 _atom_site_symmetry_multiplicity
 _atom_site_fract_x
 _atom_site_fract_y
 _atom_site_fract_z
 _atom_site_occupancy
  Pr  Pr0  1  0.365382  0.841018  0.879147  1
  Pr  Pr1  1  0.865477  0.659016  0.620774  1
  Pr  Pr2  1  0.634344  0.159169  0.378726  1
  Pr  Pr3  1  0.134630  0.342078  0.121422  1
  Pr  Pr4  1  0.634344  0.159169  0.121274  1
  Pr  Pr5  1  0.134630  0.342078  0.378578  1
  Pr  Pr6  1  0.365382  0.841018  0.620853  1
  Pr  Pr7  1  0.865477  0.659016  0.879226  1
  Pr  Pr8  1  0.521054  0.319537  0.902091  1
  Pr  Pr9  1  0.020877  0.180496  0.597802  1
  Pr  Pr10  1  0.477195  0.680464  0.401229  1
  Pr  Pr11  1  0.980876  0.817977  0.099832  1
  Pr  Pr12  1  0.477195  0.680464  0.098771  1
  Pr  Pr13  1  0.980876  0.817977  0.400168  1
  Pr  Pr14  1  0.521054  0.319537  0.597909  1
  Pr  Pr15  1  0.020877  0.180496  0.902198  1
  Tm  Tm16  1  0.197876  0.503080  0.750000  1
  Tm  Tm17  1  0.697706  0.997075  0.750000  1
  Tm  Tm18  1  0.805090  0.498572  0.250000  1
  Tm  Tm19  1  0.299991  0.999054  0.250000  1
  Sn  Sn20  1  0.171691  0.651049  0.250000  1
  Pb  Pb21  1  0.290698  0.035001  0.045851  1
  Pb  Pb22  1  0.790488  0.466207  0.454121  1
  Pb  Pb23  1  0.709211  0.965568  0.545171  1
  Pb  Pb24  1  0.209101  0.534216  0.954490  1
  Pb  Pb25  1  0.709211  0.965568  0.954829  1
  Pb  Pb26  1  0.209101  0.534216  0.545510  1
  Pb  Pb27  1  0.290698  0.035001  0.454149  1
  Pb  Pb28  1  0.790488  0.466207  0.045879  1
  Pb  Pb29  1  0.559054  0.620936  0.750000  1
  Pb  Pb30  1  0.058775  0.879298  0.750000  1
  Pb  Pb31  1  0.441117  0.381836  0.250000  1
  Pb  Pb32  1  0.940894  0.121370  0.250000  1
  Pb  Pb33  1  0.329441  0.154861  0.750000  1
  Pb  Pb34  1  0.830011  0.345702  0.750000  1
  Pb  Pb35  1  0.669692  0.845675  0.250000  1
