# generated using pymatgen
data_Zr3Sc(Co3Tc)2
_symmetry_space_group_name_H-M   'P 1'
_cell_length_a   4.99479300
_cell_length_b   4.99479221
_cell_length_c   8.17848200
_cell_angle_alpha   90.00000000
_cell_angle_beta   90.00000000
_cell_angle_gamma   119.99999862
_symmetry_Int_Tables_number   1
_chemical_formula_structural   Zr3Sc(Co3Tc)2
_chemical_formula_sum   'Zr3 Sc1 Co6 Tc2'
_cell_volume   176.70069593
_cell_formula_units_Z   1
loop_
 _symmetry_equiv_pos_site_id
 _symmetry_equiv_pos_as_xyz
  1  'x, y, z'
loop_
 _atom_site_type_symbol
 _atom_site_label
 _atom_site_symmetry_multiplicity
 _atom_site_fract_x
 _atom_site_fract_y
 _atom_site_fract_z
 _atom_site_occupancy
  Zr  Zr0  1  0.333333  0.666667  0.571016  1
  Zr  Zr1  1  0.666667  0.333333  0.432918  1
  Zr  Zr2  1  0.666667  0.333333  0.060187  1
  Sc  Sc3  1  0.333333  0.666667  0.938066  1
  Co  Co4  1  0.829209  0.170791  0.749901  1
  Co  Co5  1  0.658193  0.829096  0.249864  1
  Co  Co6  1  0.170904  0.829096  0.249864  1
  Co  Co7  1  0.829209  0.658420  0.749901  1
  Co  Co8  1  0.170904  0.341807  0.249864  1
  Co  Co9  1  0.341580  0.170791  0.749901  1
  Tc  Tc10  1  0.000000  0.000000  0.499579  1
  Tc  Tc11  1  0.000000  0.000000  0.998941  1
