# generated using pymatgen
data_Ac6VP12Rh17
_symmetry_space_group_name_H-M   'P 1'
_cell_length_a   4.06438000
_cell_length_b   11.56824900
_cell_length_c   13.24768400
_cell_angle_alpha   90.00000000
_cell_angle_beta   90.00000000
_cell_angle_gamma   90.00000000
_symmetry_Int_Tables_number   1
_chemical_formula_structural   Ac6VP12Rh17
_chemical_formula_sum   'Ac6 V1 P12 Rh17'
_cell_volume   622.87642515
_cell_formula_units_Z   1
loop_
 _symmetry_equiv_pos_site_id
 _symmetry_equiv_pos_as_xyz
  1  'x, y, z'
loop_
 _atom_site_type_symbol
 _atom_site_label
 _atom_site_symmetry_multiplicity
 _atom_site_fract_x
 _atom_site_fract_y
 _atom_site_fract_z
 _atom_site_occupancy
  Ac  Ac0  1  0.000000  0.500000  0.516942  1
  Ac  Ac1  1  0.500000  0.000000  0.479965  1
  Ac  Ac2  1  0.500000  0.817787  0.205693  1
  Ac  Ac3  1  0.500000  0.182213  0.205693  1
  Ac  Ac4  1  0.000000  0.681807  0.796701  1
  Ac  Ac5  1  0.000000  0.318193  0.796701  1
  V  V6  1  0.500000  0.500000  0.154209  1
  P  P7  1  0.500000  0.500000  0.886942  1
  P  P8  1  0.000000  0.000000  0.111103  1
  P  P9  1  0.500000  0.500000  0.331211  1
  P  P10  1  0.000000  0.000000  0.662275  1
  P  P11  1  0.500000  0.305819  0.615445  1
  P  P12  1  0.500000  0.694181  0.615445  1
  P  P13  1  0.000000  0.195613  0.385824  1
  P  P14  1  0.000000  0.804387  0.385824  1
  P  P15  1  0.500000  0.850343  0.894594  1
  P  P16  1  0.500000  0.149657  0.894594  1
  P  P17  1  0.000000  0.650156  0.106012  1
  P  P18  1  0.000000  0.349844  0.106012  1
  Rh  Rh19  1  0.000000  0.000000  0.836144  1
  Rh  Rh20  1  0.500000  0.500000  0.701334  1
  Rh  Rh21  1  0.000000  0.000000  0.295779  1
  Rh  Rh22  1  0.000000  0.500000  0.990686  1
  Rh  Rh23  1  0.500000  0.000000  0.013181  1
  Rh  Rh24  1  0.500000  0.334741  0.996529  1
  Rh  Rh25  1  0.500000  0.665259  0.996529  1
  Rh  Rh26  1  0.000000  0.166449  0.006040  1
  Rh  Rh27  1  0.000000  0.833551  0.006040  1
  Rh  Rh28  1  0.500000  0.288875  0.433281  1
  Rh  Rh29  1  0.500000  0.711125  0.433281  1
  Rh  Rh30  1  0.000000  0.206738  0.570324  1
  Rh  Rh31  1  0.000000  0.793262  0.570324  1
  Rh  Rh32  1  0.500000  0.877296  0.711858  1
  Rh  Rh33  1  0.500000  0.122704  0.711858  1
  Rh  Rh34  1  0.000000  0.621418  0.287812  1
  Rh  Rh35  1  0.000000  0.378582  0.287812  1
