# generated using pymatgen
data_Tb4Lu4Sc2Ga7Si
_symmetry_space_group_name_H-M   'P 1'
_cell_length_a   7.38494252
_cell_length_b   7.64194688
_cell_length_c   14.83443100
_cell_angle_alpha   90.00000000
_cell_angle_beta   90.00000000
_cell_angle_gamma   90.28519837
_symmetry_Int_Tables_number   1
_chemical_formula_structural   Tb4Lu4Sc2Ga7Si
_chemical_formula_sum   'Tb8 Lu8 Sc4 Ga14 Si2'
_cell_volume   837.17576369
_cell_formula_units_Z   2
loop_
 _symmetry_equiv_pos_site_id
 _symmetry_equiv_pos_as_xyz
  1  'x, y, z'
loop_
 _atom_site_type_symbol
 _atom_site_label
 _atom_site_symmetry_multiplicity
 _atom_site_fract_x
 _atom_site_fract_y
 _atom_site_fract_z
 _atom_site_occupancy
  Tb  Tb0  1  0.015736  0.180535  0.097681  1
  Tb  Tb1  1  0.984264  0.819465  0.902319  1
  Tb  Tb2  1  0.485246  0.680912  0.903447  1
  Tb  Tb3  1  0.984264  0.819465  0.597681  1
  Tb  Tb4  1  0.514754  0.319088  0.096553  1
  Tb  Tb5  1  0.015736  0.180535  0.402319  1
  Tb  Tb6  1  0.514754  0.319088  0.403447  1
  Tb  Tb7  1  0.485246  0.680912  0.596553  1
  Lu  Lu8  1  0.329550  0.174415  0.622688  1
  Lu  Lu9  1  0.670450  0.825585  0.377312  1
  Lu  Lu10  1  0.174517  0.670344  0.376485  1
  Lu  Lu11  1  0.670450  0.825585  0.122688  1
  Lu  Lu12  1  0.825483  0.329656  0.623515  1
  Lu  Lu13  1  0.329550  0.174415  0.877312  1
  Lu  Lu14  1  0.825483  0.329656  0.876485  1
  Lu  Lu15  1  0.174517  0.670344  0.123515  1
  Sc  Sc16  1  0.158032  0.507623  0.750000  1
  Sc  Sc17  1  0.841968  0.492377  0.250000  1
  Sc  Sc18  1  0.337359  0.009387  0.250000  1
  Sc  Sc19  1  0.662641  0.990613  0.750000  1
  Ga  Ga20  1  0.028611  0.111806  0.750000  1
  Ga  Ga21  1  0.971389  0.888194  0.250000  1
  Ga  Ga22  1  0.473011  0.602014  0.250000  1
  Ga  Ga23  1  0.526989  0.397986  0.750000  1
  Ga  Ga24  1  0.282440  0.868645  0.750000  1
  Ga  Ga25  1  0.717560  0.131355  0.250000  1
  Ga  Ga26  1  0.156841  0.469608  0.541752  1
  Ga  Ga27  1  0.843159  0.530392  0.458248  1
  Ga  Ga28  1  0.339867  0.968838  0.458407  1
  Ga  Ga29  1  0.843159  0.530392  0.041752  1
  Ga  Ga30  1  0.660133  0.031162  0.541593  1
  Ga  Ga31  1  0.156841  0.469608  0.958248  1
  Ga  Ga32  1  0.660133  0.031162  0.958407  1
  Ga  Ga33  1  0.339867  0.968838  0.041593  1
  Si  Si34  1  0.218424  0.370374  0.250000  1
  Si  Si35  1  0.781576  0.629626  0.750000  1
