# generated using pymatgen
data_Nd5Er3Au4
_symmetry_space_group_name_H-M   'P 1'
_cell_length_a   4.99491400
_cell_length_b   7.35404806
_cell_length_c   9.08795138
_cell_angle_alpha   89.96982326
_cell_angle_beta   90.00000000
_cell_angle_gamma   90.00000000
_symmetry_Int_Tables_number   1
_chemical_formula_structural   Nd5Er3Au4
_chemical_formula_sum   'Nd5 Er3 Au4'
_cell_volume   333.82619579
_cell_formula_units_Z   1
loop_
 _symmetry_equiv_pos_site_id
 _symmetry_equiv_pos_as_xyz
  1  'x, y, z'
loop_
 _atom_site_type_symbol
 _atom_site_label
 _atom_site_symmetry_multiplicity
 _atom_site_fract_x
 _atom_site_fract_y
 _atom_site_fract_z
 _atom_site_occupancy
  Nd  Nd0  1  0.750000  0.653402  0.414483  1
  Nd  Nd1  1  0.250000  0.485148  0.177530  1
  Nd  Nd2  1  0.250000  0.994343  0.325313  1
  Nd  Nd3  1  0.750000  0.511826  0.820918  1
  Nd  Nd4  1  0.750000  0.012704  0.679602  1
  Er  Er5  1  0.250000  0.851738  0.924183  1
  Er  Er6  1  0.250000  0.348846  0.582451  1
  Er  Er7  1  0.750000  0.150672  0.077176  1
  Au  Au8  1  0.250000  0.241294  0.900203  1
  Au  Au9  1  0.250000  0.741214  0.612291  1
  Au  Au10  1  0.750000  0.760964  0.086978  1
  Au  Au11  1  0.750000  0.247848  0.398872  1
