# generated using pymatgen
data_LuCoBN
_symmetry_space_group_name_H-M   'P 1'
_cell_length_a   3.42204000
_cell_length_b   3.42204000
_cell_length_c   7.40699000
_cell_angle_alpha   90.00000000
_cell_angle_beta   90.00000000
_cell_angle_gamma   90.00000000
_symmetry_Int_Tables_number   1
_chemical_formula_structural   LuCoBN
_chemical_formula_sum   'Lu2 Co2 B2 N2'
_cell_volume   86.73850284
_cell_formula_units_Z   2
loop_
 _symmetry_equiv_pos_site_id
 _symmetry_equiv_pos_as_xyz
  1  'x, y, z'
loop_
 _atom_site_type_symbol
 _atom_site_label
 _atom_site_symmetry_multiplicity
 _atom_site_fract_x
 _atom_site_fract_y
 _atom_site_fract_z
 _atom_site_occupancy
  Lu  Lu0  1  0.500001  0.000000  0.165701  1
  Lu  Lu1  1  0.000000  0.500001  0.834299  1
  Co  Co2  1  0.000000  0.000000  0.500000  1
  Co  Co3  1  0.500001  0.500001  0.500000  1
  B  B4  1  0.000000  0.500001  0.346012  1
  B  B5  1  0.500001  0.000000  0.653987  1
  N  N6  1  0.000000  0.500001  0.141974  1
  N  N7  1  0.500001  0.000000  0.858026  1
