# generated using pymatgen
data_Nd12NiOs2Au
_symmetry_space_group_name_H-M   'P 1'
_cell_length_a   6.54371814
_cell_length_b   7.39944875
_cell_length_c   9.88233400
_cell_angle_alpha   90.00000000
_cell_angle_beta   90.00000000
_cell_angle_gamma   90.12258344
_symmetry_Int_Tables_number   1
_chemical_formula_structural   Nd12NiOs2Au
_chemical_formula_sum   'Nd12 Ni1 Os2 Au1'
_cell_volume   478.50059796
_cell_formula_units_Z   1
loop_
 _symmetry_equiv_pos_site_id
 _symmetry_equiv_pos_as_xyz
  1  'x, y, z'
loop_
 _atom_site_type_symbol
 _atom_site_label
 _atom_site_symmetry_multiplicity
 _atom_site_fract_x
 _atom_site_fract_y
 _atom_site_fract_z
 _atom_site_occupancy
  Nd  Nd0  1  0.340889  0.670313  0.058276  1
  Nd  Nd1  1  0.173981  0.188609  0.439943  1
  Nd  Nd2  1  0.671444  0.321729  0.565358  1
  Nd  Nd3  1  0.828455  0.825820  0.930266  1
  Nd  Nd4  1  0.671444  0.321729  0.934642  1
  Nd  Nd5  1  0.828455  0.825820  0.569734  1
  Nd  Nd6  1  0.340889  0.670313  0.441724  1
  Nd  Nd7  1  0.173981  0.188609  0.060057  1
  Nd  Nd8  1  0.856525  0.519542  0.250000  1
  Nd  Nd9  1  0.621187  0.040108  0.250000  1
  Nd  Nd10  1  0.136631  0.464821  0.750000  1
  Nd  Nd11  1  0.360477  0.958993  0.750000  1
  Ni  Ni12  1  0.940625  0.117181  0.750000  1
  Os  Os13  1  0.434001  0.384154  0.250000  1
  Os  Os14  1  0.559300  0.615294  0.750000  1
  Au  Au15  1  0.061716  0.886970  0.250000  1
