# generated using pymatgen
data_Ho4Al16Ga2Ir5Pt
_symmetry_space_group_name_H-M   'P 1'
_cell_length_a   7.54550401
_cell_length_b   7.54550511
_cell_length_c   9.48467013
_cell_angle_alpha   89.96405539
_cell_angle_beta   89.96406208
_cell_angle_gamma   119.45161680
_symmetry_Int_Tables_number   1
_chemical_formula_structural   Ho4Al16Ga2Ir5Pt
_chemical_formula_sum   'Ho4 Al16 Ga2 Ir5 Pt1'
_cell_volume   470.22155034
_cell_formula_units_Z   1
loop_
 _symmetry_equiv_pos_site_id
 _symmetry_equiv_pos_as_xyz
  1  'x, y, z'
loop_
 _atom_site_type_symbol
 _atom_site_label
 _atom_site_symmetry_multiplicity
 _atom_site_fract_x
 _atom_site_fract_y
 _atom_site_fract_z
 _atom_site_occupancy
  Ho  Ho0  1  0.994794  0.673831  0.250823  1
  Ho  Ho1  1  0.004604  0.325674  0.749359  1
  Ho  Ho2  1  0.674326  0.995396  0.250641  1
  Ho  Ho3  1  0.326169  0.005206  0.749177  1
  Al  Al4  1  0.004818  0.336216  0.075795  1
  Al  Al5  1  0.001508  0.667393  0.924536  1
  Al  Al6  1  0.999521  0.663895  0.573825  1
  Al  Al7  1  0.336105  0.000479  0.426175  1
  Al  Al8  1  0.001222  0.335623  0.425556  1
  Al  Al9  1  0.664377  0.998778  0.574444  1
  Al  Al10  1  0.663784  0.995182  0.924205  1
  Al  Al11  1  0.332607  0.998492  0.075464  1
  Al  Al12  1  0.333514  0.333342  0.553615  1
  Al  Al13  1  0.666658  0.666486  0.446385  1
  Al  Al14  1  0.665751  0.668941  0.057211  1
  Al  Al15  1  0.331059  0.334249  0.942789  1
  Al  Al16  1  0.339086  0.550916  0.250376  1
  Al  Al17  1  0.661244  0.452072  0.747443  1
  Al  Al18  1  0.547928  0.338756  0.252557  1
  Al  Al19  1  0.449084  0.660914  0.749624  1
  Ga  Ga20  1  0.133729  0.132789  0.250332  1
  Ga  Ga21  1  0.867211  0.866271  0.749668  1
  Ir  Ir22  1  0.328333  0.671667  0.000000  1
  Ir  Ir23  1  0.328702  0.671298  0.500000  1
  Ir  Ir24  1  0.671807  0.328193  0.500000  1
  Ir  Ir25  1  0.999733  0.000267  0.000000  1
  Ir  Ir26  1  0.000285  0.999715  0.500000  1
  Pt  Pt27  1  0.672041  0.327959  0.000000  1
