# generated using pymatgen
data_YHf8In14Co6Ir
_symmetry_space_group_name_H-M   'P 1'
_cell_length_a   9.44287780
_cell_length_b   9.44287801
_cell_length_c   9.44287800
_cell_angle_alpha   60.00000005
_cell_angle_beta   59.99999929
_cell_angle_gamma   60.00000635
_symmetry_Int_Tables_number   1
_chemical_formula_structural   YHf8In14Co6Ir
_chemical_formula_sum   'Y1 Hf8 In14 Co6 Ir1'
_cell_volume   595.38535580
_cell_formula_units_Z   1
loop_
 _symmetry_equiv_pos_site_id
 _symmetry_equiv_pos_as_xyz
  1  'x, y, z'
loop_
 _atom_site_type_symbol
 _atom_site_label
 _atom_site_symmetry_multiplicity
 _atom_site_fract_x
 _atom_site_fract_y
 _atom_site_fract_z
 _atom_site_occupancy
  Y  Y0  1  0.500000  0.500000  0.500000  1
  Hf  Hf1  1  0.121502  0.635496  0.121502  1
  Hf  Hf2  1  0.364504  0.878498  0.878498  1
  Hf  Hf3  1  0.878498  0.878498  0.878498  1
  Hf  Hf4  1  0.635496  0.121502  0.121502  1
  Hf  Hf5  1  0.878498  0.878498  0.364504  1
  Hf  Hf6  1  0.121502  0.121502  0.121502  1
  Hf  Hf7  1  0.878498  0.364504  0.878498  1
  Hf  Hf8  1  0.121502  0.121502  0.635496  1
  In  In9  1  0.500000  0.843930  0.156070  1
  In  In10  1  0.500000  0.843930  0.500000  1
  In  In11  1  0.500000  0.156070  0.500000  1
  In  In12  1  0.500000  0.500000  0.843930  1
  In  In13  1  0.156070  0.500000  0.500000  1
  In  In14  1  0.843930  0.156070  0.500000  1
  In  In15  1  0.156070  0.843930  0.500000  1
  In  In16  1  0.500000  0.156070  0.843930  1
  In  In17  1  0.156070  0.500000  0.843930  1
  In  In18  1  0.500000  0.500000  0.156070  1
  In  In19  1  0.843930  0.500000  0.500000  1
  In  In20  1  0.843930  0.500000  0.156070  1
  In  In21  1  0.250000  0.250000  0.250000  1
  In  In22  1  0.750000  0.750000  0.750000  1
  Co  Co23  1  0.781095  0.781095  0.218905  1
  Co  Co24  1  0.218905  0.781095  0.218905  1
  Co  Co25  1  0.218905  0.781095  0.781095  1
  Co  Co26  1  0.218905  0.218905  0.781095  1
  Co  Co27  1  0.781095  0.218905  0.781095  1
  Co  Co28  1  0.781095  0.218905  0.218905  1
  Ir  Ir29  1  0.000000  0.000000  0.000000  1
