# generated using pymatgen
data_NdTa5(B2Ru5)2
_symmetry_space_group_name_H-M   'P 1'
_cell_length_a   9.55974471
_cell_length_b   9.55974471
_cell_length_c   3.06037400
_cell_angle_alpha   90.00000000
_cell_angle_beta   90.00000000
_cell_angle_gamma   90.74991686
_symmetry_Int_Tables_number   1
_chemical_formula_structural   NdTa5(B2Ru5)2
_chemical_formula_sum   'Nd1 Ta5 B4 Ru10'
_cell_volume   279.65970332
_cell_formula_units_Z   1
loop_
 _symmetry_equiv_pos_site_id
 _symmetry_equiv_pos_as_xyz
  1  'x, y, z'
loop_
 _atom_site_type_symbol
 _atom_site_label
 _atom_site_symmetry_multiplicity
 _atom_site_fract_x
 _atom_site_fract_y
 _atom_site_fract_z
 _atom_site_occupancy
  Nd  Nd0  1  0.824607  0.675393  0.000000  1
  Ta  Ta1  1  0.179071  0.320929  0.000000  1
  Ta  Ta2  1  0.325050  0.824056  0.000000  1
  Ta  Ta3  1  0.675944  0.174950  0.000000  1
  Ta  Ta4  1  0.499448  0.499965  0.000000  1
  Ta  Ta5  1  0.000035  0.000552  0.000000  1
  B  B6  1  0.615880  0.884120  0.000000  1
  B  B7  1  0.376575  0.123425  0.000000  1
  B  B8  1  0.125674  0.619285  0.000000  1
  B  B9  1  0.880715  0.374326  0.000000  1
  Ru  Ru10  1  0.553685  0.727256  0.500000  1
  Ru  Ru11  1  0.426104  0.283536  0.500000  1
  Ru  Ru12  1  0.088068  0.783470  0.500000  1
  Ru  Ru13  1  0.930982  0.214638  0.500000  1
  Ru  Ru14  1  0.285362  0.569018  0.500000  1
  Ru  Ru15  1  0.716530  0.411932  0.500000  1
  Ru  Ru16  1  0.216464  0.073896  0.500000  1
  Ru  Ru17  1  0.772744  0.946315  0.500000  1
  Ru  Ru18  1  0.494354  0.005646  0.500000  1
  Ru  Ru19  1  0.012709  0.487291  0.500000  1
