# generated using pymatgen
data_NdY2Tm3ReBi2
_symmetry_space_group_name_H-M   'P 1'
_cell_length_a   8.23352800
_cell_length_b   8.26483949
_cell_length_c   4.35229700
_cell_angle_alpha   90.00000000
_cell_angle_beta   90.00000000
_cell_angle_gamma   119.87475579
_symmetry_Int_Tables_number   1
_chemical_formula_structural   NdY2Tm3ReBi2
_chemical_formula_sum   'Nd1 Y2 Tm3 Re1 Bi2'
_cell_volume   256.81256118
_cell_formula_units_Z   1
loop_
 _symmetry_equiv_pos_site_id
 _symmetry_equiv_pos_as_xyz
  1  'x, y, z'
loop_
 _atom_site_type_symbol
 _atom_site_label
 _atom_site_symmetry_multiplicity
 _atom_site_fract_x
 _atom_site_fract_y
 _atom_site_fract_z
 _atom_site_occupancy
  Nd  Nd0  1  0.604843  0.000000  0.000000  1
  Y  Y1  1  0.998425  0.608604  0.000000  1
  Y  Y2  1  0.389821  0.391396  0.000000  1
  Tm  Tm3  1  0.231813  0.000000  0.500000  1
  Tm  Tm4  1  0.000543  0.227782  0.500000  1
  Tm  Tm5  1  0.772762  0.772218  0.500000  1
  Re  Re6  1  0.005528  0.000000  0.000000  1
  Bi  Bi7  1  0.328573  0.660882  0.500000  1
  Bi  Bi8  1  0.667692  0.339118  0.500000  1
