# generated using pymatgen
data_Hf6NiBiTe
_symmetry_space_group_name_H-M   'P 1'
_cell_length_a   3.64028000
_cell_length_b   7.75986679
_cell_length_c   7.75986700
_cell_angle_alpha   119.99999663
_cell_angle_beta   90.00000000
_cell_angle_gamma   90.00000000
_symmetry_Int_Tables_number   1
_chemical_formula_structural   Hf6NiBiTe
_chemical_formula_sum   'Hf6 Ni1 Bi1 Te1'
_cell_volume   189.83399172
_cell_formula_units_Z   1
loop_
 _symmetry_equiv_pos_site_id
 _symmetry_equiv_pos_as_xyz
  1  'x, y, z'
loop_
 _atom_site_type_symbol
 _atom_site_label
 _atom_site_symmetry_multiplicity
 _atom_site_fract_x
 _atom_site_fract_y
 _atom_site_fract_z
 _atom_site_occupancy
  Hf  Hf0  1  0.500000  0.762956  0.762362  1
  Hf  Hf1  1  0.500000  0.999406  0.237044  1
  Hf  Hf2  1  0.500000  0.237638  0.000594  1
  Hf  Hf3  1  0.000000  0.399311  0.390977  1
  Hf  Hf4  1  0.000000  0.991666  0.600689  1
  Hf  Hf5  1  0.000000  0.609023  0.008334  1
  Ni  Ni6  1  0.000000  0.000000  0.000000  1
  Bi  Bi7  1  0.500000  0.333333  0.666667  1
  Te  Te8  1  0.500000  0.666667  0.333333  1
