# generated using pymatgen
data_Ce2Er14Cd3HgRu4
_symmetry_space_group_name_H-M   'P 1'
_cell_length_a   9.64316492
_cell_length_b   9.54765030
_cell_length_c   9.54131001
_cell_angle_alpha   59.60276170
_cell_angle_beta   59.64623748
_cell_angle_gamma   59.66851546
_symmetry_Int_Tables_number   1
_chemical_formula_structural   Ce2Er14Cd3HgRu4
_chemical_formula_sum   'Ce2 Er14 Cd3 Hg1 Ru4'
_cell_volume   616.07451321
_cell_formula_units_Z   1
loop_
 _symmetry_equiv_pos_site_id
 _symmetry_equiv_pos_as_xyz
  1  'x, y, z'
loop_
 _atom_site_type_symbol
 _atom_site_label
 _atom_site_symmetry_multiplicity
 _atom_site_fract_x
 _atom_site_fract_y
 _atom_site_fract_z
 _atom_site_occupancy
  Ce  Ce0  1  0.969160  0.341898  0.341579  1
  Ce  Ce1  1  0.347363  0.341898  0.341579  1
  Er  Er2  1  0.562823  0.562250  0.939225  1
  Er  Er3  1  0.935703  0.562250  0.939225  1
  Er  Er4  1  0.561879  0.937218  0.939025  1
  Er  Er5  1  0.937074  0.938050  0.562146  1
  Er  Er6  1  0.562730  0.938050  0.562146  1
  Er  Er7  1  0.938161  0.561609  0.562068  1
  Er  Er8  1  0.189863  0.187889  0.812624  1
  Er  Er9  1  0.809624  0.187889  0.812624  1
  Er  Er10  1  0.188801  0.811071  0.811326  1
  Er  Er11  1  0.809286  0.811892  0.188762  1
  Er  Er12  1  0.190060  0.811891  0.188761  1
  Er  Er13  1  0.810530  0.189441  0.189500  1
  Er  Er14  1  0.348935  0.349143  0.952987  1
  Er  Er15  1  0.349832  0.951077  0.349260  1
  Cd  Cd16  1  0.581556  0.256972  0.579913  1
  Cd  Cd17  1  0.259569  0.579221  0.580238  1
  Cd  Cd18  1  0.580970  0.579221  0.580238  1
  Hg  Hg19  1  0.584726  0.583960  0.246585  1
  Ru  Ru20  1  0.137810  0.150559  0.573821  1
  Ru  Ru21  1  0.137663  0.573088  0.151585  1
  Ru  Ru22  1  0.573635  0.146732  0.147390  1
  Ru  Ru23  1  0.132242  0.146732  0.147390  1
