# generated using pymatgen
data_Tb6Zn22AgGe
_symmetry_space_group_name_H-M   'P 1'
_cell_length_a   9.09903212
_cell_length_b   9.09903178
_cell_length_c   9.09903100
_cell_angle_alpha   59.99999921
_cell_angle_beta   60.00000043
_cell_angle_gamma   59.99999487
_symmetry_Int_Tables_number   1
_chemical_formula_structural   Tb6Zn22AgGe
_chemical_formula_sum   'Tb6 Zn22 Ag1 Ge1'
_cell_volume   532.68505076
_cell_formula_units_Z   1
loop_
 _symmetry_equiv_pos_site_id
 _symmetry_equiv_pos_as_xyz
  1  'x, y, z'
loop_
 _atom_site_type_symbol
 _atom_site_label
 _atom_site_symmetry_multiplicity
 _atom_site_fract_x
 _atom_site_fract_y
 _atom_site_fract_z
 _atom_site_occupancy
  Tb  Tb0  1  0.718534  0.281480  0.281503  1
  Tb  Tb1  1  0.281466  0.718520  0.718497  1
  Tb  Tb2  1  0.281478  0.718530  0.281506  1
  Tb  Tb3  1  0.718522  0.281470  0.718494  1
  Tb  Tb4  1  0.281467  0.281464  0.718551  1
  Tb  Tb5  1  0.718533  0.718536  0.281449  1
  Zn  Zn6  1  0.126334  0.126316  0.126622  1
  Zn  Zn7  1  0.873666  0.873684  0.873378  1
  Zn  Zn8  1  0.126329  0.126318  0.620752  1
  Zn  Zn9  1  0.126400  0.620523  0.126548  1
  Zn  Zn10  1  0.873671  0.873682  0.379248  1
  Zn  Zn11  1  0.873600  0.379477  0.873452  1
  Zn  Zn12  1  0.620533  0.126393  0.126537  1
  Zn  Zn13  1  0.379467  0.873607  0.873463  1
  Zn  Zn14  1  0.500000  0.000000  0.000000  1
  Zn  Zn15  1  0.000000  0.500000  0.500000  1
  Zn  Zn16  1  0.000000  0.500000  0.000000  1
  Zn  Zn17  1  0.500000  0.000000  0.500000  1
  Zn  Zn18  1  0.000000  0.000000  0.500000  1
  Zn  Zn19  1  0.500000  0.500000  0.000000  1
  Zn  Zn20  1  0.333667  0.333668  0.333607  1
  Zn  Zn21  1  0.666333  0.666332  0.666393  1
  Zn  Zn22  1  0.333667  0.333660  0.999078  1
  Zn  Zn23  1  0.333578  0.999298  0.333548  1
  Zn  Zn24  1  0.666333  0.666340  0.000922  1
  Zn  Zn25  1  0.666422  0.000702  0.666452  1
  Zn  Zn26  1  0.999305  0.333586  0.333558  1
  Zn  Zn27  1  0.000695  0.666414  0.666442  1
  Ag  Ag28  1  0.000000  0.000000  0.000000  1
  Ge  Ge29  1  0.500000  0.500000  0.500000  1
