# generated using pymatgen
data_Y3Sc3Bi2As
_symmetry_space_group_name_H-M   'P 1'
_cell_length_a   7.96980000
_cell_length_b   7.96980014
_cell_length_c   4.16709500
_cell_angle_alpha   90.00000000
_cell_angle_beta   90.00000000
_cell_angle_gamma   119.99999113
_symmetry_Int_Tables_number   1
_chemical_formula_structural   Y3Sc3Bi2As
_chemical_formula_sum   'Y3 Sc3 Bi2 As1'
_cell_volume   229.22338712
_cell_formula_units_Z   1
loop_
 _symmetry_equiv_pos_site_id
 _symmetry_equiv_pos_as_xyz
  1  'x, y, z'
loop_
 _atom_site_type_symbol
 _atom_site_label
 _atom_site_symmetry_multiplicity
 _atom_site_fract_x
 _atom_site_fract_y
 _atom_site_fract_z
 _atom_site_occupancy
  Y  Y0  1  0.607904  0.000000  0.000000  1
  Y  Y1  1  0.000000  0.607904  0.000000  1
  Y  Y2  1  0.392096  0.392096  0.000000  1
  Sc  Sc3  1  0.234668  0.000000  0.500000  1
  Sc  Sc4  1  0.000000  0.234668  0.500000  1
  Sc  Sc5  1  0.765332  0.765332  0.500000  1
  Bi  Bi6  1  0.333333  0.666667  0.500000  1
  Bi  Bi7  1  0.666667  0.333333  0.500000  1
  As  As8  1  0.000000  0.000000  0.000000  1
