# generated using pymatgen
data_AcCuO2
_symmetry_space_group_name_H-M   'P 1'
_cell_length_a   6.14697291
_cell_length_b   6.14697291
_cell_length_c   6.14697323
_cell_angle_alpha   38.26332625
_cell_angle_beta   38.26332235
_cell_angle_gamma   38.26331603
_symmetry_Int_Tables_number   1
_chemical_formula_structural   AcCuO2
_chemical_formula_sum   'Ac1 Cu1 O2'
_cell_volume   79.99606753
_cell_formula_units_Z   1
loop_
 _symmetry_equiv_pos_site_id
 _symmetry_equiv_pos_as_xyz
  1  'x, y, z'
loop_
 _atom_site_type_symbol
 _atom_site_label
 _atom_site_symmetry_multiplicity
 _atom_site_fract_x
 _atom_site_fract_y
 _atom_site_fract_z
 _atom_site_occupancy
  Ac  Ac0  1  0.500000  0.500000  0.500000  1
  Cu  Cu1  1  0.000000  0.000000  0.000000  1
  O  O2  1  0.893551  0.893551  0.893551  1
  O  O3  1  0.106449  0.106449  0.106449  1
