# generated using pymatgen
data_Zr3Ti3Si2Sn
_symmetry_space_group_name_H-M   'P 1'
_cell_length_a   7.20208500
_cell_length_b   7.20208476
_cell_length_c   3.76275800
_cell_angle_alpha   90.00000000
_cell_angle_beta   90.00000000
_cell_angle_gamma   120.00000571
_symmetry_Int_Tables_number   1
_chemical_formula_structural   Zr3Ti3Si2Sn
_chemical_formula_sum   'Zr3 Ti3 Si2 Sn1'
_cell_volume   169.02594205
_cell_formula_units_Z   1
loop_
 _symmetry_equiv_pos_site_id
 _symmetry_equiv_pos_as_xyz
  1  'x, y, z'
loop_
 _atom_site_type_symbol
 _atom_site_label
 _atom_site_symmetry_multiplicity
 _atom_site_fract_x
 _atom_site_fract_y
 _atom_site_fract_z
 _atom_site_occupancy
  Zr  Zr0  1  0.390915  0.982735  0.500000  1
  Zr  Zr1  1  0.017265  0.408180  0.500000  1
  Zr  Zr2  1  0.591821  0.609085  0.500000  1
  Ti  Ti3  1  0.753775  0.991416  0.000000  1
  Ti  Ti4  1  0.237642  0.246225  0.000000  1
  Ti  Ti5  1  0.008584  0.762359  0.000000  1
  Si  Si6  1  0.333333  0.666666  0.000000  1
  Si  Si7  1  0.000000  0.000000  0.500000  1
  Sn  Sn8  1  0.666667  0.333334  0.000000  1
