# generated using pymatgen
data_RbLaPaSe6
_symmetry_space_group_name_H-M   'P 1'
_cell_length_a   11.95364437
_cell_length_b   11.95364408
_cell_length_c   11.95364400
_cell_angle_alpha   159.44173353
_cell_angle_beta   152.54085383
_cell_angle_gamma   34.54759408
_symmetry_Int_Tables_number   1
_chemical_formula_structural   RbLaPaSe6
_chemical_formula_sum   'Rb1 La1 Pa1 Se6'
_cell_volume   276.30527129
_cell_formula_units_Z   1
loop_
 _symmetry_equiv_pos_site_id
 _symmetry_equiv_pos_as_xyz
  1  'x, y, z'
loop_
 _atom_site_type_symbol
 _atom_site_label
 _atom_site_symmetry_multiplicity
 _atom_site_fract_x
 _atom_site_fract_y
 _atom_site_fract_z
 _atom_site_occupancy
  Rb  Rb0  1  0.001564  0.001564  0.000000  1
  La  La1  1  0.315587  0.815587  0.500000  1
  Pa  Pa2  1  0.678717  0.178717  0.500000  1
  Se  Se3  1  0.182513  0.396104  0.786409  1
  Se  Se4  1  0.219234  0.219234  0.000000  1
  Se  Se5  1  0.368087  0.614131  0.753955  1
  Se  Se6  1  0.609695  0.396104  0.213591  1
  Se  Se7  1  0.860176  0.614131  0.246045  1
  Se  Se8  1  0.764427  0.764427  0.000000  1
