# generated using pymatgen
data_YNb8NiS16
_symmetry_space_group_name_H-M   'P 1'
_cell_length_a   6.73314100
_cell_length_b   6.73314025
_cell_length_c   12.83861100
_cell_angle_alpha   90.00000000
_cell_angle_beta   90.00000000
_cell_angle_gamma   120.00000859
_symmetry_Int_Tables_number   1
_chemical_formula_structural   YNb8NiS16
_chemical_formula_sum   'Y1 Nb8 Ni1 S16'
_cell_volume   504.06205364
_cell_formula_units_Z   1
loop_
 _symmetry_equiv_pos_site_id
 _symmetry_equiv_pos_as_xyz
  1  'x, y, z'
loop_
 _atom_site_type_symbol
 _atom_site_label
 _atom_site_symmetry_multiplicity
 _atom_site_fract_x
 _atom_site_fract_y
 _atom_site_fract_z
 _atom_site_occupancy
  Y  Y0  1  0.000000  0.000000  0.500000  1
  Nb  Nb1  1  0.505614  0.494386  0.770463  1
  Nb  Nb2  1  0.011227  0.505614  0.229537  1
  Nb  Nb3  1  0.494386  0.988773  0.229537  1
  Nb  Nb4  1  0.505614  0.011227  0.770463  1
  Nb  Nb5  1  0.988773  0.494386  0.770463  1
  Nb  Nb6  1  0.494386  0.505614  0.229537  1
  Nb  Nb7  1  0.000000  0.000000  0.770013  1
  Nb  Nb8  1  0.000000  0.000000  0.229987  1
  Ni  Ni9  1  0.000000  0.000000  0.000000  1
  S  S10  1  0.831736  0.168264  0.352524  1
  S  S11  1  0.831736  0.663472  0.352524  1
  S  S12  1  0.336528  0.168264  0.352524  1
  S  S13  1  0.665538  0.832769  0.889485  1
  S  S14  1  0.168264  0.336528  0.647476  1
  S  S15  1  0.167231  0.832769  0.889485  1
  S  S16  1  0.167231  0.334462  0.889485  1
  S  S17  1  0.832769  0.167231  0.110515  1
  S  S18  1  0.334462  0.167231  0.110515  1
  S  S19  1  0.663472  0.831736  0.647476  1
  S  S20  1  0.333333  0.666667  0.105935  1
  S  S21  1  0.666667  0.333333  0.643980  1
  S  S22  1  0.666667  0.333333  0.894065  1
  S  S23  1  0.333333  0.666667  0.356020  1
  S  S24  1  0.832769  0.665538  0.110515  1
  S  S25  1  0.168264  0.831736  0.647476  1
