# generated using pymatgen
data_Tm6Zn20Au3S
_symmetry_space_group_name_H-M   'P 1'
_cell_length_a   9.05640224
_cell_length_b   9.05643663
_cell_length_c   9.02728800
_cell_angle_alpha   59.96903056
_cell_angle_beta   59.97014704
_cell_angle_gamma   59.60097267
_symmetry_Int_Tables_number   1
_chemical_formula_structural   Tm6Zn20Au3S
_chemical_formula_sum   'Tm6 Zn20 Au3 S1'
_cell_volume   521.71095199
_cell_formula_units_Z   1
loop_
 _symmetry_equiv_pos_site_id
 _symmetry_equiv_pos_as_xyz
  1  'x, y, z'
loop_
 _atom_site_type_symbol
 _atom_site_label
 _atom_site_symmetry_multiplicity
 _atom_site_fract_x
 _atom_site_fract_y
 _atom_site_fract_z
 _atom_site_occupancy
  Tm  Tm0  1  0.713542  0.289219  0.288016  1
  Tm  Tm1  1  0.285590  0.715529  0.709058  1
  Tm  Tm2  1  0.289214  0.713548  0.288013  1
  Tm  Tm3  1  0.715530  0.285588  0.709059  1
  Tm  Tm4  1  0.290484  0.290484  0.709312  1
  Tm  Tm5  1  0.710124  0.710123  0.287764  1
  Zn  Zn6  1  0.124329  0.627007  0.123364  1
  Zn  Zn7  1  0.876076  0.876081  0.372012  1
  Zn  Zn8  1  0.878306  0.369158  0.875008  1
  Zn  Zn9  1  0.627009  0.124328  0.123370  1
  Zn  Zn10  1  0.369160  0.878305  0.875003  1
  Zn  Zn11  1  0.498482  0.001304  0.998381  1
  Zn  Zn12  1  0.999383  0.506100  0.495151  1
  Zn  Zn13  1  0.001305  0.498482  0.998381  1
  Zn  Zn14  1  0.506099  0.999381  0.495153  1
  Zn  Zn15  1  0.999607  0.999607  0.499740  1
  Zn  Zn16  1  0.500510  0.500508  0.997955  1
  Zn  Zn17  1  0.331585  0.331592  0.330938  1
  Zn  Zn18  1  0.668549  0.668542  0.668535  1
  Zn  Zn19  1  0.331518  0.331516  0.005602  1
  Zn  Zn20  1  0.329633  0.008178  0.331266  1
  Zn  Zn21  1  0.669397  0.669400  0.991340  1
  Zn  Zn22  1  0.670156  0.993008  0.668491  1
  Zn  Zn23  1  0.008178  0.329634  0.331271  1
  Zn  Zn24  1  0.993007  0.670157  0.668487  1
  Zn  Zn25  1  0.994235  0.994231  0.010678  1
  Au  Au26  1  0.118215  0.118239  0.117449  1
  Au  Au27  1  0.877723  0.877691  0.886513  1
  Au  Au28  1  0.122720  0.122725  0.643839  1
  S  S29  1  0.500333  0.500331  0.500853  1
