# generated using pymatgen
data_SmGd(Ga2Ni)2
_symmetry_space_group_name_H-M   'P 1'
_cell_length_a   8.94534850
_cell_length_b   8.94534849
_cell_length_c   4.08720700
_cell_angle_alpha   90.00000000
_cell_angle_beta   90.00000000
_cell_angle_gamma   152.95864300
_symmetry_Int_Tables_number   1
_chemical_formula_structural   SmGd(Ga2Ni)2
_chemical_formula_sum   'Sm1 Gd1 Ga4 Ni2'
_cell_volume   148.69029391
_cell_formula_units_Z   1
loop_
 _symmetry_equiv_pos_site_id
 _symmetry_equiv_pos_as_xyz
  1  'x, y, z'
loop_
 _atom_site_type_symbol
 _atom_site_label
 _atom_site_symmetry_multiplicity
 _atom_site_fract_x
 _atom_site_fract_y
 _atom_site_fract_z
 _atom_site_occupancy
  Sm  Sm0  1  0.357668  0.642332  0.500000  1
  Gd  Gd1  1  0.641684  0.358316  0.500000  1
  Ga  Ga2  1  0.791177  0.208823  0.000000  1
  Ga  Ga3  1  0.207837  0.792163  0.000000  1
  Ga  Ga4  1  0.000616  0.999384  0.500000  1
  Ga  Ga5  1  0.500666  0.499334  0.000000  1
  Ni  Ni6  1  0.926613  0.073387  0.000000  1
  Ni  Ni7  1  0.073737  0.926263  0.000000  1
