# generated using pymatgen
data_La5Ho15(SnSb)8
_symmetry_space_group_name_H-M   'P 1'
_cell_length_a   8.16518054
_cell_length_b   8.19786845
_cell_length_c   15.48748400
_cell_angle_alpha   90.01603301
_cell_angle_beta   89.77043540
_cell_angle_gamma   89.95875894
_symmetry_Int_Tables_number   1
_chemical_formula_structural   La5Ho15(SnSb)8
_chemical_formula_sum   'La5 Ho15 Sn8 Sb8'
_cell_volume   1036.67826152
_cell_formula_units_Z   1
loop_
 _symmetry_equiv_pos_site_id
 _symmetry_equiv_pos_as_xyz
  1  'x, y, z'
loop_
 _atom_site_type_symbol
 _atom_site_label
 _atom_site_symmetry_multiplicity
 _atom_site_fract_x
 _atom_site_fract_y
 _atom_site_fract_z
 _atom_site_occupancy
  La  La0  1  0.963740  0.820059  0.101269  1
  La  La1  1  0.467035  0.677541  0.099903  1
  La  La2  1  0.965681  0.823023  0.399983  1
  La  La3  1  0.534640  0.323015  0.599766  1
  La  La4  1  0.032250  0.178809  0.900795  1
  Ho  Ho5  1  0.374130  0.839340  0.877752  1
  Ho  Ho6  1  0.876587  0.660817  0.621842  1
  Ho  Ho7  1  0.622972  0.161630  0.378987  1
  Ho  Ho8  1  0.124356  0.339262  0.122397  1
  Ho  Ho9  1  0.623108  0.160193  0.122726  1
  Ho  Ho10  1  0.120781  0.338884  0.379323  1
  Ho  Ho11  1  0.379406  0.839264  0.622376  1
  Ho  Ho12  1  0.875269  0.660129  0.876437  1
  Ho  Ho13  1  0.539757  0.324998  0.893197  1
  Ho  Ho14  1  0.043904  0.172608  0.607848  1
  Ho  Ho15  1  0.456323  0.672613  0.393726  1
  Ho  Ho16  1  0.206569  0.499138  0.749160  1
  Ho  Ho17  1  0.707194  0.001531  0.750634  1
  Ho  Ho18  1  0.793066  0.500338  0.249225  1
  Ho  Ho19  1  0.293073  0.998447  0.251452  1
  Sn  Sn20  1  0.572640  0.626827  0.750404  1
  Sn  Sn21  1  0.073527  0.873089  0.749239  1
  Sn  Sn22  1  0.426396  0.372212  0.251119  1
  Sn  Sn23  1  0.926420  0.129065  0.250808  1
  Sn  Sn24  1  0.344290  0.142624  0.751934  1
  Sn  Sn25  1  0.844637  0.357278  0.747766  1
  Sn  Sn26  1  0.653724  0.857690  0.253376  1
  Sn  Sn27  1  0.159121  0.639177  0.250930  1
  Sb  Sb28  1  0.285602  0.034671  0.046807  1
  Sb  Sb29  1  0.774362  0.475925  0.451866  1
  Sb  Sb30  1  0.725517  0.975153  0.548625  1
  Sb  Sb31  1  0.222137  0.528265  0.952304  1
  Sb  Sb32  1  0.708238  0.967091  0.953844  1
  Sb  Sb33  1  0.213907  0.535494  0.543225  1
  Sb  Sb34  1  0.286146  0.035567  0.458033  1
  Sb  Sb35  1  0.783494  0.458229  0.040921  1
