# generated using pymatgen
data_LiHf2Ir3
_symmetry_space_group_name_H-M   'P 1'
_cell_length_a   7.77247500
_cell_length_b   7.77247492
_cell_length_c   5.52714600
_cell_angle_alpha   90.00000000
_cell_angle_beta   90.00000000
_cell_angle_gamma   119.99999607
_symmetry_Int_Tables_number   1
_chemical_formula_structural   LiHf2Ir3
_chemical_formula_sum   'Li3 Hf6 Ir9'
_cell_volume   289.16801174
_cell_formula_units_Z   3
loop_
 _symmetry_equiv_pos_site_id
 _symmetry_equiv_pos_as_xyz
  1  'x, y, z'
loop_
 _atom_site_type_symbol
 _atom_site_label
 _atom_site_symmetry_multiplicity
 _atom_site_fract_x
 _atom_site_fract_y
 _atom_site_fract_z
 _atom_site_occupancy
  Li  Li0  1  0.666855  0.000000  0.225429  1
  Li  Li1  1  0.333144  0.333145  0.225429  1
  Li  Li2  1  0.000000  0.666855  0.225429  1
  Hf  Hf3  1  0.000000  0.000000  0.539822  1
  Hf  Hf4  1  0.666666  0.333333  0.539896  1
  Hf  Hf5  1  0.333334  0.666667  0.539896  1
  Hf  Hf6  1  0.333372  0.000000  0.910975  1
  Hf  Hf7  1  0.000000  0.333372  0.910975  1
  Hf  Hf8  1  0.666628  0.666628  0.910975  1
  Ir  Ir9  1  0.000000  0.000000  0.050100  1
  Ir  Ir10  1  0.666666  0.333333  0.050253  1
  Ir  Ir11  1  0.333334  0.666667  0.050253  1
  Ir  Ir12  1  0.333371  0.000000  0.400681  1
  Ir  Ir13  1  0.000000  0.333371  0.400681  1
  Ir  Ir14  1  0.666630  0.666629  0.400681  1
  Ir  Ir15  1  0.666696  0.000000  0.725461  1
  Ir  Ir16  1  0.333305  0.333305  0.725461  1
  Ir  Ir17  1  0.000000  0.666695  0.725461  1
