# generated using pymatgen
data_Ca2TbDy(Ga2Ag)4
_symmetry_space_group_name_H-M   'P 1'
_cell_length_a   4.37156900
_cell_length_b   7.03636565
_cell_length_c   10.46594900
_cell_angle_alpha   90.03792393
_cell_angle_beta   90.00000000
_cell_angle_gamma   90.00000000
_symmetry_Int_Tables_number   1
_chemical_formula_structural   Ca2TbDy(Ga2Ag)4
_chemical_formula_sum   'Ca2 Tb1 Dy1 Ga8 Ag4'
_cell_volume   321.93208054
_cell_formula_units_Z   1
loop_
 _symmetry_equiv_pos_site_id
 _symmetry_equiv_pos_as_xyz
  1  'x, y, z'
loop_
 _atom_site_type_symbol
 _atom_site_label
 _atom_site_symmetry_multiplicity
 _atom_site_fract_x
 _atom_site_fract_y
 _atom_site_fract_z
 _atom_site_occupancy
  Ca  Ca0  1  0.750000  0.224551  0.174292  1
  Ca  Ca1  1  0.750000  0.724461  0.325633  1
  Tb  Tb2  1  0.250000  0.279635  0.672739  1
  Dy  Dy3  1  0.250000  0.779473  0.827794  1
  Ga  Ga4  1  0.250000  0.925446  0.148891  1
  Ga  Ga5  1  0.750000  0.073858  0.843479  1
  Ga  Ga6  1  0.750000  0.575085  0.656641  1
  Ga  Ga7  1  0.250000  0.425464  0.351161  1
  Ga  Ga8  1  0.250000  0.701648  0.536305  1
  Ga  Ga9  1  0.750000  0.297396  0.467999  1
  Ga  Ga10  1  0.750000  0.797379  0.031716  1
  Ga  Ga11  1  0.250000  0.200485  0.964031  1
  Ag  Ag12  1  0.250000  0.542144  0.096465  1
  Ag  Ag13  1  0.750000  0.455572  0.901076  1
  Ag  Ag14  1  0.750000  0.955413  0.598789  1
  Ag  Ag15  1  0.250000  0.041990  0.402991  1
