# generated using pymatgen
data_Ce4Co16Si9P3Ru4
_symmetry_space_group_name_H-M   'P 1'
_cell_length_a   3.74831700
_cell_length_b   10.61238132
_cell_length_c   11.97175935
_cell_angle_alpha   89.97206025
_cell_angle_beta   90.00000000
_cell_angle_gamma   90.00000000
_symmetry_Int_Tables_number   1
_chemical_formula_structural   Ce4Co16Si9P3Ru4
_chemical_formula_sum   'Ce4 Co16 Si9 P3 Ru4'
_cell_volume   476.21940250
_cell_formula_units_Z   1
loop_
 _symmetry_equiv_pos_site_id
 _symmetry_equiv_pos_as_xyz
  1  'x, y, z'
loop_
 _atom_site_type_symbol
 _atom_site_label
 _atom_site_symmetry_multiplicity
 _atom_site_fract_x
 _atom_site_fract_y
 _atom_site_fract_z
 _atom_site_occupancy
  Ce  Ce0  1  0.250000  0.580013  0.701206  1
  Ce  Ce1  1  0.250000  0.918135  0.203590  1
  Ce  Ce2  1  0.750000  0.418754  0.295658  1
  Ce  Ce3  1  0.750000  0.080722  0.797740  1
  Co  Co4  1  0.250000  0.405307  0.489185  1
  Co  Co5  1  0.250000  0.090092  0.988025  1
  Co  Co6  1  0.750000  0.590638  0.514640  1
  Co  Co7  1  0.750000  0.909651  0.012397  1
  Co  Co8  1  0.250000  0.211509  0.171150  1
  Co  Co9  1  0.250000  0.286896  0.672438  1
  Co  Co10  1  0.750000  0.788770  0.828911  1
  Co  Co11  1  0.750000  0.714366  0.327698  1
  Co  Co12  1  0.250000  0.891535  0.705303  1
  Co  Co13  1  0.250000  0.609169  0.200741  1
  Co  Co14  1  0.750000  0.109071  0.295759  1
  Co  Co15  1  0.750000  0.390215  0.795364  1
  Co  Co16  1  0.250000  0.470208  0.929114  1
  Co  Co17  1  0.250000  0.030820  0.430693  1
  Co  Co18  1  0.750000  0.529639  0.068084  1
  Co  Co19  1  0.750000  0.971468  0.570881  1
  Si  Si20  1  0.250000  0.412828  0.107821  1
  Si  Si21  1  0.250000  0.087022  0.609608  1
  Si  Si22  1  0.750000  0.586910  0.889838  1
  Si  Si23  1  0.750000  0.913619  0.392130  1
  Si  Si24  1  0.250000  0.276283  0.865059  1
  Si  Si25  1  0.250000  0.224053  0.364528  1
  Si  Si26  1  0.750000  0.722721  0.135099  1
  Si  Si27  1  0.750000  0.777134  0.635564  1
  Si  Si28  1  0.250000  0.602091  0.394438  1
  P  P29  1  0.250000  0.898953  0.893674  1
  P  P30  1  0.750000  0.397976  0.606305  1
  P  P31  1  0.750000  0.100853  0.107207  1
  Ru  Ru32  1  0.250000  0.710778  0.990609  1
  Ru  Ru33  1  0.250000  0.793877  0.494029  1
  Ru  Ru34  1  0.750000  0.287932  0.007533  1
  Ru  Ru35  1  0.750000  0.209992  0.507981  1
