# generated using pymatgen
data_Tb3Ho3Ni20P13
_symmetry_space_group_name_H-M   'P 1'
_cell_length_a   12.67222900
_cell_length_b   12.67223028
_cell_length_c   3.75821500
_cell_angle_alpha   90.00000000
_cell_angle_beta   90.00000000
_cell_angle_gamma   119.99999406
_symmetry_Int_Tables_number   1
_chemical_formula_structural   Tb3Ho3Ni20P13
_chemical_formula_sum   'Tb3 Ho3 Ni20 P13'
_cell_volume   522.65889747
_cell_formula_units_Z   1
loop_
 _symmetry_equiv_pos_site_id
 _symmetry_equiv_pos_as_xyz
  1  'x, y, z'
loop_
 _atom_site_type_symbol
 _atom_site_label
 _atom_site_symmetry_multiplicity
 _atom_site_fract_x
 _atom_site_fract_y
 _atom_site_fract_z
 _atom_site_occupancy
  Tb  Tb0  1  0.469975  0.281616  0.000000  1
  Tb  Tb1  1  0.718384  0.188359  0.000000  1
  Tb  Tb2  1  0.811641  0.530025  0.000000  1
  Ho  Ho3  1  0.188345  0.470219  0.500000  1
  Ho  Ho4  1  0.529781  0.718125  0.500000  1
  Ho  Ho5  1  0.281875  0.811655  0.500000  1
  Ni  Ni6  1  0.195911  0.104093  0.000000  1
  Ni  Ni7  1  0.895907  0.091818  0.000000  1
  Ni  Ni8  1  0.908182  0.804089  0.000000  1
  Ni  Ni9  1  0.666667  0.333333  0.500000  1
  Ni  Ni10  1  0.072841  0.151140  0.500000  1
  Ni  Ni11  1  0.848860  0.921701  0.500000  1
  Ni  Ni12  1  0.078299  0.927159  0.500000  1
  Ni  Ni13  1  0.333333  0.666667  0.000000  1
  Ni  Ni14  1  0.437906  0.020549  0.000000  1
  Ni  Ni15  1  0.979451  0.417358  0.000000  1
  Ni  Ni16  1  0.582642  0.562094  0.000000  1
  Ni  Ni17  1  0.316995  0.069527  0.500000  1
  Ni  Ni18  1  0.930473  0.247469  0.500000  1
  Ni  Ni19  1  0.752531  0.683005  0.500000  1
  Ni  Ni20  1  0.022568  0.587930  0.500000  1
  Ni  Ni21  1  0.412070  0.434637  0.500000  1
  Ni  Ni22  1  0.565363  0.977432  0.500000  1
  Ni  Ni23  1  0.241499  0.320270  0.000000  1
  Ni  Ni24  1  0.679730  0.921229  0.000000  1
  Ni  Ni25  1  0.078771  0.758501  0.000000  1
  P  P26  1  0.523811  0.136613  0.500000  1
  P  P27  1  0.863387  0.387197  0.500000  1
  P  P28  1  0.612803  0.476189  0.500000  1
  P  P29  1  0.278719  0.231863  0.500000  1
  P  P30  1  0.768137  0.046856  0.500000  1
  P  P31  1  0.953144  0.721281  0.500000  1
  P  P32  1  0.138228  0.614908  0.000000  1
  P  P33  1  0.385092  0.523320  0.000000  1
  P  P34  1  0.476680  0.861772  0.000000  1
  P  P35  1  0.048739  0.283678  0.000000  1
  P  P36  1  0.716322  0.765060  0.000000  1
  P  P37  1  0.234940  0.951261  0.000000  1
  P  P38  1  0.000000  0.000000  0.000000  1
