# generated using pymatgen
data_Th6Al24CuRu7
_symmetry_space_group_name_H-M   'P 1'
_cell_length_a   8.98056903
_cell_length_b   8.98056827
_cell_length_c   9.56666705
_cell_angle_alpha   89.98968291
_cell_angle_beta   90.01031819
_cell_angle_gamma   119.68472448
_symmetry_Int_Tables_number   1
_chemical_formula_structural   Th6Al24CuRu7
_chemical_formula_sum   'Th6 Al24 Cu1 Ru7'
_cell_volume   670.30109451
_cell_formula_units_Z   1
loop_
 _symmetry_equiv_pos_site_id
 _symmetry_equiv_pos_as_xyz
  1  'x, y, z'
loop_
 _atom_site_type_symbol
 _atom_site_label
 _atom_site_symmetry_multiplicity
 _atom_site_fract_x
 _atom_site_fract_y
 _atom_site_fract_z
 _atom_site_occupancy
  Th  Th0  1  0.809180  0.612683  0.749556  1
  Th  Th1  1  0.194218  0.805782  0.252921  1
  Th  Th2  1  0.612683  0.809180  0.250444  1
  Th  Th3  1  0.387317  0.190820  0.749556  1
  Th  Th4  1  0.805782  0.194218  0.747079  1
  Th  Th5  1  0.190820  0.387317  0.250444  1
  Al  Al6  1  0.333649  0.666351  0.489671  1
  Al  Al7  1  0.668661  0.331339  0.986456  1
  Al  Al8  1  0.666351  0.333649  0.510329  1
  Al  Al9  1  0.331339  0.668661  0.013544  1
  Al  Al10  1  0.163333  0.324555  0.576585  1
  Al  Al11  1  0.675445  0.836667  0.576585  1
  Al  Al12  1  0.162527  0.837473  0.578356  1
  Al  Al13  1  0.837056  0.162944  0.078581  1
  Al  Al14  1  0.837473  0.162527  0.421644  1
  Al  Al15  1  0.844188  0.677220  0.079240  1
  Al  Al16  1  0.322780  0.155812  0.079240  1
  Al  Al17  1  0.677220  0.844188  0.920760  1
  Al  Al18  1  0.155812  0.322780  0.920760  1
  Al  Al19  1  0.836667  0.675445  0.423415  1
  Al  Al20  1  0.998952  0.001048  0.250491  1
  Al  Al21  1  0.001048  0.998952  0.749509  1
  Al  Al22  1  0.563080  0.127364  0.249373  1
  Al  Al23  1  0.436794  0.563206  0.747836  1
  Al  Al24  1  0.127364  0.563080  0.750627  1
  Al  Al25  1  0.872636  0.436920  0.249373  1
  Al  Al26  1  0.563206  0.436794  0.252164  1
  Al  Al27  1  0.436920  0.872636  0.750627  1
  Al  Al28  1  0.162944  0.837056  0.921419  1
  Al  Al29  1  0.324555  0.163333  0.423415  1
  Cu  Cu30  1  0.500000  0.500000  0.000000  1
  Ru  Ru31  1  0.000000  0.000000  0.500000  1
  Ru  Ru32  1  0.000000  0.000000  0.000000  1
  Ru  Ru33  1  0.500000  0.000000  0.500000  1
  Ru  Ru34  1  0.000000  0.500000  0.000000  1
  Ru  Ru35  1  0.000000  0.500000  0.500000  1
  Ru  Ru36  1  0.500000  0.500000  0.500000  1
  Ru  Ru37  1  0.500000  0.000000  0.000000  1
