# generated using pymatgen
data_Pr3In3Ag2Ir
_symmetry_space_group_name_H-M   'P 1'
_cell_length_a   7.97977700
_cell_length_b   7.97977796
_cell_length_c   4.06339000
_cell_angle_alpha   90.00000000
_cell_angle_beta   90.00000000
_cell_angle_gamma   119.99999186
_symmetry_Int_Tables_number   1
_chemical_formula_structural   Pr3In3Ag2Ir
_chemical_formula_sum   'Pr3 In3 Ag2 Ir1'
_cell_volume   224.07878294
_cell_formula_units_Z   1
loop_
 _symmetry_equiv_pos_site_id
 _symmetry_equiv_pos_as_xyz
  1  'x, y, z'
loop_
 _atom_site_type_symbol
 _atom_site_label
 _atom_site_symmetry_multiplicity
 _atom_site_fract_x
 _atom_site_fract_y
 _atom_site_fract_z
 _atom_site_occupancy
  Pr  Pr0  1  0.577809  0.603977  0.000000  1
  Pr  Pr1  1  0.396023  0.973833  0.000000  1
  Pr  Pr2  1  0.026167  0.422191  0.000000  1
  In  In3  1  0.995077  0.736208  0.500000  1
  In  In4  1  0.263792  0.258871  0.500000  1
  In  In5  1  0.741129  0.004923  0.500000  1
  Ag  Ag6  1  0.000000  0.000000  0.000000  1
  Ag  Ag7  1  0.666667  0.333333  0.500000  1
  Ir  Ir8  1  0.333333  0.666667  0.500000  1
