# generated using pymatgen
data_Er7Zr2Ti(Si5Ir2)4
_symmetry_space_group_name_H-M   'P 1'
_cell_length_a   12.53008137
_cell_length_b   12.53008132
_cell_length_c   4.18674100
_cell_angle_alpha   90.00000000
_cell_angle_beta   90.00000000
_cell_angle_gamma   89.41847427
_symmetry_Int_Tables_number   1
_chemical_formula_structural   Er7Zr2Ti(Si5Ir2)4
_chemical_formula_sum   'Er7 Zr2 Ti1 Si20 Ir8'
_cell_volume   657.29678324
_cell_formula_units_Z   1
loop_
 _symmetry_equiv_pos_site_id
 _symmetry_equiv_pos_as_xyz
  1  'x, y, z'
loop_
 _atom_site_type_symbol
 _atom_site_label
 _atom_site_symmetry_multiplicity
 _atom_site_fract_x
 _atom_site_fract_y
 _atom_site_fract_z
 _atom_site_occupancy
  Er  Er0  1  0.493861  0.505335  0.000000  1
  Er  Er1  1  0.994665  0.006139  0.000000  1
  Er  Er2  1  0.823193  0.676807  0.500000  1
  Er  Er3  1  0.882414  0.380725  0.500000  1
  Er  Er4  1  0.119275  0.617586  0.500000  1
  Er  Er5  1  0.379260  0.120740  0.500000  1
  Er  Er6  1  0.608795  0.891205  0.500000  1
  Zr  Zr7  1  0.675114  0.171139  0.500000  1
  Zr  Zr8  1  0.328861  0.824886  0.500000  1
  Ti  Ti9  1  0.174850  0.325150  0.500000  1
  Si  Si10  1  0.563416  0.069850  0.000000  1
  Si  Si11  1  0.430150  0.936584  0.000000  1
  Si  Si12  1  0.068591  0.431409  0.000000  1
  Si  Si13  1  0.934275  0.565725  0.000000  1
  Si  Si14  1  0.662116  0.700441  0.000000  1
  Si  Si15  1  0.329227  0.304194  0.000000  1
  Si  Si16  1  0.166056  0.803888  0.000000  1
  Si  Si17  1  0.833556  0.199577  0.000000  1
  Si  Si18  1  0.300423  0.666444  0.000000  1
  Si  Si19  1  0.696112  0.333944  0.000000  1
  Si  Si20  1  0.195806  0.170773  0.000000  1
  Si  Si21  1  0.799559  0.837884  0.000000  1
  Si  Si22  1  0.653358  0.501044  0.500000  1
  Si  Si23  1  0.334771  0.452360  0.500000  1
  Si  Si24  1  0.152629  0.985574  0.500000  1
  Si  Si25  1  0.829218  0.969668  0.500000  1
  Si  Si26  1  0.530332  0.670782  0.500000  1
  Si  Si27  1  0.514426  0.347371  0.500000  1
  Si  Si28  1  0.047640  0.165229  0.500000  1
  Si  Si29  1  0.998956  0.846642  0.500000  1
  Ir  Ir30  1  0.743897  0.517970  0.000000  1
  Ir  Ir31  1  0.250429  0.484303  0.000000  1
  Ir  Ir32  1  0.243115  0.984666  0.000000  1
  Ir  Ir33  1  0.752185  0.023594  0.000000  1
  Ir  Ir34  1  0.476406  0.747815  0.000000  1
  Ir  Ir35  1  0.515334  0.256885  0.000000  1
  Ir  Ir36  1  0.015697  0.249571  0.000000  1
  Ir  Ir37  1  0.982030  0.756103  0.000000  1
