# generated using pymatgen
data_RbZn4BiO7
_symmetry_space_group_name_H-M   'P 1'
_cell_length_a   6.37963000
_cell_length_b   6.37962994
_cell_length_c   10.36564600
_cell_angle_alpha   90.00000000
_cell_angle_beta   90.00000000
_cell_angle_gamma   120.00001068
_symmetry_Int_Tables_number   1
_chemical_formula_structural   RbZn4BiO7
_chemical_formula_sum   'Rb2 Zn8 Bi2 O14'
_cell_volume   365.35742452
_cell_formula_units_Z   2
loop_
 _symmetry_equiv_pos_site_id
 _symmetry_equiv_pos_as_xyz
  1  'x, y, z'
loop_
 _atom_site_type_symbol
 _atom_site_label
 _atom_site_symmetry_multiplicity
 _atom_site_fract_x
 _atom_site_fract_y
 _atom_site_fract_z
 _atom_site_occupancy
  Rb  Rb0  1  0.333333  0.666667  0.822036  1
  Rb  Rb1  1  0.666667  0.333333  0.322036  1
  Zn  Zn2  1  0.000000  0.000000  0.251569  1
  Zn  Zn3  1  0.000000  0.000000  0.751569  1
  Zn  Zn4  1  0.341095  0.170547  0.006912  1
  Zn  Zn5  1  0.829453  0.658905  0.006912  1
  Zn  Zn6  1  0.829453  0.170547  0.006912  1
  Zn  Zn7  1  0.658905  0.829453  0.506912  1
  Zn  Zn8  1  0.170547  0.341095  0.506912  1
  Zn  Zn9  1  0.170547  0.829453  0.506912  1
  Bi  Bi10  1  0.333333  0.666667  0.195166  1
  Bi  Bi11  1  0.666667  0.333333  0.695166  1
  O  O12  1  0.000000  0.000000  0.060408  1
  O  O13  1  0.000000  0.000000  0.560408  1
  O  O14  1  0.170810  0.341619  0.315692  1
  O  O15  1  0.170810  0.829190  0.315692  1
  O  O16  1  0.658381  0.829190  0.315692  1
  O  O17  1  0.829190  0.658381  0.815692  1
  O  O18  1  0.829190  0.170810  0.815692  1
  O  O19  1  0.341619  0.170810  0.815692  1
  O  O20  1  0.495560  0.991121  0.074444  1
  O  O21  1  0.495560  0.504440  0.074444  1
  O  O22  1  0.008879  0.504440  0.074444  1
  O  O23  1  0.504440  0.008879  0.574444  1
  O  O24  1  0.504440  0.495560  0.574444  1
  O  O25  1  0.991121  0.495560  0.574444  1
