# generated using pymatgen
data_Tb(LuZn4)3
_symmetry_space_group_name_H-M   'P 1'
_cell_length_a   4.35175900
_cell_length_b   6.62629536
_cell_length_c   10.04848534
_cell_angle_alpha   90.20773907
_cell_angle_beta   90.00000000
_cell_angle_gamma   90.00000000
_symmetry_Int_Tables_number   1
_chemical_formula_structural   Tb(LuZn4)3
_chemical_formula_sum   'Tb1 Lu3 Zn12'
_cell_volume   289.75662522
_cell_formula_units_Z   1
loop_
 _symmetry_equiv_pos_site_id
 _symmetry_equiv_pos_as_xyz
  1  'x, y, z'
loop_
 _atom_site_type_symbol
 _atom_site_label
 _atom_site_symmetry_multiplicity
 _atom_site_fract_x
 _atom_site_fract_y
 _atom_site_fract_z
 _atom_site_occupancy
  Tb  Tb0  1  0.250000  0.278701  0.665367  1
  Lu  Lu1  1  0.250000  0.779391  0.835631  1
  Lu  Lu2  1  0.750000  0.720644  0.335488  1
  Lu  Lu3  1  0.750000  0.220827  0.165352  1
  Zn  Zn4  1  0.250000  0.534778  0.103205  1
  Zn  Zn5  1  0.250000  0.033767  0.395195  1
  Zn  Zn6  1  0.750000  0.464511  0.897067  1
  Zn  Zn7  1  0.750000  0.963607  0.601723  1
  Zn  Zn8  1  0.250000  0.919492  0.151024  1
  Zn  Zn9  1  0.250000  0.419852  0.348992  1
  Zn  Zn10  1  0.750000  0.078458  0.851796  1
  Zn  Zn11  1  0.750000  0.583313  0.648847  1
  Zn  Zn12  1  0.250000  0.213633  0.959501  1
  Zn  Zn13  1  0.250000  0.719033  0.542441  1
  Zn  Zn14  1  0.750000  0.785344  0.043114  1
  Zn  Zn15  1  0.750000  0.284650  0.455255  1
