# generated using pymatgen
data_Nb3GeRuN
_symmetry_space_group_name_H-M   'P 1'
_cell_length_a   7.03219900
_cell_length_b   7.03219900
_cell_length_c   7.03219900
_cell_angle_alpha   90.00000000
_cell_angle_beta   90.00000000
_cell_angle_gamma   90.00000000
_symmetry_Int_Tables_number   1
_chemical_formula_structural   Nb3GeRuN
_chemical_formula_sum   'Nb12 Ge4 Ru4 N4'
_cell_volume   347.75505867
_cell_formula_units_Z   4
loop_
 _symmetry_equiv_pos_site_id
 _symmetry_equiv_pos_as_xyz
  1  'x, y, z'
loop_
 _atom_site_type_symbol
 _atom_site_label
 _atom_site_symmetry_multiplicity
 _atom_site_fract_x
 _atom_site_fract_y
 _atom_site_fract_z
 _atom_site_occupancy
  Nb  Nb0  1  0.794631  0.953925  0.380219  1
  Nb  Nb1  1  0.705369  0.046075  0.880219  1
  Nb  Nb2  1  0.205369  0.453925  0.119781  1
  Nb  Nb3  1  0.294631  0.546075  0.619781  1
  Nb  Nb4  1  0.953925  0.380219  0.794631  1
  Nb  Nb5  1  0.046075  0.880219  0.705369  1
  Nb  Nb6  1  0.453925  0.119781  0.205369  1
  Nb  Nb7  1  0.546075  0.619781  0.294631  1
  Nb  Nb8  1  0.380219  0.794631  0.953925  1
  Nb  Nb9  1  0.880219  0.705369  0.046075  1
  Nb  Nb10  1  0.119781  0.205369  0.453925  1
  Nb  Nb11  1  0.619781  0.294631  0.546075  1
  Ge  Ge12  1  0.569003  0.430997  0.930997  1
  Ge  Ge13  1  0.430997  0.930997  0.569003  1
  Ge  Ge14  1  0.930997  0.569003  0.430997  1
  Ge  Ge15  1  0.069003  0.069003  0.069003  1
  Ru  Ru16  1  0.176264  0.823736  0.323736  1
  Ru  Ru17  1  0.323736  0.176264  0.823736  1
  Ru  Ru18  1  0.823736  0.323736  0.176264  1
  Ru  Ru19  1  0.676264  0.676264  0.676264  1
  N  N20  1  0.872059  0.127941  0.627941  1
  N  N21  1  0.627941  0.872059  0.127941  1
  N  N22  1  0.127941  0.627941  0.872059  1
  N  N23  1  0.372059  0.372059  0.372059  1
