# generated using pymatgen
data_Sc10Co7Si20Au
_symmetry_space_group_name_H-M   'P 1'
_cell_length_a   12.10865400
_cell_length_b   12.11252190
_cell_length_c   3.96927500
_cell_angle_alpha   90.00000000
_cell_angle_beta   90.00000000
_cell_angle_gamma   90.12461477
_symmetry_Int_Tables_number   1
_chemical_formula_structural   Sc10Co7Si20Au
_chemical_formula_sum   'Sc10 Co7 Si20 Au1'
_cell_volume   582.15764689
_cell_formula_units_Z   1
loop_
 _symmetry_equiv_pos_site_id
 _symmetry_equiv_pos_as_xyz
  1  'x, y, z'
loop_
 _atom_site_type_symbol
 _atom_site_label
 _atom_site_symmetry_multiplicity
 _atom_site_fract_x
 _atom_site_fract_y
 _atom_site_fract_z
 _atom_site_occupancy
  Sc  Sc0  1  0.001049  0.999040  0.000000  1
  Sc  Sc1  1  0.498572  0.513286  0.000000  1
  Sc  Sc2  1  0.683064  0.172803  0.500000  1
  Sc  Sc3  1  0.170721  0.324180  0.500000  1
  Sc  Sc4  1  0.822096  0.675607  0.500000  1
  Sc  Sc5  1  0.323602  0.823966  0.500000  1
  Sc  Sc6  1  0.892264  0.390614  0.500000  1
  Sc  Sc7  1  0.382247  0.105656  0.500000  1
  Sc  Sc8  1  0.611123  0.886209  0.500000  1
  Sc  Sc9  1  0.110210  0.611378  0.500000  1
  Co  Co10  1  0.252674  0.478542  0.000000  1
  Co  Co11  1  0.745278  0.525588  0.000000  1
  Co  Co12  1  0.474706  0.746406  0.000000  1
  Co  Co13  1  0.976849  0.754571  0.000000  1
  Co  Co14  1  0.024740  0.245476  0.000000  1
  Co  Co15  1  0.759279  0.023193  0.000000  1
  Co  Co16  1  0.245071  0.976634  0.000000  1
  Si  Si17  1  0.575969  0.053325  0.000000  1
  Si  Si18  1  0.067253  0.433186  0.000000  1
  Si  Si19  1  0.930956  0.570094  0.000000  1
  Si  Si20  1  0.429989  0.930353  0.000000  1
  Si  Si21  1  0.194279  0.154882  0.000000  1
  Si  Si22  1  0.156584  0.802078  0.000000  1
  Si  Si23  1  0.847638  0.193928  0.000000  1
  Si  Si24  1  0.803518  0.841893  0.000000  1
  Si  Si25  1  0.300671  0.658233  0.000000  1
  Si  Si26  1  0.716235  0.344264  0.000000  1
  Si  Si27  1  0.656482  0.700278  0.000000  1
  Si  Si28  1  0.326368  0.303553  0.000000  1
  Si  Si29  1  0.001196  0.164069  0.500000  1
  Si  Si30  1  0.163213  0.993036  0.500000  1
  Si  Si31  1  0.838056  0.996525  0.500000  1
  Si  Si32  1  0.995654  0.835302  0.500000  1
  Si  Si33  1  0.497450  0.668517  0.500000  1
  Si  Si34  1  0.503833  0.360556  0.500000  1
  Si  Si35  1  0.663652  0.499374  0.500000  1
  Si  Si36  1  0.335585  0.494399  0.500000  1
  Au  Au37  1  0.521876  0.249009  0.000000  1
