# generated using pymatgen
data_Y3Mg2CdSi2Au
_symmetry_space_group_name_H-M   'P 1'
_cell_length_a   7.28321300
_cell_length_b   7.21762567
_cell_length_c   4.34231000
_cell_angle_alpha   90.00000000
_cell_angle_beta   90.00000000
_cell_angle_gamma   120.30105247
_symmetry_Int_Tables_number   1
_chemical_formula_structural   Y3Mg2CdSi2Au
_chemical_formula_sum   'Y3 Mg2 Cd1 Si2 Au1'
_cell_volume   197.08035456
_cell_formula_units_Z   1
loop_
 _symmetry_equiv_pos_site_id
 _symmetry_equiv_pos_as_xyz
  1  'x, y, z'
loop_
 _atom_site_type_symbol
 _atom_site_label
 _atom_site_symmetry_multiplicity
 _atom_site_fract_x
 _atom_site_fract_y
 _atom_site_fract_z
 _atom_site_occupancy
  Y  Y0  1  0.579718  0.000000  0.000000  1
  Y  Y1  1  0.000789  0.582434  0.000000  1
  Y  Y2  1  0.418355  0.417566  0.000000  1
  Mg  Mg3  1  0.000813  0.244625  0.500000  1
  Mg  Mg4  1  0.756187  0.755375  0.500000  1
  Cd  Cd5  1  0.252746  0.000000  0.500000  1
  Si  Si6  1  0.333758  0.663878  0.500000  1
  Si  Si7  1  0.669881  0.336122  0.500000  1
  Au  Au8  1  0.987752  0.000000  0.000000  1
