# generated using pymatgen
data_LaGa3PbO7
_symmetry_space_group_name_H-M   'P 1'
_cell_length_a   8.16069828
_cell_length_b   8.16069905
_cell_length_c   5.41681000
_cell_angle_alpha   90.00000000
_cell_angle_beta   90.00000000
_cell_angle_gamma   89.92823473
_symmetry_Int_Tables_number   1
_chemical_formula_structural   LaGa3PbO7
_chemical_formula_sum   'La2 Ga6 Pb2 O14'
_cell_volume   360.74302716
_cell_formula_units_Z   2
loop_
 _symmetry_equiv_pos_site_id
 _symmetry_equiv_pos_as_xyz
  1  'x, y, z'
loop_
 _atom_site_type_symbol
 _atom_site_label
 _atom_site_symmetry_multiplicity
 _atom_site_fract_x
 _atom_site_fract_y
 _atom_site_fract_z
 _atom_site_occupancy
  La  La0  1  0.663332  0.663332  0.512033  1
  La  La1  1  0.336668  0.336668  0.512033  1
  Ga  Ga2  1  0.357741  0.642259  0.031992  1
  Ga  Ga3  1  0.854527  0.854527  0.966653  1
  Ga  Ga4  1  0.642259  0.357741  0.031992  1
  Ga  Ga5  1  0.145473  0.145473  0.966653  1
  Ga  Ga6  1  0.500000  0.000000  0.998269  1
  Ga  Ga7  1  0.000000  0.500000  0.998269  1
  Pb  Pb8  1  0.163679  0.836321  0.485102  1
  Pb  Pb9  1  0.836321  0.163679  0.485102  1
  O  O10  1  0.000000  0.000000  0.829569  1
  O  O11  1  0.500000  0.500000  0.201852  1
  O  O12  1  0.370975  0.629025  0.695288  1
  O  O13  1  0.844475  0.844475  0.301944  1
  O  O14  1  0.629025  0.370975  0.695288  1
  O  O15  1  0.155525  0.155525  0.301944  1
  O  O16  1  0.416805  0.834681  0.199093  1
  O  O17  1  0.902411  0.657567  0.797412  1
  O  O18  1  0.583195  0.165319  0.199093  1
  O  O19  1  0.097589  0.342433  0.797412  1
  O  O20  1  0.342433  0.097589  0.797412  1
  O  O21  1  0.834681  0.416805  0.199093  1
  O  O22  1  0.657567  0.902411  0.797412  1
  O  O23  1  0.165319  0.583195  0.199093  1
