# generated using pymatgen
data_GaAg2F6
_symmetry_space_group_name_H-M   'P 1'
_cell_length_a   9.46855500
_cell_length_b   9.46855561
_cell_length_c   5.13322700
_cell_angle_alpha   90.00000000
_cell_angle_beta   90.00000000
_cell_angle_gamma   120.00000837
_symmetry_Int_Tables_number   1
_chemical_formula_structural   GaAg2F6
_chemical_formula_sum   'Ga3 Ag6 F18'
_cell_volume   398.55522329
_cell_formula_units_Z   3
loop_
 _symmetry_equiv_pos_site_id
 _symmetry_equiv_pos_as_xyz
  1  'x, y, z'
loop_
 _atom_site_type_symbol
 _atom_site_label
 _atom_site_symmetry_multiplicity
 _atom_site_fract_x
 _atom_site_fract_y
 _atom_site_fract_z
 _atom_site_occupancy
  Ga  Ga0  1  0.000000  0.000000  0.500000  1
  Ga  Ga1  1  0.333333  0.666667  0.989052  1
  Ga  Ga2  1  0.666667  0.333333  0.010948  1
  Ag  Ag3  1  0.000000  0.620313  0.500000  1
  Ag  Ag4  1  0.620313  0.000000  0.500000  1
  Ag  Ag5  1  0.379687  0.379687  0.500000  1
  Ag  Ag6  1  0.289622  0.000000  0.000000  1
  Ag  Ag7  1  0.710378  0.710378  0.000000  1
  Ag  Ag8  1  0.000000  0.289622  0.000000  1
  F  F9  1  0.084896  0.891152  0.287564  1
  F  F10  1  0.806256  0.915104  0.287564  1
  F  F11  1  0.108848  0.193744  0.287564  1
  F  F12  1  0.915104  0.806256  0.712436  1
  F  F13  1  0.891152  0.084896  0.712436  1
  F  F14  1  0.193744  0.108848  0.712436  1
  F  F15  1  0.211274  0.736085  0.777467  1
  F  F16  1  0.524810  0.788726  0.777467  1
  F  F17  1  0.263915  0.475190  0.777467  1
  F  F18  1  0.788726  0.524810  0.222533  1
  F  F19  1  0.736085  0.211274  0.222533  1
  F  F20  1  0.475190  0.263915  0.222533  1
  F  F21  1  0.394356  0.856894  0.204362  1
  F  F22  1  0.462539  0.605644  0.204362  1
  F  F23  1  0.143106  0.537461  0.204362  1
  F  F24  1  0.605644  0.462539  0.795638  1
  F  F25  1  0.856894  0.394356  0.795638  1
  F  F26  1  0.537461  0.143106  0.795638  1
