# generated using pymatgen
data_Li4LaPr3Pt4
_symmetry_space_group_name_H-M   'P 1'
_cell_length_a   4.12345300
_cell_length_b   7.27537404
_cell_length_c   8.62963300
_cell_angle_alpha   90.03058768
_cell_angle_beta   90.00000000
_cell_angle_gamma   90.00000000
_symmetry_Int_Tables_number   1
_chemical_formula_structural   Li4LaPr3Pt4
_chemical_formula_sum   'Li4 La1 Pr3 Pt4'
_cell_volume   258.88604404
_cell_formula_units_Z   1
loop_
 _symmetry_equiv_pos_site_id
 _symmetry_equiv_pos_as_xyz
  1  'x, y, z'
loop_
 _atom_site_type_symbol
 _atom_site_label
 _atom_site_symmetry_multiplicity
 _atom_site_fract_x
 _atom_site_fract_y
 _atom_site_fract_z
 _atom_site_occupancy
  Li  Li0  1  0.250000  0.127715  0.057144  1
  Li  Li1  1  0.250000  0.626752  0.443110  1
  Li  Li2  1  0.750000  0.869991  0.945840  1
  Li  Li3  1  0.750000  0.375835  0.555013  1
  La  La4  1  0.250000  0.046379  0.686589  1
  Pr  Pr5  1  0.250000  0.546544  0.816281  1
  Pr  Pr6  1  0.750000  0.953176  0.312351  1
  Pr  Pr7  1  0.750000  0.452948  0.185557  1
  Pt  Pt8  1  0.250000  0.248021  0.380456  1
  Pt  Pt9  1  0.250000  0.747280  0.118758  1
  Pt  Pt10  1  0.750000  0.753165  0.618488  1
  Pt  Pt11  1  0.750000  0.252194  0.880414  1
