# generated using pymatgen
data_Er2Tm2HfSc3Pt4
_symmetry_space_group_name_H-M   'P 1'
_cell_length_a   4.62126600
_cell_length_b   6.93940254
_cell_length_c   8.33409911
_cell_angle_alpha   89.37621781
_cell_angle_beta   90.00000000
_cell_angle_gamma   90.00000000
_symmetry_Int_Tables_number   1
_chemical_formula_structural   Er2Tm2HfSc3Pt4
_chemical_formula_sum   'Er2 Tm2 Hf1 Sc3 Pt4'
_cell_volume   267.24892680
_cell_formula_units_Z   1
loop_
 _symmetry_equiv_pos_site_id
 _symmetry_equiv_pos_as_xyz
  1  'x, y, z'
loop_
 _atom_site_type_symbol
 _atom_site_label
 _atom_site_symmetry_multiplicity
 _atom_site_fract_x
 _atom_site_fract_y
 _atom_site_fract_z
 _atom_site_occupancy
  Er  Er0  1  0.750000  0.016887  0.673478  1
  Er  Er1  1  0.750000  0.519122  0.823762  1
  Tm  Tm2  1  0.250000  0.982645  0.323866  1
  Tm  Tm3  1  0.250000  0.483279  0.178296  1
  Hf  Hf4  1  0.750000  0.141602  0.072718  1
  Sc  Sc5  1  0.250000  0.355528  0.574729  1
  Sc  Sc6  1  0.250000  0.858042  0.924756  1
  Sc  Sc7  1  0.750000  0.640098  0.427439  1
  Pt  Pt8  1  0.250000  0.243287  0.909470  1
  Pt  Pt9  1  0.250000  0.744489  0.599281  1
  Pt  Pt10  1  0.750000  0.760766  0.098149  1
  Pt  Pt11  1  0.750000  0.254256  0.394057  1
