# generated using pymatgen
data_La2HoEr(ZnSn)4
_symmetry_space_group_name_H-M   'P 1'
_cell_length_a   4.55761500
_cell_length_b   4.55761530
_cell_length_c   16.54212700
_cell_angle_alpha   90.00000000
_cell_angle_beta   90.00000000
_cell_angle_gamma   119.99999060
_symmetry_Int_Tables_number   1
_chemical_formula_structural   La2HoEr(ZnSn)4
_chemical_formula_sum   'La2 Ho1 Er1 Zn4 Sn4'
_cell_volume   297.57560366
_cell_formula_units_Z   1
loop_
 _symmetry_equiv_pos_site_id
 _symmetry_equiv_pos_as_xyz
  1  'x, y, z'
loop_
 _atom_site_type_symbol
 _atom_site_label
 _atom_site_symmetry_multiplicity
 _atom_site_fract_x
 _atom_site_fract_y
 _atom_site_fract_z
 _atom_site_occupancy
  La  La0  1  0.000000  0.000000  0.500042  1
  La  La1  1  0.000000  0.000000  0.999958  1
  Ho  Ho2  1  0.000000  0.000000  0.250000  1
  Er  Er3  1  0.000000  0.000000  0.750000  1
  Zn  Zn4  1  0.666667  0.333333  0.834544  1
  Zn  Zn5  1  0.666667  0.333333  0.665456  1
  Zn  Zn6  1  0.333333  0.666667  0.165383  1
  Zn  Zn7  1  0.333333  0.666667  0.334617  1
  Sn  Sn8  1  0.666667  0.333333  0.120285  1
  Sn  Sn9  1  0.666667  0.333333  0.379715  1
  Sn  Sn10  1  0.333333  0.666667  0.879681  1
  Sn  Sn11  1  0.333333  0.666667  0.620319  1
