# generated using pymatgen
data_Dy3Lu(Tc3Os)2
_symmetry_space_group_name_H-M   'P 1'
_cell_length_a   5.28020000
_cell_length_b   5.28020144
_cell_length_c   9.07718700
_cell_angle_alpha   90.00000000
_cell_angle_beta   90.00000000
_cell_angle_gamma   119.99999098
_symmetry_Int_Tables_number   1
_chemical_formula_structural   Dy3Lu(Tc3Os)2
_chemical_formula_sum   'Dy3 Lu1 Tc6 Os2'
_cell_volume   219.17086298
_cell_formula_units_Z   1
loop_
 _symmetry_equiv_pos_site_id
 _symmetry_equiv_pos_as_xyz
  1  'x, y, z'
loop_
 _atom_site_type_symbol
 _atom_site_label
 _atom_site_symmetry_multiplicity
 _atom_site_fract_x
 _atom_site_fract_y
 _atom_site_fract_z
 _atom_site_occupancy
  Dy  Dy0  1  0.333333  0.666667  0.436404  1
  Dy  Dy1  1  0.666667  0.333333  0.563046  1
  Dy  Dy2  1  0.666667  0.333333  0.937422  1
  Lu  Lu3  1  0.333333  0.666667  0.063672  1
  Tc  Tc4  1  0.170643  0.341288  0.751129  1
  Tc  Tc5  1  0.170643  0.829357  0.751129  1
  Tc  Tc6  1  0.340745  0.170372  0.248605  1
  Tc  Tc7  1  0.829628  0.659255  0.248605  1
  Tc  Tc8  1  0.658712  0.829357  0.751129  1
  Tc  Tc9  1  0.829628  0.170372  0.248605  1
  Os  Os10  1  0.000000  0.000000  0.000227  1
  Os  Os11  1  0.000000  0.000000  0.500026  1
