# generated using pymatgen
data_Tb5(TlBi)2
_symmetry_space_group_name_H-M   'P 1'
_cell_length_a   8.94324392
_cell_length_b   8.94324449
_cell_length_c   8.27130100
_cell_angle_alpha   90.00000000
_cell_angle_beta   90.00000000
_cell_angle_gamma   124.95805785
_symmetry_Int_Tables_number   1
_chemical_formula_structural   Tb5(TlBi)2
_chemical_formula_sum   'Tb10 Tl4 Bi4'
_cell_volume   542.18932010
_cell_formula_units_Z   2
loop_
 _symmetry_equiv_pos_site_id
 _symmetry_equiv_pos_as_xyz
  1  'x, y, z'
loop_
 _atom_site_type_symbol
 _atom_site_label
 _atom_site_symmetry_multiplicity
 _atom_site_fract_x
 _atom_site_fract_y
 _atom_site_fract_z
 _atom_site_occupancy
  Tb  Tb0  1  0.035280  0.302728  0.332896  1
  Tb  Tb1  1  0.964720  0.697272  0.667104  1
  Tb  Tb2  1  0.464720  0.197272  0.832896  1
  Tb  Tb3  1  0.802728  0.535280  0.167104  1
  Tb  Tb4  1  0.535280  0.802728  0.167104  1
  Tb  Tb5  1  0.197272  0.464720  0.832896  1
  Tb  Tb6  1  0.697272  0.964720  0.667104  1
  Tb  Tb7  1  0.302728  0.035280  0.332896  1
  Tb  Tb8  1  0.000000  0.000000  0.000000  1
  Tb  Tb9  1  0.500000  0.500000  0.500000  1
  Tl  Tl10  1  0.367309  0.367309  0.132233  1
  Tl  Tl11  1  0.632691  0.632691  0.867767  1
  Tl  Tl12  1  0.132691  0.132691  0.632233  1
  Tl  Tl13  1  0.867309  0.867309  0.367767  1
  Bi  Bi14  1  0.794264  0.205736  0.000000  1
  Bi  Bi15  1  0.205736  0.794264  0.000000  1
  Bi  Bi16  1  0.705736  0.294264  0.500000  1
  Bi  Bi17  1  0.294264  0.705736  0.500000  1
