# generated using pymatgen
data_ZrTa5Al16Ir7
_symmetry_space_group_name_H-M   'P 1'
_cell_length_a   8.62660828
_cell_length_b   8.60547647
_cell_length_c   8.60547701
_cell_angle_alpha   60.16252883
_cell_angle_beta   59.91873290
_cell_angle_gamma   59.91873546
_symmetry_Int_Tables_number   1
_chemical_formula_structural   ZrTa5Al16Ir7
_chemical_formula_sum   'Zr1 Ta5 Al16 Ir7'
_cell_volume   451.72038599
_cell_formula_units_Z   1
loop_
 _symmetry_equiv_pos_site_id
 _symmetry_equiv_pos_as_xyz
  1  'x, y, z'
loop_
 _atom_site_type_symbol
 _atom_site_label
 _atom_site_symmetry_multiplicity
 _atom_site_fract_x
 _atom_site_fract_y
 _atom_site_fract_z
 _atom_site_occupancy
  Zr  Zr0  1  0.311851  0.688149  0.688149  1
  Ta  Ta1  1  0.678560  0.676243  0.321440  1
  Ta  Ta2  1  0.323757  0.676243  0.321440  1
  Ta  Ta3  1  0.671880  0.328120  0.328120  1
  Ta  Ta4  1  0.323757  0.321440  0.676243  1
  Ta  Ta5  1  0.678560  0.321440  0.676243  1
  Al  Al6  1  0.880719  0.881503  0.357060  1
  Al  Al7  1  0.880719  0.357060  0.881503  1
  Al  Al8  1  0.360304  0.881008  0.881008  1
  Al  Al9  1  0.877680  0.881008  0.881008  1
  Al  Al10  1  0.118992  0.122320  0.639696  1
  Al  Al11  1  0.118992  0.639696  0.122320  1
  Al  Al12  1  0.642940  0.119281  0.119281  1
  Al  Al13  1  0.118497  0.119281  0.119281  1
  Al  Al14  1  0.663882  0.662560  0.009674  1
  Al  Al15  1  0.663882  0.009674  0.662560  1
  Al  Al16  1  0.010900  0.661943  0.661943  1
  Al  Al17  1  0.665213  0.661943  0.661943  1
  Al  Al18  1  0.338057  0.334787  0.989100  1
  Al  Al19  1  0.338057  0.989100  0.334787  1
  Al  Al20  1  0.990326  0.336118  0.336118  1
  Al  Al21  1  0.337440  0.336118  0.336118  1
  Ir  Ir22  1  0.002477  0.997523  0.997523  1
  Ir  Ir23  1  0.997946  0.002054  0.498095  1
  Ir  Ir24  1  0.501905  0.002054  0.498095  1
  Ir  Ir25  1  0.001429  0.498571  0.498571  1
  Ir  Ir26  1  0.501905  0.498095  0.002054  1
  Ir  Ir27  1  0.997946  0.498095  0.002054  1
  Ir  Ir28  1  0.501429  0.998571  0.998571  1
