# generated using pymatgen
data_P4PdPbO14
_symmetry_space_group_name_H-M   'P 1'
_cell_length_a   4.94130173
_cell_length_b   6.90699443
_cell_length_c   8.45241853
_cell_angle_alpha   91.89091306
_cell_angle_beta   92.95461396
_cell_angle_gamma   106.95244843
_symmetry_Int_Tables_number   1
_chemical_formula_structural   P4PdPbO14
_chemical_formula_sum   'P4 Pd1 Pb1 O14'
_cell_volume   275.22671080
_cell_formula_units_Z   1
loop_
 _symmetry_equiv_pos_site_id
 _symmetry_equiv_pos_as_xyz
  1  'x, y, z'
loop_
 _atom_site_type_symbol
 _atom_site_label
 _atom_site_symmetry_multiplicity
 _atom_site_fract_x
 _atom_site_fract_y
 _atom_site_fract_z
 _atom_site_occupancy
  P  P0  1  0.522228  0.144120  0.754440  1
  P  P1  1  0.113616  0.741898  0.681798  1
  P  P2  1  0.886384  0.258102  0.318202  1
  P  P3  1  0.477772  0.855880  0.245560  1
  Pd  Pd4  1  0.500000  0.500000  0.500000  1
  Pb  Pb5  1  0.000000  0.000000  0.000000  1
  O  O6  1  0.383088  0.191084  0.903672  1
  O  O7  1  0.028399  0.738592  0.854747  1
  O  O8  1  0.776891  0.064651  0.791110  1
  O  O9  1  0.308413  0.603327  0.677647  1
  O  O10  1  0.636647  0.326072  0.652666  1
  O  O11  1  0.295300  0.970722  0.645127  1
  O  O12  1  0.874265  0.713167  0.551133  1
  O  O13  1  0.125735  0.286833  0.448867  1
  O  O14  1  0.704700  0.029278  0.354873  1
  O  O15  1  0.363353  0.673928  0.347334  1
  O  O16  1  0.691587  0.396673  0.322353  1
  O  O17  1  0.223109  0.935349  0.208890  1
  O  O18  1  0.971601  0.261408  0.145253  1
  O  O19  1  0.616912  0.808916  0.096328  1
