# generated using pymatgen
data_NdTh2(SiRh)4
_symmetry_space_group_name_H-M   'P 1'
_cell_length_a   4.06206107
_cell_length_b   4.27719413
_cell_length_c   12.52969316
_cell_angle_alpha   80.17251808
_cell_angle_beta   80.67132840
_cell_angle_gamma   89.99999225
_symmetry_Int_Tables_number   1
_chemical_formula_structural   NdTh2(SiRh)4
_chemical_formula_sum   'Nd1 Th2 Si4 Rh4'
_cell_volume   211.57676475
_cell_formula_units_Z   1
loop_
 _symmetry_equiv_pos_site_id
 _symmetry_equiv_pos_as_xyz
  1  'x, y, z'
loop_
 _atom_site_type_symbol
 _atom_site_label
 _atom_site_symmetry_multiplicity
 _atom_site_fract_x
 _atom_site_fract_y
 _atom_site_fract_z
 _atom_site_occupancy
  Nd  Nd0  1  0.145080  0.645080  0.709837  1
  Th  Th1  1  0.001223  0.001223  0.997554  1
  Th  Th2  1  0.855311  0.355311  0.289380  1
  Si  Si3  1  0.696929  0.196929  0.606142  1
  Si  Si4  1  0.301903  0.801903  0.396191  1
  Si  Si5  1  0.451355  0.451355  0.097290  1
  Si  Si6  1  0.550187  0.550187  0.899625  1
  Rh  Rh7  1  0.596382  0.096382  0.807235  1
  Rh  Rh8  1  0.401829  0.901829  0.196342  1
  Rh  Rh9  1  0.249961  0.249961  0.500077  1
  Rh  Rh10  1  0.749837  0.749837  0.500326  1
