# generated using pymatgen
data_Y12Al2Co3Ir
_symmetry_space_group_name_H-M   'P 1'
_cell_length_a   8.37425495
_cell_length_b   8.37458495
_cell_length_c   8.37425348
_cell_angle_alpha   111.97116964
_cell_angle_beta   109.89498530
_cell_angle_gamma   106.59093163
_symmetry_Int_Tables_number   1
_chemical_formula_structural   Y12Al2Co3Ir
_chemical_formula_sum   'Y12 Al2 Co3 Ir1'
_cell_volume   451.10047186
_cell_formula_units_Z   1
loop_
 _symmetry_equiv_pos_site_id
 _symmetry_equiv_pos_as_xyz
  1  'x, y, z'
loop_
 _atom_site_type_symbol
 _atom_site_label
 _atom_site_symmetry_multiplicity
 _atom_site_fract_x
 _atom_site_fract_y
 _atom_site_fract_z
 _atom_site_occupancy
  Y  Y0  1  0.049714  0.744268  0.305488  1
  Y  Y1  1  0.961557  0.263884  0.697652  1
  Y  Y2  1  0.561218  0.255732  0.305445  1
  Y  Y3  1  0.433769  0.736116  0.697673  1
  Y  Y4  1  0.676243  0.864745  0.187355  1
  Y  Y5  1  0.322521  0.510962  0.187282  1
  Y  Y6  1  0.322609  0.135255  0.811498  1
  Y  Y7  1  0.676318  0.489038  0.811558  1
  Y  Y8  1  0.180235  0.219888  0.400112  1
  Y  Y9  1  0.817880  0.216543  0.034417  1
  Y  Y10  1  0.180224  0.780112  0.960347  1
  Y  Y11  1  0.817874  0.783457  0.601337  1
  Al  Al12  1  0.997143  0.500000  0.497143  1
  Al  Al13  1  0.503033  0.000000  0.503033  1
  Co  Co14  1  0.333169  0.500000  0.833169  1
  Co  Co15  1  0.887737  0.888020  0.999788  1
  Co  Co16  1  0.111768  0.111980  0.999717  1
  Ir  Ir17  1  0.666986  0.500000  0.166986  1
