# generated using pymatgen
data_Tb18SmErSn16
_symmetry_space_group_name_H-M   'P 1'
_cell_length_a   8.07927431
_cell_length_b   8.22196627
_cell_length_c   15.54448100
_cell_angle_alpha   90.00721949
_cell_angle_beta   89.87800851
_cell_angle_gamma   89.94938844
_symmetry_Int_Tables_number   1
_chemical_formula_structural   Tb18SmErSn16
_chemical_formula_sum   'Tb18 Sm1 Er1 Sn16'
_cell_volume   1032.57858513
_cell_formula_units_Z   1
loop_
 _symmetry_equiv_pos_site_id
 _symmetry_equiv_pos_as_xyz
  1  'x, y, z'
loop_
 _atom_site_type_symbol
 _atom_site_label
 _atom_site_symmetry_multiplicity
 _atom_site_fract_x
 _atom_site_fract_y
 _atom_site_fract_z
 _atom_site_occupancy
  Tb  Tb0  1  0.366456  0.836420  0.877857  1
  Tb  Tb1  1  0.867187  0.663681  0.621530  1
  Tb  Tb2  1  0.632640  0.163177  0.377771  1
  Tb  Tb3  1  0.133879  0.336669  0.122551  1
  Tb  Tb4  1  0.633632  0.163383  0.122578  1
  Tb  Tb5  1  0.132851  0.336514  0.377772  1
  Tb  Tb6  1  0.367254  0.836444  0.621623  1
  Tb  Tb7  1  0.866691  0.663311  0.877915  1
  Tb  Tb8  1  0.519873  0.321981  0.902555  1
  Tb  Tb9  1  0.020569  0.178651  0.597708  1
  Tb  Tb10  1  0.479751  0.678631  0.402197  1
  Tb  Tb11  1  0.980614  0.821039  0.097895  1
  Tb  Tb12  1  0.480357  0.678806  0.097789  1
  Tb  Tb13  1  0.979864  0.821603  0.402197  1
  Tb  Tb14  1  0.520068  0.321637  0.596948  1
  Tb  Tb15  1  0.198808  0.502119  0.749657  1
  Tb  Tb16  1  0.698609  0.997618  0.749459  1
  Tb  Tb17  1  0.801410  0.498023  0.250173  1
  Sm  Sm18  1  0.018385  0.179054  0.903385  1
  Er  Er19  1  0.301456  0.002021  0.250185  1
  Sn  Sn20  1  0.295363  0.035309  0.043108  1
  Sn  Sn21  1  0.793117  0.463810  0.457886  1
  Sn  Sn22  1  0.707137  0.964330  0.541394  1
  Sn  Sn23  1  0.207090  0.537643  0.958930  1
  Sn  Sn24  1  0.703883  0.961421  0.959166  1
  Sn  Sn25  1  0.206800  0.536062  0.541328  1
  Sn  Sn26  1  0.293104  0.036061  0.457673  1
  Sn  Sn27  1  0.793608  0.463724  0.042040  1
  Sn  Sn28  1  0.565355  0.618264  0.749946  1
  Sn  Sn29  1  0.065530  0.881151  0.749855  1
  Sn  Sn30  1  0.434583  0.381209  0.250084  1
  Sn  Sn31  1  0.936036  0.118102  0.250075  1
  Sn  Sn32  1  0.329524  0.146696  0.749685  1
  Sn  Sn33  1  0.827371  0.353828  0.749111  1
  Sn  Sn34  1  0.670345  0.853606  0.249932  1
  Sn  Sn35  1  0.170794  0.648004  0.250043  1
