# generated using pymatgen
data_Lu3ZnGa4Ag
_symmetry_space_group_name_H-M   'P 1'
_cell_length_a   6.84991500
_cell_length_b   6.83091669
_cell_length_c   4.32323000
_cell_angle_alpha   90.00000000
_cell_angle_beta   90.00000000
_cell_angle_gamma   120.09205941
_symmetry_Int_Tables_number   1
_chemical_formula_structural   Lu3ZnGa4Ag
_chemical_formula_sum   'Lu3 Zn1 Ga4 Ag1'
_cell_volume   175.02477260
_cell_formula_units_Z   1
loop_
 _symmetry_equiv_pos_site_id
 _symmetry_equiv_pos_as_xyz
  1  'x, y, z'
loop_
 _atom_site_type_symbol
 _atom_site_label
 _atom_site_symmetry_multiplicity
 _atom_site_fract_x
 _atom_site_fract_y
 _atom_site_fract_z
 _atom_site_occupancy
  Lu  Lu0  1  0.569233  0.000000  0.500000  1
  Lu  Lu1  1  0.429767  0.429307  0.500000  1
  Lu  Lu2  1  0.000460  0.570693  0.500000  1
  Zn  Zn3  1  0.247530  0.000000  0.000000  1
  Ga  Ga4  1  0.002794  0.249234  0.000000  1
  Ga  Ga5  1  0.664483  0.330652  0.000000  1
  Ga  Ga6  1  0.333830  0.669348  0.000000  1
  Ga  Ga7  1  0.753560  0.750766  0.000000  1
  Ag  Ag8  1  0.998343  0.000000  0.500000  1
