# generated using pymatgen
data_Nd7Dy(Er3Pt4)4
_symmetry_space_group_name_H-M   'P 1'
_cell_length_a   7.49362663
_cell_length_b   7.63270319
_cell_length_c   14.84984668
_cell_angle_alpha   90.06493865
_cell_angle_beta   90.07550873
_cell_angle_gamma   90.00214558
_symmetry_Int_Tables_number   1
_chemical_formula_structural   Nd7Dy(Er3Pt4)4
_chemical_formula_sum   'Nd7 Dy1 Er12 Pt16'
_cell_volume   849.35987080
_cell_formula_units_Z   1
loop_
 _symmetry_equiv_pos_site_id
 _symmetry_equiv_pos_as_xyz
  1  'x, y, z'
loop_
 _atom_site_type_symbol
 _atom_site_label
 _atom_site_symmetry_multiplicity
 _atom_site_fract_x
 _atom_site_fract_y
 _atom_site_fract_z
 _atom_site_occupancy
  Nd  Nd0  1  0.475763  0.672870  0.596812  1
  Nd  Nd1  1  0.976527  0.827419  0.902754  1
  Nd  Nd2  1  0.523739  0.327845  0.097100  1
  Nd  Nd3  1  0.023339  0.170121  0.403641  1
  Nd  Nd4  1  0.524144  0.328944  0.403020  1
  Nd  Nd5  1  0.023508  0.171938  0.097000  1
  Nd  Nd6  1  0.476611  0.672557  0.902275  1
  Dy  Dy7  1  0.976578  0.826550  0.598913  1
  Er  Er8  1  0.636158  0.167252  0.621179  1
  Er  Er9  1  0.134441  0.330901  0.877178  1
  Er  Er10  1  0.365469  0.830808  0.122058  1
  Er  Er11  1  0.866630  0.670360  0.379195  1
  Er  Er12  1  0.365896  0.832242  0.378299  1
  Er  Er13  1  0.864974  0.668791  0.122318  1
  Er  Er14  1  0.634869  0.168831  0.877147  1
  Er  Er15  1  0.134644  0.331073  0.621879  1
  Er  Er16  1  0.796448  0.509268  0.748881  1
  Er  Er17  1  0.295817  0.990895  0.748774  1
  Er  Er18  1  0.203087  0.490962  0.250405  1
  Er  Er19  1  0.703687  0.009704  0.250261  1
  Pt  Pt20  1  0.695307  0.966692  0.458918  1
  Pt  Pt21  1  0.192530  0.530648  0.043260  1
  Pt  Pt22  1  0.307329  0.030696  0.956066  1
  Pt  Pt23  1  0.809321  0.475350  0.545702  1
  Pt  Pt24  1  0.300024  0.026048  0.545358  1
  Pt  Pt25  1  0.807527  0.469402  0.955962  1
  Pt  Pt26  1  0.692702  0.969086  0.042970  1
  Pt  Pt27  1  0.192920  0.532107  0.456966  1
  Pt  Pt28  1  0.427009  0.373584  0.749701  1
  Pt  Pt29  1  0.928229  0.124129  0.748532  1
  Pt  Pt30  1  0.572485  0.627667  0.250357  1
  Pt  Pt31  1  0.072651  0.873124  0.250284  1
  Pt  Pt32  1  0.661779  0.865059  0.748540  1
  Pt  Pt33  1  0.157834  0.636498  0.747606  1
  Pt  Pt34  1  0.340393  0.134773  0.250370  1
  Pt  Pt35  1  0.839631  0.365805  0.250319  1
