# generated using pymatgen
data_PrNd2(As2Rh3)3
_symmetry_space_group_name_H-M   'P 1'
_cell_length_a   4.04122100
_cell_length_b   8.50079050
_cell_length_c   9.99943634
_cell_angle_alpha   107.07866006
_cell_angle_beta   90.00000000
_cell_angle_gamma   103.75063855
_symmetry_Int_Tables_number   1
_chemical_formula_structural   PrNd2(As2Rh3)3
_chemical_formula_sum   'Pr1 Nd2 As6 Rh9'
_cell_volume   318.05419499
_cell_formula_units_Z   1
loop_
 _symmetry_equiv_pos_site_id
 _symmetry_equiv_pos_as_xyz
  1  'x, y, z'
loop_
 _atom_site_type_symbol
 _atom_site_label
 _atom_site_symmetry_multiplicity
 _atom_site_fract_x
 _atom_site_fract_y
 _atom_site_fract_z
 _atom_site_occupancy
  Pr  Pr0  1  0.843771  0.687541  0.303025  1
  Nd  Nd1  1  0.156159  0.312317  0.696859  1
  Nd  Nd2  1  0.999997  0.999995  0.999997  1
  As  As3  1  0.803349  0.606698  0.870319  1
  As  As4  1  0.196422  0.392845  0.129425  1
  As  As5  1  0.538212  0.076424  0.779452  1
  As  As6  1  0.462100  0.924201  0.220356  1
  As  As7  1  0.637948  0.275896  0.453657  1
  As  As8  1  0.362095  0.724188  0.546966  1
  Rh  Rh9  1  0.956781  0.913563  0.670822  1
  Rh  Rh10  1  0.043425  0.086848  0.329246  1
  Rh  Rh11  1  0.780107  0.560214  0.606865  1
  Rh  Rh12  1  0.219623  0.439247  0.393429  1
  Rh  Rh13  1  0.375131  0.750264  0.793917  1
  Rh  Rh14  1  0.624782  0.249563  0.206011  1
  Rh  Rh15  1  0.500150  0.000300  0.500162  1
  Rh  Rh16  1  0.678679  0.357359  0.959020  1
  Rh  Rh17  1  0.321269  0.642538  0.040472  1
