# generated using pymatgen
data_Ho8Sc11TiSn16
_symmetry_space_group_name_H-M   'P 1'
_cell_length_a   7.90516537
_cell_length_b   7.90516537
_cell_length_c   14.35341467
_cell_angle_alpha   89.89718833
_cell_angle_beta   90.10281167
_cell_angle_gamma   90.02689181
_symmetry_Int_Tables_number   1
_chemical_formula_structural   Ho8Sc11TiSn16
_chemical_formula_sum   'Ho8 Sc11 Ti1 Sn16'
_cell_volume   896.96542892
_cell_formula_units_Z   1
loop_
 _symmetry_equiv_pos_site_id
 _symmetry_equiv_pos_as_xyz
  1  'x, y, z'
loop_
 _atom_site_type_symbol
 _atom_site_label
 _atom_site_symmetry_multiplicity
 _atom_site_fract_x
 _atom_site_fract_y
 _atom_site_fract_z
 _atom_site_occupancy
  Ho  Ho0  1  0.340993  0.991663  0.470629  1
  Ho  Ho1  1  0.508745  0.838852  0.720568  1
  Ho  Ho2  1  0.492059  0.160159  0.221585  1
  Ho  Ho3  1  0.838852  0.508745  0.279432  1
  Ho  Ho4  1  0.160159  0.492059  0.778415  1
  Ho  Ho5  1  0.659094  0.007892  0.970752  1
  Ho  Ho6  1  0.991663  0.340993  0.529371  1
  Ho  Ho7  1  0.007892  0.659094  0.029248  1
  Sc  Sc8  1  0.334183  0.334183  0.000000  1
  Sc  Sc9  1  0.165020  0.833745  0.251077  1
  Sc  Sc10  1  0.833745  0.165020  0.748923  1
  Sc  Sc11  1  0.169748  0.001939  0.871571  1
  Sc  Sc12  1  0.498319  0.669539  0.121744  1
  Sc  Sc13  1  0.503166  0.330356  0.620272  1
  Sc  Sc14  1  0.669539  0.498319  0.878256  1
  Sc  Sc15  1  0.330356  0.503166  0.379728  1
  Sc  Sc16  1  0.829032  0.998451  0.371846  1
  Sc  Sc17  1  0.001939  0.169748  0.128429  1
  Sc  Sc18  1  0.998451  0.829032  0.628154  1
  Ti  Ti19  1  0.668400  0.668400  0.500000  1
  Sn  Sn20  1  0.198798  0.126340  0.670194  1
  Sn  Sn21  1  0.373039  0.697369  0.920287  1
  Sn  Sn22  1  0.628584  0.307837  0.422143  1
  Sn  Sn23  1  0.697369  0.373039  0.079713  1
  Sn  Sn24  1  0.307837  0.628584  0.577857  1
  Sn  Sn25  1  0.802086  0.872929  0.171109  1
  Sn  Sn26  1  0.126340  0.198798  0.329806  1
  Sn  Sn27  1  0.872929  0.802086  0.828891  1
  Sn  Sn28  1  0.293370  0.972826  0.070625  1
  Sn  Sn29  1  0.529676  0.790848  0.323122  1
  Sn  Sn30  1  0.472720  0.206007  0.819083  1
  Sn  Sn31  1  0.790848  0.529676  0.676878  1
  Sn  Sn32  1  0.206007  0.472720  0.180917  1
  Sn  Sn33  1  0.705087  0.021129  0.568645  1
  Sn  Sn34  1  0.972826  0.293370  0.929375  1
  Sn  Sn35  1  0.021129  0.705087  0.431355  1
