# generated using pymatgen
data_Yb7PaSb6
_symmetry_space_group_name_H-M   'P 1'
_cell_length_a   8.21783247
_cell_length_b   8.21783201
_cell_length_c   8.12023500
_cell_angle_alpha   109.23081968
_cell_angle_beta   109.23081858
_cell_angle_gamma   109.71054556
_symmetry_Int_Tables_number   1
_chemical_formula_structural   Yb7PaSb6
_chemical_formula_sum   'Yb7 Pa1 Sb6'
_cell_volume   423.39056066
_cell_formula_units_Z   1
loop_
 _symmetry_equiv_pos_site_id
 _symmetry_equiv_pos_as_xyz
  1  'x, y, z'
loop_
 _atom_site_type_symbol
 _atom_site_label
 _atom_site_symmetry_multiplicity
 _atom_site_fract_x
 _atom_site_fract_y
 _atom_site_fract_z
 _atom_site_occupancy
  Yb  Yb0  1  0.649507  0.649702  0.650408  1
  Yb  Yb1  1  0.008085  0.361472  0.504430  1
  Yb  Yb2  1  0.353387  0.491915  0.996345  1
  Yb  Yb3  1  0.000195  0.850493  0.500901  1
  Yb  Yb4  1  0.850298  0.499805  0.000706  1
  Yb  Yb5  1  0.500000  0.000000  0.852462  1
  Yb  Yb6  1  0.138528  0.146613  0.142958  1
  Pa  Pa7  1  0.500000  0.000000  0.347842  1
  Sb  Sb8  1  0.869197  0.123889  0.741918  1
  Sb  Sb9  1  0.376111  0.245308  0.618029  1
  Sb  Sb10  1  0.131792  0.755686  0.886252  1
  Sb  Sb11  1  0.744314  0.876106  0.130566  1
  Sb  Sb12  1  0.254692  0.630803  0.372721  1
  Sb  Sb13  1  0.623894  0.368208  0.254460  1
