# generated using pymatgen
data_Ba4Tc(IN2)2
_symmetry_space_group_name_H-M   'P 1'
_cell_length_a   6.31878500
_cell_length_b   8.61397239
_cell_length_c   11.80060012
_cell_angle_alpha   83.14307975
_cell_angle_beta   90.00000000
_cell_angle_gamma   90.00000000
_symmetry_Int_Tables_number   1
_chemical_formula_structural   Ba4Tc(IN2)2
_chemical_formula_sum   'Ba8 Tc2 I4 N8'
_cell_volume   637.71061585
_cell_formula_units_Z   2
loop_
 _symmetry_equiv_pos_site_id
 _symmetry_equiv_pos_as_xyz
  1  'x, y, z'
loop_
 _atom_site_type_symbol
 _atom_site_label
 _atom_site_symmetry_multiplicity
 _atom_site_fract_x
 _atom_site_fract_y
 _atom_site_fract_z
 _atom_site_occupancy
  Ba  Ba0  1  0.750000  0.271030  0.308244  1
  Ba  Ba1  1  0.750000  0.005988  0.621625  1
  Ba  Ba2  1  0.750000  0.447471  0.595763  1
  Ba  Ba3  1  0.750000  0.763959  0.134169  1
  Ba  Ba4  1  0.250000  0.994012  0.378375  1
  Ba  Ba5  1  0.250000  0.552529  0.404237  1
  Ba  Ba6  1  0.250000  0.236041  0.865831  1
  Ba  Ba7  1  0.250000  0.728970  0.691756  1
  Tc  Tc8  1  0.750000  0.772804  0.413784  1
  Tc  Tc9  1  0.250000  0.227196  0.586216  1
  I  I10  1  0.250000  0.351368  0.155242  1
  I  I11  1  0.750000  0.648632  0.844758  1
  I  I12  1  0.250000  0.865119  0.075828  1
  I  I13  1  0.750000  0.134881  0.924172  1
  N  N14  1  0.250000  0.056956  0.695412  1
  N  N15  1  0.009775  0.230203  0.493012  1
  N  N16  1  0.509775  0.769797  0.506988  1
  N  N17  1  0.990225  0.769797  0.506988  1
  N  N18  1  0.750000  0.589388  0.342365  1
  N  N19  1  0.750000  0.943044  0.304588  1
  N  N20  1  0.490225  0.230203  0.493012  1
  N  N21  1  0.250000  0.410612  0.657635  1
