# generated using pymatgen
data_Th4Si10Tc5Os
_symmetry_space_group_name_H-M   'P 1'
_cell_length_a   8.41329716
_cell_length_b   8.41329630
_cell_length_c   5.80176271
_cell_angle_alpha   69.82758713
_cell_angle_beta   69.82759044
_cell_angle_gamma   94.75224993
_symmetry_Int_Tables_number   1
_chemical_formula_structural   Th4Si10Tc5Os
_chemical_formula_sum   'Th4 Si10 Tc5 Os1'
_cell_volume   352.21797929
_cell_formula_units_Z   1
loop_
 _symmetry_equiv_pos_site_id
 _symmetry_equiv_pos_as_xyz
  1  'x, y, z'
loop_
 _atom_site_type_symbol
 _atom_site_label
 _atom_site_symmetry_multiplicity
 _atom_site_fract_x
 _atom_site_fract_y
 _atom_site_fract_z
 _atom_site_occupancy
  Th  Th0  1  0.866840  0.599483  0.768055  1
  Th  Th1  1  0.400517  0.133160  0.731945  1
  Th  Th2  1  0.133219  0.400604  0.234066  1
  Th  Th3  1  0.599396  0.866781  0.265934  1
  Si  Si4  1  0.067879  0.261685  0.835161  1
  Si  Si5  1  0.738315  0.932121  0.664839  1
  Si  Si6  1  0.932034  0.738095  0.164934  1
  Si  Si7  1  0.261905  0.067966  0.335066  1
  Si  Si8  1  0.207364  0.792636  0.750000  1
  Si  Si9  1  0.792210  0.207790  0.250000  1
  Si  Si10  1  0.499759  0.500241  0.750000  1
  Si  Si11  1  0.500057  0.499943  0.250000  1
  Si  Si12  1  0.793270  0.206730  0.750000  1
  Si  Si13  1  0.207209  0.792791  0.250000  1
  Tc  Tc14  1  0.257087  0.554939  0.594090  1
  Tc  Tc15  1  0.445061  0.742913  0.905910  1
  Tc  Tc16  1  0.742417  0.444730  0.408594  1
  Tc  Tc17  1  0.555270  0.257583  0.091406  1
  Tc  Tc18  1  0.000489  0.999511  0.750000  1
  Os  Os19  1  0.999703  0.000297  0.250000  1
