# generated using pymatgen
data_Sm6HfZr3(Sn3O)2
_symmetry_space_group_name_H-M   'P 1'
_cell_length_a   8.87747900
_cell_length_b   8.87747983
_cell_length_c   6.09909800
_cell_angle_alpha   90.00000000
_cell_angle_beta   90.00000000
_cell_angle_gamma   120.00000065
_symmetry_Int_Tables_number   1
_chemical_formula_structural   Sm6HfZr3(Sn3O)2
_chemical_formula_sum   'Sm6 Hf1 Zr3 Sn6 O2'
_cell_volume   416.27045540
_cell_formula_units_Z   1
loop_
 _symmetry_equiv_pos_site_id
 _symmetry_equiv_pos_as_xyz
  1  'x, y, z'
loop_
 _atom_site_type_symbol
 _atom_site_label
 _atom_site_symmetry_multiplicity
 _atom_site_fract_x
 _atom_site_fract_y
 _atom_site_fract_z
 _atom_site_occupancy
  Sm  Sm0  1  0.000048  0.771541  0.750006  1
  Sm  Sm1  1  0.000048  0.228508  0.249994  1
  Sm  Sm2  1  0.228459  0.228508  0.750006  1
  Sm  Sm3  1  0.228459  0.999952  0.249994  1
  Sm  Sm4  1  0.771492  0.771541  0.249994  1
  Sm  Sm5  1  0.771492  0.999952  0.750006  1
  Hf  Hf6  1  0.333333  0.666667  0.000000  1
  Zr  Zr7  1  0.333333  0.666667  0.500000  1
  Zr  Zr8  1  0.666667  0.333333  0.000000  1
  Zr  Zr9  1  0.666667  0.333333  0.500000  1
  Sn  Sn10  1  0.000410  0.591899  0.249479  1
  Sn  Sn11  1  0.000410  0.408511  0.750521  1
  Sn  Sn12  1  0.408101  0.408511  0.249479  1
  Sn  Sn13  1  0.591489  0.591899  0.750521  1
  Sn  Sn14  1  0.408101  0.999590  0.750521  1
  Sn  Sn15  1  0.591489  0.999590  0.249479  1
  O  O16  1  0.000000  0.000000  0.000000  1
  O  O17  1  0.000000  0.000000  0.500000  1
