# generated using pymatgen
data_Dy2Ho2Cd2Cu3Ni
_symmetry_space_group_name_H-M   'P 1'
_cell_length_a   7.48969101
_cell_length_b   7.48969024
_cell_length_c   3.67729100
_cell_angle_alpha   90.00000000
_cell_angle_beta   90.00000000
_cell_angle_gamma   90.83301715
_symmetry_Int_Tables_number   1
_chemical_formula_structural   Dy2Ho2Cd2Cu3Ni
_chemical_formula_sum   'Dy2 Ho2 Cd2 Cu3 Ni1'
_cell_volume   206.25754983
_cell_formula_units_Z   1
loop_
 _symmetry_equiv_pos_site_id
 _symmetry_equiv_pos_as_xyz
  1  'x, y, z'
loop_
 _atom_site_type_symbol
 _atom_site_label
 _atom_site_symmetry_multiplicity
 _atom_site_fract_x
 _atom_site_fract_y
 _atom_site_fract_z
 _atom_site_occupancy
  Dy  Dy0  1  0.670932  0.170932  0.500000  1
  Dy  Dy1  1  0.318033  0.818033  0.500000  1
  Ho  Ho2  1  0.176490  0.338895  0.500000  1
  Ho  Ho3  1  0.838895  0.676490  0.500000  1
  Cd  Cd4  1  0.000508  0.003281  0.000000  1
  Cd  Cd5  1  0.503281  0.500508  0.000000  1
  Cu  Cu6  1  0.879547  0.379547  0.000000  1
  Cu  Cu7  1  0.617082  0.877547  0.000000  1
  Cu  Cu8  1  0.377547  0.117082  0.000000  1
  Ni  Ni9  1  0.117686  0.617686  0.000000  1
