# generated using pymatgen
data_Er5Co19(As3P)3
_symmetry_space_group_name_H-M   'P 1'
_cell_length_a   12.29695800
_cell_length_b   12.29695849
_cell_length_c   3.75513700
_cell_angle_alpha   90.00000000
_cell_angle_beta   90.00000000
_cell_angle_gamma   120.00000408
_symmetry_Int_Tables_number   1
_chemical_formula_structural   Er5Co19(As3P)3
_chemical_formula_sum   'Er5 Co19 As9 P3'
_cell_volume   491.75841075
_cell_formula_units_Z   1
loop_
 _symmetry_equiv_pos_site_id
 _symmetry_equiv_pos_as_xyz
  1  'x, y, z'
loop_
 _atom_site_type_symbol
 _atom_site_label
 _atom_site_symmetry_multiplicity
 _atom_site_fract_x
 _atom_site_fract_y
 _atom_site_fract_z
 _atom_site_occupancy
  Er  Er0  1  0.333333  0.666667  0.000000  1
  Er  Er1  1  0.666667  0.333333  0.000000  1
  Er  Er2  1  0.000000  0.181346  0.500000  1
  Er  Er3  1  0.818654  0.818654  0.500000  1
  Er  Er4  1  0.181346  0.000000  0.500000  1
  Co  Co5  1  0.630434  0.828134  0.000000  1
  Co  Co6  1  0.171866  0.802299  0.000000  1
  Co  Co7  1  0.197701  0.369566  0.000000  1
  Co  Co8  1  0.369566  0.197701  0.000000  1
  Co  Co9  1  0.828134  0.630434  0.000000  1
  Co  Co10  1  0.802299  0.171866  0.000000  1
  Co  Co11  1  0.000000  0.555647  0.000000  1
  Co  Co12  1  0.444353  0.444353  0.000000  1
  Co  Co13  1  0.555647  0.000000  0.000000  1
  Co  Co14  1  0.520128  0.645501  0.500000  1
  Co  Co15  1  0.354499  0.874627  0.500000  1
  Co  Co16  1  0.125373  0.479872  0.500000  1
  Co  Co17  1  0.479872  0.125373  0.500000  1
  Co  Co18  1  0.645501  0.520128  0.500000  1
  Co  Co19  1  0.874627  0.354499  0.500000  1
  Co  Co20  1  0.000000  0.724960  0.500000  1
  Co  Co21  1  0.275040  0.275040  0.500000  1
  Co  Co22  1  0.724960  0.000000  0.500000  1
  Co  Co23  1  0.000000  0.000000  0.000000  1
  As  As24  1  0.000000  0.363661  0.000000  1
  As  As25  1  0.636339  0.636339  0.000000  1
  As  As26  1  0.363661  0.000000  0.000000  1
  As  As27  1  0.519835  0.836864  0.500000  1
  As  As28  1  0.163136  0.682971  0.500000  1
  As  As29  1  0.317029  0.480165  0.500000  1
  As  As30  1  0.480165  0.317029  0.500000  1
  As  As31  1  0.836864  0.519835  0.500000  1
  As  As32  1  0.682971  0.163136  0.500000  1
  P  P33  1  0.000000  0.822671  0.000000  1
  P  P34  1  0.177329  0.177329  0.000000  1
  P  P35  1  0.822671  0.000000  0.000000  1
