# generated using pymatgen
data_BeV17(Si6Os)2
_symmetry_space_group_name_H-M   'P 1'
_cell_length_a   7.02129210
_cell_length_b   7.02128290
_cell_length_c   13.21923400
_cell_angle_alpha   90.00000000
_cell_angle_beta   90.00000000
_cell_angle_gamma   140.48445664
_symmetry_Int_Tables_number   1
_chemical_formula_structural   BeV17(Si6Os)2
_chemical_formula_sum   'Be1 V17 Si12 Os2'
_cell_volume   414.66102027
_cell_formula_units_Z   1
loop_
 _symmetry_equiv_pos_site_id
 _symmetry_equiv_pos_as_xyz
  1  'x, y, z'
loop_
 _atom_site_type_symbol
 _atom_site_label
 _atom_site_symmetry_multiplicity
 _atom_site_fract_x
 _atom_site_fract_y
 _atom_site_fract_z
 _atom_site_occupancy
  Be  Be0  1  0.001529  0.001528  0.000000  1
  V  V1  1  0.070301  0.420624  0.399426  1
  V  V2  1  0.575229  0.932555  0.901314  1
  V  V3  1  0.420624  0.070304  0.600574  1
  V  V4  1  0.932552  0.575229  0.098690  1
  V  V5  1  0.849393  0.651001  0.677275  1
  V  V6  1  0.351462  0.151106  0.176880  1
  V  V7  1  0.651004  0.849391  0.322727  1
  V  V8  1  0.151109  0.351461  0.823123  1
  V  V9  1  0.651004  0.849391  0.677273  1
  V  V10  1  0.151109  0.351461  0.176877  1
  V  V11  1  0.849393  0.651001  0.322725  1
  V  V12  1  0.351462  0.151106  0.823120  1
  V  V13  1  0.420624  0.070304  0.399426  1
  V  V14  1  0.932552  0.575229  0.901310  1
  V  V15  1  0.070301  0.420624  0.600574  1
  V  V16  1  0.575229  0.932555  0.098686  1
  V  V17  1  0.996539  0.996537  0.500000  1
  Si  Si18  1  0.250904  0.749585  0.750585  1
  Si  Si19  1  0.749601  0.250926  0.249416  1
  Si  Si20  1  0.749601  0.250926  0.750584  1
  Si  Si21  1  0.250904  0.749585  0.249415  1
  Si  Si22  1  0.241820  0.241817  0.667005  1
  Si  Si23  1  0.766531  0.766538  0.160928  1
  Si  Si24  1  0.241820  0.241817  0.332995  1
  Si  Si25  1  0.766531  0.766538  0.839072  1
  Si  Si26  1  0.583214  0.918370  0.500000  1
  Si  Si27  1  0.079539  0.400163  0.000000  1
  Si  Si28  1  0.918370  0.583216  0.500000  1
  Si  Si29  1  0.400165  0.079538  0.000000  1
  Os  Os30  1  0.502222  0.502216  0.000000  1
  Os  Os31  1  0.497360  0.497357  0.500000  1
