# generated using pymatgen
data_SmSi4(Pt2Rh)2
_symmetry_space_group_name_H-M   'P 1'
_cell_length_a   7.15126500
_cell_length_b   7.10692787
_cell_length_c   3.90151800
_cell_angle_alpha   90.00000000
_cell_angle_beta   90.00000000
_cell_angle_gamma   120.20658133
_symmetry_Int_Tables_number   1
_chemical_formula_structural   SmSi4(Pt2Rh)2
_chemical_formula_sum   'Sm1 Si4 Pt4 Rh2'
_cell_volume   171.36463792
_cell_formula_units_Z   1
loop_
 _symmetry_equiv_pos_site_id
 _symmetry_equiv_pos_as_xyz
  1  'x, y, z'
loop_
 _atom_site_type_symbol
 _atom_site_label
 _atom_site_symmetry_multiplicity
 _atom_site_fract_x
 _atom_site_fract_y
 _atom_site_fract_z
 _atom_site_occupancy
  Sm  Sm0  1  0.998843  0.997687  0.000000  1
  Si  Si1  1  0.330347  0.660694  0.000000  1
  Si  Si2  1  0.396890  0.203190  0.500000  1
  Si  Si3  1  0.806299  0.203190  0.500000  1
  Si  Si4  1  0.799533  0.599063  0.500000  1
  Pt  Pt5  1  0.532746  0.065490  0.000000  1
  Pt  Pt6  1  0.196651  0.393301  0.500000  1
  Pt  Pt7  1  0.193690  0.806327  0.500000  1
  Pt  Pt8  1  0.612636  0.806327  0.500000  1
  Rh  Rh9  1  0.933189  0.465700  0.000000  1
  Rh  Rh10  1  0.532510  0.465700  0.000000  1
