# generated using pymatgen
data_Y3Cd3PtAu2
_symmetry_space_group_name_H-M   'P 1'
_cell_length_a   7.86849300
_cell_length_b   7.86849290
_cell_length_c   3.82998800
_cell_angle_alpha   90.00000000
_cell_angle_beta   90.00000000
_cell_angle_gamma   119.99999622
_symmetry_Int_Tables_number   1
_chemical_formula_structural   Y3Cd3PtAu2
_chemical_formula_sum   'Y3 Cd3 Pt1 Au2'
_cell_volume   205.35778981
_cell_formula_units_Z   1
loop_
 _symmetry_equiv_pos_site_id
 _symmetry_equiv_pos_as_xyz
  1  'x, y, z'
loop_
 _atom_site_type_symbol
 _atom_site_label
 _atom_site_symmetry_multiplicity
 _atom_site_fract_x
 _atom_site_fract_y
 _atom_site_fract_z
 _atom_site_occupancy
  Y  Y0  1  0.587662  0.983646  0.000000  1
  Y  Y1  1  0.016354  0.604016  0.000000  1
  Y  Y2  1  0.395984  0.412338  0.000000  1
  Cd  Cd3  1  0.267435  0.002360  0.500000  1
  Cd  Cd4  1  0.997640  0.265075  0.500000  1
  Cd  Cd5  1  0.734925  0.732565  0.500000  1
  Pt  Pt6  1  0.333333  0.666667  0.500000  1
  Au  Au7  1  0.666667  0.333333  0.500000  1
  Au  Au8  1  0.000000  0.000000  0.000000  1
