# generated using pymatgen
data_AcTb4(TcB3)2
_symmetry_space_group_name_H-M   'P 1'
_cell_length_a   8.68889342
_cell_length_b   8.68889239
_cell_length_c   8.68889400
_cell_angle_alpha   37.15132634
_cell_angle_beta   37.15133535
_cell_angle_gamma   37.15133044
_symmetry_Int_Tables_number   1
_chemical_formula_structural   AcTb4(TcB3)2
_chemical_formula_sum   'Ac1 Tb4 Tc2 B6'
_cell_volume   214.43180990
_cell_formula_units_Z   1
loop_
 _symmetry_equiv_pos_site_id
 _symmetry_equiv_pos_as_xyz
  1  'x, y, z'
loop_
 _atom_site_type_symbol
 _atom_site_label
 _atom_site_symmetry_multiplicity
 _atom_site_fract_x
 _atom_site_fract_y
 _atom_site_fract_z
 _atom_site_occupancy
  Ac  Ac0  1  0.000000  0.000000  0.000000  1
  Tb  Tb1  1  0.579450  0.579450  0.579450  1
  Tb  Tb2  1  0.420550  0.420550  0.420550  1
  Tb  Tb3  1  0.753751  0.753751  0.753751  1
  Tb  Tb4  1  0.246249  0.246249  0.246249  1
  Tc  Tc5  1  0.886009  0.886009  0.886009  1
  Tc  Tc6  1  0.113991  0.113991  0.113991  1
  B  B7  1  0.500000  0.829132  0.170868  1
  B  B8  1  0.170868  0.500000  0.829132  1
  B  B9  1  0.829132  0.170868  0.500000  1
  B  B10  1  0.500000  0.170868  0.829132  1
  B  B11  1  0.829132  0.500000  0.170868  1
  B  B12  1  0.170868  0.829132  0.500000  1
