# generated using pymatgen
data_Tm4Ga18Ir3Pt2Rh
_symmetry_space_group_name_H-M   'P 1'
_cell_length_a   7.61043721
_cell_length_b   7.61043684
_cell_length_c   9.46354400
_cell_angle_alpha   89.99933906
_cell_angle_beta   89.99934167
_cell_angle_gamma   119.95801800
_symmetry_Int_Tables_number   1
_chemical_formula_structural   Tm4Ga18Ir3Pt2Rh
_chemical_formula_sum   'Tm4 Ga18 Ir3 Pt2 Rh1'
_cell_volume   474.88362935
_cell_formula_units_Z   1
loop_
 _symmetry_equiv_pos_site_id
 _symmetry_equiv_pos_as_xyz
  1  'x, y, z'
loop_
 _atom_site_type_symbol
 _atom_site_label
 _atom_site_symmetry_multiplicity
 _atom_site_fract_x
 _atom_site_fract_y
 _atom_site_fract_z
 _atom_site_occupancy
  Tm  Tm0  1  0.996546  0.670281  0.250050  1
  Tm  Tm1  1  0.003401  0.329719  0.750001  1
  Tm  Tm2  1  0.670281  0.996599  0.249999  1
  Tm  Tm3  1  0.329719  0.003454  0.749950  1
  Ga  Ga4  1  0.131862  0.131809  0.250016  1
  Ga  Ga5  1  0.868191  0.868138  0.749984  1
  Ga  Ga6  1  0.997693  0.337729  0.081787  1
  Ga  Ga7  1  0.002134  0.662261  0.918167  1
  Ga  Ga8  1  0.001606  0.661772  0.581728  1
  Ga  Ga9  1  0.338228  0.998394  0.418272  1
  Ga  Ga10  1  0.996978  0.337565  0.418342  1
  Ga  Ga11  1  0.662435  0.003022  0.581658  1
  Ga  Ga12  1  0.662271  0.002307  0.918213  1
  Ga  Ga13  1  0.337739  0.997866  0.081833  1
  Ga  Ga14  1  0.336093  0.335547  0.569160  1
  Ga  Ga15  1  0.664453  0.663907  0.430840  1
  Ga  Ga16  1  0.664501  0.664486  0.069205  1
  Ga  Ga17  1  0.335514  0.335499  0.930795  1
  Ga  Ga18  1  0.336743  0.547670  0.250024  1
  Ga  Ga19  1  0.663365  0.451865  0.749389  1
  Ga  Ga20  1  0.548135  0.336635  0.250611  1
  Ga  Ga21  1  0.452330  0.663257  0.749976  1
  Ir  Ir22  1  0.671342  0.328658  0.000000  1
  Ir  Ir23  1  0.328568  0.671432  0.000000  1
  Ir  Ir24  1  0.328743  0.671257  0.500000  1
  Pt  Pt25  1  0.999931  0.000069  0.000000  1
  Pt  Pt26  1  0.000109  0.999891  0.500000  1
  Rh  Rh27  1  0.671089  0.328911  0.500000  1
