# generated using pymatgen
data_Y15Tm4LuSn16
_symmetry_space_group_name_H-M   'P 1'
_cell_length_a   8.01949222
_cell_length_b   8.17344957
_cell_length_c   15.47798000
_cell_angle_alpha   90.02653280
_cell_angle_beta   89.95740410
_cell_angle_gamma   90.06142721
_symmetry_Int_Tables_number   1
_chemical_formula_structural   Y15Tm4LuSn16
_chemical_formula_sum   'Y15 Tm4 Lu1 Sn16'
_cell_volume   1014.53287087
_cell_formula_units_Z   1
loop_
 _symmetry_equiv_pos_site_id
 _symmetry_equiv_pos_as_xyz
  1  'x, y, z'
loop_
 _atom_site_type_symbol
 _atom_site_label
 _atom_site_symmetry_multiplicity
 _atom_site_fract_x
 _atom_site_fract_y
 _atom_site_fract_z
 _atom_site_occupancy
  Y  Y0  1  0.865221  0.662359  0.623268  1
  Y  Y1  1  0.634183  0.162200  0.377350  1
  Y  Y2  1  0.135645  0.337651  0.121352  1
  Y  Y3  1  0.634130  0.162857  0.122863  1
  Y  Y4  1  0.134394  0.337397  0.377526  1
  Y  Y5  1  0.366005  0.837486  0.623076  1
  Y  Y6  1  0.865846  0.662136  0.877894  1
  Y  Y7  1  0.518835  0.319978  0.903349  1
  Y  Y8  1  0.019507  0.179188  0.597491  1
  Y  Y9  1  0.480918  0.679944  0.403727  1
  Y  Y10  1  0.980470  0.820083  0.096485  1
  Y  Y11  1  0.481376  0.680420  0.095121  1
  Y  Y12  1  0.981082  0.820251  0.403349  1
  Y  Y13  1  0.519208  0.320784  0.597539  1
  Y  Y14  1  0.018890  0.178773  0.902901  1
  Tm  Tm15  1  0.364558  0.838327  0.876087  1
  Tm  Tm16  1  0.197110  0.503387  0.750568  1
  Tm  Tm17  1  0.696412  0.996529  0.750408  1
  Tm  Tm18  1  0.803763  0.496720  0.250078  1
  Lu  Lu19  1  0.303073  0.003124  0.249458  1
  Sn  Sn20  1  0.294954  0.035528  0.040935  1
  Sn  Sn21  1  0.794225  0.463480  0.457834  1
  Sn  Sn22  1  0.706223  0.963307  0.542336  1
  Sn  Sn23  1  0.207433  0.539548  0.957260  1
  Sn  Sn24  1  0.701932  0.962319  0.957642  1
  Sn  Sn25  1  0.205576  0.536530  0.542591  1
  Sn  Sn26  1  0.294040  0.036288  0.457422  1
  Sn  Sn27  1  0.794402  0.463214  0.042598  1
  Sn  Sn28  1  0.561691  0.618837  0.750840  1
  Sn  Sn29  1  0.062522  0.881845  0.750764  1
  Sn  Sn30  1  0.437573  0.382477  0.250026  1
  Sn  Sn31  1  0.938743  0.117620  0.249497  1
  Sn  Sn32  1  0.329016  0.149165  0.750515  1
  Sn  Sn33  1  0.828879  0.350194  0.750397  1
  Sn  Sn34  1  0.670879  0.850243  0.249760  1
  Sn  Sn35  1  0.171286  0.649817  0.249689  1
