# generated using pymatgen
data_LiYb2IrO6
_symmetry_space_group_name_H-M   'P 1'
_cell_length_a   5.38533118
_cell_length_b   5.38526669
_cell_length_c   5.48107400
_cell_angle_alpha   120.01337862
_cell_angle_beta   120.01380966
_cell_angle_gamma   59.58851193
_symmetry_Int_Tables_number   1
_chemical_formula_structural   LiYb2IrO6
_chemical_formula_sum   'Li1 Yb2 Ir1 O6'
_cell_volume   112.02444007
_cell_formula_units_Z   1
loop_
 _symmetry_equiv_pos_site_id
 _symmetry_equiv_pos_as_xyz
  1  'x, y, z'
loop_
 _atom_site_type_symbol
 _atom_site_label
 _atom_site_symmetry_multiplicity
 _atom_site_fract_x
 _atom_site_fract_y
 _atom_site_fract_z
 _atom_site_occupancy
  Li  Li0  1  0.500000  0.500000  0.000000  1
  Yb  Yb1  1  0.248118  0.248127  0.267883  1
  Yb  Yb2  1  0.751882  0.751873  0.732117  1
  Ir  Ir3  1  0.000000  0.000000  0.500000  1
  O  O4  1  0.761805  0.761804  0.161048  1
  O  O5  1  0.808120  0.305137  0.316035  1
  O  O6  1  0.305138  0.808116  0.316031  1
  O  O7  1  0.694862  0.191884  0.683969  1
  O  O8  1  0.191880  0.694863  0.683965  1
  O  O9  1  0.238195  0.238196  0.838952  1
