# generated using pymatgen
data_Be8CrTc2W
_symmetry_space_group_name_H-M   'P 1'
_cell_length_a   4.34732200
_cell_length_b   4.34732398
_cell_length_c   7.09436100
_cell_angle_alpha   90.00000000
_cell_angle_beta   90.00000000
_cell_angle_gamma   120.00000015
_symmetry_Int_Tables_number   1
_chemical_formula_structural   Be8CrTc2W
_chemical_formula_sum   'Be8 Cr1 Tc2 W1'
_cell_volume   116.11484073
_cell_formula_units_Z   1
loop_
 _symmetry_equiv_pos_site_id
 _symmetry_equiv_pos_as_xyz
  1  'x, y, z'
loop_
 _atom_site_type_symbol
 _atom_site_label
 _atom_site_symmetry_multiplicity
 _atom_site_fract_x
 _atom_site_fract_y
 _atom_site_fract_z
 _atom_site_occupancy
  Be  Be0  1  0.169263  0.338523  0.744383  1
  Be  Be1  1  0.169263  0.830737  0.744383  1
  Be  Be2  1  0.338882  0.169442  0.255816  1
  Be  Be3  1  0.830558  0.661118  0.255816  1
  Be  Be4  1  0.000000  0.000000  0.999059  1
  Be  Be5  1  0.661477  0.830737  0.744383  1
  Be  Be6  1  0.830558  0.169442  0.255816  1
  Be  Be7  1  0.000000  0.000000  0.503096  1
  Cr  Cr8  1  0.666667  0.333333  0.562583  1
  Tc  Tc9  1  0.333333  0.666667  0.439380  1
  Tc  Tc10  1  0.666667  0.333333  0.934219  1
  W  W11  1  0.333333  0.666667  0.061063  1
