# generated using pymatgen
data_Zr3Ti9Sn9Pd
_symmetry_space_group_name_H-M   'P 1'
_cell_length_a   9.31260900
_cell_length_b   9.41594119
_cell_length_c   5.76097273
_cell_angle_alpha   90.63784465
_cell_angle_beta   90.00000000
_cell_angle_gamma   119.63763985
_symmetry_Int_Tables_number   1
_chemical_formula_structural   Zr3Ti9Sn9Pd
_chemical_formula_sum   'Zr3 Ti9 Sn9 Pd1'
_cell_volume   439.03602308
_cell_formula_units_Z   1
loop_
 _symmetry_equiv_pos_site_id
 _symmetry_equiv_pos_as_xyz
  1  'x, y, z'
loop_
 _atom_site_type_symbol
 _atom_site_label
 _atom_site_symmetry_multiplicity
 _atom_site_fract_x
 _atom_site_fract_y
 _atom_site_fract_z
 _atom_site_occupancy
  Zr  Zr0  1  0.849997  0.699995  0.740862  1
  Zr  Zr1  1  0.136150  0.842673  0.266328  1
  Zr  Zr2  1  0.706525  0.842673  0.266328  1
  Ti  Ti3  1  0.310241  0.137640  0.749939  1
  Ti  Ti4  1  0.827398  0.137640  0.749939  1
  Ti  Ti5  1  0.162203  0.324405  0.229830  1
  Ti  Ti6  1  0.500908  0.001815  0.507971  1
  Ti  Ti7  1  0.488817  0.491057  0.000083  1
  Ti  Ti8  1  0.002240  0.491057  0.000083  1
  Ti  Ti9  1  0.999988  0.498207  0.498759  1
  Ti  Ti10  1  0.502621  0.005243  0.998925  1
  Ti  Ti11  1  0.498219  0.498207  0.498759  1
  Sn  Sn12  1  0.194338  0.388677  0.736212  1
  Sn  Sn13  1  0.800848  0.199442  0.252919  1
  Sn  Sn14  1  0.398595  0.199442  0.252919  1
  Sn  Sn15  1  0.582836  0.789487  0.760789  1
  Sn  Sn16  1  0.206650  0.789487  0.760789  1
  Sn  Sn17  1  0.786026  0.572050  0.241604  1
  Sn  Sn18  1  0.666264  0.332527  0.748113  1
  Sn  Sn19  1  0.336239  0.672479  0.253275  1
  Sn  Sn20  1  0.008457  0.016915  0.990510  1
  Pd  Pd21  1  0.034442  0.068883  0.495064  1
