# generated using pymatgen
data_Zr3TiBr12
_symmetry_space_group_name_H-M   'P 1'
_cell_length_a   6.21061501
_cell_length_b   7.50999600
_cell_length_c   13.10592700
_cell_angle_alpha   90.00000000
_cell_angle_beta   90.00000000
_cell_angle_gamma   90.11136601
_symmetry_Int_Tables_number   1
_chemical_formula_structural   Zr3TiBr12
_chemical_formula_sum   'Zr3 Ti1 Br12'
_cell_volume   611.28148046
_cell_formula_units_Z   1
loop_
 _symmetry_equiv_pos_site_id
 _symmetry_equiv_pos_as_xyz
  1  'x, y, z'
loop_
 _atom_site_type_symbol
 _atom_site_label
 _atom_site_symmetry_multiplicity
 _atom_site_fract_x
 _atom_site_fract_y
 _atom_site_fract_z
 _atom_site_occupancy
  Zr  Zr0  1  0.250039  0.249589  0.500000  1
  Zr  Zr1  1  0.750070  0.249525  0.500000  1
  Zr  Zr2  1  0.749886  0.750396  0.000000  1
  Ti  Ti3  1  0.250061  0.750336  0.000000  1
  Br  Br4  1  0.500202  0.398083  0.352615  1
  Br  Br5  1  0.008484  0.607604  0.858115  1
  Br  Br6  1  0.008484  0.607604  0.141885  1
  Br  Br7  1  0.500202  0.398083  0.647385  1
  Br  Br8  1  0.491456  0.893102  0.858016  1
  Br  Br9  1  0.999909  0.101775  0.353063  1
  Br  Br10  1  0.999909  0.101775  0.646937  1
  Br  Br11  1  0.491456  0.893102  0.141984  1
  Br  Br12  1  0.499849  0.953148  0.500000  1
  Br  Br13  1  0.010242  0.035936  0.000000  1
  Br  Br14  1  0.489539  0.464619  0.000000  1
  Br  Br15  1  0.000212  0.545323  0.500000  1
