# generated using pymatgen
data_Sc5As2Ru
_symmetry_space_group_name_H-M   'P 1'
_cell_length_a   5.83258800
_cell_length_b   7.80849882
_cell_length_c   7.97313877
_cell_angle_alpha   119.31924966
_cell_angle_beta   90.00000000
_cell_angle_gamma   90.00000000
_symmetry_Int_Tables_number   1
_chemical_formula_structural   Sc5As2Ru
_chemical_formula_sum   'Sc10 As4 Ru2'
_cell_volume   316.61190661
_cell_formula_units_Z   2
loop_
 _symmetry_equiv_pos_site_id
 _symmetry_equiv_pos_as_xyz
  1  'x, y, z'
loop_
 _atom_site_type_symbol
 _atom_site_label
 _atom_site_symmetry_multiplicity
 _atom_site_fract_x
 _atom_site_fract_y
 _atom_site_fract_z
 _atom_site_occupancy
  Sc  Sc0  1  0.000000  0.662660  0.325318  1
  Sc  Sc1  1  0.000000  0.337340  0.674682  1
  Sc  Sc2  1  0.500000  0.337340  0.674682  1
  Sc  Sc3  1  0.500000  0.662660  0.325318  1
  Sc  Sc4  1  0.750000  0.743859  0.766900  1
  Sc  Sc5  1  0.250000  0.256141  0.233100  1
  Sc  Sc6  1  0.750000  0.976960  0.233100  1
  Sc  Sc7  1  0.250000  0.023040  0.766900  1
  Sc  Sc8  1  0.750000  0.250395  0.000000  1
  Sc  Sc9  1  0.250000  0.749605  0.000000  1
  As  As10  1  0.750000  0.378877  0.388282  1
  As  As11  1  0.250000  0.621123  0.611718  1
  As  As12  1  0.750000  0.990595  0.611718  1
  As  As13  1  0.250000  0.009405  0.388282  1
  Ru  Ru14  1  0.750000  0.590948  0.000000  1
  Ru  Ru15  1  0.250000  0.409052  0.000000  1
