# generated using pymatgen
data_Pr5CS4
_symmetry_space_group_name_H-M   'P 1'
_cell_length_a   7.03588450
_cell_length_b   7.03588591
_cell_length_c   7.03591430
_cell_angle_alpha   99.62099991
_cell_angle_beta   99.62129080
_cell_angle_gamma   131.73850796
_symmetry_Int_Tables_number   1
_chemical_formula_structural   Pr5CS4
_chemical_formula_sum   'Pr5 C1 S4'
_cell_volume   237.18994440
_cell_formula_units_Z   1
loop_
 _symmetry_equiv_pos_site_id
 _symmetry_equiv_pos_as_xyz
  1  'x, y, z'
loop_
 _atom_site_type_symbol
 _atom_site_label
 _atom_site_symmetry_multiplicity
 _atom_site_fract_x
 _atom_site_fract_y
 _atom_site_fract_z
 _atom_site_occupancy
  Pr  Pr0  1  0.408498  0.776199  0.184700  1
  Pr  Pr1  1  0.000000  0.000000  0.000000  1
  Pr  Pr2  1  0.591502  0.223801  0.815300  1
  Pr  Pr3  1  0.223797  0.408500  0.632297  1
  Pr  Pr4  1  0.776203  0.591500  0.367703  1
  C  C5  1  0.500000  0.500000  0.000000  1
  S  S6  1  0.095969  0.698568  0.794537  1
  S  S7  1  0.698568  0.904032  0.602599  1
  S  S8  1  0.301432  0.095968  0.397401  1
  S  S9  1  0.904031  0.301432  0.205463  1
