# generated using pymatgen
data_Cs2Nd10Ir2Br17
_symmetry_space_group_name_H-M   'P 1'
_cell_length_a   9.60263324
_cell_length_b   11.23268974
_cell_length_c   11.23282223
_cell_angle_alpha   107.98548207
_cell_angle_beta   93.57737926
_cell_angle_gamma   93.57836103
_symmetry_Int_Tables_number   1
_chemical_formula_structural   Cs2Nd10Ir2Br17
_chemical_formula_sum   'Cs2 Nd10 Ir2 Br17'
_cell_volume   1145.89369733
_cell_formula_units_Z   1
loop_
 _symmetry_equiv_pos_site_id
 _symmetry_equiv_pos_as_xyz
  1  'x, y, z'
loop_
 _atom_site_type_symbol
 _atom_site_label
 _atom_site_symmetry_multiplicity
 _atom_site_fract_x
 _atom_site_fract_y
 _atom_site_fract_z
 _atom_site_occupancy
  Cs  Cs0  1  0.999999  0.823068  0.176929  1
  Cs  Cs1  1  0.999999  0.176929  0.823069  1
  Nd  Nd2  1  0.437086  0.164421  0.164421  1
  Nd  Nd3  1  0.574793  0.513118  0.199875  1
  Nd  Nd4  1  0.830887  0.291021  0.291020  1
  Nd  Nd5  1  0.308218  0.435187  0.435190  1
  Nd  Nd6  1  0.425202  0.800131  0.486887  1
  Nd  Nd7  1  0.574796  0.199878  0.513120  1
  Nd  Nd8  1  0.691789  0.564811  0.564809  1
  Nd  Nd9  1  0.169132  0.708979  0.708978  1
  Nd  Nd10  1  0.425202  0.486887  0.800134  1
  Nd  Nd11  1  0.562908  0.835569  0.835569  1
  Ir  Ir12  1  0.571084  0.358037  0.358036  1
  Ir  Ir13  1  0.428919  0.641959  0.641960  1
  Br  Br14  1  0.578893  0.687934  0.021116  1
  Br  Br15  1  0.712927  0.067250  0.067250  1
  Br  Br16  1  0.856129  0.448674  0.120318  1
  Br  Br17  1  0.132668  0.207207  0.207207  1
  Br  Br18  1  0.285382  0.604230  0.255287  1
  Br  Br19  1  0.421107  0.978885  0.312065  1
  Br  Br20  1  0.714613  0.744720  0.395763  1
  Br  Br21  1  0.856128  0.120318  0.448674  1
  Br  Br22  1  0.000006  0.500002  0.500002  1
  Br  Br23  1  0.143869  0.879682  0.551326  1
  Br  Br24  1  0.285386  0.255283  0.604241  1
  Br  Br25  1  0.578893  0.021117  0.687933  1
  Br  Br26  1  0.714617  0.395774  0.744717  1
  Br  Br27  1  0.867329  0.792792  0.792792  1
  Br  Br28  1  0.143864  0.551325  0.879678  1
  Br  Br29  1  0.287071  0.932749  0.932749  1
  Br  Br30  1  0.421108  0.312064  0.978885  1
