# generated using pymatgen
data_Pr3BiO7
_symmetry_space_group_name_H-M   'P 1'
_cell_length_a   6.80717965
_cell_length_b   6.81767600
_cell_length_c   8.02650275
_cell_angle_alpha   106.88355628
_cell_angle_beta   89.85850834
_cell_angle_gamma   98.14138954
_symmetry_Int_Tables_number   1
_chemical_formula_structural   Pr3BiO7
_chemical_formula_sum   'Pr6 Bi2 O14'
_cell_volume   352.56071840
_cell_formula_units_Z   2
loop_
 _symmetry_equiv_pos_site_id
 _symmetry_equiv_pos_as_xyz
  1  'x, y, z'
loop_
 _atom_site_type_symbol
 _atom_site_label
 _atom_site_symmetry_multiplicity
 _atom_site_fract_x
 _atom_site_fract_y
 _atom_site_fract_z
 _atom_site_occupancy
  Pr  Pr0  1  0.460840  0.003648  0.252289  1
  Pr  Pr1  1  0.539160  0.996352  0.747711  1
  Pr  Pr2  1  0.267451  0.535215  0.881744  1
  Pr  Pr3  1  0.732549  0.464785  0.118256  1
  Pr  Pr4  1  0.739731  0.479659  0.615159  1
  Pr  Pr5  1  0.260269  0.520341  0.384841  1
  Bi  Bi6  1  0.000000  0.000000  0.500000  1
  Bi  Bi7  1  0.000000  0.000000  0.000000  1
  O  O8  1  0.440285  0.642431  0.166131  1
  O  O9  1  0.559715  0.357569  0.833869  1
  O  O10  1  0.295359  0.927027  0.954521  1
  O  O11  1  0.704641  0.072973  0.045479  1
  O  O12  1  0.291025  0.923946  0.510396  1
  O  O13  1  0.708975  0.076054  0.489604  1
  O  O14  1  0.549227  0.363907  0.345648  1
  O  O15  1  0.450773  0.636093  0.654352  1
  O  O16  1  0.925620  0.675536  0.955937  1
  O  O17  1  0.074380  0.324464  0.044063  1
  O  O18  1  0.073697  0.335357  0.614352  1
  O  O19  1  0.926303  0.664643  0.385648  1
  O  O20  1  0.889873  0.915271  0.728110  1
  O  O21  1  0.110127  0.084729  0.271890  1
