# generated using pymatgen
data_TbEr11(CoRh)2
_symmetry_space_group_name_H-M   'P 1'
_cell_length_a   6.22325515
_cell_length_b   7.02589856
_cell_length_c   9.33857900
_cell_angle_alpha   90.00000000
_cell_angle_beta   90.00000000
_cell_angle_gamma   90.40999813
_symmetry_Int_Tables_number   1
_chemical_formula_structural   TbEr11(CoRh)2
_chemical_formula_sum   'Tb1 Er11 Co2 Rh2'
_cell_volume   408.30919470
_cell_formula_units_Z   1
loop_
 _symmetry_equiv_pos_site_id
 _symmetry_equiv_pos_as_xyz
  1  'x, y, z'
loop_
 _atom_site_type_symbol
 _atom_site_label
 _atom_site_symmetry_multiplicity
 _atom_site_fract_x
 _atom_site_fract_y
 _atom_site_fract_z
 _atom_site_occupancy
  Tb  Tb0  1  0.372050  0.955186  0.750000  1
  Er  Er1  1  0.326924  0.671508  0.066281  1
  Er  Er2  1  0.176956  0.183141  0.434436  1
  Er  Er3  1  0.672960  0.328471  0.565803  1
  Er  Er4  1  0.823623  0.817194  0.935654  1
  Er  Er5  1  0.672960  0.328471  0.934197  1
  Er  Er6  1  0.823623  0.817194  0.564346  1
  Er  Er7  1  0.326924  0.671508  0.433719  1
  Er  Er8  1  0.176956  0.183141  0.065564  1
  Er  Er9  1  0.856184  0.532593  0.250000  1
  Er  Er10  1  0.629887  0.045254  0.250000  1
  Er  Er11  1  0.142670  0.467209  0.750000  1
  Co  Co12  1  0.450807  0.384709  0.250000  1
  Co  Co13  1  0.550251  0.614488  0.750000  1
  Rh  Rh14  1  0.049367  0.885745  0.250000  1
  Rh  Rh15  1  0.947857  0.114189  0.750000  1
