# generated using pymatgen
data_Ce3ErZnIn2Rh3
_symmetry_space_group_name_H-M   'P 1'
_cell_length_a   7.75550197
_cell_length_b   7.75550209
_cell_length_c   3.73265100
_cell_angle_alpha   90.00000000
_cell_angle_beta   90.00000000
_cell_angle_gamma   88.05372650
_symmetry_Int_Tables_number   1
_chemical_formula_structural   Ce3ErZnIn2Rh3
_chemical_formula_sum   'Ce3 Er1 Zn1 In2 Rh3'
_cell_volume   224.38127229
_cell_formula_units_Z   1
loop_
 _symmetry_equiv_pos_site_id
 _symmetry_equiv_pos_as_xyz
  1  'x, y, z'
loop_
 _atom_site_type_symbol
 _atom_site_label
 _atom_site_symmetry_multiplicity
 _atom_site_fract_x
 _atom_site_fract_y
 _atom_site_fract_z
 _atom_site_occupancy
  Ce  Ce0  1  0.345619  0.845619  0.500000  1
  Ce  Ce1  1  0.164383  0.308024  0.500000  1
  Ce  Ce2  1  0.808024  0.664383  0.500000  1
  Er  Er3  1  0.676103  0.176103  0.500000  1
  Zn  Zn4  1  0.129213  0.629213  0.000000  1
  In  In5  1  0.990589  0.995120  0.000000  1
  In  In6  1  0.495120  0.490589  0.000000  1
  Rh  Rh7  1  0.892888  0.392888  0.000000  1
  Rh  Rh8  1  0.635839  0.862221  0.000000  1
  Rh  Rh9  1  0.362221  0.135839  0.000000  1
