# generated using pymatgen
data_Zr3(ScRe12)2
_symmetry_space_group_name_H-M   'P 1'
_cell_length_a   8.47955972
_cell_length_b   8.47976240
_cell_length_c   8.48340201
_cell_angle_alpha   109.48437067
_cell_angle_beta   109.47914980
_cell_angle_gamma   109.45977821
_symmetry_Int_Tables_number   1
_chemical_formula_structural   Zr3(ScRe12)2
_chemical_formula_sum   'Zr3 Sc2 Re24'
_cell_volume   469.51931736
_cell_formula_units_Z   1
loop_
 _symmetry_equiv_pos_site_id
 _symmetry_equiv_pos_as_xyz
  1  'x, y, z'
loop_
 _atom_site_type_symbol
 _atom_site_label
 _atom_site_symmetry_multiplicity
 _atom_site_fract_x
 _atom_site_fract_y
 _atom_site_fract_z
 _atom_site_occupancy
  Zr  Zr0  1  0.368981  0.369068  0.369371  1
  Zr  Zr1  1  0.000062  0.631032  0.000373  1
  Zr  Zr2  1  0.630962  0.999947  0.000339  1
  Sc  Sc3  1  0.000075  0.999902  0.630349  1
  Sc  Sc4  1  0.999992  0.000030  0.997120  1
  Re  Re5  1  0.999925  0.396321  0.676550  1
  Re  Re6  1  0.279854  0.604460  0.602667  1
  Re  Re7  1  0.720175  0.324646  0.322860  1
  Re  Re8  1  0.324582  0.720121  0.322814  1
  Re  Re9  1  0.676252  0.000075  0.397005  1
  Re  Re10  1  0.999942  0.676162  0.396948  1
  Re  Re11  1  0.603645  0.603610  0.280234  1
  Re  Re12  1  0.806948  0.806923  0.184348  1
  Re  Re13  1  0.375465  0.192055  0.999037  1
  Re  Re14  1  0.191993  0.375367  0.999039  1
  Re  Re15  1  0.624651  0.816643  0.623675  1
  Re  Re16  1  0.377387  0.000023  0.195252  1
  Re  Re17  1  0.999964  0.377333  0.195205  1
  Re  Re18  1  0.816584  0.624550  0.623598  1
  Re  Re19  1  0.183341  0.808000  0.807039  1
  Re  Re20  1  0.807959  0.183415  0.807004  1
  Re  Re21  1  0.193070  0.000018  0.377401  1
  Re  Re22  1  0.999965  0.193070  0.377385  1
  Re  Re23  1  0.622666  0.622639  0.817860  1
  Re  Re24  1  0.396442  0.000063  0.676650  1
  Re  Re25  1  0.604491  0.279839  0.602683  1
  Re  Re26  1  0.675361  0.395533  0.998222  1
  Re  Re27  1  0.395496  0.675391  0.998230  1
  Re  Re28  1  0.323769  0.323766  0.720742  1
