# generated using pymatgen
data_Tb2Er2TmRu2
_symmetry_space_group_name_H-M   'P 1'
_cell_length_a   6.31604989
_cell_length_b   7.25590988
_cell_length_c   8.42092134
_cell_angle_alpha   96.74020634
_cell_angle_beta   112.02563681
_cell_angle_gamma   90.00000562
_symmetry_Int_Tables_number   1
_chemical_formula_structural   Tb2Er2TmRu2
_chemical_formula_sum   'Tb4 Er4 Tm2 Ru4'
_cell_volume   354.87496241
_cell_formula_units_Z   2
loop_
 _symmetry_equiv_pos_site_id
 _symmetry_equiv_pos_as_xyz
  1  'x, y, z'
loop_
 _atom_site_type_symbol
 _atom_site_label
 _atom_site_symmetry_multiplicity
 _atom_site_fract_x
 _atom_site_fract_y
 _atom_site_fract_z
 _atom_site_occupancy
  Tb  Tb0  1  0.789852  0.083696  0.812848  1
  Tb  Tb1  1  0.977004  0.416304  0.187152  1
  Tb  Tb2  1  0.210148  0.916304  0.187152  1
  Tb  Tb3  1  0.022996  0.583696  0.812848  1
  Er  Er4  1  0.205867  0.184454  0.565975  1
  Er  Er5  1  0.639892  0.315546  0.434025  1
  Er  Er6  1  0.794133  0.815546  0.434025  1
  Er  Er7  1  0.360108  0.684454  0.565975  1
  Tm  Tm8  1  0.419907  0.250000  0.000000  1
  Tm  Tm9  1  0.580093  0.750000  0.000000  1
  Ru  Ru10  1  0.601375  0.424148  0.779880  1
  Ru  Ru11  1  0.821493  0.075852  0.220120  1
  Ru  Ru12  1  0.398625  0.575852  0.220120  1
  Ru  Ru13  1  0.178507  0.924148  0.779880  1
