# generated using pymatgen
data_Zr12Ta8Si15B
_symmetry_space_group_name_H-M   'P 1'
_cell_length_a   6.93921493
_cell_length_b   6.94889983
_cell_length_c   12.79078618
_cell_angle_alpha   90.31800386
_cell_angle_beta   90.17761084
_cell_angle_gamma   89.74899105
_symmetry_Int_Tables_number   1
_chemical_formula_structural   Zr12Ta8Si15B
_chemical_formula_sum   'Zr12 Ta8 Si15 B1'
_cell_volume   616.75221581
_cell_formula_units_Z   1
loop_
 _symmetry_equiv_pos_site_id
 _symmetry_equiv_pos_as_xyz
  1  'x, y, z'
loop_
 _atom_site_type_symbol
 _atom_site_label
 _atom_site_symmetry_multiplicity
 _atom_site_fract_x
 _atom_site_fract_y
 _atom_site_fract_z
 _atom_site_occupancy
  Zr  Zr0  1  0.650075  0.496793  0.876111  1
  Zr  Zr1  1  0.497699  0.353148  0.620159  1
  Zr  Zr2  1  0.501844  0.647784  0.126460  1
  Zr  Zr3  1  0.147744  0.998939  0.873330  1
  Zr  Zr4  1  0.001963  0.654225  0.035328  1
  Zr  Zr5  1  0.000239  0.352970  0.526345  1
  Zr  Zr6  1  0.654618  0.997414  0.968910  1
  Zr  Zr7  1  0.152092  0.498291  0.781644  1
  Zr  Zr8  1  0.855130  0.508234  0.288236  1
  Zr  Zr9  1  0.501811  0.154872  0.221514  1
  Zr  Zr10  1  0.497475  0.843866  0.711462  1
  Zr  Zr11  1  0.336971  0.998787  0.467150  1
  Ta  Ta12  1  0.343078  0.511688  0.376702  1
  Ta  Ta13  1  0.862918  0.984011  0.379616  1
  Ta  Ta14  1  0.008887  0.148240  0.128087  1
  Ta  Ta15  1  0.992681  0.849396  0.618664  1
  Ta  Ta16  1  0.677513  0.674478  0.497882  1
  Ta  Ta17  1  0.827576  0.170407  0.747499  1
  Ta  Ta18  1  0.170581  0.828152  0.257440  1
  Ta  Ta19  1  0.327784  0.323588  0.002181  1
  Si  Si20  1  0.956075  0.299123  0.938417  1
  Si  Si21  1  0.700670  0.047655  0.561045  1
  Si  Si22  1  0.201107  0.451112  0.188303  1
  Si  Si23  1  0.801478  0.547206  0.682995  1
  Si  Si24  1  0.453467  0.196400  0.812673  1
  Si  Si25  1  0.549658  0.800437  0.317229  1
  Si  Si26  1  0.300079  0.953403  0.067619  1
  Si  Si27  1  0.854200  0.797652  0.815649  1
  Si  Si28  1  0.136979  0.209213  0.324244  1
  Si  Si29  1  0.800758  0.863997  0.182452  1
  Si  Si30  1  0.280388  0.644521  0.563701  1
  Si  Si31  1  0.710901  0.352386  0.075037  1
  Si  Si32  1  0.639165  0.292724  0.422566  1
  Si  Si33  1  0.354741  0.701206  0.930464  1
  Si  Si34  1  0.196817  0.139339  0.674014  1
  B  B35  1  0.054841  0.708340  0.438873  1
