# generated using pymatgen
data_YTh3(Rh2Pb)2
_symmetry_space_group_name_H-M   'P 1'
_cell_length_a   7.87000468
_cell_length_b   7.87000462
_cell_length_c   3.75988000
_cell_angle_alpha   90.00000000
_cell_angle_beta   90.00000000
_cell_angle_gamma   88.23480351
_symmetry_Int_Tables_number   1
_chemical_formula_structural   YTh3(Rh2Pb)2
_chemical_formula_sum   'Y1 Th3 Rh4 Pb2'
_cell_volume   232.76507710
_cell_formula_units_Z   1
loop_
 _symmetry_equiv_pos_site_id
 _symmetry_equiv_pos_as_xyz
  1  'x, y, z'
loop_
 _atom_site_type_symbol
 _atom_site_label
 _atom_site_symmetry_multiplicity
 _atom_site_fract_x
 _atom_site_fract_y
 _atom_site_fract_z
 _atom_site_occupancy
  Y  Y0  1  0.329353  0.829353  0.500000  1
  Th  Th1  1  0.668386  0.168386  0.500000  1
  Th  Th2  1  0.173155  0.331598  0.500000  1
  Th  Th3  1  0.831598  0.673155  0.500000  1
  Rh  Rh4  1  0.861953  0.361953  0.000000  1
  Rh  Rh5  1  0.372447  0.137378  0.000000  1
  Rh  Rh6  1  0.637378  0.872447  0.000000  1
  Rh  Rh7  1  0.118099  0.618099  0.000000  1
  Pb  Pb8  1  0.009701  0.997929  0.000000  1
  Pb  Pb9  1  0.497929  0.509701  0.000000  1
