# generated using pymatgen
data_Ho4TmGa2Bi
_symmetry_space_group_name_H-M   'P 1'
_cell_length_a   8.69598789
_cell_length_b   8.69598803
_cell_length_c   8.69598750
_cell_angle_alpha   125.03429803
_cell_angle_beta   125.03430256
_cell_angle_gamma   81.48122590
_symmetry_Int_Tables_number   1
_chemical_formula_structural   Ho4TmGa2Bi
_chemical_formula_sum   'Ho8 Tm2 Ga4 Bi2'
_cell_volume   424.43337507
_cell_formula_units_Z   2
loop_
 _symmetry_equiv_pos_site_id
 _symmetry_equiv_pos_as_xyz
  1  'x, y, z'
loop_
 _atom_site_type_symbol
 _atom_site_label
 _atom_site_symmetry_multiplicity
 _atom_site_fract_x
 _atom_site_fract_y
 _atom_site_fract_z
 _atom_site_occupancy
  Ho  Ho0  1  0.012621  0.512621  0.807409  1
  Ho  Ho1  1  0.705212  0.205212  0.192591  1
  Ho  Ho2  1  0.512621  0.705212  0.500000  1
  Ho  Ho3  1  0.205212  0.012621  0.500000  1
  Ho  Ho4  1  0.987379  0.487379  0.192591  1
  Ho  Ho5  1  0.294788  0.794788  0.807409  1
  Ho  Ho6  1  0.487379  0.294788  0.500000  1
  Ho  Ho7  1  0.794788  0.987379  0.500000  1
  Tm  Tm8  1  0.000000  0.000000  0.000000  1
  Tm  Tm9  1  0.500000  0.500000  0.000000  1
  Ga  Ga10  1  0.646581  0.146581  0.793160  1
  Ga  Ga11  1  0.353419  0.853419  0.206840  1
  Ga  Ga12  1  0.146581  0.353419  0.500000  1
  Ga  Ga13  1  0.853419  0.646581  0.500000  1
  Bi  Bi14  1  0.750000  0.750000  0.000000  1
  Bi  Bi15  1  0.250000  0.250000  0.000000  1
