# generated using pymatgen
data_Pr12OsPt2Au
_symmetry_space_group_name_H-M   'P 1'
_cell_length_a   6.68427701
_cell_length_b   7.44082374
_cell_length_c   10.08327300
_cell_angle_alpha   90.00000000
_cell_angle_beta   90.00000000
_cell_angle_gamma   89.92237574
_symmetry_Int_Tables_number   1
_chemical_formula_structural   Pr12OsPt2Au
_chemical_formula_sum   'Pr12 Os1 Pt2 Au1'
_cell_volume   501.50652035
_cell_formula_units_Z   1
loop_
 _symmetry_equiv_pos_site_id
 _symmetry_equiv_pos_as_xyz
  1  'x, y, z'
loop_
 _atom_site_type_symbol
 _atom_site_label
 _atom_site_symmetry_multiplicity
 _atom_site_fract_x
 _atom_site_fract_y
 _atom_site_fract_z
 _atom_site_occupancy
  Pr  Pr0  1  0.337637  0.668941  0.064670  1
  Pr  Pr1  1  0.175945  0.187294  0.439499  1
  Pr  Pr2  1  0.669289  0.321274  0.560522  1
  Pr  Pr3  1  0.832417  0.823515  0.936394  1
  Pr  Pr4  1  0.669289  0.321274  0.939478  1
  Pr  Pr5  1  0.832417  0.823515  0.563606  1
  Pr  Pr6  1  0.337637  0.668941  0.435330  1
  Pr  Pr7  1  0.175945  0.187294  0.060501  1
  Pr  Pr8  1  0.850530  0.520509  0.250000  1
  Pr  Pr9  1  0.622394  0.043808  0.250000  1
  Pr  Pr10  1  0.140287  0.468485  0.750000  1
  Pr  Pr11  1  0.358843  0.963004  0.750000  1
  Os  Os12  1  0.432242  0.382719  0.250000  1
  Pt  Pt13  1  0.936517  0.117050  0.750000  1
  Pt  Pt14  1  0.569501  0.615331  0.750000  1
  Au  Au15  1  0.059114  0.887046  0.250000  1
