# generated using pymatgen
data_Li4Sm2ThPb4
_symmetry_space_group_name_H-M   'P 1'
_cell_length_a   4.76400902
_cell_length_b   7.28440383
_cell_length_c   8.86481711
_cell_angle_alpha   114.25889726
_cell_angle_beta   105.58711454
_cell_angle_gamma   90.00000109
_symmetry_Int_Tables_number   1
_chemical_formula_structural   Li4Sm2ThPb4
_chemical_formula_sum   'Li4 Sm2 Th1 Pb4'
_cell_volume   268.01250092
_cell_formula_units_Z   1
loop_
 _symmetry_equiv_pos_site_id
 _symmetry_equiv_pos_as_xyz
  1  'x, y, z'
loop_
 _atom_site_type_symbol
 _atom_site_label
 _atom_site_symmetry_multiplicity
 _atom_site_fract_x
 _atom_site_fract_y
 _atom_site_fract_z
 _atom_site_occupancy
  Li  Li0  1  0.673254  0.985735  0.346507  1
  Li  Li1  1  0.327462  0.017083  0.654924  1
  Li  Li2  1  0.327462  0.637841  0.654924  1
  Li  Li3  1  0.673254  0.360773  0.346507  1
  Sm  Sm4  1  0.998916  0.998916  0.997832  1
  Sm  Sm5  1  0.872789  0.372789  0.745581  1
  Th  Th6  1  0.126637  0.626637  0.253273  1
  Pb  Pb7  1  0.500680  0.707630  0.001359  1
  Pb  Pb8  1  0.500680  0.293729  0.001359  1
  Pb  Pb9  1  0.785172  0.785172  0.570344  1
  Pb  Pb10  1  0.213695  0.213695  0.427391  1
