# generated using pymatgen
data_YbDy(Al5Fe)4
_symmetry_space_group_name_H-M   'P 1'
_cell_length_a   6.75960582
_cell_length_b   6.75960568
_cell_length_c   8.94810700
_cell_angle_alpha   90.00000000
_cell_angle_beta   90.00000000
_cell_angle_gamma   97.16955941
_symmetry_Int_Tables_number   1
_chemical_formula_structural   YbDy(Al5Fe)4
_chemical_formula_sum   'Yb1 Dy1 Al20 Fe4'
_cell_volume   405.66250962
_cell_formula_units_Z   1
loop_
 _symmetry_equiv_pos_site_id
 _symmetry_equiv_pos_as_xyz
  1  'x, y, z'
loop_
 _atom_site_type_symbol
 _atom_site_label
 _atom_site_symmetry_multiplicity
 _atom_site_fract_x
 _atom_site_fract_y
 _atom_site_fract_z
 _atom_site_occupancy
  Yb  Yb0  1  0.876755  0.123245  0.750000  1
  Dy  Dy1  1  0.124581  0.875419  0.250000  1
  Al  Al2  1  0.625655  0.374345  0.545377  1
  Al  Al3  1  0.374590  0.625410  0.449222  1
  Al  Al4  1  0.374590  0.625410  0.050778  1
  Al  Al5  1  0.625655  0.374345  0.954623  1
  Al  Al6  1  0.226769  0.227877  0.499801  1
  Al  Al7  1  0.772123  0.773231  0.499801  1
  Al  Al8  1  0.772123  0.773231  0.000199  1
  Al  Al9  1  0.226769  0.227877  0.000199  1
  Al  Al10  1  0.843452  0.156548  0.096517  1
  Al  Al11  1  0.159367  0.840633  0.903207  1
  Al  Al12  1  0.159367  0.840633  0.596793  1
  Al  Al13  1  0.843452  0.156548  0.403483  1
  Al  Al14  1  0.866530  0.585817  0.750000  1
  Al  Al15  1  0.133768  0.416358  0.250000  1
  Al  Al16  1  0.414183  0.133470  0.750000  1
  Al  Al17  1  0.583642  0.866232  0.250000  1
  Al  Al18  1  0.219842  0.476354  0.750000  1
  Al  Al19  1  0.779168  0.521471  0.250000  1
  Al  Al20  1  0.523646  0.780158  0.750000  1
  Al  Al21  1  0.478529  0.220832  0.250000  1
  Fe  Fe22  1  0.999303  0.501582  0.499818  1
  Fe  Fe23  1  0.999303  0.501582  0.000182  1
  Fe  Fe24  1  0.498418  0.000697  0.000182  1
  Fe  Fe25  1  0.498418  0.000697  0.499818  1
