# generated using pymatgen
data_Ho12Co4CuPb
_symmetry_space_group_name_H-M   'P 1'
_cell_length_a   8.30511366
_cell_length_b   8.30505595
_cell_length_c   8.30511443
_cell_angle_alpha   111.21305695
_cell_angle_beta   110.39414683
_cell_angle_gamma   106.83947061
_symmetry_Int_Tables_number   1
_chemical_formula_structural   Ho12Co4CuPb
_chemical_formula_sum   'Ho12 Co4 Cu1 Pb1'
_cell_volume   440.25395498
_cell_formula_units_Z   1
loop_
 _symmetry_equiv_pos_site_id
 _symmetry_equiv_pos_as_xyz
  1  'x, y, z'
loop_
 _atom_site_type_symbol
 _atom_site_label
 _atom_site_symmetry_multiplicity
 _atom_site_fract_x
 _atom_site_fract_y
 _atom_site_fract_z
 _atom_site_occupancy
  Ho  Ho0  1  0.814810  0.708725  0.523522  1
  Ho  Ho1  1  0.185190  0.291275  0.476478  1
  Ho  Ho2  1  0.185204  0.708725  0.893914  1
  Ho  Ho3  1  0.814796  0.291275  0.106086  1
  Ho  Ho4  1  0.686337  0.379207  0.692871  1
  Ho  Ho5  1  0.313663  0.620793  0.307129  1
  Ho  Ho6  1  0.686349  0.993471  0.307122  1
  Ho  Ho7  1  0.313651  0.006529  0.692878  1
  Ho  Ho8  1  0.587334  0.786904  0.800447  1
  Ho  Ho9  1  0.412666  0.213096  0.199553  1
  Ho  Ho10  1  0.986457  0.786904  0.199570  1
  Ho  Ho11  1  0.013543  0.213096  0.800430  1
  Co  Co12  1  0.623031  0.000000  0.623031  1
  Co  Co13  1  0.376969  0.000000  0.376969  1
  Co  Co14  1  0.112394  0.612394  0.500001  1
  Co  Co15  1  0.887606  0.387606  0.499999  1
  Cu  Cu16  1  0.000000  0.000000  0.000000  1
  Pb  Pb17  1  0.500000  0.500000  0.000000  1
