# generated using pymatgen
data_Tb3HoAl18AgIr5
_symmetry_space_group_name_H-M   'P 1'
_cell_length_a   7.60074185
_cell_length_b   7.60202242
_cell_length_c   9.49594938
_cell_angle_alpha   89.98501776
_cell_angle_beta   89.98007825
_cell_angle_gamma   119.70997338
_symmetry_Int_Tables_number   1
_chemical_formula_structural   Tb3HoAl18AgIr5
_chemical_formula_sum   'Tb3 Ho1 Al18 Ag1 Ir5'
_cell_volume   476.55813974
_cell_formula_units_Z   1
loop_
 _symmetry_equiv_pos_site_id
 _symmetry_equiv_pos_as_xyz
  1  'x, y, z'
loop_
 _atom_site_type_symbol
 _atom_site_label
 _atom_site_symmetry_multiplicity
 _atom_site_fract_x
 _atom_site_fract_y
 _atom_site_fract_z
 _atom_site_occupancy
  Tb  Tb0  1  0.992990  0.667962  0.251001  1
  Tb  Tb1  1  0.002179  0.328829  0.749077  1
  Tb  Tb2  1  0.671114  0.997902  0.250930  1
  Ho  Ho3  1  0.331843  0.007055  0.748733  1
  Al  Al4  1  0.127653  0.125556  0.251068  1
  Al  Al5  1  0.874798  0.872555  0.748946  1
  Al  Al6  1  0.012156  0.335018  0.078158  1
  Al  Al7  1  0.008719  0.675560  0.921926  1
  Al  Al8  1  0.001553  0.665791  0.573452  1
  Al  Al9  1  0.334497  0.998714  0.427352  1
  Al  Al10  1  0.000643  0.334373  0.425892  1
  Al  Al11  1  0.665219  0.999348  0.574577  1
  Al  Al12  1  0.664587  0.987999  0.921423  1
  Al  Al13  1  0.324933  0.991771  0.077232  1
  Al  Al14  1  0.331988  0.331991  0.550693  1
  Al  Al15  1  0.667703  0.667992  0.449886  1
  Al  Al16  1  0.665420  0.672989  0.059085  1
  Al  Al17  1  0.327094  0.334235  0.940314  1
  Al  Al18  1  0.340699  0.550514  0.251408  1
  Al  Al19  1  0.659722  0.457704  0.742083  1
  Al  Al20  1  0.541761  0.339733  0.258047  1
  Al  Al21  1  0.449386  0.659666  0.748601  1
  Ag  Ag22  1  0.673492  0.326481  0.999907  1
  Ir  Ir23  1  0.328811  0.671168  0.999826  1
  Ir  Ir24  1  0.328564  0.671434  0.500174  1
  Ir  Ir25  1  0.671948  0.327699  0.500202  1
  Ir  Ir26  1  0.999977  0.000259  0.999787  1
  Ir  Ir27  1  0.000551  0.999702  0.500215  1
