# generated using pymatgen
data_Dy12Os3Pd
_symmetry_space_group_name_H-M   'P 1'
_cell_length_a   6.40660724
_cell_length_b   7.35968166
_cell_length_c   9.09835100
_cell_angle_alpha   90.00000000
_cell_angle_beta   90.00000000
_cell_angle_gamma   90.28259591
_symmetry_Int_Tables_number   1
_chemical_formula_structural   Dy12Os3Pd
_chemical_formula_sum   'Dy12 Os3 Pd1'
_cell_volume   428.98739785
_cell_formula_units_Z   1
loop_
 _symmetry_equiv_pos_site_id
 _symmetry_equiv_pos_as_xyz
  1  'x, y, z'
loop_
 _atom_site_type_symbol
 _atom_site_label
 _atom_site_symmetry_multiplicity
 _atom_site_fract_x
 _atom_site_fract_y
 _atom_site_fract_z
 _atom_site_occupancy
  Dy  Dy0  1  0.338259  0.670282  0.058579  1
  Dy  Dy1  1  0.170947  0.183703  0.441162  1
  Dy  Dy2  1  0.671305  0.323020  0.563464  1
  Dy  Dy3  1  0.823602  0.823790  0.931908  1
  Dy  Dy4  1  0.671305  0.323020  0.936536  1
  Dy  Dy5  1  0.823602  0.823790  0.568092  1
  Dy  Dy6  1  0.338259  0.670282  0.441421  1
  Dy  Dy7  1  0.170947  0.183703  0.058838  1
  Dy  Dy8  1  0.868827  0.531244  0.250000  1
  Dy  Dy9  1  0.623742  0.041045  0.250000  1
  Dy  Dy10  1  0.126571  0.462707  0.750000  1
  Dy  Dy11  1  0.367782  0.962350  0.750000  1
  Os  Os12  1  0.459438  0.384045  0.250000  1
  Os  Os13  1  0.961813  0.115233  0.750000  1
  Os  Os14  1  0.536127  0.615223  0.750000  1
  Pd  Pd15  1  0.047475  0.886565  0.250000  1
