# generated using pymatgen
data_Eu10CuIr3
_symmetry_space_group_name_H-M   'P 1'
_cell_length_a   8.90382615
_cell_length_b   8.94101442
_cell_length_c   7.87586400
_cell_angle_alpha   82.98979604
_cell_angle_beta   82.80709784
_cell_angle_gamma   44.15241696
_symmetry_Int_Tables_number   1
_chemical_formula_structural   Eu10CuIr3
_chemical_formula_sum   'Eu10 Cu1 Ir3'
_cell_volume   432.83523588
_cell_formula_units_Z   1
loop_
 _symmetry_equiv_pos_site_id
 _symmetry_equiv_pos_as_xyz
  1  'x, y, z'
loop_
 _atom_site_type_symbol
 _atom_site_label
 _atom_site_symmetry_multiplicity
 _atom_site_fract_x
 _atom_site_fract_y
 _atom_site_fract_z
 _atom_site_occupancy
  Eu  Eu0  1  0.021399  0.805570  0.927915  1
  Eu  Eu1  1  0.200307  0.985721  0.582423  1
  Eu  Eu2  1  0.981352  0.198592  0.083793  1
  Eu  Eu3  1  0.789375  0.037171  0.413865  1
  Eu  Eu4  1  0.370342  0.190014  0.830173  1
  Eu  Eu5  1  0.790040  0.635672  0.677266  1
  Eu  Eu6  1  0.639619  0.794057  0.177875  1
  Eu  Eu7  1  0.199952  0.359561  0.313485  1
  Eu  Eu8  1  0.582124  0.420015  0.756589  1
  Eu  Eu9  1  0.429492  0.576739  0.239291  1
  Cu  Cu10  1  0.181734  0.598018  0.579775  1
  Ir  Ir11  1  0.396018  0.822332  0.915181  1
  Ir  Ir12  1  0.820905  0.396742  0.418123  1
  Ir  Ir13  1  0.597341  0.179798  0.084246  1
