# generated using pymatgen
data_Pr9Y(TlGa2)2
_symmetry_space_group_name_H-M   'P 1'
_cell_length_a   8.56220100
_cell_length_b   8.56220100
_cell_length_c   13.15009700
_cell_angle_alpha   90.00000000
_cell_angle_beta   90.00000000
_cell_angle_gamma   90.00000000
_symmetry_Int_Tables_number   1
_chemical_formula_structural   Pr9Y(TlGa2)2
_chemical_formula_sum   'Pr18 Y2 Tl4 Ga8'
_cell_volume   964.05052163
_cell_formula_units_Z   2
loop_
 _symmetry_equiv_pos_site_id
 _symmetry_equiv_pos_as_xyz
  1  'x, y, z'
loop_
 _atom_site_type_symbol
 _atom_site_label
 _atom_site_symmetry_multiplicity
 _atom_site_fract_x
 _atom_site_fract_y
 _atom_site_fract_z
 _atom_site_occupancy
  Pr  Pr0  1  0.847779  0.839062  0.893171  1
  Pr  Pr1  1  0.158835  0.154528  0.604799  1
  Pr  Pr2  1  0.845472  0.158835  0.395201  1
  Pr  Pr3  1  0.154528  0.841165  0.395201  1
  Pr  Pr4  1  0.341165  0.345472  0.395201  1
  Pr  Pr5  1  0.839062  0.152221  0.106829  1
  Pr  Pr6  1  0.339062  0.652221  0.893171  1
  Pr  Pr7  1  0.160938  0.847779  0.106829  1
  Pr  Pr8  1  0.500000  0.000000  0.768602  1
  Pr  Pr9  1  0.000000  0.500000  0.231398  1
  Pr  Pr10  1  0.345472  0.658835  0.604799  1
  Pr  Pr11  1  0.652221  0.660938  0.106829  1
  Pr  Pr12  1  0.654528  0.341165  0.604799  1
  Pr  Pr13  1  0.841165  0.845472  0.604799  1
  Pr  Pr14  1  0.660938  0.347779  0.893171  1
  Pr  Pr15  1  0.152221  0.160938  0.893171  1
  Pr  Pr16  1  0.658835  0.654528  0.395201  1
  Pr  Pr17  1  0.347779  0.339062  0.106829  1
  Y  Y18  1  0.000000  0.500000  0.736822  1
  Y  Y19  1  0.500000  0.000000  0.263178  1
  Tl  Tl20  1  0.000000  0.500000  0.987838  1
  Tl  Tl21  1  0.500000  0.000000  0.012162  1
  Tl  Tl22  1  0.500000  0.000000  0.504716  1
  Tl  Tl23  1  0.000000  0.500000  0.495284  1
  Ga  Ga24  1  0.643248  0.353483  0.252133  1
  Ga  Ga25  1  0.356752  0.646517  0.252133  1
  Ga  Ga26  1  0.146517  0.143248  0.252133  1
  Ga  Ga27  1  0.353483  0.356752  0.747867  1
  Ga  Ga28  1  0.143248  0.853483  0.747867  1
  Ga  Ga29  1  0.853483  0.856752  0.252133  1
  Ga  Ga30  1  0.646517  0.643248  0.747867  1
  Ga  Ga31  1  0.856752  0.146517  0.747867  1
