# generated using pymatgen
data_Gd3Y(HoB5)4
_symmetry_space_group_name_H-M   'P 1'
_cell_length_a   7.10585397
_cell_length_b   7.09466058
_cell_length_c   7.12573786
_cell_angle_alpha   76.58237802
_cell_angle_beta   89.92868277
_cell_angle_gamma   90.09558134
_symmetry_Int_Tables_number   1
_chemical_formula_structural   Gd3Y(HoB5)4
_chemical_formula_sum   'Gd3 Y1 Ho4 B20'
_cell_volume   349.42781850
_cell_formula_units_Z   1
loop_
 _symmetry_equiv_pos_site_id
 _symmetry_equiv_pos_as_xyz
  1  'x, y, z'
loop_
 _atom_site_type_symbol
 _atom_site_label
 _atom_site_symmetry_multiplicity
 _atom_site_fract_x
 _atom_site_fract_y
 _atom_site_fract_z
 _atom_site_occupancy
  Gd  Gd0  1  0.191143  0.228569  0.875440  1
  Gd  Gd1  1  0.307993  0.228062  0.375361  1
  Gd  Gd2  1  0.808935  0.772202  0.124823  1
  Y  Y3  1  0.693057  0.769286  0.626061  1
  Ho  Ho4  1  0.315304  0.755464  0.252515  1
  Ho  Ho5  1  0.814502  0.244875  0.247693  1
  Ho  Ho6  1  0.684820  0.244603  0.747232  1
  Ho  Ho7  1  0.185415  0.755275  0.752519  1
  B  B8  1  0.502735  0.313742  0.041322  1
  B  B9  1  0.002803  0.686361  0.458570  1
  B  B10  1  0.497672  0.686522  0.958061  1
  B  B11  1  0.996787  0.313367  0.541784  1
  B  B12  1  0.488510  0.926675  0.923692  1
  B  B13  1  0.986523  0.072604  0.576478  1
  B  B14  1  0.511749  0.073496  0.074646  1
  B  B15  1  0.010987  0.926594  0.424561  1
  B  B16  1  0.326338  0.496336  0.039897  1
  B  B17  1  0.826100  0.503767  0.459980  1
  B  B18  1  0.674103  0.503995  0.959955  1
  B  B19  1  0.173811  0.496150  0.540040  1
  B  B20  1  0.910946  0.498779  0.910939  1
  B  B21  1  0.410889  0.501863  0.588989  1
  B  B22  1  0.089277  0.501826  0.088943  1
  B  B23  1  0.589356  0.499097  0.410735  1
  B  B24  1  0.961614  0.496520  0.674490  1
  B  B25  1  0.461827  0.503498  0.825457  1
  B  B26  1  0.038269  0.503602  0.325615  1
  B  B27  1  0.538535  0.496869  0.174202  1
