# generated using pymatgen
data_CsLa3CBr6
_symmetry_space_group_name_H-M   'P 1'
_cell_length_a   9.24059019
_cell_length_b   9.25148979
_cell_length_c   9.88862212
_cell_angle_alpha   69.99943506
_cell_angle_beta   84.92744640
_cell_angle_gamma   88.90517553
_symmetry_Int_Tables_number   1
_chemical_formula_structural   CsLa3CBr6
_chemical_formula_sum   'Cs2 La6 C2 Br12'
_cell_volume   791.21854049
_cell_formula_units_Z   2
loop_
 _symmetry_equiv_pos_site_id
 _symmetry_equiv_pos_as_xyz
  1  'x, y, z'
loop_
 _atom_site_type_symbol
 _atom_site_label
 _atom_site_symmetry_multiplicity
 _atom_site_fract_x
 _atom_site_fract_y
 _atom_site_fract_z
 _atom_site_occupancy
  Cs  Cs0  1  0.467215  0.365117  0.329152  1
  Cs  Cs1  1  0.532786  0.634883  0.670848  1
  La  La2  1  0.915975  0.736686  0.005754  1
  La  La3  1  0.084025  0.263314  0.994245  1
  La  La4  1  0.736021  0.087254  0.001549  1
  La  La5  1  0.263978  0.912746  0.998452  1
  La  La6  1  0.973653  0.883630  0.327873  1
  La  La7  1  0.026346  0.116370  0.672128  1
  C  C8  1  0.005893  0.026649  0.923602  1
  C  C9  1  0.994106  0.973351  0.076398  1
  Br  Br10  1  0.076198  0.200802  0.324252  1
  Br  Br11  1  0.923802  0.799198  0.675748  1
  Br  Br12  1  0.211419  0.588444  0.001165  1
  Br  Br13  1  0.788582  0.411556  0.998835  1
  Br  Br14  1  0.406001  0.206023  0.000372  1
  Br  Br15  1  0.593998  0.793978  0.999627  1
  Br  Br16  1  0.666163  0.003620  0.328310  1
  Br  Br17  1  0.333837  0.996380  0.671690  1
  Br  Br18  1  0.283069  0.773154  0.323527  1
  Br  Br19  1  0.716931  0.226846  0.676473  1
  Br  Br20  1  0.847744  0.587288  0.328261  1
  Br  Br21  1  0.152255  0.412712  0.671739  1
