# generated using pymatgen
data_Dy4Er5Lu3CdCo5
_symmetry_space_group_name_H-M   'P 1'
_cell_length_a   8.20079901
_cell_length_b   8.20828393
_cell_length_c   8.20079718
_cell_angle_alpha   107.39290080
_cell_angle_beta   110.38176554
_cell_angle_gamma   110.62251319
_symmetry_Int_Tables_number   1
_chemical_formula_structural   Dy4Er5Lu3CdCo5
_chemical_formula_sum   'Dy4 Er5 Lu3 Cd1 Co5'
_cell_volume   424.72947219
_cell_formula_units_Z   1
loop_
 _symmetry_equiv_pos_site_id
 _symmetry_equiv_pos_as_xyz
  1  'x, y, z'
loop_
 _atom_site_type_symbol
 _atom_site_label
 _atom_site_symmetry_multiplicity
 _atom_site_fract_x
 _atom_site_fract_y
 _atom_site_fract_z
 _atom_site_occupancy
  Dy  Dy0  1  0.192908  0.210029  0.403939  1
  Dy  Dy1  1  0.807880  0.789913  0.597124  1
  Dy  Dy2  1  0.192789  0.789913  0.982032  1
  Dy  Dy3  1  0.806091  0.210029  0.017121  1
  Er  Er4  1  0.475312  0.289803  0.184335  1
  Er  Er5  1  0.105468  0.289803  0.814492  1
  Er  Er6  1  0.893315  0.709802  0.184515  1
  Er  Er7  1  0.525288  0.709802  0.816488  1
  Er  Er8  1  0.306439  0.621996  0.315558  1
  Lu  Lu9  1  0.307386  0.991620  0.684234  1
  Lu  Lu10  1  0.692803  0.376674  0.683871  1
  Lu  Lu11  1  0.692837  0.009045  0.316210  1
  Cd  Cd12  1  0.999431  0.499712  0.500281  1
  Co  Co13  1  0.500284  0.613325  0.113040  1
  Co  Co14  1  0.499590  0.385000  0.885409  1
  Co  Co15  1  0.378600  0.001457  0.378287  1
  Co  Co16  1  0.623169  0.001457  0.622857  1
  Co  Co17  1  0.000410  0.000618  0.000207  1
