# generated using pymatgen
data_Sc3Al8(SiOs)4
_symmetry_space_group_name_H-M   'P 1'
_cell_length_a   8.57240754
_cell_length_b   8.57240795
_cell_length_c   9.29604500
_cell_angle_alpha   90.00000000
_cell_angle_beta   90.00000000
_cell_angle_gamma   120.06911650
_symmetry_Int_Tables_number   1
_chemical_formula_structural   Sc3Al8(SiOs)4
_chemical_formula_sum   'Sc6 Al16 Si8 Os8'
_cell_volume   591.19615023
_cell_formula_units_Z   2
loop_
 _symmetry_equiv_pos_site_id
 _symmetry_equiv_pos_as_xyz
  1  'x, y, z'
loop_
 _atom_site_type_symbol
 _atom_site_label
 _atom_site_symmetry_multiplicity
 _atom_site_fract_x
 _atom_site_fract_y
 _atom_site_fract_z
 _atom_site_occupancy
  Sc  Sc0  1  0.193298  0.390888  0.250000  1
  Sc  Sc1  1  0.806702  0.609112  0.750000  1
  Sc  Sc2  1  0.609112  0.806702  0.250000  1
  Sc  Sc3  1  0.390888  0.193298  0.750000  1
  Sc  Sc4  1  0.196895  0.803105  0.250000  1
  Sc  Sc5  1  0.803105  0.196895  0.750000  1
  Al  Al6  1  0.165213  0.328987  0.579266  1
  Al  Al7  1  0.834787  0.671013  0.420734  1
  Al  Al8  1  0.671013  0.834787  0.579266  1
  Al  Al9  1  0.834787  0.671013  0.079266  1
  Al  Al10  1  0.328987  0.165213  0.420734  1
  Al  Al11  1  0.165213  0.328987  0.920734  1
  Al  Al12  1  0.164550  0.835450  0.579082  1
  Al  Al13  1  0.328987  0.165213  0.079266  1
  Al  Al14  1  0.835450  0.164550  0.420918  1
  Al  Al15  1  0.671013  0.834787  0.920734  1
  Al  Al16  1  0.835450  0.164550  0.079082  1
  Al  Al17  1  0.164550  0.835450  0.920918  1
  Al  Al18  1  0.563296  0.436704  0.250000  1
  Al  Al19  1  0.436704  0.563296  0.750000  1
  Al  Al20  1  0.000219  0.999781  0.250000  1
  Al  Al21  1  0.999781  0.000219  0.750000  1
  Si  Si22  1  0.335014  0.664986  0.048397  1
  Si  Si23  1  0.664986  0.335014  0.951603  1
  Si  Si24  1  0.664986  0.335014  0.548397  1
  Si  Si25  1  0.335014  0.664986  0.451603  1
  Si  Si26  1  0.562408  0.121541  0.250000  1
  Si  Si27  1  0.437592  0.878459  0.750000  1
  Si  Si28  1  0.878459  0.437592  0.250000  1
  Si  Si29  1  0.121541  0.562408  0.750000  1
  Os  Os30  1  0.500000  0.000000  0.000000  1
  Os  Os31  1  0.000000  0.500000  0.000000  1
  Os  Os32  1  0.500000  0.000000  0.500000  1
  Os  Os33  1  0.500000  0.500000  0.000000  1
  Os  Os34  1  0.000000  0.500000  0.500000  1
  Os  Os35  1  0.500000  0.500000  0.500000  1
  Os  Os36  1  0.000000  0.000000  0.000000  1
  Os  Os37  1  0.000000  0.000000  0.500000  1
