# generated using pymatgen
data_Tb3ZnSi2Ag3
_symmetry_space_group_name_H-M   'P 1'
_cell_length_a   7.15245100
_cell_length_b   7.15244915
_cell_length_c   4.18138300
_cell_angle_alpha   90.00000000
_cell_angle_beta   90.00000000
_cell_angle_gamma   119.99999466
_symmetry_Int_Tables_number   1
_chemical_formula_structural   Tb3ZnSi2Ag3
_chemical_formula_sum   'Tb3 Zn1 Si2 Ag3'
_cell_volume   185.25087785
_cell_formula_units_Z   1
loop_
 _symmetry_equiv_pos_site_id
 _symmetry_equiv_pos_as_xyz
  1  'x, y, z'
loop_
 _atom_site_type_symbol
 _atom_site_label
 _atom_site_symmetry_multiplicity
 _atom_site_fract_x
 _atom_site_fract_y
 _atom_site_fract_z
 _atom_site_occupancy
  Tb  Tb0  1  0.418925  0.418925  0.000000  1
  Tb  Tb1  1  0.581075  0.000000  0.000000  1
  Tb  Tb2  1  0.000000  0.581075  0.000000  1
  Zn  Zn3  1  0.000000  0.000000  0.000000  1
  Si  Si4  1  0.666667  0.333333  0.500000  1
  Si  Si5  1  0.333333  0.666667  0.500000  1
  Ag  Ag6  1  0.747807  0.747807  0.500000  1
  Ag  Ag7  1  0.252193  0.000000  0.500000  1
  Ag  Ag8  1  0.000000  0.252193  0.500000  1
