# generated using pymatgen
data_CeHo2(CdAu)3
_symmetry_space_group_name_H-M   'P 1'
_cell_length_a   7.89367500
_cell_length_b   7.95003153
_cell_length_c   3.85601800
_cell_angle_alpha   90.00000000
_cell_angle_beta   90.00000000
_cell_angle_gamma   119.76578286
_symmetry_Int_Tables_number   1
_chemical_formula_structural   CeHo2(CdAu)3
_chemical_formula_sum   'Ce1 Ho2 Cd3 Au3'
_cell_volume   210.05737608
_cell_formula_units_Z   1
loop_
 _symmetry_equiv_pos_site_id
 _symmetry_equiv_pos_as_xyz
  1  'x, y, z'
loop_
 _atom_site_type_symbol
 _atom_site_label
 _atom_site_symmetry_multiplicity
 _atom_site_fract_x
 _atom_site_fract_y
 _atom_site_fract_z
 _atom_site_occupancy
  Ce  Ce0  1  0.596761  0.000000  0.000000  1
  Ho  Ho1  1  0.001002  0.597972  0.000000  1
  Ho  Ho2  1  0.403030  0.402028  0.000000  1
  Cd  Cd3  1  0.263201  0.000000  0.500000  1
  Cd  Cd4  1  0.002747  0.268144  0.500000  1
  Cd  Cd5  1  0.734603  0.731856  0.500000  1
  Au  Au6  1  0.330330  0.662887  0.500000  1
  Au  Au7  1  0.667444  0.337113  0.500000  1
  Au  Au8  1  0.000883  0.000000  0.000000  1
