# generated using pymatgen
data_Dy2Re7Si4W
_symmetry_space_group_name_H-M   'P 1'
_cell_length_a   7.16859123
_cell_length_b   7.68141485
_cell_length_c   4.16877800
_cell_angle_alpha   90.00000000
_cell_angle_beta   90.00000000
_cell_angle_gamma   90.04997714
_symmetry_Int_Tables_number   1
_chemical_formula_structural   Dy2Re7Si4W
_chemical_formula_sum   'Dy2 Re7 Si4 W1'
_cell_volume   229.55335255
_cell_formula_units_Z   1
loop_
 _symmetry_equiv_pos_site_id
 _symmetry_equiv_pos_as_xyz
  1  'x, y, z'
loop_
 _atom_site_type_symbol
 _atom_site_label
 _atom_site_symmetry_multiplicity
 _atom_site_fract_x
 _atom_site_fract_y
 _atom_site_fract_z
 _atom_site_occupancy
  Dy  Dy0  1  0.500795  0.498013  0.000000  1
  Dy  Dy1  1  0.999397  0.999731  0.500000  1
  Re  Re2  1  0.155675  0.604408  0.500000  1
  Re  Re3  1  0.083392  0.340994  0.000000  1
  Re  Re4  1  0.917867  0.658891  0.000000  1
  Re  Re5  1  0.417342  0.839507  0.500000  1
  Re  Re6  1  0.582998  0.163787  0.500000  1
  Re  Re7  1  0.342057  0.106756  0.000000  1
  Re  Re8  1  0.846538  0.394107  0.500000  1
  Si  Si9  1  0.222575  0.805482  0.000000  1
  Si  Si10  1  0.779891  0.196830  0.000000  1
  Si  Si11  1  0.723051  0.692482  0.500000  1
  Si  Si12  1  0.278010  0.304580  0.500000  1
  W  W13  1  0.650414  0.894429  0.000000  1
