# generated using pymatgen
data_Hf3Mo2AsP2Ru
_symmetry_space_group_name_H-M   'P 1'
_cell_length_a   6.84154310
_cell_length_b   6.92974508
_cell_length_c   3.49787200
_cell_angle_alpha   90.00000000
_cell_angle_beta   90.00000000
_cell_angle_gamma   119.71972611
_symmetry_Int_Tables_number   1
_chemical_formula_structural   Hf3Mo2AsP2Ru
_chemical_formula_sum   'Hf3 Mo2 As1 P2 Ru1'
_cell_volume   144.02089354
_cell_formula_units_Z   1
loop_
 _symmetry_equiv_pos_site_id
 _symmetry_equiv_pos_as_xyz
  1  'x, y, z'
loop_
 _atom_site_type_symbol
 _atom_site_label
 _atom_site_symmetry_multiplicity
 _atom_site_fract_x
 _atom_site_fract_y
 _atom_site_fract_z
 _atom_site_occupancy
  Hf  Hf0  1  0.006482  0.600892  0.500000  1
  Hf  Hf1  1  0.396515  0.413113  0.500000  1
  Hf  Hf2  1  0.593927  0.989376  0.500000  1
  Mo  Mo3  1  0.751094  0.754866  0.000000  1
  Mo  Mo4  1  0.005487  0.249581  0.000000  1
  As  As5  1  0.661851  0.330367  0.000000  1
  P  P6  1  0.331178  0.667973  0.000000  1
  P  P7  1  0.009320  0.000364  0.500000  1
  Ru  Ru8  1  0.244144  0.993468  0.000000  1
