# generated using pymatgen
data_Er4Cu3Pd
_symmetry_space_group_name_H-M   'P 1'
_cell_length_a   7.03822737
_cell_length_b   4.48467400
_cell_length_c   5.39722818
_cell_angle_alpha   90.00000000
_cell_angle_beta   89.89249195
_cell_angle_gamma   90.00000000
_symmetry_Int_Tables_number   1
_chemical_formula_structural   Er4Cu3Pd
_chemical_formula_sum   'Er4 Cu3 Pd1'
_cell_volume   170.35864836
_cell_formula_units_Z   1
loop_
 _symmetry_equiv_pos_site_id
 _symmetry_equiv_pos_as_xyz
  1  'x, y, z'
loop_
 _atom_site_type_symbol
 _atom_site_label
 _atom_site_symmetry_multiplicity
 _atom_site_fract_x
 _atom_site_fract_y
 _atom_site_fract_z
 _atom_site_occupancy
  Er  Er0  1  0.683272  0.750000  0.137916  1
  Er  Er1  1  0.181253  0.750000  0.358613  1
  Er  Er2  1  0.816400  0.250001  0.639918  1
  Er  Er3  1  0.317667  0.250001  0.862431  1
  Cu  Cu4  1  0.469033  0.250001  0.372336  1
  Cu  Cu5  1  0.529536  0.750000  0.628196  1
  Cu  Cu6  1  0.039708  0.750000  0.858941  1
  Pd  Pd7  1  0.963131  0.250001  0.141648  1
