# generated using pymatgen
data_Pr3Sm2W2C7
_symmetry_space_group_name_H-M   'P 1'
_cell_length_a   8.80268762
_cell_length_b   8.74014680
_cell_length_c   3.54080700
_cell_angle_alpha   90.00000000
_cell_angle_beta   90.00000000
_cell_angle_gamma   124.66739985
_symmetry_Int_Tables_number   1
_chemical_formula_structural   Pr3Sm2W2C7
_chemical_formula_sum   'Pr3 Sm2 W2 C7'
_cell_volume   224.05528127
_cell_formula_units_Z   1
loop_
 _symmetry_equiv_pos_site_id
 _symmetry_equiv_pos_as_xyz
  1  'x, y, z'
loop_
 _atom_site_type_symbol
 _atom_site_label
 _atom_site_symmetry_multiplicity
 _atom_site_fract_x
 _atom_site_fract_y
 _atom_site_fract_z
 _atom_site_occupancy
  Pr  Pr0  1  0.500000  0.500000  0.000000  1
  Pr  Pr1  1  0.066867  0.321235  0.500000  1
  Pr  Pr2  1  0.933133  0.678765  0.500000  1
  Sm  Sm3  1  0.668280  0.931414  0.500000  1
  Sm  Sm4  1  0.331720  0.068586  0.500000  1
  W  W5  1  0.713689  0.287204  0.000000  1
  W  W6  1  0.286311  0.712796  0.000000  1
  C  C7  1  0.633405  0.365487  0.500000  1
  C  C8  1  0.366595  0.634513  0.500000  1
  C  C9  1  0.000000  0.000000  0.000000  1
  C  C10  1  0.171230  0.159892  0.000000  1
  C  C11  1  0.828770  0.840108  0.000000  1
  C  C12  1  0.000000  0.500000  0.000000  1
  C  C13  1  0.500000  0.000000  0.000000  1
