# generated using pymatgen
data_Nd3SmMn4Al4O20
_symmetry_space_group_name_H-M   'P 1'
_cell_length_a   5.72186100
_cell_length_b   7.44859565
_cell_length_c   8.56981175
_cell_angle_alpha   90.04792718
_cell_angle_beta   90.00000000
_cell_angle_gamma   90.00000000
_symmetry_Int_Tables_number   1
_chemical_formula_structural   Nd3SmMn4Al4O20
_chemical_formula_sum   'Nd3 Sm1 Mn4 Al4 O20'
_cell_volume   365.24378323
_cell_formula_units_Z   1
loop_
 _symmetry_equiv_pos_site_id
 _symmetry_equiv_pos_as_xyz
  1  'x, y, z'
loop_
 _atom_site_type_symbol
 _atom_site_label
 _atom_site_symmetry_multiplicity
 _atom_site_fract_x
 _atom_site_fract_y
 _atom_site_fract_z
 _atom_site_occupancy
  Nd  Nd0  1  0.500000  0.364714  0.329865  1
  Nd  Nd1  1  0.500000  0.635670  0.670048  1
  Nd  Nd2  1  0.500000  0.134829  0.830634  1
  Sm  Sm3  1  0.500000  0.864277  0.170129  1
  Mn  Mn4  1  0.243882  0.999688  0.499442  1
  Mn  Mn5  1  0.756118  0.999688  0.499442  1
  Mn  Mn6  1  0.756346  0.500953  0.000392  1
  Mn  Mn7  1  0.243654  0.500953  0.000392  1
  Al  Al8  1  0.000000  0.106113  0.140472  1
  Al  Al9  1  0.000000  0.891710  0.860113  1
  Al  Al10  1  0.000000  0.392333  0.640046  1
  Al  Al11  1  0.000000  0.608550  0.359322  1
  O  O12  1  0.000000  0.340611  0.069285  1
  O  O13  1  0.000000  0.659294  0.931852  1
  O  O14  1  0.000000  0.159665  0.566974  1
  O  O15  1  0.000000  0.840466  0.432529  1
  O  O16  1  0.215175  0.997761  0.001306  1
  O  O17  1  0.784825  0.997761  0.001306  1
  O  O18  1  0.786099  0.499885  0.499494  1
  O  O19  1  0.213901  0.499885  0.499494  1
  O  O20  1  0.244047  0.097603  0.289052  1
  O  O21  1  0.757538  0.900461  0.710212  1
  O  O22  1  0.242462  0.900461  0.710212  1
  O  O23  1  0.757372  0.400590  0.789961  1
  O  O24  1  0.755953  0.097603  0.289052  1
  O  O25  1  0.243594  0.602944  0.209926  1
  O  O26  1  0.756406  0.602944  0.209926  1
  O  O27  1  0.242628  0.400590  0.789961  1
  O  O28  1  0.500000  0.343390  0.052744  1
  O  O29  1  0.500000  0.659423  0.948640  1
  O  O30  1  0.500000  0.157248  0.552396  1
  O  O31  1  0.500000  0.841937  0.445385  1
