# generated using pymatgen
data_Sr10AgHg2Pd3
_symmetry_space_group_name_H-M   'P 1'
_cell_length_a   9.90568312
_cell_length_b   9.90568158
_cell_length_c   9.87140800
_cell_angle_alpha   128.92603941
_cell_angle_beta   128.92603221
_cell_angle_gamma   75.38721484
_symmetry_Int_Tables_number   1
_chemical_formula_structural   Sr10AgHg2Pd3
_chemical_formula_sum   'Sr10 Ag1 Hg2 Pd3'
_cell_volume   569.73879650
_cell_formula_units_Z   1
loop_
 _symmetry_equiv_pos_site_id
 _symmetry_equiv_pos_as_xyz
  1  'x, y, z'
loop_
 _atom_site_type_symbol
 _atom_site_label
 _atom_site_symmetry_multiplicity
 _atom_site_fract_x
 _atom_site_fract_y
 _atom_site_fract_z
 _atom_site_occupancy
  Sr  Sr0  1  0.527687  0.027687  0.825875  1
  Sr  Sr1  1  0.197922  0.697922  0.163129  1
  Sr  Sr2  1  0.037718  0.195281  0.505068  1
  Sr  Sr3  1  0.695281  0.537718  0.505068  1
  Sr  Sr4  1  0.465207  0.965207  0.163129  1
  Sr  Sr5  1  0.798188  0.298188  0.825875  1
  Sr  Sr6  1  0.967351  0.809789  0.505068  1
  Sr  Sr7  1  0.309789  0.467351  0.505068  1
  Sr  Sr8  1  0.494950  0.501864  0.996815  1
  Sr  Sr9  1  0.001864  0.994950  0.996815  1
  Ag  Ag10  1  0.880450  0.380450  0.260900  1
  Hg  Hg11  1  0.250595  0.250595  0.001188  1
  Hg  Hg12  1  0.750595  0.750595  0.001188  1
  Pd  Pd13  1  0.624004  0.876338  0.500342  1
  Pd  Pd14  1  0.376338  0.124004  0.500342  1
  Pd  Pd15  1  0.122062  0.622062  0.744125  1
