# generated using pymatgen
data_BaMnFe2Sb12Ru
_symmetry_space_group_name_H-M   'P 1'
_cell_length_a   8.08648156
_cell_length_b   8.13201677
_cell_length_c   8.06343447
_cell_angle_alpha   109.40142041
_cell_angle_beta   109.31354775
_cell_angle_gamma   109.40939597
_symmetry_Int_Tables_number   1
_chemical_formula_structural   BaMnFe2Sb12Ru
_chemical_formula_sum   'Ba1 Mn1 Fe2 Sb12 Ru1'
_cell_volume   409.63465798
_cell_formula_units_Z   1
loop_
 _symmetry_equiv_pos_site_id
 _symmetry_equiv_pos_as_xyz
  1  'x, y, z'
loop_
 _atom_site_type_symbol
 _atom_site_label
 _atom_site_symmetry_multiplicity
 _atom_site_fract_x
 _atom_site_fract_y
 _atom_site_fract_z
 _atom_site_occupancy
  Ba  Ba0  1  0.000000  0.000000  0.000000  1
  Mn  Mn1  1  0.000000  0.000000  0.500000  1
  Fe  Fe2  1  0.000000  0.500000  0.000000  1
  Fe  Fe3  1  0.500000  0.500000  0.500000  1
  Sb  Sb4  1  0.348202  0.188506  0.845060  1
  Sb  Sb5  1  0.651798  0.811494  0.154940  1
  Sb  Sb6  1  0.665108  0.501202  0.835997  1
  Sb  Sb7  1  0.334892  0.498798  0.164003  1
  Sb  Sb8  1  0.181444  0.830927  0.332666  1
  Sb  Sb9  1  0.818556  0.169073  0.667334  1
  Sb  Sb10  1  0.499711  0.833074  0.656120  1
  Sb  Sb11  1  0.500289  0.166926  0.343880  1
  Sb  Sb12  1  0.843397  0.344136  0.177054  1
  Sb  Sb13  1  0.156603  0.655864  0.822946  1
  Sb  Sb14  1  0.831167  0.649426  0.498118  1
  Sb  Sb15  1  0.168833  0.350574  0.501882  1
  Ru  Ru16  1  0.500000  0.000000  0.000000  1
