# generated using pymatgen
data_SmDy4Er(Si3Ru)8
_symmetry_space_group_name_H-M   'P 1'
_cell_length_a   10.12505783
_cell_length_b   10.12341197
_cell_length_c   8.14944463
_cell_angle_alpha   90.08010498
_cell_angle_beta   89.95368204
_cell_angle_gamma   132.51718906
_symmetry_Int_Tables_number   1
_chemical_formula_structural   SmDy4Er(Si3Ru)8
_chemical_formula_sum   'Sm1 Dy4 Er1 Si24 Ru8'
_cell_volume   615.69193340
_cell_formula_units_Z   1
loop_
 _symmetry_equiv_pos_site_id
 _symmetry_equiv_pos_as_xyz
  1  'x, y, z'
loop_
 _atom_site_type_symbol
 _atom_site_label
 _atom_site_symmetry_multiplicity
 _atom_site_fract_x
 _atom_site_fract_y
 _atom_site_fract_z
 _atom_site_occupancy
  Sm  Sm0  1  0.502792  0.002646  0.749784  1
  Dy  Dy1  1  0.000053  0.000010  0.000038  1
  Dy  Dy2  1  0.997825  0.497775  0.250162  1
  Dy  Dy3  1  0.497363  0.997370  0.250218  1
  Dy  Dy4  1  0.002704  0.502860  0.749833  1
  Er  Er5  1  0.500036  0.500082  0.499944  1
  Si  Si6  1  0.795027  0.206232  0.499144  1
  Si  Si7  1  0.294124  0.704833  0.001024  1
  Si  Si8  1  0.204974  0.793955  0.498889  1
  Si  Si9  1  0.706144  0.295276  0.000986  1
  Si  Si10  1  0.332337  0.332137  0.833072  1
  Si  Si11  1  0.667725  0.667832  0.166745  1
  Si  Si12  1  0.167476  0.167483  0.333157  1
  Si  Si13  1  0.832541  0.832657  0.667030  1
  Si  Si14  1  0.120991  0.886747  0.728170  1
  Si  Si15  1  0.113386  0.879458  0.271823  1
  Si  Si16  1  0.610898  0.377067  0.228182  1
  Si  Si17  1  0.622569  0.388350  0.770924  1
  Si  Si18  1  0.877556  0.111514  0.272048  1
  Si  Si19  1  0.887815  0.122268  0.728745  1
  Si  Si20  1  0.387430  0.621547  0.771543  1
  Si  Si21  1  0.379251  0.612919  0.228428  1
  Si  Si22  1  0.345666  0.112095  0.503661  1
  Si  Si23  1  0.888592  0.655881  0.495734  1
  Si  Si24  1  0.387707  0.153721  0.006225  1
  Si  Si25  1  0.844360  0.611715  0.994984  1
  Si  Si26  1  0.653771  0.887834  0.493858  1
  Si  Si27  1  0.111555  0.344310  0.505005  1
  Si  Si28  1  0.612228  0.845664  0.996417  1
  Si  Si29  1  0.155770  0.388437  0.004376  1
  Ru  Ru30  1  0.670823  0.334004  0.498238  1
  Ru  Ru31  1  0.166307  0.828615  0.000835  1
  Ru  Ru32  1  0.329065  0.665832  0.499219  1
  Ru  Ru33  1  0.833547  0.171314  0.001584  1
  Ru  Ru34  1  0.126477  0.126249  0.626254  1
  Ru  Ru35  1  0.873504  0.873432  0.374039  1
  Ru  Ru36  1  0.374451  0.374377  0.127550  1
  Ru  Ru37  1  0.625157  0.625501  0.872132  1
