# generated using pymatgen
data_Nd8Hg2OsPt
_symmetry_space_group_name_H-M   'P 1'
_cell_length_a   9.96931665
_cell_length_b   9.96931572
_cell_length_c   10.03708400
_cell_angle_alpha   59.77487844
_cell_angle_beta   59.77488154
_cell_angle_gamma   59.72197295
_symmetry_Int_Tables_number   1
_chemical_formula_structural   Nd8Hg2OsPt
_chemical_formula_sum   'Nd16 Hg4 Os2 Pt2'
_cell_volume   701.49164521
_cell_formula_units_Z   2
loop_
 _symmetry_equiv_pos_site_id
 _symmetry_equiv_pos_as_xyz
  1  'x, y, z'
loop_
 _atom_site_type_symbol
 _atom_site_label
 _atom_site_symmetry_multiplicity
 _atom_site_fract_x
 _atom_site_fract_y
 _atom_site_fract_z
 _atom_site_occupancy
  Nd  Nd0  1  0.350126  0.350126  0.354889  1
  Nd  Nd1  1  0.350126  0.350126  0.944860  1
  Nd  Nd2  1  0.345639  0.952833  0.350764  1
  Nd  Nd3  1  0.952833  0.345639  0.350764  1
  Nd  Nd4  1  0.813837  0.188890  0.193019  1
  Nd  Nd5  1  0.188890  0.813837  0.804255  1
  Nd  Nd6  1  0.188890  0.813837  0.193019  1
  Nd  Nd7  1  0.813837  0.188890  0.804255  1
  Nd  Nd8  1  0.189920  0.189920  0.810080  1
  Nd  Nd9  1  0.804982  0.804982  0.195018  1
  Nd  Nd10  1  0.939766  0.555441  0.564803  1
  Nd  Nd11  1  0.555441  0.939766  0.939990  1
  Nd  Nd12  1  0.555441  0.939766  0.564803  1
  Nd  Nd13  1  0.939766  0.555441  0.939990  1
  Nd  Nd14  1  0.561868  0.561868  0.938132  1
  Nd  Nd15  1  0.939357  0.939357  0.560643  1
  Hg  Hg16  1  0.584174  0.584174  0.583757  1
  Hg  Hg17  1  0.584174  0.584174  0.247896  1
  Hg  Hg18  1  0.584989  0.246305  0.584354  1
  Hg  Hg19  1  0.246305  0.584989  0.584354  1
  Os  Os20  1  0.144508  0.144508  0.136062  1
  Os  Os21  1  0.144508  0.144508  0.574922  1
  Pt  Pt22  1  0.146797  0.573830  0.139687  1
  Pt  Pt23  1  0.573830  0.146797  0.139687  1
