# generated using pymatgen
data_NdY2(ZnPt)4
_symmetry_space_group_name_H-M   'P 1'
_cell_length_a   8.27090596
_cell_length_b   8.27090670
_cell_length_c   8.27090672
_cell_angle_alpha   151.70673716
_cell_angle_beta   125.86401385
_cell_angle_gamma   62.19935336
_symmetry_Int_Tables_number   1
_chemical_formula_structural   NdY2(ZnPt)4
_chemical_formula_sum   'Nd1 Y2 Zn4 Pt4'
_cell_volume   215.52399554
_cell_formula_units_Z   1
loop_
 _symmetry_equiv_pos_site_id
 _symmetry_equiv_pos_as_xyz
  1  'x, y, z'
loop_
 _atom_site_type_symbol
 _atom_site_label
 _atom_site_symmetry_multiplicity
 _atom_site_fract_x
 _atom_site_fract_y
 _atom_site_fract_z
 _atom_site_occupancy
  Nd  Nd0  1  0.500000  0.000000  0.500000  1
  Y  Y1  1  0.875059  0.875059  0.000000  1
  Y  Y2  1  0.124941  0.124941  0.000000  1
  Zn  Zn3  1  0.476984  0.674220  0.802765  1
  Zn  Zn4  1  0.871455  0.674220  0.197235  1
  Zn  Zn5  1  0.128545  0.325780  0.802765  1
  Zn  Zn6  1  0.523016  0.325780  0.197235  1
  Pt  Pt7  1  0.277354  0.777354  0.500000  1
  Pt  Pt8  1  0.722646  0.222646  0.500000  1
  Pt  Pt9  1  0.808975  0.500000  0.308975  1
  Pt  Pt10  1  0.191025  0.500000  0.691025  1
