# generated using pymatgen
data_HoTm2SiSe2
_symmetry_space_group_name_H-M   'P 1'
_cell_length_a   7.06553428
_cell_length_b   7.06553389
_cell_length_c   7.06553437
_cell_angle_alpha   146.55972478
_cell_angle_beta   132.45406280
_cell_angle_gamma   59.37216364
_symmetry_Int_Tables_number   1
_chemical_formula_structural   HoTm2SiSe2
_chemical_formula_sum   'Ho1 Tm2 Si1 Se2'
_cell_volume   142.15224514
_cell_formula_units_Z   1
loop_
 _symmetry_equiv_pos_site_id
 _symmetry_equiv_pos_as_xyz
  1  'x, y, z'
loop_
 _atom_site_type_symbol
 _atom_site_label
 _atom_site_symmetry_multiplicity
 _atom_site_fract_x
 _atom_site_fract_y
 _atom_site_fract_z
 _atom_site_occupancy
  Ho  Ho0  1  0.500000  0.000000  0.500000  1
  Tm  Tm1  1  0.844881  0.344881  0.500000  1
  Tm  Tm2  1  0.155119  0.655119  0.500000  1
  Si  Si3  1  0.000000  0.000000  0.000000  1
  Se  Se4  1  0.670809  0.670809  0.000000  1
  Se  Se5  1  0.329191  0.329191  0.000000  1
