# generated using pymatgen
data_Ac12Co(AuI4)3
_symmetry_space_group_name_H-M   'P 1'
_cell_length_a   11.31231706
_cell_length_b   11.31231679
_cell_length_c   11.31231700
_cell_angle_alpha   109.07578791
_cell_angle_beta   109.07578743
_cell_angle_gamma   109.07578452
_symmetry_Int_Tables_number   1
_chemical_formula_structural   Ac12Co(AuI4)3
_chemical_formula_sum   'Ac12 Co1 Au3 I12'
_cell_volume   1130.39943016
_cell_formula_units_Z   1
loop_
 _symmetry_equiv_pos_site_id
 _symmetry_equiv_pos_as_xyz
  1  'x, y, z'
loop_
 _atom_site_type_symbol
 _atom_site_label
 _atom_site_symmetry_multiplicity
 _atom_site_fract_x
 _atom_site_fract_y
 _atom_site_fract_z
 _atom_site_occupancy
  Ac  Ac0  1  0.460233  0.471052  0.237818  1
  Ac  Ac1  1  0.750000  0.236879  0.263121  1
  Ac  Ac2  1  0.750000  0.014410  0.485590  1
  Ac  Ac3  1  0.237818  0.460233  0.471052  1
  Ac  Ac4  1  0.263121  0.750000  0.236879  1
  Ac  Ac5  1  0.039767  0.262182  0.028948  1
  Ac  Ac6  1  0.028948  0.039767  0.262182  1
  Ac  Ac7  1  0.485590  0.750000  0.014410  1
  Ac  Ac8  1  0.471052  0.237818  0.460233  1
  Ac  Ac9  1  0.014410  0.485590  0.750000  1
  Ac  Ac10  1  0.262182  0.028948  0.039767  1
  Ac  Ac11  1  0.236879  0.263121  0.750000  1
  Co  Co12  1  0.250000  0.250000  0.250000  1
  Au  Au13  1  0.499730  0.000270  0.250000  1
  Au  Au14  1  0.000270  0.250000  0.499730  1
  Au  Au15  1  0.250000  0.499730  0.000270  1
  I  I16  1  0.250000  0.759936  0.740064  1
  I  I17  1  0.524667  0.512673  0.762899  1
  I  I18  1  0.975333  0.737101  0.987327  1
  I  I19  1  0.740064  0.250000  0.759936  1
  I  I20  1  0.987327  0.975333  0.737101  1
  I  I21  1  0.250000  0.987008  0.512992  1
  I  I22  1  0.762899  0.524667  0.512673  1
  I  I23  1  0.512992  0.250000  0.987008  1
  I  I24  1  0.759936  0.740064  0.250000  1
  I  I25  1  0.737101  0.987327  0.975333  1
  I  I26  1  0.987008  0.512992  0.250000  1
  I  I27  1  0.512673  0.762899  0.524667  1
