# generated using pymatgen
data_CsNdSm2CBr6
_symmetry_space_group_name_H-M   'P 1'
_cell_length_a   9.01841412
_cell_length_b   9.05266670
_cell_length_c   9.68616360
_cell_angle_alpha   70.48028133
_cell_angle_beta   85.19577219
_cell_angle_gamma   89.20160509
_symmetry_Int_Tables_number   1
_chemical_formula_structural   CsNdSm2CBr6
_chemical_formula_sum   'Cs2 Nd2 Sm4 C2 Br12'
_cell_volume   742.63429415
_cell_formula_units_Z   2
loop_
 _symmetry_equiv_pos_site_id
 _symmetry_equiv_pos_as_xyz
  1  'x, y, z'
loop_
 _atom_site_type_symbol
 _atom_site_label
 _atom_site_symmetry_multiplicity
 _atom_site_fract_x
 _atom_site_fract_y
 _atom_site_fract_z
 _atom_site_occupancy
  Cs  Cs0  1  0.468840  0.360526  0.331096  1
  Cs  Cs1  1  0.531161  0.639474  0.668904  1
  Nd  Nd2  1  0.913957  0.737307  0.004770  1
  Nd  Nd3  1  0.086043  0.262693  0.995229  1
  Sm  Sm4  1  0.740794  0.086267  0.001081  1
  Sm  Sm5  1  0.259205  0.913733  0.998920  1
  Sm  Sm6  1  0.975053  0.883895  0.324752  1
  Sm  Sm7  1  0.024946  0.116105  0.675249  1
  C  C8  1  0.005850  0.027027  0.922563  1
  C  C9  1  0.994149  0.972973  0.077437  1
  Br  Br10  1  0.078587  0.193417  0.328845  1
  Br  Br11  1  0.921413  0.806583  0.671155  1
  Br  Br12  1  0.210797  0.593007  0.000866  1
  Br  Br13  1  0.789204  0.406993  0.999134  1
  Br  Br14  1  0.407228  0.199148  0.002052  1
  Br  Br15  1  0.592771  0.800853  0.997947  1
  Br  Br16  1  0.669204  0.999763  0.324826  1
  Br  Br17  1  0.330796  0.000237  0.675174  1
  Br  Br18  1  0.281627  0.773641  0.321203  1
  Br  Br19  1  0.718373  0.226359  0.678797  1
  Br  Br20  1  0.849526  0.587876  0.330406  1
  Br  Br21  1  0.150473  0.412124  0.669594  1
