# generated using pymatgen
data_Ti3BeGe2MoRh2
_symmetry_space_group_name_H-M   'P 1'
_cell_length_a   7.47607496
_cell_length_b   7.47607536
_cell_length_c   7.47607388
_cell_angle_alpha   126.21091148
_cell_angle_beta   126.88645416
_cell_angle_gamma   78.98941215
_symmetry_Int_Tables_number   1
_chemical_formula_structural   Ti3BeGe2MoRh2
_chemical_formula_sum   'Ti6 Be2 Ge4 Mo2 Rh4'
_cell_volume   260.84582878
_cell_formula_units_Z   2
loop_
 _symmetry_equiv_pos_site_id
 _symmetry_equiv_pos_as_xyz
  1  'x, y, z'
loop_
 _atom_site_type_symbol
 _atom_site_label
 _atom_site_symmetry_multiplicity
 _atom_site_fract_x
 _atom_site_fract_y
 _atom_site_fract_z
 _atom_site_occupancy
  Ti  Ti0  1  0.944092  0.732631  0.288538  1
  Ti  Ti1  1  0.055908  0.344448  0.788538  1
  Ti  Ti2  1  0.247373  0.149313  0.401940  1
  Ti  Ti3  1  0.752627  0.154569  0.901940  1
  Ti  Ti4  1  0.563405  0.358016  0.294610  1
  Ti  Ti5  1  0.436595  0.731204  0.794610  1
  Be  Be6  1  0.761770  0.775394  0.513624  1
  Be  Be7  1  0.238230  0.751854  0.013624  1
  Ge  Ge8  1  0.332644  0.069205  0.743008  1
  Ge  Ge9  1  0.667356  0.410364  0.736561  1
  Ge  Ge10  1  0.173803  0.410364  0.243008  1
  Ge  Ge11  1  0.826197  0.069205  0.236561  1
  Mo  Mo12  1  0.500000  0.503058  0.003058  1
  Mo  Mo13  1  0.000000  0.503058  0.503058  1
  Rh  Rh14  1  0.137951  0.991488  0.885325  1
  Rh  Rh15  1  0.862049  0.747373  0.853536  1
  Rh  Rh16  1  0.393837  0.747373  0.385325  1
  Rh  Rh17  1  0.606163  0.991488  0.353536  1
