# generated using pymatgen
data_TaTi6Re12Mo5
_symmetry_space_group_name_H-M   'P 1'
_cell_length_a   4.42831600
_cell_length_b   6.27427600
_cell_length_c   13.33220100
_cell_angle_alpha   90.00007521
_cell_angle_beta   90.00001724
_cell_angle_gamma   89.99996880
_symmetry_Int_Tables_number   1
_chemical_formula_structural   TaTi6Re12Mo5
_chemical_formula_sum   'Ta1 Ti6 Re12 Mo5'
_cell_volume   370.42822937
_cell_formula_units_Z   1
loop_
 _symmetry_equiv_pos_site_id
 _symmetry_equiv_pos_as_xyz
  1  'x, y, z'
loop_
 _atom_site_type_symbol
 _atom_site_label
 _atom_site_symmetry_multiplicity
 _atom_site_fract_x
 _atom_site_fract_y
 _atom_site_fract_z
 _atom_site_occupancy
  Ta  Ta0  1  0.000000  0.000000  0.000001  1
  Ti  Ti1  1  0.999999  0.500000  0.000000  1
  Ti  Ti2  1  0.499930  0.000000  0.167096  1
  Ti  Ti3  1  0.999925  0.499999  0.333165  1
  Ti  Ti4  1  0.500000  0.000000  0.500000  1
  Ti  Ti5  1  0.000074  0.500002  0.666834  1
  Ti  Ti6  1  0.500070  0.999999  0.832903  1
  Re  Re7  1  0.500001  0.252764  0.999999  1
  Re  Re8  1  0.500001  0.747233  0.000000  1
  Re  Re9  1  0.999930  0.251775  0.168662  1
  Re  Re10  1  0.999929  0.748225  0.168662  1
  Re  Re11  1  0.499927  0.249184  0.334021  1
  Re  Re12  1  0.499926  0.750817  0.334021  1
  Re  Re13  1  0.000000  0.251403  0.500001  1
  Re  Re14  1  0.000001  0.748597  0.500001  1
  Re  Re15  1  0.500073  0.249182  0.665979  1
  Re  Re16  1  0.500072  0.750818  0.665979  1
  Re  Re17  1  0.000071  0.251775  0.831339  1
  Re  Re18  1  0.000071  0.748224  0.831339  1
  Mo  Mo19  1  0.499920  0.500000  0.166817  1
  Mo  Mo20  1  0.999923  0.000000  0.333693  1
  Mo  Mo21  1  0.500000  0.500000  0.499999  1
  Mo  Mo22  1  0.000077  0.000000  0.666306  1
  Mo  Mo23  1  0.500080  0.500000  0.833184  1
