# generated using pymatgen
data_YbSm2Tm(B6Os)2
_symmetry_space_group_name_H-M   'P 1'
_cell_length_a   3.67828400
_cell_length_b   9.15600236
_cell_length_c   11.57191845
_cell_angle_alpha   89.96796152
_cell_angle_beta   90.00000000
_cell_angle_gamma   90.00000000
_symmetry_Int_Tables_number   1
_chemical_formula_structural   YbSm2Tm(B6Os)2
_chemical_formula_sum   'Yb2 Sm4 Tm2 B24 Os4'
_cell_volume   389.72337105
_cell_formula_units_Z   2
loop_
 _symmetry_equiv_pos_site_id
 _symmetry_equiv_pos_as_xyz
  1  'x, y, z'
loop_
 _atom_site_type_symbol
 _atom_site_label
 _atom_site_symmetry_multiplicity
 _atom_site_fract_x
 _atom_site_fract_y
 _atom_site_fract_z
 _atom_site_occupancy
  Yb  Yb0  1  0.000000  0.942818  0.370427  1
  Yb  Yb1  1  0.000000  0.057182  0.629574  1
  Sm  Sm2  1  0.000000  0.321275  0.414493  1
  Sm  Sm3  1  0.000000  0.678725  0.585507  1
  Sm  Sm4  1  0.000000  0.822867  0.086602  1
  Sm  Sm5  1  0.000000  0.177133  0.913398  1
  Tm  Tm6  1  0.000000  0.443340  0.128563  1
  Tm  Tm7  1  0.000000  0.556660  0.871436  1
  B  B8  1  0.500000  0.555229  0.431104  1
  B  B9  1  0.500000  0.444771  0.568896  1
  B  B10  1  0.500000  0.055243  0.069014  1
  B  B11  1  0.500000  0.944757  0.930986  1
  B  B12  1  0.500000  0.750061  0.416974  1
  B  B13  1  0.500000  0.249939  0.583026  1
  B  B14  1  0.500000  0.249989  0.082253  1
  B  B15  1  0.500000  0.750011  0.917747  1
  B  B16  1  0.500000  0.790876  0.266548  1
  B  B17  1  0.500000  0.209124  0.733452  1
  B  B18  1  0.500000  0.290548  0.233543  1
  B  B19  1  0.500000  0.709451  0.766457  1
  B  B20  1  0.500000  0.629943  0.185855  1
  B  B21  1  0.500000  0.370057  0.814145  1
  B  B22  1  0.500000  0.129399  0.314416  1
  B  B23  1  0.500000  0.870601  0.685584  1
  B  B24  1  0.500000  0.984421  0.213811  1
  B  B25  1  0.500000  0.015579  0.786189  1
  B  B26  1  0.500000  0.483566  0.286537  1
  B  B27  1  0.500000  0.516434  0.713463  1
  B  B28  1  0.500000  0.601521  0.028063  1
  B  B29  1  0.500000  0.398479  0.971937  1
  B  B30  1  0.500000  0.097632  0.473033  1
  B  B31  1  0.500000  0.902368  0.526967  1
  Os  Os32  1  0.000000  0.637852  0.319262  1
  Os  Os33  1  0.000000  0.362148  0.680738  1
  Os  Os34  1  0.000000  0.139536  0.179345  1
  Os  Os35  1  0.000000  0.860464  0.820655  1
