# generated using pymatgen
data_La4Pr4Te(IrO8)3
_symmetry_space_group_name_H-M   'P 1'
_cell_length_a   5.52222294
_cell_length_b   9.52990459
_cell_length_c   10.31341825
_cell_angle_alpha   89.88852372
_cell_angle_beta   89.90635417
_cell_angle_gamma   89.98404831
_symmetry_Int_Tables_number   1
_chemical_formula_structural   La4Pr4Te(IrO8)3
_chemical_formula_sum   'La4 Pr4 Te1 Ir3 O24'
_cell_volume   542.75483450
_cell_formula_units_Z   1
loop_
 _symmetry_equiv_pos_site_id
 _symmetry_equiv_pos_as_xyz
  1  'x, y, z'
loop_
 _atom_site_type_symbol
 _atom_site_label
 _atom_site_symmetry_multiplicity
 _atom_site_fract_x
 _atom_site_fract_y
 _atom_site_fract_z
 _atom_site_occupancy
  La  La0  1  0.033166  0.219856  0.135756  1
  La  La1  1  0.469814  0.781743  0.638958  1
  La  La2  1  0.967794  0.721196  0.360962  1
  La  La3  1  0.533859  0.282967  0.862019  1
  Pr  Pr4  1  0.025957  0.100619  0.540621  1
  Pr  Pr5  1  0.475450  0.900001  0.039433  1
  Pr  Pr6  1  0.975225  0.603467  0.961996  1
  Pr  Pr7  1  0.524169  0.395853  0.455876  1
  Te  Te8  1  0.039754  0.494114  0.641612  1
  Ir  Ir9  1  0.542707  0.003399  0.359197  1
  Ir  Ir10  1  0.958788  0.997395  0.859984  1
  Ir  Ir11  1  0.458693  0.504317  0.139866  1
  O  O12  1  0.430610  0.149210  0.478508  1
  O  O13  1  0.069534  0.850677  0.979763  1
  O  O14  1  0.567357  0.652454  0.021440  1
  O  O15  1  0.926827  0.348396  0.522422  1
  O  O16  1  0.727313  0.391987  0.064665  1
  O  O17  1  0.775807  0.607719  0.564411  1
  O  O18  1  0.277126  0.888305  0.436002  1
  O  O19  1  0.225423  0.111112  0.935687  1
  O  O20  1  0.253960  0.414399  0.003897  1
  O  O21  1  0.243860  0.583203  0.505847  1
  O  O22  1  0.749357  0.912860  0.494874  1
  O  O23  1  0.752388  0.088089  0.995511  1
  O  O24  1  0.186655  0.629510  0.177792  1
  O  O25  1  0.308745  0.364582  0.673432  1
  O  O26  1  0.812908  0.131513  0.323915  1
  O  O27  1  0.687428  0.870233  0.824419  1
  O  O28  1  0.337864  0.057201  0.217575  1
  O  O29  1  0.162620  0.943187  0.717820  1
  O  O30  1  0.659737  0.558578  0.283062  1
  O  O31  1  0.836565  0.444938  0.786949  1
  O  O32  1  0.329898  0.359846  0.253152  1
  O  O33  1  0.171958  0.636828  0.754990  1
  O  O34  1  0.673541  0.862396  0.243325  1
  O  O35  1  0.827143  0.137851  0.744261  1
