# generated using pymatgen
data_KMoF7
_symmetry_space_group_name_H-M   'P 1'
_cell_length_a   10.54661900
_cell_length_b   10.54661900
_cell_length_c   10.54661900
_cell_angle_alpha   90.00000000
_cell_angle_beta   90.00000000
_cell_angle_gamma   90.00000000
_symmetry_Int_Tables_number   1
_chemical_formula_structural   KMoF7
_chemical_formula_sum   'K8 Mo8 F56'
_cell_volume   1173.11279550
_cell_formula_units_Z   8
loop_
 _symmetry_equiv_pos_site_id
 _symmetry_equiv_pos_as_xyz
  1  'x, y, z'
loop_
 _atom_site_type_symbol
 _atom_site_label
 _atom_site_symmetry_multiplicity
 _atom_site_fract_x
 _atom_site_fract_y
 _atom_site_fract_z
 _atom_site_occupancy
  K  K0  1  0.000000  0.500000  0.000000  1
  K  K1  1  0.000000  0.000000  0.500000  1
  K  K2  1  0.500000  0.500000  0.500000  1
  K  K3  1  0.500000  0.000000  0.000000  1
  K  K4  1  0.000000  0.000000  0.000000  1
  K  K5  1  0.000000  0.500000  0.500000  1
  K  K6  1  0.500000  0.000000  0.500000  1
  K  K7  1  0.500000  0.500000  0.000000  1
  Mo  Mo8  1  0.776530  0.223470  0.723470  1
  Mo  Mo9  1  0.223470  0.723470  0.776530  1
  Mo  Mo10  1  0.723470  0.776530  0.223470  1
  Mo  Mo11  1  0.276530  0.276530  0.276530  1
  Mo  Mo12  1  0.223470  0.776530  0.276530  1
  Mo  Mo13  1  0.776530  0.276530  0.223470  1
  Mo  Mo14  1  0.276530  0.223470  0.776530  1
  Mo  Mo15  1  0.723470  0.723470  0.723470  1
  F  F16  1  0.890274  0.350499  0.785331  1
  F  F17  1  0.109726  0.850499  0.714669  1
  F  F18  1  0.609726  0.649501  0.285331  1
  F  F19  1  0.390274  0.149501  0.214669  1
  F  F20  1  0.785331  0.890274  0.350499  1
  F  F21  1  0.714669  0.109726  0.850499  1
  F  F22  1  0.285331  0.609726  0.649501  1
  F  F23  1  0.214669  0.390274  0.149501  1
  F  F24  1  0.350499  0.785331  0.890274  1
  F  F25  1  0.850499  0.714669  0.109726  1
  F  F26  1  0.649501  0.285331  0.609726  1
  F  F27  1  0.149501  0.214669  0.390274  1
  F  F28  1  0.109726  0.649501  0.214669  1
  F  F29  1  0.890274  0.149501  0.285331  1
  F  F30  1  0.390274  0.350499  0.714669  1
  F  F31  1  0.609726  0.850499  0.785331  1
  F  F32  1  0.214669  0.109726  0.649501  1
  F  F33  1  0.285331  0.890274  0.149501  1
  F  F34  1  0.714669  0.390274  0.350499  1
  F  F35  1  0.785331  0.609726  0.850499  1
  F  F36  1  0.649501  0.214669  0.109726  1
  F  F37  1  0.149501  0.285331  0.890274  1
  F  F38  1  0.350499  0.714669  0.390274  1
  F  F39  1  0.850499  0.785331  0.609726  1
  F  F40  1  0.927070  0.122234  0.760987  1
  F  F41  1  0.072930  0.622234  0.739013  1
  F  F42  1  0.572930  0.877766  0.260987  1
  F  F43  1  0.427070  0.377766  0.239013  1
  F  F44  1  0.760987  0.927070  0.122234  1
  F  F45  1  0.739013  0.072930  0.622234  1
  F  F46  1  0.260987  0.572930  0.877766  1
  F  F47  1  0.239013  0.427070  0.377766  1
  F  F48  1  0.122234  0.760987  0.927070  1
  F  F49  1  0.622234  0.739013  0.072930  1
  F  F50  1  0.877766  0.260987  0.572930  1
  F  F51  1  0.377766  0.239013  0.427070  1
  F  F52  1  0.072930  0.877766  0.239013  1
  F  F53  1  0.927070  0.377766  0.260987  1
  F  F54  1  0.427070  0.122234  0.739013  1
  F  F55  1  0.572930  0.622234  0.760987  1
  F  F56  1  0.239013  0.072930  0.877766  1
  F  F57  1  0.260987  0.927070  0.377766  1
  F  F58  1  0.739013  0.427070  0.122234  1
  F  F59  1  0.760987  0.572930  0.622234  1
  F  F60  1  0.877766  0.239013  0.072930  1
  F  F61  1  0.377766  0.260987  0.927070  1
  F  F62  1  0.122234  0.739013  0.427070  1
  F  F63  1  0.622234  0.760987  0.572930  1
  F  F64  1  0.671620  0.328380  0.828380  1
  F  F65  1  0.328380  0.828380  0.671620  1
  F  F66  1  0.828380  0.671620  0.328380  1
  F  F67  1  0.171620  0.171620  0.171620  1
  F  F68  1  0.328380  0.671620  0.171620  1
  F  F69  1  0.671620  0.171620  0.328380  1
  F  F70  1  0.171620  0.328380  0.671620  1
  F  F71  1  0.828380  0.828380  0.828380  1
