# generated using pymatgen
data_HoSi4(PdRh2)2
_symmetry_space_group_name_H-M   'P 1'
_cell_length_a   7.08530637
_cell_length_b   7.13548811
_cell_length_c   3.77193500
_cell_angle_alpha   90.00000000
_cell_angle_beta   90.00000000
_cell_angle_gamma   120.23455902
_symmetry_Int_Tables_number   1
_chemical_formula_structural   HoSi4(PdRh2)2
_chemical_formula_sum   'Ho1 Si4 Pd2 Rh4'
_cell_volume   164.75773247
_cell_formula_units_Z   1
loop_
 _symmetry_equiv_pos_site_id
 _symmetry_equiv_pos_as_xyz
  1  'x, y, z'
loop_
 _atom_site_type_symbol
 _atom_site_label
 _atom_site_symmetry_multiplicity
 _atom_site_fract_x
 _atom_site_fract_y
 _atom_site_fract_z
 _atom_site_occupancy
  Ho  Ho0  1  0.994136  0.997068  0.000000  1
  Si  Si1  1  0.342520  0.671260  0.000000  1
  Si  Si2  1  0.403757  0.201878  0.499999  1
  Si  Si3  1  0.795913  0.195956  0.499999  1
  Si  Si4  1  0.795913  0.599956  0.499999  1
  Pd  Pd5  1  0.195753  0.391880  0.499999  1
  Pd  Pd6  1  0.195753  0.803871  0.499999  1
  Rh  Rh7  1  0.534567  0.067779  0.000000  1
  Rh  Rh8  1  0.935677  0.467839  0.000000  1
  Rh  Rh9  1  0.534568  0.466787  0.000000  1
  Rh  Rh10  1  0.604779  0.802388  0.499999  1
