# generated using pymatgen
data_Li6Ta5SnRh12
_symmetry_space_group_name_H-M   'P 1'
_cell_length_a   4.36594100
_cell_length_b   6.13433900
_cell_length_c   13.04480300
_cell_angle_alpha   90.00007689
_cell_angle_beta   90.00078900
_cell_angle_gamma   90.00000000
_symmetry_Int_Tables_number   1
_chemical_formula_structural   Li6Ta5SnRh12
_chemical_formula_sum   'Li6 Ta5 Sn1 Rh12'
_cell_volume   349.36802912
_cell_formula_units_Z   1
loop_
 _symmetry_equiv_pos_site_id
 _symmetry_equiv_pos_as_xyz
  1  'x, y, z'
loop_
 _atom_site_type_symbol
 _atom_site_label
 _atom_site_symmetry_multiplicity
 _atom_site_fract_x
 _atom_site_fract_y
 _atom_site_fract_z
 _atom_site_occupancy
  Li  Li0  1  0.000000  0.499997  0.000001  1
  Li  Li1  1  0.499821  0.000005  0.166719  1
  Li  Li2  1  0.999846  0.499996  0.332930  1
  Li  Li3  1  0.500000  0.000000  0.500000  1
  Li  Li4  1  0.000155  0.500003  0.667070  1
  Li  Li5  1  0.500180  0.999999  0.833281  1
  Ta  Ta6  1  0.499867  0.500000  0.165696  1
  Ta  Ta7  1  0.999885  0.999996  0.333587  1
  Ta  Ta8  1  0.500001  0.500004  0.500002  1
  Ta  Ta9  1  0.000117  0.000000  0.666415  1
  Ta  Ta10  1  0.500132  0.499998  0.834302  1
  Sn  Sn11  1  0.000000  0.000001  0.000000  1
  Rh  Rh12  1  0.499999  0.255966  0.999998  1
  Rh  Rh13  1  0.499999  0.744034  0.999999  1
  Rh  Rh14  1  0.999866  0.251967  0.169037  1
  Rh  Rh15  1  0.999866  0.748033  0.169039  1
  Rh  Rh16  1  0.499878  0.249787  0.333694  1
  Rh  Rh17  1  0.499876  0.750212  0.333696  1
  Rh  Rh18  1  0.000001  0.249833  0.500002  1
  Rh  Rh19  1  0.000000  0.750168  0.500000  1
  Rh  Rh20  1  0.500124  0.249787  0.666306  1
  Rh  Rh21  1  0.500125  0.750215  0.666305  1
  Rh  Rh22  1  0.000134  0.251970  0.830960  1
  Rh  Rh23  1  0.000134  0.748030  0.830960  1
