# generated using pymatgen
data_Pr3Cd3Si2Au
_symmetry_space_group_name_H-M   'P 1'
_cell_length_a   7.50165800
_cell_length_b   7.50165765
_cell_length_c   4.45385700
_cell_angle_alpha   90.00000000
_cell_angle_beta   90.00000000
_cell_angle_gamma   120.00000152
_symmetry_Int_Tables_number   1
_chemical_formula_structural   Pr3Cd3Si2Au
_chemical_formula_sum   'Pr3 Cd3 Si2 Au1'
_cell_volume   217.06079820
_cell_formula_units_Z   1
loop_
 _symmetry_equiv_pos_site_id
 _symmetry_equiv_pos_as_xyz
  1  'x, y, z'
loop_
 _atom_site_type_symbol
 _atom_site_label
 _atom_site_symmetry_multiplicity
 _atom_site_fract_x
 _atom_site_fract_y
 _atom_site_fract_z
 _atom_site_occupancy
  Pr  Pr0  1  0.586537  0.000000  0.000000  1
  Pr  Pr1  1  0.000000  0.586537  0.000000  1
  Pr  Pr2  1  0.413463  0.413463  0.000000  1
  Cd  Cd3  1  0.251472  0.000000  0.500000  1
  Cd  Cd4  1  0.000000  0.251472  0.500000  1
  Cd  Cd5  1  0.748528  0.748528  0.500000  1
  Si  Si6  1  0.333333  0.666667  0.500000  1
  Si  Si7  1  0.666667  0.333333  0.500000  1
  Au  Au8  1  0.000000  0.000000  0.000000  1
