# generated using pymatgen
data_Hf2Mg(TcP)3
_symmetry_space_group_name_H-M   'P 1'
_cell_length_a   6.84693986
_cell_length_b   6.70561530
_cell_length_c   3.38561700
_cell_angle_alpha   90.00000000
_cell_angle_beta   90.00000000
_cell_angle_gamma   119.31954492
_symmetry_Int_Tables_number   1
_chemical_formula_structural   Hf2Mg(TcP)3
_chemical_formula_sum   'Hf2 Mg1 Tc3 P3'
_cell_volume   135.53166974
_cell_formula_units_Z   1
loop_
 _symmetry_equiv_pos_site_id
 _symmetry_equiv_pos_as_xyz
  1  'x, y, z'
loop_
 _atom_site_type_symbol
 _atom_site_label
 _atom_site_symmetry_multiplicity
 _atom_site_fract_x
 _atom_site_fract_y
 _atom_site_fract_z
 _atom_site_occupancy
  Hf  Hf0  1  0.406238  0.400616  0.500000  1
  Hf  Hf1  1  0.593762  0.994378  0.500000  1
  Mg  Mg2  1  0.000000  0.599990  0.500000  1
  Tc  Tc3  1  0.250852  0.000503  0.000000  1
  Tc  Tc4  1  0.749148  0.749651  0.000000  1
  Tc  Tc5  1  0.000000  0.253947  0.000000  1
  P  P6  1  0.671385  0.335551  0.000000  1
  P  P7  1  0.328615  0.664167  0.000000  1
  P  P8  1  0.000000  0.001196  0.500000  1
