# generated using pymatgen
data_SrTb4Dy2PtI12
_symmetry_space_group_name_H-M   'P 1'
_cell_length_a   9.84655242
_cell_length_b   9.84966080
_cell_length_c   9.84843901
_cell_angle_alpha   106.47120059
_cell_angle_beta   106.45883416
_cell_angle_gamma   106.46437781
_symmetry_Int_Tables_number   1
_chemical_formula_structural   SrTb4Dy2PtI12
_chemical_formula_sum   'Sr1 Tb4 Dy2 Pt1 I12'
_cell_volume   806.79213372
_cell_formula_units_Z   1
loop_
 _symmetry_equiv_pos_site_id
 _symmetry_equiv_pos_as_xyz
  1  'x, y, z'
loop_
 _atom_site_type_symbol
 _atom_site_label
 _atom_site_symmetry_multiplicity
 _atom_site_fract_x
 _atom_site_fract_y
 _atom_site_fract_z
 _atom_site_occupancy
  Sr  Sr0  1  0.500003  0.499980  0.500004  1
  Tb  Tb1  1  0.023753  0.299697  0.096387  1
  Tb  Tb2  1  0.903969  0.976485  0.700388  1
  Tb  Tb3  1  0.700365  0.903766  0.976572  1
  Tb  Tb4  1  0.976647  0.700441  0.903970  1
  Dy  Dy5  1  0.096057  0.023625  0.298773  1
  Dy  Dy6  1  0.298837  0.095913  0.023725  1
  Pt  Pt7  1  0.000377  0.000135  0.000318  1
  I  I8  1  0.074079  0.677824  0.223479  1
  I  I9  1  0.223341  0.073998  0.677436  1
  I  I10  1  0.676988  0.223104  0.073924  1
  I  I11  1  0.926001  0.322570  0.776763  1
  I  I12  1  0.777388  0.926186  0.322663  1
  I  I13  1  0.322706  0.777389  0.926190  1
  I  I14  1  0.451717  0.137456  0.372138  1
  I  I15  1  0.372578  0.451760  0.137464  1
  I  I16  1  0.137632  0.372119  0.452238  1
  I  I17  1  0.547744  0.862350  0.627476  1
  I  I18  1  0.627456  0.547728  0.862353  1
  I  I19  1  0.862362  0.627472  0.547738  1
