# generated using pymatgen
data_Dy2TcB6
_symmetry_space_group_name_H-M   'P 1'
_cell_length_a   3.69082800
_cell_length_b   9.17009800
_cell_length_c   11.55722500
_cell_angle_alpha   90.00000000
_cell_angle_beta   90.00000000
_cell_angle_gamma   90.00000000
_symmetry_Int_Tables_number   1
_chemical_formula_structural   Dy2TcB6
_chemical_formula_sum   'Dy8 Tc4 B24'
_cell_volume   391.15722099
_cell_formula_units_Z   4
loop_
 _symmetry_equiv_pos_site_id
 _symmetry_equiv_pos_as_xyz
  1  'x, y, z'
loop_
 _atom_site_type_symbol
 _atom_site_label
 _atom_site_symmetry_multiplicity
 _atom_site_fract_x
 _atom_site_fract_y
 _atom_site_fract_z
 _atom_site_occupancy
  Dy  Dy0  1  0.000000  0.324144  0.414280  1
  Dy  Dy1  1  0.000000  0.675856  0.585720  1
  Dy  Dy2  1  0.000000  0.824144  0.085720  1
  Dy  Dy3  1  0.000000  0.175856  0.914280  1
  Dy  Dy4  1  0.000000  0.943029  0.369712  1
  Dy  Dy5  1  0.000000  0.056971  0.630288  1
  Dy  Dy6  1  0.000000  0.443029  0.130288  1
  Dy  Dy7  1  0.000000  0.556971  0.869712  1
  Tc  Tc8  1  0.000000  0.638873  0.320522  1
  Tc  Tc9  1  0.000000  0.361127  0.679478  1
  Tc  Tc10  1  0.000000  0.138873  0.179478  1
  Tc  Tc11  1  0.000000  0.861127  0.820522  1
  B  B12  1  0.500000  0.553475  0.432862  1
  B  B13  1  0.500000  0.446525  0.567138  1
  B  B14  1  0.500000  0.053475  0.067138  1
  B  B15  1  0.500000  0.946525  0.932862  1
  B  B16  1  0.500000  0.748489  0.418460  1
  B  B17  1  0.500000  0.251511  0.581540  1
  B  B18  1  0.500000  0.248489  0.081540  1
  B  B19  1  0.500000  0.751511  0.918460  1
  B  B20  1  0.500000  0.791897  0.265472  1
  B  B21  1  0.500000  0.208103  0.734528  1
  B  B22  1  0.500000  0.291897  0.234528  1
  B  B23  1  0.500000  0.708103  0.765472  1
  B  B24  1  0.500000  0.631017  0.185821  1
  B  B25  1  0.500000  0.368983  0.814179  1
  B  B26  1  0.500000  0.131017  0.314179  1
  B  B27  1  0.500000  0.868983  0.685821  1
  B  B28  1  0.500000  0.982489  0.211677  1
  B  B29  1  0.500000  0.017511  0.788323  1
  B  B30  1  0.500000  0.482489  0.288323  1
  B  B31  1  0.500000  0.517511  0.711677  1
  B  B32  1  0.500000  0.600677  0.028170  1
  B  B33  1  0.500000  0.399323  0.971830  1
  B  B34  1  0.500000  0.100677  0.471830  1
  B  B35  1  0.500000  0.899323  0.528170  1
