# generated using pymatgen
data_Na4HoBiO6
_symmetry_space_group_name_H-M   'P 1'
_cell_length_a   5.84049983
_cell_length_b   5.84043324
_cell_length_c   5.94287646
_cell_angle_alpha   99.56690215
_cell_angle_beta   99.56580742
_cell_angle_gamma   119.92532123
_symmetry_Int_Tables_number   1
_chemical_formula_structural   Na4HoBiO6
_chemical_formula_sum   'Na4 Ho1 Bi1 O6'
_cell_volume   165.72510651
_cell_formula_units_Z   1
loop_
 _symmetry_equiv_pos_site_id
 _symmetry_equiv_pos_as_xyz
  1  'x, y, z'
loop_
 _atom_site_type_symbol
 _atom_site_label
 _atom_site_symmetry_multiplicity
 _atom_site_fract_x
 _atom_site_fract_y
 _atom_site_fract_z
 _atom_site_occupancy
  Na  Na0  1  0.499546  0.500459  0.999996  1
  Na  Na1  1  0.004736  0.995269  0.499998  1
  Na  Na2  1  0.657877  0.342130  0.500003  1
  Na  Na3  1  0.339520  0.660493  0.499997  1
  Ho  Ho4  1  0.832803  0.167191  0.000009  1
  Bi  Bi5  1  0.167202  0.832792  0.999998  1
  O  O6  1  0.943929  0.587939  0.215703  1
  O  O7  1  0.559065  0.930265  0.220411  1
  O  O8  1  0.216759  0.203234  0.220045  1
  O  O9  1  0.796775  0.783238  0.779954  1
  O  O10  1  0.069725  0.440921  0.779589  1
  O  O11  1  0.412064  0.056067  0.784302  1
