# generated using pymatgen
data_TmHf3(SbRh5)2
_symmetry_space_group_name_H-M   'P 1'
_cell_length_a   4.16707900
_cell_length_b   5.68612471
_cell_length_c   11.12486040
_cell_angle_alpha   89.94261996
_cell_angle_beta   90.00000000
_cell_angle_gamma   90.00000000
_symmetry_Int_Tables_number   1
_chemical_formula_structural   TmHf3(SbRh5)2
_chemical_formula_sum   'Tm1 Hf3 Sb2 Rh10'
_cell_volume   263.59821600
_cell_formula_units_Z   1
loop_
 _symmetry_equiv_pos_site_id
 _symmetry_equiv_pos_as_xyz
  1  'x, y, z'
loop_
 _atom_site_type_symbol
 _atom_site_label
 _atom_site_symmetry_multiplicity
 _atom_site_fract_x
 _atom_site_fract_y
 _atom_site_fract_z
 _atom_site_occupancy
  Tm  Tm0  1  0.500000  0.176962  0.642329  1
  Hf  Hf1  1  0.500000  0.827445  0.356025  1
  Hf  Hf2  1  0.500000  0.674083  0.855098  1
  Hf  Hf3  1  0.500000  0.327722  0.142836  1
  Sb  Sb4  1  0.000000  0.499080  0.499190  1
  Sb  Sb5  1  0.000000  0.998755  0.000676  1
  Rh  Rh6  1  0.500000  0.199898  0.895195  1
  Rh  Rh7  1  0.500000  0.801442  0.111502  1
  Rh  Rh8  1  0.500000  0.693080  0.610965  1
  Rh  Rh9  1  0.500000  0.303995  0.383683  1
  Rh  Rh10  1  0.000000  0.438973  0.750458  1
  Rh  Rh11  1  0.000000  0.568553  0.254030  1
  Rh  Rh12  1  0.000000  0.991365  0.494321  1
  Rh  Rh13  1  0.000000  0.501042  0.001477  1
  Rh  Rh14  1  0.000000  0.068561  0.243556  1
  Rh  Rh15  1  0.000000  0.929045  0.758659  1
