# generated using pymatgen
data_Th3Mg2AlRu2Pt
_symmetry_space_group_name_H-M   'P 1'
_cell_length_a   7.46780161
_cell_length_b   7.40022539
_cell_length_c   4.06285500
_cell_angle_alpha   90.00000000
_cell_angle_beta   90.00000000
_cell_angle_gamma   119.70111632
_symmetry_Int_Tables_number   1
_chemical_formula_structural   Th3Mg2AlRu2Pt
_chemical_formula_sum   'Th3 Mg2 Al1 Ru2 Pt1'
_cell_volume   195.02927086
_cell_formula_units_Z   1
loop_
 _symmetry_equiv_pos_site_id
 _symmetry_equiv_pos_as_xyz
  1  'x, y, z'
loop_
 _atom_site_type_symbol
 _atom_site_label
 _atom_site_symmetry_multiplicity
 _atom_site_fract_x
 _atom_site_fract_y
 _atom_site_fract_z
 _atom_site_occupancy
  Th  Th0  1  0.414705  0.422672  0.500000  1
  Th  Th1  1  0.585295  0.007967  0.500000  1
  Th  Th2  1  0.000000  0.569701  0.500000  1
  Mg  Mg3  1  0.764549  0.764819  0.000000  1
  Mg  Mg4  1  0.235451  0.000270  0.000000  1
  Al  Al5  1  0.000000  0.238690  0.000000  1
  Ru  Ru6  1  0.678876  0.327737  0.000000  1
  Ru  Ru7  1  0.321124  0.648862  0.000000  1
  Pt  Pt8  1  0.000000  0.019281  0.500000  1
