# generated using pymatgen
data_Nd2PaGa6Co8Ni
_symmetry_space_group_name_H-M   'P 1'
_cell_length_a   8.68884994
_cell_length_b   8.68884906
_cell_length_c   4.20829100
_cell_angle_alpha   90.00000000
_cell_angle_beta   90.00000000
_cell_angle_gamma   120.33412102
_symmetry_Int_Tables_number   1
_chemical_formula_structural   Nd2PaGa6Co8Ni
_chemical_formula_sum   'Nd2 Pa1 Ga6 Co8 Ni1'
_cell_volume   274.21353204
_cell_formula_units_Z   1
loop_
 _symmetry_equiv_pos_site_id
 _symmetry_equiv_pos_as_xyz
  1  'x, y, z'
loop_
 _atom_site_type_symbol
 _atom_site_label
 _atom_site_symmetry_multiplicity
 _atom_site_fract_x
 _atom_site_fract_y
 _atom_site_fract_z
 _atom_site_occupancy
  Nd  Nd0  1  0.332741  0.667492  0.500000  1
  Nd  Nd1  1  0.667492  0.332741  0.500000  1
  Pa  Pa2  1  0.998406  0.998406  0.000000  1
  Ga  Ga3  1  0.493266  0.001160  0.000000  1
  Ga  Ga4  1  0.001160  0.493266  0.000000  1
  Ga  Ga5  1  0.506498  0.506498  0.000000  1
  Ga  Ga6  1  0.725318  0.001239  0.500000  1
  Ga  Ga7  1  0.001239  0.725318  0.500000  1
  Ga  Ga8  1  0.273112  0.273112  0.500000  1
  Co  Co9  1  0.173069  0.343639  0.000000  1
  Co  Co10  1  0.654967  0.828969  0.000000  1
  Co  Co11  1  0.171339  0.827884  0.000000  1
  Co  Co12  1  0.828969  0.654967  0.000000  1
  Co  Co13  1  0.827884  0.171339  0.000000  1
  Co  Co14  1  0.343639  0.173069  0.000000  1
  Co  Co15  1  0.295599  0.000643  0.500000  1
  Co  Co16  1  0.000643  0.295599  0.500000  1
  Ni  Ni17  1  0.704660  0.704660  0.500000  1
