# generated using pymatgen
data_La7Y(Si3Au)4
_symmetry_space_group_name_H-M   'P 1'
_cell_length_a   8.49101600
_cell_length_b   8.49101580
_cell_length_c   8.85988500
_cell_angle_alpha   90.00000000
_cell_angle_beta   90.00000000
_cell_angle_gamma   119.95807470
_symmetry_Int_Tables_number   1
_chemical_formula_structural   La7Y(Si3Au)4
_chemical_formula_sum   'La7 Y1 Si12 Au4'
_cell_volume   553.42827635
_cell_formula_units_Z   1
loop_
 _symmetry_equiv_pos_site_id
 _symmetry_equiv_pos_as_xyz
  1  'x, y, z'
loop_
 _atom_site_type_symbol
 _atom_site_label
 _atom_site_symmetry_multiplicity
 _atom_site_fract_x
 _atom_site_fract_y
 _atom_site_fract_z
 _atom_site_occupancy
  La  La0  1  0.499859  0.500061  0.250000  1
  La  La1  1  0.000264  0.499948  0.750000  1
  La  La2  1  0.000160  0.500096  0.250000  1
  La  La3  1  0.499769  0.999480  0.750000  1
  La  La4  1  0.500032  0.999864  0.250000  1
  La  La5  1  0.999964  0.000220  0.750000  1
  La  La6  1  0.999825  0.000063  0.250000  1
  Y  Y7  1  0.499932  0.500138  0.750000  1
  Si  Si8  1  0.836094  0.163906  0.998961  1
  Si  Si9  1  0.163941  0.836065  0.999230  1
  Si  Si10  1  0.327303  0.164096  0.998775  1
  Si  Si11  1  0.163941  0.836065  0.500770  1
  Si  Si12  1  0.672703  0.835902  0.999053  1
  Si  Si13  1  0.836094  0.163906  0.501039  1
  Si  Si14  1  0.835915  0.672716  0.998790  1
  Si  Si15  1  0.672703  0.835902  0.500947  1
  Si  Si16  1  0.164104  0.327306  0.999035  1
  Si  Si17  1  0.327303  0.164096  0.501225  1
  Si  Si18  1  0.164104  0.327306  0.500965  1
  Si  Si19  1  0.835915  0.672716  0.501210  1
  Au  Au20  1  0.664991  0.335066  0.995728  1
  Au  Au21  1  0.335047  0.665008  0.996192  1
  Au  Au22  1  0.335047  0.665008  0.503808  1
  Au  Au23  1  0.664991  0.335066  0.504272  1
