# generated using pymatgen
data_Li3Pr3Hg2Pt
_symmetry_space_group_name_H-M   'P 1'
_cell_length_a   7.97040500
_cell_length_b   7.97040320
_cell_length_c   4.01308300
_cell_angle_alpha   90.00000000
_cell_angle_beta   90.00000000
_cell_angle_gamma   119.99999501
_symmetry_Int_Tables_number   1
_chemical_formula_structural   Li3Pr3Hg2Pt
_chemical_formula_sum   'Li3 Pr3 Hg2 Pt1'
_cell_volume   220.78495571
_cell_formula_units_Z   1
loop_
 _symmetry_equiv_pos_site_id
 _symmetry_equiv_pos_as_xyz
  1  'x, y, z'
loop_
 _atom_site_type_symbol
 _atom_site_label
 _atom_site_symmetry_multiplicity
 _atom_site_fract_x
 _atom_site_fract_y
 _atom_site_fract_z
 _atom_site_occupancy
  Li  Li0  1  0.753602  0.751420  0.000000  1
  Li  Li1  1  0.997818  0.246398  0.000000  1
  Li  Li2  1  0.248580  0.002182  0.000000  1
  Pr  Pr3  1  0.574568  0.975891  0.500000  1
  Pr  Pr4  1  0.401323  0.425432  0.500000  1
  Pr  Pr5  1  0.024109  0.598677  0.500000  1
  Hg  Hg6  1  0.000000  0.000000  0.500000  1
  Hg  Hg7  1  0.666667  0.333333  0.000000  1
  Pt  Pt8  1  0.333333  0.666667  0.000000  1
