# generated using pymatgen
data_Cs2AsAuS4
_symmetry_space_group_name_H-M   'P 1'
_cell_length_a   7.37515300
_cell_length_b   7.28947075
_cell_length_c   10.27728976
_cell_angle_alpha   84.56421150
_cell_angle_beta   90.00000000
_cell_angle_gamma   90.00000000
_symmetry_Int_Tables_number   1
_chemical_formula_structural   Cs2AsAuS4
_chemical_formula_sum   'Cs4 As2 Au2 S8'
_cell_volume   550.03230943
_cell_formula_units_Z   2
loop_
 _symmetry_equiv_pos_site_id
 _symmetry_equiv_pos_as_xyz
  1  'x, y, z'
loop_
 _atom_site_type_symbol
 _atom_site_label
 _atom_site_symmetry_multiplicity
 _atom_site_fract_x
 _atom_site_fract_y
 _atom_site_fract_z
 _atom_site_occupancy
  Cs  Cs0  1  0.250000  0.800323  0.531589  1
  Cs  Cs1  1  0.750000  0.536186  0.833207  1
  Cs  Cs2  1  0.750000  0.199677  0.468411  1
  Cs  Cs3  1  0.250000  0.463814  0.166793  1
  As  As4  1  0.750000  0.738643  0.270980  1
  As  As5  1  0.250000  0.261357  0.729020  1
  Au  Au6  1  0.000000  0.000000  0.000000  1
  Au  Au7  1  0.500000  0.000000  0.000000  1
  S  S8  1  0.250000  0.301086  0.517702  1
  S  S9  1  0.750000  0.698914  0.482298  1
  S  S10  1  0.250000  0.513724  0.823129  1
  S  S11  1  0.750000  0.486276  0.176871  1
  S  S12  1  0.502239  0.094651  0.778271  1
  S  S13  1  0.997761  0.094651  0.778271  1
  S  S14  1  0.497761  0.905349  0.221729  1
  S  S15  1  0.002239  0.905349  0.221729  1
