# generated using pymatgen
data_Dy3Th3(Al3Ru)8
_symmetry_space_group_name_H-M   'P 1'
_cell_length_a   8.88317400
_cell_length_b   8.88317370
_cell_length_c   9.59246000
_cell_angle_alpha   90.00000000
_cell_angle_beta   90.00000000
_cell_angle_gamma   120.00000113
_symmetry_Int_Tables_number   1
_chemical_formula_structural   Dy3Th3(Al3Ru)8
_chemical_formula_sum   'Dy3 Th3 Al24 Ru8'
_cell_volume   655.53660375
_cell_formula_units_Z   1
loop_
 _symmetry_equiv_pos_site_id
 _symmetry_equiv_pos_as_xyz
  1  'x, y, z'
loop_
 _atom_site_type_symbol
 _atom_site_label
 _atom_site_symmetry_multiplicity
 _atom_site_fract_x
 _atom_site_fract_y
 _atom_site_fract_z
 _atom_site_occupancy
  Dy  Dy0  1  0.806452  0.193548  0.750000  1
  Dy  Dy1  1  0.806452  0.612904  0.750000  1
  Dy  Dy2  1  0.387096  0.193548  0.750000  1
  Th  Th3  1  0.195722  0.804278  0.250000  1
  Th  Th4  1  0.195722  0.391444  0.250000  1
  Th  Th5  1  0.608556  0.804278  0.250000  1
  Al  Al6  1  0.565029  0.434971  0.250000  1
  Al  Al7  1  0.565029  0.130057  0.250000  1
  Al  Al8  1  0.869943  0.434971  0.250000  1
  Al  Al9  1  0.441101  0.558899  0.750000  1
  Al  Al10  1  0.441101  0.882201  0.750000  1
  Al  Al11  1  0.117799  0.558899  0.750000  1
  Al  Al12  1  0.326738  0.163369  0.426687  1
  Al  Al13  1  0.836631  0.163369  0.426687  1
  Al  Al14  1  0.836631  0.673262  0.426687  1
  Al  Al15  1  0.676892  0.838446  0.582762  1
  Al  Al16  1  0.161554  0.838446  0.582762  1
  Al  Al17  1  0.161554  0.323108  0.582762  1
  Al  Al18  1  0.676892  0.838446  0.917238  1
  Al  Al19  1  0.161554  0.838446  0.917238  1
  Al  Al20  1  0.161554  0.323108  0.917238  1
  Al  Al21  1  0.326738  0.163369  0.073313  1
  Al  Al22  1  0.836631  0.163369  0.073313  1
  Al  Al23  1  0.836631  0.673262  0.073313  1
  Al  Al24  1  0.666667  0.333333  0.518421  1
  Al  Al25  1  0.333333  0.666667  0.495026  1
  Al  Al26  1  0.333333  0.666667  0.004974  1
  Al  Al27  1  0.666667  0.333333  0.981579  1
  Al  Al28  1  0.000000  0.000000  0.250000  1
  Al  Al29  1  0.000000  0.000000  0.750000  1
  Ru  Ru30  1  0.000000  0.000000  0.501494  1
  Ru  Ru31  1  0.000000  0.000000  0.998506  1
  Ru  Ru32  1  0.499564  0.500436  0.498066  1
  Ru  Ru33  1  0.499564  0.999128  0.498066  1
  Ru  Ru34  1  0.000872  0.500436  0.498066  1
  Ru  Ru35  1  0.499564  0.500436  0.001934  1
  Ru  Ru36  1  0.499564  0.999128  0.001934  1
  Ru  Ru37  1  0.000872  0.500436  0.001934  1
