# generated using pymatgen
data_PrNdAl20Ru3Rh
_symmetry_space_group_name_H-M   'P 1'
_cell_length_a   6.89680760
_cell_length_b   6.90440384
_cell_length_c   9.21030216
_cell_angle_alpha   90.14134147
_cell_angle_beta   90.08966570
_cell_angle_gamma   96.89177124
_symmetry_Int_Tables_number   1
_chemical_formula_structural   PrNdAl20Ru3Rh
_chemical_formula_sum   'Pr1 Nd1 Al20 Ru3 Rh1'
_cell_volume   435.40833741
_cell_formula_units_Z   1
loop_
 _symmetry_equiv_pos_site_id
 _symmetry_equiv_pos_as_xyz
  1  'x, y, z'
loop_
 _atom_site_type_symbol
 _atom_site_label
 _atom_site_symmetry_multiplicity
 _atom_site_fract_x
 _atom_site_fract_y
 _atom_site_fract_z
 _atom_site_occupancy
  Pr  Pr0  1  0.874816  0.124267  0.749742  1
  Nd  Nd1  1  0.125511  0.875484  0.250233  1
  Al  Al2  1  0.619593  0.376990  0.552135  1
  Al  Al3  1  0.380233  0.623178  0.447751  1
  Al  Al4  1  0.378031  0.622681  0.050673  1
  Al  Al5  1  0.621793  0.377495  0.949445  1
  Al  Al6  1  0.229044  0.227262  0.498983  1
  Al  Al7  1  0.771040  0.772644  0.500769  1
  Al  Al8  1  0.772394  0.773042  0.999694  1
  Al  Al9  1  0.227688  0.226872  0.000558  1
  Al  Al10  1  0.840626  0.159920  0.101050  1
  Al  Al11  1  0.159560  0.839894  0.899185  1
  Al  Al12  1  0.161468  0.840624  0.602871  1
  Al  Al13  1  0.838714  0.159176  0.396902  1
  Al  Al14  1  0.858897  0.589170  0.750836  1
  Al  Al15  1  0.141105  0.411102  0.249159  1
  Al  Al16  1  0.410512  0.140318  0.750559  1
  Al  Al17  1  0.589221  0.859689  0.249438  1
  Al  Al18  1  0.222806  0.482907  0.752852  1
  Al  Al19  1  0.777418  0.517371  0.247146  1
  Al  Al20  1  0.516989  0.779728  0.749732  1
  Al  Al21  1  0.482729  0.220045  0.250264  1
  Ru  Ru22  1  0.000024  0.500116  0.000147  1
  Ru  Ru23  1  0.499891  0.999975  0.000156  1
  Ru  Ru24  1  0.499884  0.999978  0.499838  1
  Rh  Rh25  1  0.000014  0.500072  0.499881  1
