# generated using pymatgen
data_Na20Hf3SiP12
_symmetry_space_group_name_H-M   'P 1'
_cell_length_a   7.42139092
_cell_length_b   8.19983045
_cell_length_c   15.68562774
_cell_angle_alpha   59.01670661
_cell_angle_beta   90.49981351
_cell_angle_gamma   90.16841285
_symmetry_Int_Tables_number   1
_chemical_formula_structural   Na20Hf3SiP12
_chemical_formula_sum   'Na20 Hf3 Si1 P12'
_cell_volume   818.30745699
_cell_formula_units_Z   1
loop_
 _symmetry_equiv_pos_site_id
 _symmetry_equiv_pos_as_xyz
  1  'x, y, z'
loop_
 _atom_site_type_symbol
 _atom_site_label
 _atom_site_symmetry_multiplicity
 _atom_site_fract_x
 _atom_site_fract_y
 _atom_site_fract_z
 _atom_site_occupancy
  Na  Na0  1  0.517680  0.559111  0.262552  1
  Na  Na1  1  0.011481  0.440896  0.248203  1
  Na  Na2  1  0.480892  0.440944  0.738860  1
  Na  Na3  1  0.993045  0.560582  0.759139  1
  Na  Na4  1  0.986464  0.922807  0.408438  1
  Na  Na5  1  0.476569  0.076430  0.089209  1
  Na  Na6  1  0.014816  0.080570  0.587706  1
  Na  Na7  1  0.515172  0.924878  0.908597  1
  Na  Na8  1  0.531050  0.248773  0.581176  1
  Na  Na9  1  0.029322  0.757244  0.915627  1
  Na  Na10  1  0.472835  0.743529  0.417796  1
  Na  Na11  1  0.976532  0.248417  0.082684  1
  Na  Na12  1  0.148930  0.834837  0.243593  1
  Na  Na13  1  0.655955  0.160463  0.262174  1
  Na  Na14  1  0.847672  0.163781  0.756381  1
  Na  Na15  1  0.348112  0.839841  0.739644  1
  Na  Na16  1  0.339142  0.159252  0.418570  1
  Na  Na17  1  0.840633  0.838756  0.085092  1
  Na  Na18  1  0.661993  0.847257  0.579739  1
  Na  Na19  1  0.159246  0.157236  0.917130  1
  Hf  Hf20  1  0.643322  0.509105  0.915099  1
  Hf  Hf21  1  0.133637  0.489662  0.578999  1
  Hf  Hf22  1  0.358407  0.489172  0.085929  1
  Si  Si23  1  0.863032  0.511691  0.418332  1
  P  P24  1  0.744996  0.248323  0.421105  1
  P  P25  1  0.239708  0.778044  0.081218  1
  P  P26  1  0.261532  0.774878  0.577925  1
  P  P27  1  0.761190  0.219298  0.920109  1
  P  P28  1  0.771536  0.795959  0.284184  1
  P  P29  1  0.264695  0.180499  0.231987  1
  P  P30  1  0.233650  0.183273  0.728376  1
  P  P31  1  0.738217  0.816237  0.768335  1
  P  P32  1  0.300205  0.481877  0.927904  1
  P  P33  1  0.795650  0.521538  0.561841  1
  P  P34  1  0.700917  0.516192  0.072664  1
  P  P35  1  0.181766  0.478645  0.423684  1
