# generated using pymatgen
data_Pr2Nd3ErTa2O14
_symmetry_space_group_name_H-M   'P 1'
_cell_length_a   6.67159004
_cell_length_b   6.64254026
_cell_length_c   7.70328400
_cell_angle_alpha   90.00000000
_cell_angle_beta   90.00000000
_cell_angle_gamma   108.72321731
_symmetry_Int_Tables_number   1
_chemical_formula_structural   Pr2Nd3ErTa2O14
_chemical_formula_sum   'Pr2 Nd3 Er1 Ta2 O14'
_cell_volume   323.31529583
_cell_formula_units_Z   1
loop_
 _symmetry_equiv_pos_site_id
 _symmetry_equiv_pos_as_xyz
  1  'x, y, z'
loop_
 _atom_site_type_symbol
 _atom_site_label
 _atom_site_symmetry_multiplicity
 _atom_site_fract_x
 _atom_site_fract_y
 _atom_site_fract_z
 _atom_site_occupancy
  Pr  Pr0  1  0.533356  0.526558  0.498539  1
  Pr  Pr1  1  0.533356  0.526558  0.001461  1
  Nd  Nd2  1  0.006956  0.462971  0.750000  1
  Nd  Nd3  1  0.532699  0.003698  0.750000  1
  Nd  Nd4  1  0.461642  0.003391  0.250000  1
  Er  Er5  1  0.003626  0.529285  0.250000  1
  Ta  Ta6  1  0.000758  0.001231  0.497379  1
  Ta  Ta7  1  0.000758  0.001231  0.002621  1
  O  O8  1  0.945112  0.057029  0.750000  1
  O  O9  1  0.058565  0.935750  0.250000  1
  O  O10  1  0.350470  0.634985  0.250000  1
  O  O11  1  0.643877  0.368340  0.750000  1
  O  O12  1  0.371177  0.632383  0.750000  1
  O  O13  1  0.647520  0.376514  0.250000  1
  O  O14  1  0.308372  0.069835  0.969373  1
  O  O15  1  0.678989  0.919623  0.472616  1
  O  O16  1  0.308372  0.069835  0.530627  1
  O  O17  1  0.678989  0.919623  0.027384  1
  O  O18  1  0.035520  0.300328  0.456754  1
  O  O19  1  0.932182  0.680250  0.977650  1
  O  O20  1  0.932182  0.680250  0.522350  1
  O  O21  1  0.035520  0.300328  0.043246  1
