# generated using pymatgen
data_CeEr3(AlPt3)6
_symmetry_space_group_name_H-M   'P 1'
_cell_length_a   7.70589849
_cell_length_b   7.69390187
_cell_length_c   10.24476726
_cell_angle_alpha   68.02767099
_cell_angle_beta   67.86109466
_cell_angle_gamma   59.82814345
_symmetry_Int_Tables_number   1
_chemical_formula_structural   CeEr3(AlPt3)6
_chemical_formula_sum   'Ce1 Er3 Al6 Pt18'
_cell_volume   473.27018204
_cell_formula_units_Z   1
loop_
 _symmetry_equiv_pos_site_id
 _symmetry_equiv_pos_as_xyz
  1  'x, y, z'
loop_
 _atom_site_type_symbol
 _atom_site_label
 _atom_site_symmetry_multiplicity
 _atom_site_fract_x
 _atom_site_fract_y
 _atom_site_fract_z
 _atom_site_occupancy
  Ce  Ce0  1  0.415028  0.245247  0.250267  1
  Er  Er1  1  0.585874  0.753219  0.749986  1
  Er  Er2  1  0.753033  0.586584  0.249572  1
  Er  Er3  1  0.246660  0.413870  0.750462  1
  Al  Al4  1  0.500259  0.999394  0.999216  1
  Al  Al5  1  0.999068  0.500476  0.500887  1
  Al  Al6  1  0.647049  0.176436  0.501508  1
  Al  Al7  1  0.353378  0.822106  0.500064  1
  Al  Al8  1  0.824071  0.353520  0.998833  1
  Al  Al9  1  0.176156  0.648130  0.999268  1
  Pt  Pt10  1  0.296695  0.916902  0.251513  1
  Pt  Pt11  1  0.702332  0.082952  0.748550  1
  Pt  Pt12  1  0.082301  0.702637  0.248537  1
  Pt  Pt13  1  0.917214  0.297722  0.751595  1
  Pt  Pt14  1  0.473215  0.644427  0.075334  1
  Pt  Pt15  1  0.527202  0.357240  0.922687  1
  Pt  Pt16  1  0.355963  0.527580  0.425040  1
  Pt  Pt17  1  0.644010  0.473240  0.575408  1
  Pt  Pt18  1  0.862967  0.137601  0.250139  1
  Pt  Pt19  1  0.138421  0.862310  0.749500  1
  Pt  Pt20  1  0.808464  0.977371  0.073403  1
  Pt  Pt21  1  0.192206  0.022826  0.925947  1
  Pt  Pt22  1  0.022398  0.191515  0.426809  1
  Pt  Pt23  1  0.976738  0.807694  0.574416  1
  Pt  Pt24  1  0.694663  0.857529  0.426606  1
  Pt  Pt25  1  0.305391  0.140918  0.575806  1
  Pt  Pt26  1  0.140253  0.306325  0.073189  1
  Pt  Pt27  1  0.858993  0.694232  0.925459  1
