# generated using pymatgen
data_Dy4TmOsRu
_symmetry_space_group_name_H-M   'P 1'
_cell_length_a   6.34993065
_cell_length_b   7.28699509
_cell_length_c   8.45002639
_cell_angle_alpha   96.72619166
_cell_angle_beta   112.06971318
_cell_angle_gamma   90.00000982
_symmetry_Int_Tables_number   1
_chemical_formula_structural   Dy4TmOsRu
_chemical_formula_sum   'Dy8 Tm2 Os2 Ru2'
_cell_volume   359.44377378
_cell_formula_units_Z   2
loop_
 _symmetry_equiv_pos_site_id
 _symmetry_equiv_pos_as_xyz
  1  'x, y, z'
loop_
 _atom_site_type_symbol
 _atom_site_label
 _atom_site_symmetry_multiplicity
 _atom_site_fract_x
 _atom_site_fract_y
 _atom_site_fract_z
 _atom_site_occupancy
  Dy  Dy0  1  0.792768  0.083501  0.816021  1
  Dy  Dy1  1  0.976747  0.416499  0.183979  1
  Dy  Dy2  1  0.208052  0.915809  0.185121  1
  Dy  Dy3  1  0.022931  0.584191  0.814879  1
  Dy  Dy4  1  0.205999  0.184743  0.566248  1
  Dy  Dy5  1  0.639751  0.315257  0.433752  1
  Dy  Dy6  1  0.793684  0.815106  0.433390  1
  Dy  Dy7  1  0.360294  0.684894  0.566610  1
  Tm  Tm8  1  0.423663  0.250000  0.000000  1
  Tm  Tm9  1  0.577802  0.750000  0.000000  1
  Os  Os10  1  0.602557  0.424889  0.782068  1
  Os  Os11  1  0.820488  0.075111  0.217932  1
  Ru  Ru12  1  0.396747  0.575471  0.218230  1
  Ru  Ru13  1  0.178518  0.924529  0.781770  1
