# generated using pymatgen
data_Er6Zn21Cu2Se
_symmetry_space_group_name_H-M   'P 1'
_cell_length_a   8.98442592
_cell_length_b   8.97260530
_cell_length_c   8.97260652
_cell_angle_alpha   60.03408883
_cell_angle_beta   60.03730806
_cell_angle_gamma   60.03730531
_symmetry_Int_Tables_number   1
_chemical_formula_structural   Er6Zn21Cu2Se
_chemical_formula_sum   'Er6 Zn21 Cu2 Se1'
_cell_volume   511.88107386
_cell_formula_units_Z   1
loop_
 _symmetry_equiv_pos_site_id
 _symmetry_equiv_pos_as_xyz
  1  'x, y, z'
loop_
 _atom_site_type_symbol
 _atom_site_label
 _atom_site_symmetry_multiplicity
 _atom_site_fract_x
 _atom_site_fract_y
 _atom_site_fract_z
 _atom_site_occupancy
  Er  Er0  1  0.718507  0.282197  0.282197  1
  Er  Er1  1  0.718017  0.282128  0.717472  1
  Er  Er2  1  0.718017  0.717472  0.282128  1
  Er  Er3  1  0.281493  0.717803  0.717803  1
  Er  Er4  1  0.281983  0.717872  0.282528  1
  Er  Er5  1  0.281983  0.282528  0.717872  1
  Zn  Zn6  1  0.623955  0.125249  0.125249  1
  Zn  Zn7  1  0.123565  0.623531  0.124074  1
  Zn  Zn8  1  0.123565  0.124074  0.623531  1
  Zn  Zn9  1  0.122662  0.127274  0.127274  1
  Zn  Zn10  1  0.376045  0.874751  0.874751  1
  Zn  Zn11  1  0.876435  0.376469  0.875926  1
  Zn  Zn12  1  0.876435  0.875926  0.376469  1
  Zn  Zn13  1  0.877338  0.872726  0.872726  1
  Zn  Zn14  1  0.500000  0.000000  0.000000  1
  Zn  Zn15  1  0.500000  0.000000  0.500000  1
  Zn  Zn16  1  0.500000  0.500000  0.000000  1
  Zn  Zn17  1  0.000000  0.500000  0.500000  1
  Zn  Zn18  1  0.000000  0.000000  0.000000  1
  Zn  Zn19  1  0.010967  0.328212  0.328212  1
  Zn  Zn20  1  0.326802  0.010176  0.331544  1
  Zn  Zn21  1  0.326802  0.331544  0.010176  1
  Zn  Zn22  1  0.330224  0.330101  0.330101  1
  Zn  Zn23  1  0.989033  0.671788  0.671788  1
  Zn  Zn24  1  0.673198  0.989824  0.668456  1
  Zn  Zn25  1  0.673198  0.668456  0.989824  1
  Zn  Zn26  1  0.669776  0.669899  0.669899  1
  Cu  Cu27  1  0.000000  0.500000  0.000000  1
  Cu  Cu28  1  0.000000  0.000000  0.500000  1
  Se  Se29  1  0.500000  0.500000  0.500000  1
