# generated using pymatgen
data_Hf8In14Co7Hg
_symmetry_space_group_name_H-M   'P 1'
_cell_length_a   9.45386676
_cell_length_b   9.45386606
_cell_length_c   9.45386600
_cell_angle_alpha   60.00000021
_cell_angle_beta   60.00000267
_cell_angle_gamma   59.99999528
_symmetry_Int_Tables_number   1
_chemical_formula_structural   Hf8In14Co7Hg
_chemical_formula_sum   'Hf8 In14 Co7 Hg1'
_cell_volume   597.46622675
_cell_formula_units_Z   1
loop_
 _symmetry_equiv_pos_site_id
 _symmetry_equiv_pos_as_xyz
  1  'x, y, z'
loop_
 _atom_site_type_symbol
 _atom_site_label
 _atom_site_symmetry_multiplicity
 _atom_site_fract_x
 _atom_site_fract_y
 _atom_site_fract_z
 _atom_site_occupancy
  Hf  Hf0  1  0.119369  0.641892  0.119369  1
  Hf  Hf1  1  0.358108  0.880631  0.880631  1
  Hf  Hf2  1  0.880631  0.880631  0.880631  1
  Hf  Hf3  1  0.641892  0.119369  0.119369  1
  Hf  Hf4  1  0.880631  0.880631  0.358108  1
  Hf  Hf5  1  0.119369  0.119369  0.119369  1
  Hf  Hf6  1  0.880631  0.358108  0.880631  1
  Hf  Hf7  1  0.119369  0.119369  0.641892  1
  In  In8  1  0.500000  0.841618  0.158382  1
  In  In9  1  0.500000  0.841618  0.500000  1
  In  In10  1  0.500000  0.158382  0.500000  1
  In  In11  1  0.500000  0.500000  0.841618  1
  In  In12  1  0.158382  0.500000  0.500000  1
  In  In13  1  0.841618  0.158382  0.500000  1
  In  In14  1  0.158382  0.841618  0.500000  1
  In  In15  1  0.500000  0.158382  0.841618  1
  In  In16  1  0.158382  0.500000  0.841618  1
  In  In17  1  0.500000  0.500000  0.158382  1
  In  In18  1  0.841618  0.500000  0.500000  1
  In  In19  1  0.841618  0.500000  0.158382  1
  In  In20  1  0.250000  0.250000  0.250000  1
  In  In21  1  0.750000  0.750000  0.750000  1
  Co  Co22  1  0.786844  0.786844  0.213156  1
  Co  Co23  1  0.000000  0.000000  0.000000  1
  Co  Co24  1  0.213156  0.786844  0.213156  1
  Co  Co25  1  0.213156  0.786844  0.786844  1
  Co  Co26  1  0.213156  0.213156  0.786844  1
  Co  Co27  1  0.786844  0.213156  0.786844  1
  Co  Co28  1  0.786844  0.213156  0.213156  1
  Hg  Hg29  1  0.500000  0.500000  0.500000  1
