# generated using pymatgen
data_AgAuF34
_symmetry_space_group_name_H-M   'P 1'
_cell_length_a   8.66697026
_cell_length_b   8.05795807
_cell_length_c   9.96705300
_cell_angle_alpha   85.24519147
_cell_angle_beta   89.44251398
_cell_angle_gamma   67.64972674
_symmetry_Int_Tables_number   1
_chemical_formula_structural   AgAuF34
_chemical_formula_sum   'Ag1 Au1 F34'
_cell_volume   641.39295700
_cell_formula_units_Z   1
loop_
 _symmetry_equiv_pos_site_id
 _symmetry_equiv_pos_as_xyz
  1  'x, y, z'
loop_
 _atom_site_type_symbol
 _atom_site_label
 _atom_site_symmetry_multiplicity
 _atom_site_fract_x
 _atom_site_fract_y
 _atom_site_fract_z
 _atom_site_occupancy
  Ag  Ag0  1  0.871321  0.251806  0.751862  1
  Au  Au1  1  0.128747  0.746983  0.243514  1
  F  F2  1  0.608749  0.215300  0.488721  1
  F  F3  1  0.392595  0.794454  0.512465  1
  F  F4  1  0.825214  0.681599  0.726271  1
  F  F5  1  0.171115  0.300959  0.266201  1
  F  F6  1  0.089709  0.759484  0.870321  1
  F  F7  1  0.899030  0.240641  0.129772  1
  F  F8  1  0.561848  0.150842  0.371153  1
  F  F9  1  0.436651  0.847742  0.635592  1
  F  F10  1  0.644216  0.329776  0.681323  1
  F  F11  1  0.355440  0.669584  0.314895  1
  F  F12  1  0.946574  0.052915  0.638748  1
  F  F13  1  0.052414  0.944130  0.356723  1
  F  F14  1  0.920025  0.394901  0.604215  1
  F  F15  1  0.081551  0.599157  0.387452  1
  F  F16  1  0.838816  0.821336  0.633481  1
  F  F17  1  0.152669  0.195168  0.381676  1
  F  F18  1  0.801630  0.455542  0.860428  1
  F  F19  1  0.200668  0.547314  0.131057  1
  F  F20  1  0.217394  0.699774  0.774953  1
  F  F21  1  0.780915  0.304240  0.231880  1
  F  F22  1  0.904528  0.821987  0.169447  1
  F  F23  1  0.095065  0.176582  0.825428  1
  F  F24  1  0.821020  0.105333  0.895158  1
  F  F25  1  0.178810  0.896513  0.102287  1
  F  F26  1  0.480611  0.591314  0.999717  1
  F  F27  1  0.523221  0.403189  0.996744  1
  F  F28  1  0.460464  0.096012  0.864185  1
  F  F29  1  0.541108  0.898945  0.138058  1
  F  F30  1  0.294261  0.254563  0.604265  1
  F  F31  1  0.714838  0.748724  0.403733  1
  F  F32  1  0.263344  0.409932  0.674407  1
  F  F33  1  0.735732  0.596952  0.331852  1
  F  F34  1  0.550385  0.910413  0.848489  1
  F  F35  1  0.459316  0.085892  0.153527  1
