# generated using pymatgen
data_V5Zn(Fe2Si)6
_symmetry_space_group_name_H-M   'P 1'
_cell_length_a   3.97780400
_cell_length_b   5.64067000
_cell_length_c   11.93173700
_cell_angle_alpha   90.00006409
_cell_angle_beta   89.99711902
_cell_angle_gamma   90.00034553
_symmetry_Int_Tables_number   1
_chemical_formula_structural   V5Zn(Fe2Si)6
_chemical_formula_sum   'V5 Zn1 Fe12 Si6'
_cell_volume   267.71810642
_cell_formula_units_Z   1
loop_
 _symmetry_equiv_pos_site_id
 _symmetry_equiv_pos_as_xyz
  1  'x, y, z'
loop_
 _atom_site_type_symbol
 _atom_site_label
 _atom_site_symmetry_multiplicity
 _atom_site_fract_x
 _atom_site_fract_y
 _atom_site_fract_z
 _atom_site_occupancy
  V  V0  1  0.499975  0.500006  0.165023  1
  V  V1  1  0.999965  0.999987  0.333088  1
  V  V2  1  0.500000  0.500000  0.500000  1
  V  V3  1  0.000035  0.000013  0.666913  1
  V  V4  1  0.500025  0.499994  0.834977  1
  Zn  Zn5  1  0.000000  0.000000  0.000000  1
  Fe  Fe6  1  0.499994  0.256044  0.000004  1
  Fe  Fe7  1  0.500006  0.743956  0.999996  1
  Fe  Fe8  1  0.000009  0.253558  0.169767  1
  Fe  Fe9  1  0.999949  0.746426  0.169767  1
  Fe  Fe10  1  0.500020  0.249641  0.333226  1
  Fe  Fe11  1  0.499909  0.750353  0.333226  1
  Fe  Fe12  1  0.999857  0.250204  0.499997  1
  Fe  Fe13  1  0.000143  0.749796  0.500003  1
  Fe  Fe14  1  0.500089  0.249647  0.666774  1
  Fe  Fe15  1  0.499978  0.750359  0.666774  1
  Fe  Fe16  1  0.000051  0.253574  0.830233  1
  Fe  Fe17  1  0.999991  0.746442  0.830233  1
  Si  Si18  1  0.000000  0.500000  0.000000  1
  Si  Si19  1  0.499964  0.999997  0.166856  1
  Si  Si20  1  0.999959  0.499996  0.333110  1
  Si  Si21  1  0.500000  0.000000  0.500000  1
  Si  Si22  1  0.000041  0.500004  0.666891  1
  Si  Si23  1  0.500036  0.000003  0.833144  1
