# generated using pymatgen
data_Lu16MnIn6Au
_symmetry_space_group_name_H-M   'P 1'
_cell_length_a   10.28683800
_cell_length_b   10.28683934
_cell_length_c   6.77805300
_cell_angle_alpha   90.00000000
_cell_angle_beta   90.00000000
_cell_angle_gamma   120.00000213
_symmetry_Int_Tables_number   1
_chemical_formula_structural   Lu16MnIn6Au
_chemical_formula_sum   'Lu16 Mn1 In6 Au1'
_cell_volume   621.15422027
_cell_formula_units_Z   1
loop_
 _symmetry_equiv_pos_site_id
 _symmetry_equiv_pos_as_xyz
  1  'x, y, z'
loop_
 _atom_site_type_symbol
 _atom_site_label
 _atom_site_symmetry_multiplicity
 _atom_site_fract_x
 _atom_site_fract_y
 _atom_site_fract_z
 _atom_site_occupancy
  Lu  Lu0  1  0.520881  0.041761  0.513022  1
  Lu  Lu1  1  0.958239  0.479119  0.513022  1
  Lu  Lu2  1  0.520881  0.479119  0.513022  1
  Lu  Lu3  1  0.466244  0.932488  0.005966  1
  Lu  Lu4  1  0.067512  0.533756  0.005966  1
  Lu  Lu5  1  0.466244  0.533756  0.005966  1
  Lu  Lu6  1  0.175370  0.350740  0.719625  1
  Lu  Lu7  1  0.649260  0.824630  0.719625  1
  Lu  Lu8  1  0.175370  0.824630  0.719625  1
  Lu  Lu9  1  0.825583  0.651167  0.217934  1
  Lu  Lu10  1  0.348833  0.174417  0.217934  1
  Lu  Lu11  1  0.825583  0.174417  0.217934  1
  Lu  Lu12  1  0.666667  0.333333  0.873976  1
  Lu  Lu13  1  0.333333  0.666667  0.379667  1
  Lu  Lu14  1  0.000000  0.000000  0.491345  1
  Lu  Lu15  1  0.000000  0.000000  0.993469  1
  Mn  Mn16  1  0.333333  0.666667  0.763911  1
  In  In17  1  0.836022  0.672045  0.749812  1
  In  In18  1  0.327955  0.163978  0.749812  1
  In  In19  1  0.836022  0.163978  0.749812  1
  In  In20  1  0.163035  0.326069  0.249764  1
  In  In21  1  0.673931  0.836965  0.249764  1
  In  In22  1  0.163035  0.836965  0.249764  1
  Au  Au23  1  0.666667  0.333333  0.287306  1
