# generated using pymatgen
data_Tb5Er3(P3Ir4)4
_symmetry_space_group_name_H-M   'P 1'
_cell_length_a   12.97985500
_cell_length_b   12.97985597
_cell_length_c   4.00896700
_cell_angle_alpha   90.00000000
_cell_angle_beta   90.00000000
_cell_angle_gamma   120.00000007
_symmetry_Int_Tables_number   1
_chemical_formula_structural   Tb5Er3(P3Ir4)4
_chemical_formula_sum   'Tb5 Er3 P12 Ir16'
_cell_volume   584.92856014
_cell_formula_units_Z   1
loop_
 _symmetry_equiv_pos_site_id
 _symmetry_equiv_pos_as_xyz
  1  'x, y, z'
loop_
 _atom_site_type_symbol
 _atom_site_label
 _atom_site_symmetry_multiplicity
 _atom_site_fract_x
 _atom_site_fract_y
 _atom_site_fract_z
 _atom_site_occupancy
  Tb  Tb0  1  0.333333  0.666667  0.500000  1
  Tb  Tb1  1  0.666667  0.333333  0.500000  1
  Tb  Tb2  1  0.000000  0.814734  0.000000  1
  Tb  Tb3  1  0.185266  0.185266  0.000000  1
  Tb  Tb4  1  0.814734  0.000000  0.000000  1
  Er  Er5  1  0.000000  0.446358  0.500000  1
  Er  Er6  1  0.553642  0.553642  0.500000  1
  Er  Er7  1  0.446358  0.000000  0.500000  1
  P  P8  1  0.000000  0.652506  0.500000  1
  P  P9  1  0.347494  0.347494  0.500000  1
  P  P10  1  0.652506  0.000000  0.500000  1
  P  P11  1  0.516965  0.688483  0.000000  1
  P  P12  1  0.311517  0.828481  0.000000  1
  P  P13  1  0.171519  0.483035  0.000000  1
  P  P14  1  0.483035  0.171519  0.000000  1
  P  P15  1  0.688483  0.516965  0.000000  1
  P  P16  1  0.828481  0.311517  0.000000  1
  P  P17  1  0.000000  0.176837  0.500000  1
  P  P18  1  0.823163  0.823163  0.500000  1
  P  P19  1  0.176837  0.000000  0.500000  1
  Ir  Ir20  1  0.509642  0.865905  0.000000  1
  Ir  Ir21  1  0.134095  0.643738  0.000000  1
  Ir  Ir22  1  0.356262  0.490358  0.000000  1
  Ir  Ir23  1  0.490358  0.356262  0.000000  1
  Ir  Ir24  1  0.865905  0.509642  0.000000  1
  Ir  Ir25  1  0.643738  0.134095  0.000000  1
  Ir  Ir26  1  0.000000  0.275079  0.000000  1
  Ir  Ir27  1  0.724921  0.724921  0.000000  1
  Ir  Ir28  1  0.275079  0.000000  0.000000  1
  Ir  Ir29  1  0.630154  0.808906  0.500000  1
  Ir  Ir30  1  0.191094  0.821248  0.500000  1
  Ir  Ir31  1  0.178752  0.369846  0.500000  1
  Ir  Ir32  1  0.369846  0.178752  0.500000  1
  Ir  Ir33  1  0.808906  0.630154  0.500000  1
  Ir  Ir34  1  0.821248  0.191094  0.500000  1
  Ir  Ir35  1  0.000000  0.000000  0.500000  1
