# generated using pymatgen
data_Tb5Y2Ho(ReB6)4
_symmetry_space_group_name_H-M   'P 1'
_cell_length_a   3.69544200
_cell_length_b   9.20085100
_cell_length_c   11.59272301
_cell_angle_alpha   90.00224592
_cell_angle_beta   90.00000000
_cell_angle_gamma   90.00000000
_symmetry_Int_Tables_number   1
_chemical_formula_structural   Tb5Y2Ho(ReB6)4
_chemical_formula_sum   'Tb5 Y2 Ho1 Re4 B24'
_cell_volume   394.16662332
_cell_formula_units_Z   1
loop_
 _symmetry_equiv_pos_site_id
 _symmetry_equiv_pos_as_xyz
  1  'x, y, z'
loop_
 _atom_site_type_symbol
 _atom_site_label
 _atom_site_symmetry_multiplicity
 _atom_site_fract_x
 _atom_site_fract_y
 _atom_site_fract_z
 _atom_site_occupancy
  Tb  Tb0  1  0.000000  0.823381  0.085922  1
  Tb  Tb1  1  0.000000  0.176536  0.913930  1
  Tb  Tb2  1  0.000000  0.323546  0.414048  1
  Tb  Tb3  1  0.000000  0.676481  0.586159  1
  Tb  Tb4  1  0.000000  0.442765  0.129717  1
  Y  Y5  1  0.000000  0.942716  0.370161  1
  Y  Y6  1  0.000000  0.057329  0.630006  1
  Ho  Ho7  1  0.000000  0.557458  0.869642  1
  Re  Re8  1  0.000000  0.138050  0.179101  1
  Re  Re9  1  0.000000  0.861340  0.820828  1
  Re  Re10  1  0.000000  0.638363  0.320941  1
  Re  Re11  1  0.000000  0.362002  0.679364  1
  B  B12  1  0.500000  0.052987  0.067356  1
  B  B13  1  0.500000  0.946596  0.932556  1
  B  B14  1  0.500000  0.553349  0.432779  1
  B  B15  1  0.500000  0.446755  0.567456  1
  B  B16  1  0.500000  0.248020  0.081934  1
  B  B17  1  0.500000  0.751116  0.918003  1
  B  B18  1  0.500000  0.748561  0.418235  1
  B  B19  1  0.500000  0.251589  0.581903  1
  B  B20  1  0.500000  0.291018  0.234446  1
  B  B21  1  0.500000  0.708389  0.765692  1
  B  B22  1  0.500000  0.791453  0.265596  1
  B  B23  1  0.500000  0.208848  0.734508  1
  B  B24  1  0.500000  0.130455  0.314230  1
  B  B25  1  0.500000  0.869348  0.685921  1
  B  B26  1  0.500000  0.630818  0.186025  1
  B  B27  1  0.500000  0.369784  0.814240  1
  B  B28  1  0.500000  0.482526  0.288295  1
  B  B29  1  0.500000  0.517876  0.712131  1
  B  B30  1  0.500000  0.982111  0.211872  1
  B  B31  1  0.500000  0.017710  0.788220  1
  B  B32  1  0.500000  0.099982  0.472024  1
  B  B33  1  0.500000  0.900067  0.528082  1
  B  B34  1  0.500000  0.600166  0.027354  1
  B  B35  1  0.500000  0.400510  0.971323  1
