# generated using pymatgen
data_HgOsF7
_symmetry_space_group_name_H-M   'P 1'
_cell_length_a   10.53285000
_cell_length_b   7.38841038
_cell_length_c   8.19576174
_cell_angle_alpha   78.22476314
_cell_angle_beta   90.00000000
_cell_angle_gamma   90.00000000
_symmetry_Int_Tables_number   1
_chemical_formula_structural   HgOsF7
_chemical_formula_sum   'Hg4 Os4 F28'
_cell_volume   624.38040403
_cell_formula_units_Z   4
loop_
 _symmetry_equiv_pos_site_id
 _symmetry_equiv_pos_as_xyz
  1  'x, y, z'
loop_
 _atom_site_type_symbol
 _atom_site_label
 _atom_site_symmetry_multiplicity
 _atom_site_fract_x
 _atom_site_fract_y
 _atom_site_fract_z
 _atom_site_occupancy
  Hg  Hg0  1  0.248674  0.280219  0.907147  1
  Hg  Hg1  1  0.748674  0.719781  0.592853  1
  Hg  Hg2  1  0.751326  0.719781  0.092853  1
  Hg  Hg3  1  0.251326  0.280219  0.407147  1
  Os  Os4  1  0.562011  0.195939  0.202237  1
  Os  Os5  1  0.062011  0.804061  0.297763  1
  Os  Os6  1  0.437989  0.804061  0.797763  1
  Os  Os7  1  0.937989  0.195939  0.702237  1
  F  F8  1  0.705835  0.356741  0.146655  1
  F  F9  1  0.205835  0.643259  0.353345  1
  F  F10  1  0.294165  0.643259  0.853345  1
  F  F11  1  0.794165  0.356741  0.646655  1
  F  F12  1  0.642899  0.074470  0.401197  1
  F  F13  1  0.142899  0.925530  0.098803  1
  F  F14  1  0.357101  0.925530  0.598803  1
  F  F15  1  0.857101  0.074470  0.901197  1
  F  F16  1  0.478616  0.313135  0.998007  1
  F  F17  1  0.978616  0.686865  0.501993  1
  F  F18  1  0.521384  0.686865  0.001993  1
  F  F19  1  0.021384  0.313135  0.498007  1
  F  F20  1  0.413339  0.048156  0.256786  1
  F  F21  1  0.913339  0.951844  0.243214  1
  F  F22  1  0.586661  0.951844  0.743214  1
  F  F23  1  0.086661  0.048156  0.756786  1
  F  F24  1  0.635216  0.021379  0.086089  1
  F  F25  1  0.135216  0.978621  0.413911  1
  F  F26  1  0.364784  0.978621  0.913911  1
  F  F27  1  0.864784  0.021379  0.586089  1
  F  F28  1  0.481841  0.368491  0.316930  1
  F  F29  1  0.981841  0.631509  0.183070  1
  F  F30  1  0.518159  0.631509  0.683070  1
  F  F31  1  0.018159  0.368491  0.816930  1
  F  F32  1  0.194645  0.316693  0.149761  1
  F  F33  1  0.694645  0.683307  0.350239  1
  F  F34  1  0.805355  0.683307  0.850239  1
  F  F35  1  0.305355  0.316693  0.649761  1
