# generated using pymatgen
data_Nd2Sc3Si7Pt9
_symmetry_space_group_name_H-M   'P 1'
_cell_length_a   10.10204200
_cell_length_b   10.10204200
_cell_length_c   4.02133300
_cell_angle_alpha   90.00000000
_cell_angle_beta   90.00000000
_cell_angle_gamma   120.00000001
_symmetry_Int_Tables_number   1
_chemical_formula_structural   Nd2Sc3Si7Pt9
_chemical_formula_sum   'Nd2 Sc3 Si7 Pt9'
_cell_volume   355.40129749
_cell_formula_units_Z   1
loop_
 _symmetry_equiv_pos_site_id
 _symmetry_equiv_pos_as_xyz
  1  'x, y, z'
loop_
 _atom_site_type_symbol
 _atom_site_label
 _atom_site_symmetry_multiplicity
 _atom_site_fract_x
 _atom_site_fract_y
 _atom_site_fract_z
 _atom_site_occupancy
  Nd  Nd0  1  0.000000  0.000000  0.000000  1
  Nd  Nd1  1  0.333333  0.666667  0.500000  1
  Sc  Sc2  1  0.893936  0.454111  0.500000  1
  Sc  Sc3  1  0.560175  0.106064  0.500000  1
  Sc  Sc4  1  0.545889  0.439825  0.500000  1
  Si  Si5  1  0.248849  0.198241  0.500000  1
  Si  Si6  1  0.801759  0.050609  0.500000  1
  Si  Si7  1  0.949391  0.751151  0.500000  1
  Si  Si8  1  0.558990  0.647267  0.000000  1
  Si  Si9  1  0.352733  0.911722  0.000000  1
  Si  Si10  1  0.088278  0.441010  0.000000  1
  Si  Si11  1  0.666667  0.333333  0.000000  1
  Pt  Pt12  1  0.221006  0.936453  0.500000  1
  Pt  Pt13  1  0.063547  0.284553  0.500000  1
  Pt  Pt14  1  0.715447  0.778994  0.500000  1
  Pt  Pt15  1  0.313558  0.410305  0.000000  1
  Pt  Pt16  1  0.589695  0.903253  0.000000  1
  Pt  Pt17  1  0.096747  0.686442  0.000000  1
  Pt  Pt18  1  0.385345  0.171965  0.000000  1
  Pt  Pt19  1  0.828035  0.213381  0.000000  1
  Pt  Pt20  1  0.786619  0.614655  0.000000  1
