# generated using pymatgen
data_Dy2Tm3Rh2
_symmetry_space_group_name_H-M   'P 1'
_cell_length_a   6.35619903
_cell_length_b   7.08583909
_cell_length_c   8.56392843
_cell_angle_alpha   97.06210110
_cell_angle_beta   111.78366632
_cell_angle_gamma   89.99999918
_symmetry_Int_Tables_number   1
_chemical_formula_structural   Dy2Tm3Rh2
_chemical_formula_sum   'Dy4 Tm6 Rh4'
_cell_volume   355.01468096
_cell_formula_units_Z   2
loop_
 _symmetry_equiv_pos_site_id
 _symmetry_equiv_pos_as_xyz
  1  'x, y, z'
loop_
 _atom_site_type_symbol
 _atom_site_label
 _atom_site_symmetry_multiplicity
 _atom_site_fract_x
 _atom_site_fract_y
 _atom_site_fract_z
 _atom_site_occupancy
  Dy  Dy0  1  0.788942  0.080524  0.809696  1
  Dy  Dy1  1  0.979246  0.419476  0.190304  1
  Dy  Dy2  1  0.211058  0.919476  0.190304  1
  Dy  Dy3  1  0.020754  0.580524  0.809696  1
  Tm  Tm4  1  0.208576  0.186772  0.562355  1
  Tm  Tm5  1  0.646221  0.313228  0.437645  1
  Tm  Tm6  1  0.791424  0.813228  0.437645  1
  Tm  Tm7  1  0.353779  0.686772  0.562355  1
  Tm  Tm8  1  0.424562  0.250000  0.000000  1
  Tm  Tm9  1  0.575438  0.750000  0.000000  1
  Rh  Rh10  1  0.592166  0.426877  0.776999  1
  Rh  Rh11  1  0.815166  0.073123  0.223001  1
  Rh  Rh12  1  0.407834  0.573123  0.223001  1
  Rh  Rh13  1  0.184834  0.926877  0.776999  1
