# generated using pymatgen
data_Nd10Ir3Os2Au
_symmetry_space_group_name_H-M   'P 1'
_cell_length_a   11.23094710
_cell_length_b   11.18950800
_cell_length_c   6.60165600
_cell_angle_alpha   90.00000000
_cell_angle_beta   89.87647491
_cell_angle_gamma   90.00000000
_symmetry_Int_Tables_number   1
_chemical_formula_structural   Nd10Ir3Os2Au
_chemical_formula_sum   'Nd20 Ir6 Os4 Au2'
_cell_volume   829.62007749
_cell_formula_units_Z   2
loop_
 _symmetry_equiv_pos_site_id
 _symmetry_equiv_pos_as_xyz
  1  'x, y, z'
loop_
 _atom_site_type_symbol
 _atom_site_label
 _atom_site_symmetry_multiplicity
 _atom_site_fract_x
 _atom_site_fract_y
 _atom_site_fract_z
 _atom_site_occupancy
  Nd  Nd0  1  0.293196  0.087380  0.375658  1
  Nd  Nd1  1  0.293196  0.912620  0.875658  1
  Nd  Nd2  1  0.698251  0.091565  0.866467  1
  Nd  Nd3  1  0.698251  0.908435  0.366467  1
  Nd  Nd4  1  0.578314  0.791469  0.878515  1
  Nd  Nd5  1  0.578314  0.208531  0.378515  1
  Nd  Nd6  1  0.409575  0.792330  0.378517  1
  Nd  Nd7  1  0.409575  0.207670  0.878517  1
  Nd  Nd8  1  0.208423  0.411720  0.620293  1
  Nd  Nd9  1  0.208423  0.588280  0.120293  1
  Nd  Nd10  1  0.792364  0.420267  0.121460  1
  Nd  Nd11  1  0.792364  0.579733  0.621460  1
  Nd  Nd12  1  0.917713  0.704798  0.135882  1
  Nd  Nd13  1  0.917713  0.295202  0.635882  1
  Nd  Nd14  1  0.094363  0.702459  0.622077  1
  Nd  Nd15  1  0.094363  0.297541  0.122077  1
  Nd  Nd16  1  0.008662  0.998568  0.500561  1
  Nd  Nd17  1  0.008662  0.001432  0.000561  1
  Nd  Nd18  1  0.499611  0.499232  0.000494  1
  Nd  Nd19  1  0.499611  0.500768  0.500494  1
  Ir  Ir20  1  0.153182  0.152710  0.750048  1
  Ir  Ir21  1  0.153182  0.847290  0.250048  1
  Ir  Ir22  1  0.653508  0.347840  0.748561  1
  Ir  Ir23  1  0.653508  0.652160  0.248561  1
  Ir  Ir24  1  0.347870  0.347268  0.250689  1
  Ir  Ir25  1  0.347870  0.652732  0.750689  1
  Os  Os26  1  0.500090  0.000133  0.122304  1
  Os  Os27  1  0.500090  0.999867  0.622304  1
  Os  Os28  1  0.000372  0.501142  0.877408  1
  Os  Os29  1  0.000372  0.498858  0.377408  1
  Au  Au30  1  0.844504  0.155020  0.251069  1
  Au  Au31  1  0.844504  0.844980  0.751069  1
