# generated using pymatgen
data_Pr2Dy2TmSn4
_symmetry_space_group_name_H-M   'P 1'
_cell_length_a   8.12329700
_cell_length_b   8.30053800
_cell_length_c   15.67508900
_cell_angle_alpha   90.00000000
_cell_angle_beta   90.00000000
_cell_angle_gamma   90.00000000
_symmetry_Int_Tables_number   1
_chemical_formula_structural   Pr2Dy2TmSn4
_chemical_formula_sum   'Pr8 Dy8 Tm4 Sn16'
_cell_volume   1056.93575399
_cell_formula_units_Z   4
loop_
 _symmetry_equiv_pos_site_id
 _symmetry_equiv_pos_as_xyz
  1  'x, y, z'
loop_
 _atom_site_type_symbol
 _atom_site_label
 _atom_site_symmetry_multiplicity
 _atom_site_fract_x
 _atom_site_fract_y
 _atom_site_fract_z
 _atom_site_occupancy
  Pr  Pr0  1  0.513971  0.321843  0.903168  1
  Pr  Pr1  1  0.013971  0.178157  0.596832  1
  Pr  Pr2  1  0.486029  0.678157  0.403168  1
  Pr  Pr3  1  0.986029  0.821843  0.096832  1
  Pr  Pr4  1  0.486029  0.678157  0.096832  1
  Pr  Pr5  1  0.986029  0.821843  0.403168  1
  Pr  Pr6  1  0.513971  0.321843  0.596832  1
  Pr  Pr7  1  0.013971  0.178157  0.903168  1
  Dy  Dy8  1  0.360641  0.835900  0.877081  1
  Dy  Dy9  1  0.860641  0.664100  0.622919  1
  Dy  Dy10  1  0.639359  0.164100  0.377081  1
  Dy  Dy11  1  0.139359  0.335900  0.122919  1
  Dy  Dy12  1  0.639359  0.164100  0.122919  1
  Dy  Dy13  1  0.139359  0.335900  0.377081  1
  Dy  Dy14  1  0.360641  0.835900  0.622919  1
  Dy  Dy15  1  0.860641  0.664100  0.877081  1
  Tm  Tm16  1  0.194962  0.502515  0.750000  1
  Tm  Tm17  1  0.694962  0.997485  0.750000  1
  Tm  Tm18  1  0.805038  0.497485  0.250000  1
  Tm  Tm19  1  0.305038  0.002515  0.250000  1
  Sn  Sn20  1  0.303845  0.041073  0.042259  1
  Sn  Sn21  1  0.803845  0.458927  0.457741  1
  Sn  Sn22  1  0.696155  0.958927  0.542259  1
  Sn  Sn23  1  0.196155  0.541073  0.957741  1
  Sn  Sn24  1  0.696155  0.958927  0.957741  1
  Sn  Sn25  1  0.196155  0.541073  0.542259  1
  Sn  Sn26  1  0.303845  0.041073  0.457741  1
  Sn  Sn27  1  0.803845  0.458927  0.042259  1
  Sn  Sn28  1  0.559513  0.624298  0.750000  1
  Sn  Sn29  1  0.059513  0.875702  0.750000  1
  Sn  Sn30  1  0.440487  0.375702  0.250000  1
  Sn  Sn31  1  0.940487  0.124298  0.250000  1
  Sn  Sn32  1  0.323695  0.142261  0.750000  1
  Sn  Sn33  1  0.823695  0.357739  0.750000  1
  Sn  Sn34  1  0.676305  0.857739  0.250000  1
  Sn  Sn35  1  0.176305  0.642261  0.250000  1
