# generated using pymatgen
data_Y3TmLuPb3
_symmetry_space_group_name_H-M   'P 1'
_cell_length_a   9.03212100
_cell_length_b   9.03212141
_cell_length_c   6.55873900
_cell_angle_alpha   90.00000000
_cell_angle_beta   90.00000000
_cell_angle_gamma   119.99999483
_symmetry_Int_Tables_number   1
_chemical_formula_structural   Y3TmLuPb3
_chemical_formula_sum   'Y6 Tm2 Lu2 Pb6'
_cell_volume   463.37277857
_cell_formula_units_Z   2
loop_
 _symmetry_equiv_pos_site_id
 _symmetry_equiv_pos_as_xyz
  1  'x, y, z'
loop_
 _atom_site_type_symbol
 _atom_site_label
 _atom_site_symmetry_multiplicity
 _atom_site_fract_x
 _atom_site_fract_y
 _atom_site_fract_z
 _atom_site_occupancy
  Y  Y0  1  0.761522  0.761522  0.749909  1
  Y  Y1  1  0.238478  0.000000  0.749909  1
  Y  Y2  1  0.000000  0.238478  0.749909  1
  Y  Y3  1  0.238478  0.238478  0.250091  1
  Y  Y4  1  0.761522  0.000000  0.250091  1
  Y  Y5  1  0.000000  0.761522  0.250091  1
  Tm  Tm6  1  0.666667  0.333333  0.000000  1
  Tm  Tm7  1  0.333333  0.666667  0.000000  1
  Lu  Lu8  1  0.333333  0.666667  0.500000  1
  Lu  Lu9  1  0.666667  0.333333  0.500000  1
  Pb  Pb10  1  0.396043  0.396043  0.749616  1
  Pb  Pb11  1  0.603957  0.000000  0.749616  1
  Pb  Pb12  1  0.000000  0.603957  0.749616  1
  Pb  Pb13  1  0.603957  0.603957  0.250384  1
  Pb  Pb14  1  0.396043  0.000000  0.250384  1
  Pb  Pb15  1  0.000000  0.396043  0.250384  1
