# generated using pymatgen
data_NdThInPt2
_symmetry_space_group_name_H-M   'P 1'
_cell_length_a   7.98358600
_cell_length_b   8.01140600
_cell_length_c   3.79351300
_cell_angle_alpha   90.00000000
_cell_angle_beta   90.00000000
_cell_angle_gamma   90.00000000
_symmetry_Int_Tables_number   1
_chemical_formula_structural   NdThInPt2
_chemical_formula_sum   'Nd2 Th2 In2 Pt4'
_cell_volume   242.63213848
_cell_formula_units_Z   2
loop_
 _symmetry_equiv_pos_site_id
 _symmetry_equiv_pos_as_xyz
  1  'x, y, z'
loop_
 _atom_site_type_symbol
 _atom_site_label
 _atom_site_symmetry_multiplicity
 _atom_site_fract_x
 _atom_site_fract_y
 _atom_site_fract_z
 _atom_site_occupancy
  Nd  Nd0  1  0.674573  0.826036  0.500000  1
  Nd  Nd1  1  0.825427  0.326036  0.500000  1
  Th  Th2  1  0.331286  0.171857  0.500000  1
  Th  Th3  1  0.168714  0.671857  0.500000  1
  In  In4  1  0.503898  0.503199  0.000000  1
  In  In5  1  0.996102  0.003199  0.000000  1
  Pt  Pt6  1  0.616329  0.129037  0.000000  1
  Pt  Pt7  1  0.883671  0.629037  0.000000  1
  Pt  Pt8  1  0.140392  0.369871  0.000000  1
  Pt  Pt9  1  0.359608  0.869871  0.000000  1
