# generated using pymatgen
data_Tm2LuZn3Si2Ag
_symmetry_space_group_name_H-M   'P 1'
_cell_length_a   6.80857800
_cell_length_b   6.79999618
_cell_length_c   4.25749100
_cell_angle_alpha   90.00000000
_cell_angle_beta   90.00000000
_cell_angle_gamma   120.04175648
_symmetry_Int_Tables_number   1
_chemical_formula_structural   Tm2LuZn3Si2Ag
_chemical_formula_sum   'Tm2 Lu1 Zn3 Si2 Ag1'
_cell_volume   170.63439081
_cell_formula_units_Z   1
loop_
 _symmetry_equiv_pos_site_id
 _symmetry_equiv_pos_as_xyz
  1  'x, y, z'
loop_
 _atom_site_type_symbol
 _atom_site_label
 _atom_site_symmetry_multiplicity
 _atom_site_fract_x
 _atom_site_fract_y
 _atom_site_fract_z
 _atom_site_occupancy
  Tm  Tm0  1  0.000223  0.573730  0.000000  1
  Tm  Tm1  1  0.426493  0.426270  0.000000  1
  Lu  Lu2  1  0.573557  0.000000  0.000000  1
  Zn  Zn3  1  0.250187  0.000000  0.500000  1
  Zn  Zn4  1  0.999878  0.249559  0.500000  1
  Zn  Zn5  1  0.750319  0.750441  0.500000  1
  Si  Si6  1  0.333991  0.667655  0.500000  1
  Si  Si7  1  0.666337  0.332345  0.500000  1
  Ag  Ag8  1  0.999015  0.000000  0.000000  1
