# generated using pymatgen
data_Ca3Y(FeO3)4
_symmetry_space_group_name_H-M   'P 1'
_cell_length_a   5.36360680
_cell_length_b   5.53087465
_cell_length_c   7.63960300
_cell_angle_alpha   90.00000000
_cell_angle_beta   90.00000000
_cell_angle_gamma   89.90875336
_symmetry_Int_Tables_number   1
_chemical_formula_structural   Ca3Y(FeO3)4
_chemical_formula_sum   'Ca3 Y1 Fe4 O12'
_cell_volume   226.63187337
_cell_formula_units_Z   1
loop_
 _symmetry_equiv_pos_site_id
 _symmetry_equiv_pos_as_xyz
  1  'x, y, z'
loop_
 _atom_site_type_symbol
 _atom_site_label
 _atom_site_symmetry_multiplicity
 _atom_site_fract_x
 _atom_site_fract_y
 _atom_site_fract_z
 _atom_site_occupancy
  Ca  Ca0  1  0.488930  0.452774  0.250000  1
  Ca  Ca1  1  0.989459  0.050744  0.750000  1
  Ca  Ca2  1  0.012034  0.949458  0.250000  1
  Y  Y3  1  0.515118  0.561113  0.750000  1
  Fe  Fe4  1  0.499169  0.003637  0.498320  1
  Fe  Fe5  1  0.499169  0.003637  0.001680  1
  Fe  Fe6  1  0.001742  0.498036  0.001424  1
  Fe  Fe7  1  0.001742  0.498036  0.498576  1
  O  O8  1  0.204667  0.204654  0.041951  1
  O  O9  1  0.204667  0.204654  0.458049  1
  O  O10  1  0.704615  0.300516  0.950886  1
  O  O11  1  0.784634  0.785527  0.549745  1
  O  O12  1  0.293596  0.701409  0.464319  1
  O  O13  1  0.784634  0.785527  0.950255  1
  O  O14  1  0.419931  0.975283  0.750000  1
  O  O15  1  0.920633  0.523445  0.250000  1
  O  O16  1  0.095119  0.477783  0.750000  1
  O  O17  1  0.704615  0.300516  0.549114  1
  O  O18  1  0.293596  0.701409  0.035681  1
  O  O19  1  0.581934  0.021842  0.250000  1
