# generated using pymatgen
data_Ba6FeTc5O18
_symmetry_space_group_name_H-M   'P 1'
_cell_length_a   5.83222700
_cell_length_b   5.83222611
_cell_length_c   14.12400500
_cell_angle_alpha   90.00000000
_cell_angle_beta   90.00000000
_cell_angle_gamma   119.99999939
_symmetry_Int_Tables_number   1
_chemical_formula_structural   Ba6FeTc5O18
_chemical_formula_sum   'Ba6 Fe1 Tc5 O18'
_cell_volume   416.06124920
_cell_formula_units_Z   1
loop_
 _symmetry_equiv_pos_site_id
 _symmetry_equiv_pos_as_xyz
  1  'x, y, z'
loop_
 _atom_site_type_symbol
 _atom_site_label
 _atom_site_symmetry_multiplicity
 _atom_site_fract_x
 _atom_site_fract_y
 _atom_site_fract_z
 _atom_site_occupancy
  Ba  Ba0  1  0.000000  0.000000  0.246845  1
  Ba  Ba1  1  0.000000  0.000000  0.753155  1
  Ba  Ba2  1  0.333333  0.666667  0.407380  1
  Ba  Ba3  1  0.666667  0.333333  0.592620  1
  Ba  Ba4  1  0.666667  0.333333  0.912053  1
  Ba  Ba5  1  0.333333  0.666667  0.087947  1
  Fe  Fe6  1  0.000000  0.000000  0.000000  1
  Tc  Tc7  1  0.000000  0.000000  0.500000  1
  Tc  Tc8  1  0.333333  0.666667  0.659778  1
  Tc  Tc9  1  0.666667  0.333333  0.340222  1
  Tc  Tc10  1  0.666667  0.333333  0.161440  1
  Tc  Tc11  1  0.333333  0.666667  0.838560  1
  O  O12  1  0.507805  0.492195  0.252077  1
  O  O13  1  0.507805  0.015607  0.252077  1
  O  O14  1  0.984393  0.492195  0.252077  1
  O  O15  1  0.492195  0.507805  0.747923  1
  O  O16  1  0.492195  0.984393  0.747923  1
  O  O17  1  0.015607  0.507805  0.747923  1
  O  O18  1  0.834607  0.165393  0.418984  1
  O  O19  1  0.834607  0.669216  0.418984  1
  O  O20  1  0.330784  0.165393  0.418984  1
  O  O21  1  0.165393  0.834607  0.581016  1
  O  O22  1  0.165393  0.330784  0.581016  1
  O  O23  1  0.669216  0.834607  0.581016  1
  O  O24  1  0.168364  0.831636  0.916806  1
  O  O25  1  0.168364  0.336728  0.916806  1
  O  O26  1  0.663272  0.831636  0.916806  1
  O  O27  1  0.831636  0.168364  0.083194  1
  O  O28  1  0.831636  0.663272  0.083194  1
  O  O29  1  0.336728  0.168364  0.083194  1
