# generated using pymatgen
data_DyIn3BiB4Ir9
_symmetry_space_group_name_H-M   'P 1'
_cell_length_a   5.63344300
_cell_length_b   5.63344260
_cell_length_c   10.52497800
_cell_angle_alpha   90.00000000
_cell_angle_beta   90.00000000
_cell_angle_gamma   120.00000821
_symmetry_Int_Tables_number   1
_chemical_formula_structural   DyIn3BiB4Ir9
_chemical_formula_sum   'Dy1 In3 Bi1 B4 Ir9'
_cell_volume   289.26745230
_cell_formula_units_Z   1
loop_
 _symmetry_equiv_pos_site_id
 _symmetry_equiv_pos_as_xyz
  1  'x, y, z'
loop_
 _atom_site_type_symbol
 _atom_site_label
 _atom_site_symmetry_multiplicity
 _atom_site_fract_x
 _atom_site_fract_y
 _atom_site_fract_z
 _atom_site_occupancy
  Dy  Dy0  1  0.000000  0.000000  0.916072  1
  In  In1  1  0.666667  0.333333  0.507037  1
  In  In2  1  0.000000  0.000000  0.316463  1
  In  In3  1  0.333333  0.666667  0.507037  1
  Bi  Bi4  1  0.000000  0.000000  0.620531  1
  B  B5  1  0.666667  0.333333  0.155573  1
  B  B6  1  0.333333  0.666667  0.866491  1
  B  B7  1  0.666667  0.333333  0.866491  1
  B  B8  1  0.333333  0.666667  0.155573  1
  Ir  Ir9  1  0.000000  0.496570  0.282314  1
  Ir  Ir10  1  0.460948  0.000000  0.735198  1
  Ir  Ir11  1  0.496570  0.000000  0.282314  1
  Ir  Ir12  1  0.000000  0.493912  0.012065  1
  Ir  Ir13  1  0.539052  0.539052  0.735198  1
  Ir  Ir14  1  0.000000  0.460948  0.735198  1
  Ir  Ir15  1  0.506088  0.506088  0.012065  1
  Ir  Ir16  1  0.493912  0.000000  0.012065  1
  Ir  Ir17  1  0.503430  0.503430  0.282314  1
