# generated using pymatgen
data_Lu2Sc3V3(P3Ir4)4
_symmetry_space_group_name_H-M   'P 1'
_cell_length_a   12.61849700
_cell_length_b   12.61849592
_cell_length_c   3.91051800
_cell_angle_alpha   90.00000000
_cell_angle_beta   90.00000000
_cell_angle_gamma   120.00000021
_symmetry_Int_Tables_number   1
_chemical_formula_structural   Lu2Sc3V3(P3Ir4)4
_chemical_formula_sum   'Lu2 Sc3 V3 P12 Ir16'
_cell_volume   539.23756689
_cell_formula_units_Z   1
loop_
 _symmetry_equiv_pos_site_id
 _symmetry_equiv_pos_as_xyz
  1  'x, y, z'
loop_
 _atom_site_type_symbol
 _atom_site_label
 _atom_site_symmetry_multiplicity
 _atom_site_fract_x
 _atom_site_fract_y
 _atom_site_fract_z
 _atom_site_occupancy
  Lu  Lu0  1  0.333333  0.666667  0.000000  1
  Lu  Lu1  1  0.666667  0.333333  0.000000  1
  Sc  Sc2  1  0.812207  0.000000  0.500000  1
  Sc  Sc3  1  0.000000  0.812207  0.500000  1
  Sc  Sc4  1  0.187793  0.187793  0.500000  1
  V  V5  1  0.451136  0.000000  0.000000  1
  V  V6  1  0.000000  0.451136  0.000000  1
  V  V7  1  0.548864  0.548864  0.000000  1
  P  P8  1  0.174927  0.000000  0.000000  1
  P  P9  1  0.000000  0.174927  0.000000  1
  P  P10  1  0.825073  0.825073  0.000000  1
  P  P11  1  0.167269  0.483060  0.500000  1
  P  P12  1  0.516940  0.684208  0.500000  1
  P  P13  1  0.315792  0.832731  0.500000  1
  P  P14  1  0.684208  0.516940  0.500000  1
  P  P15  1  0.832731  0.315792  0.500000  1
  P  P16  1  0.483060  0.167269  0.500000  1
  P  P17  1  0.638886  0.000000  0.000000  1
  P  P18  1  0.000000  0.638886  0.000000  1
  P  P19  1  0.361114  0.361114  0.000000  1
  Ir  Ir20  1  0.358001  0.491576  0.500000  1
  Ir  Ir21  1  0.508424  0.866425  0.500000  1
  Ir  Ir22  1  0.133575  0.641999  0.500000  1
  Ir  Ir23  1  0.866425  0.508424  0.500000  1
  Ir  Ir24  1  0.641999  0.133575  0.500000  1
  Ir  Ir25  1  0.491576  0.358001  0.500000  1
  Ir  Ir26  1  0.178948  0.370663  0.000000  1
  Ir  Ir27  1  0.629337  0.808286  0.000000  1
  Ir  Ir28  1  0.191714  0.821052  0.000000  1
  Ir  Ir29  1  0.808286  0.629337  0.000000  1
  Ir  Ir30  1  0.821052  0.191714  0.000000  1
  Ir  Ir31  1  0.370663  0.178948  0.000000  1
  Ir  Ir32  1  0.283867  0.000000  0.500000  1
  Ir  Ir33  1  0.000000  0.283867  0.500000  1
  Ir  Ir34  1  0.716133  0.716133  0.500000  1
  Ir  Ir35  1  0.000000  0.000000  0.000000  1
