# generated using pymatgen
data_Lu7Co2Sn23Rh4
_symmetry_space_group_name_H-M   'P 1'
_cell_length_a   9.73909853
_cell_length_b   9.75091751
_cell_length_c   10.03505009
_cell_angle_alpha   90.00000203
_cell_angle_beta   90.04745312
_cell_angle_gamma   120.04016188
_symmetry_Int_Tables_number   1
_chemical_formula_structural   Lu7Co2Sn23Rh4
_chemical_formula_sum   'Lu7 Co2 Sn23 Rh4'
_cell_volume   824.97031124
_cell_formula_units_Z   1
loop_
 _symmetry_equiv_pos_site_id
 _symmetry_equiv_pos_as_xyz
  1  'x, y, z'
loop_
 _atom_site_type_symbol
 _atom_site_label
 _atom_site_symmetry_multiplicity
 _atom_site_fract_x
 _atom_site_fract_y
 _atom_site_fract_z
 _atom_site_occupancy
  Lu  Lu0  1  0.000000  0.000000  0.000000  1
  Lu  Lu1  1  0.479499  0.520625  0.307253  1
  Lu  Lu2  1  0.520501  0.479375  0.692747  1
  Lu  Lu3  1  0.479499  0.958874  0.307253  1
  Lu  Lu4  1  0.520501  0.041126  0.692747  1
  Lu  Lu5  1  0.041303  0.520651  0.307014  1
  Lu  Lu6  1  0.958697  0.479349  0.692986  1
  Co  Co7  1  0.337677  0.168838  0.198958  1
  Co  Co8  1  0.662323  0.831162  0.801042  1
  Sn  Sn9  1  0.350924  0.004638  0.005193  1
  Sn  Sn10  1  0.649076  0.995362  0.994807  1
  Sn  Sn11  1  0.000000  0.351108  0.000000  1
  Sn  Sn12  1  0.000000  0.648892  0.000000  1
  Sn  Sn13  1  0.649076  0.653714  0.994807  1
  Sn  Sn14  1  0.350924  0.346286  0.005193  1
  Sn  Sn15  1  0.338979  0.669490  0.817647  1
  Sn  Sn16  1  0.661021  0.330510  0.182353  1
  Sn  Sn17  1  0.000000  0.000000  0.500000  1
  Sn  Sn18  1  0.778292  0.221731  0.457020  1
  Sn  Sn19  1  0.221708  0.778269  0.542980  1
  Sn  Sn20  1  0.778292  0.556561  0.457020  1
  Sn  Sn21  1  0.221708  0.443439  0.542980  1
  Sn  Sn22  1  0.439908  0.219954  0.451090  1
  Sn  Sn23  1  0.560092  0.780046  0.548910  1
  Sn  Sn24  1  0.333405  0.666703  0.122885  1
  Sn  Sn25  1  0.666595  0.333297  0.877115  1
  Sn  Sn26  1  0.124512  0.886251  0.276973  1
  Sn  Sn27  1  0.875488  0.113749  0.723027  1
  Sn  Sn28  1  0.124512  0.238263  0.276973  1
  Sn  Sn29  1  0.875488  0.761737  0.723027  1
  Sn  Sn30  1  0.757220  0.878610  0.281939  1
  Sn  Sn31  1  0.242780  0.121390  0.718061  1
  Rh  Rh32  1  0.830648  0.167722  0.197997  1
  Rh  Rh33  1  0.169352  0.832278  0.802003  1
  Rh  Rh34  1  0.830648  0.662927  0.197997  1
  Rh  Rh35  1  0.169352  0.337073  0.802003  1
