# generated using pymatgen
data_TbHo2Mg3Si2Ag
_symmetry_space_group_name_H-M   'P 1'
_cell_length_a   7.24321400
_cell_length_b   7.25170415
_cell_length_c   4.31429900
_cell_angle_alpha   90.00000000
_cell_angle_beta   90.00000000
_cell_angle_gamma   119.96127845
_symmetry_Int_Tables_number   1
_chemical_formula_structural   TbHo2Mg3Si2Ag
_chemical_formula_sum   'Tb1 Ho2 Mg3 Si2 Ag1'
_cell_volume   196.32770462
_cell_formula_units_Z   1
loop_
 _symmetry_equiv_pos_site_id
 _symmetry_equiv_pos_as_xyz
  1  'x, y, z'
loop_
 _atom_site_type_symbol
 _atom_site_label
 _atom_site_symmetry_multiplicity
 _atom_site_fract_x
 _atom_site_fract_y
 _atom_site_fract_z
 _atom_site_occupancy
  Tb  Tb0  1  0.578040  0.000000  0.000000  1
  Ho  Ho1  1  0.999736  0.577941  0.000000  1
  Ho  Ho2  1  0.421796  0.422059  0.000000  1
  Mg  Mg3  1  0.248837  0.000000  0.500000  1
  Mg  Mg4  1  0.000237  0.249334  0.500000  1
  Mg  Mg5  1  0.750903  0.750666  0.500000  1
  Si  Si6  1  0.332707  0.665708  0.500000  1
  Si  Si7  1  0.666999  0.334292  0.500000  1
  Ag  Ag8  1  0.000746  0.000000  0.000000  1
