# generated using pymatgen
data_Tb2Dy2Tc3B8Os
_symmetry_space_group_name_H-M   'P 1'
_cell_length_a   5.95353763
_cell_length_b   5.30702900
_cell_length_c   6.44466534
_cell_angle_alpha   90.00000000
_cell_angle_beta   90.32272985
_cell_angle_gamma   90.00000000
_symmetry_Int_Tables_number   1
_chemical_formula_structural   Tb2Dy2Tc3B8Os
_chemical_formula_sum   'Tb2 Dy2 Tc3 B8 Os1'
_cell_volume   203.61981781
_cell_formula_units_Z   1
loop_
 _symmetry_equiv_pos_site_id
 _symmetry_equiv_pos_as_xyz
  1  'x, y, z'
loop_
 _atom_site_type_symbol
 _atom_site_label
 _atom_site_symmetry_multiplicity
 _atom_site_fract_x
 _atom_site_fract_y
 _atom_site_fract_z
 _atom_site_occupancy
  Tb  Tb0  1  0.013302  0.250000  0.339679  1
  Tb  Tb1  1  0.512922  0.250000  0.159842  1
  Dy  Dy2  1  0.985583  0.750000  0.662554  1
  Dy  Dy3  1  0.485408  0.750000  0.837478  1
  Tc  Tc4  1  0.181268  0.250000  0.814284  1
  Tc  Tc5  1  0.679259  0.250000  0.684051  1
  Tc  Tc6  1  0.819787  0.750000  0.185590  1
  B  B7  1  0.369921  0.078375  0.536977  1
  B  B8  1  0.871850  0.421126  0.963224  1
  B  B9  1  0.629981  0.580909  0.463689  1
  B  B10  1  0.131185  0.920043  0.037119  1
  B  B11  1  0.629981  0.919091  0.463689  1
  B  B12  1  0.131185  0.579957  0.037119  1
  B  B13  1  0.369921  0.421625  0.536977  1
  B  B14  1  0.871850  0.078874  0.963224  1
  Os  Os15  1  0.316598  0.750000  0.314501  1
