# generated using pymatgen
data_UAsPCl13
_symmetry_space_group_name_H-M   'P 1'
_cell_length_a   10.01288749
_cell_length_b   10.01288799
_cell_length_c   12.34288000
_cell_angle_alpha   90.00000000
_cell_angle_beta   90.00000000
_cell_angle_gamma   115.34790859
_symmetry_Int_Tables_number   1
_chemical_formula_structural   UAsPCl13
_chemical_formula_sum   'U2 As2 P2 Cl26'
_cell_volume   1118.33378653
_cell_formula_units_Z   2
loop_
 _symmetry_equiv_pos_site_id
 _symmetry_equiv_pos_as_xyz
  1  'x, y, z'
loop_
 _atom_site_type_symbol
 _atom_site_label
 _atom_site_symmetry_multiplicity
 _atom_site_fract_x
 _atom_site_fract_y
 _atom_site_fract_z
 _atom_site_occupancy
  U  U0  1  0.793571  0.206429  0.997795  1
  U  U1  1  0.206429  0.793571  0.497795  1
  As  As2  1  0.450947  0.549053  0.346089  1
  As  As3  1  0.549053  0.450947  0.846089  1
  P  P4  1  0.140614  0.859386  0.035824  1
  P  P5  1  0.859386  0.140614  0.535824  1
  Cl  Cl6  1  0.312332  0.020309  0.617233  1
  Cl  Cl7  1  0.863463  0.136537  0.377430  1
  Cl  Cl8  1  0.622475  0.691252  0.868837  1
  Cl  Cl9  1  0.136537  0.863463  0.877430  1
  Cl  Cl10  1  0.938462  0.763387  0.091881  1
  Cl  Cl11  1  0.691252  0.622475  0.368837  1
  Cl  Cl12  1  0.748937  0.251063  0.582817  1
  Cl  Cl13  1  0.236613  0.061538  0.091881  1
  Cl  Cl14  1  0.687668  0.979691  0.117233  1
  Cl  Cl15  1  0.251063  0.748937  0.082817  1
  Cl  Cl16  1  0.061538  0.236613  0.591881  1
  Cl  Cl17  1  0.099383  0.564795  0.377561  1
  Cl  Cl18  1  0.979691  0.687668  0.617233  1
  Cl  Cl19  1  0.020309  0.312332  0.117233  1
  Cl  Cl20  1  0.083632  0.916368  0.379634  1
  Cl  Cl21  1  0.900617  0.435205  0.877561  1
  Cl  Cl22  1  0.564795  0.099383  0.877561  1
  Cl  Cl23  1  0.435205  0.900617  0.377561  1
  Cl  Cl24  1  0.308748  0.377525  0.868837  1
  Cl  Cl25  1  0.377525  0.308748  0.368837  1
  Cl  Cl26  1  0.916368  0.083632  0.879634  1
  Cl  Cl27  1  0.553399  0.446601  0.666399  1
  Cl  Cl28  1  0.330428  0.669572  0.612287  1
  Cl  Cl29  1  0.669572  0.330428  0.112287  1
  Cl  Cl30  1  0.763387  0.938462  0.591881  1
  Cl  Cl31  1  0.446601  0.553399  0.166399  1
