# generated using pymatgen
data_Tb16MgGa(AgRh2)2
_symmetry_space_group_name_H-M   'P 1'
_cell_length_a   9.61192621
_cell_length_b   9.63329311
_cell_length_c   9.63329387
_cell_angle_alpha   59.62231623
_cell_angle_beta   59.70749213
_cell_angle_gamma   59.70749556
_symmetry_Int_Tables_number   1
_chemical_formula_structural   Tb16MgGa(AgRh2)2
_chemical_formula_sum   'Tb16 Mg1 Ga1 Ag2 Rh4'
_cell_volume   626.13317245
_cell_formula_units_Z   1
loop_
 _symmetry_equiv_pos_site_id
 _symmetry_equiv_pos_as_xyz
  1  'x, y, z'
loop_
 _atom_site_type_symbol
 _atom_site_label
 _atom_site_symmetry_multiplicity
 _atom_site_fract_x
 _atom_site_fract_y
 _atom_site_fract_z
 _atom_site_occupancy
  Tb  Tb0  1  0.349235  0.348020  0.348020  1
  Tb  Tb1  1  0.352588  0.351762  0.948477  1
  Tb  Tb2  1  0.352588  0.948477  0.351762  1
  Tb  Tb3  1  0.935667  0.355944  0.355944  1
  Tb  Tb4  1  0.809419  0.188726  0.188726  1
  Tb  Tb5  1  0.191358  0.809426  0.809426  1
  Tb  Tb6  1  0.186345  0.811317  0.187511  1
  Tb  Tb7  1  0.807736  0.192545  0.807912  1
  Tb  Tb8  1  0.186345  0.187511  0.811317  1
  Tb  Tb9  1  0.807736  0.807912  0.192545  1
  Tb  Tb10  1  0.932570  0.564852  0.564852  1
  Tb  Tb11  1  0.561837  0.937604  0.937604  1
  Tb  Tb12  1  0.562716  0.937031  0.565078  1
  Tb  Tb13  1  0.935467  0.563032  0.938559  1
  Tb  Tb14  1  0.562716  0.565078  0.937031  1
  Tb  Tb15  1  0.935467  0.938559  0.563032  1
  Mg  Mg16  1  0.286467  0.570093  0.570093  1
  Ga  Ga17  1  0.585441  0.584832  0.584832  1
  Ag  Ag18  1  0.582113  0.584694  0.249270  1
  Ag  Ag19  1  0.582113  0.249270  0.584694  1
  Rh  Rh20  1  0.139464  0.144228  0.144228  1
  Rh  Rh21  1  0.141419  0.144535  0.571206  1
  Rh  Rh22  1  0.141419  0.571206  0.144535  1
  Rh  Rh23  1  0.571776  0.143344  0.143344  1
