# generated using pymatgen
data_Ho12Er8TlCoBi7Rh3
_symmetry_space_group_name_H-M   'P 1'
_cell_length_a   7.97141132
_cell_length_b   8.94950800
_cell_length_c   12.38893500
_cell_angle_alpha   90.00000000
_cell_angle_beta   89.83683275
_cell_angle_gamma   90.00000000
_symmetry_Int_Tables_number   1
_chemical_formula_structural   Ho12Er8TlCoBi7Rh3
_chemical_formula_sum   'Ho12 Er8 Tl1 Co1 Bi7 Rh3'
_cell_volume   883.82563341
_cell_formula_units_Z   1
loop_
 _symmetry_equiv_pos_site_id
 _symmetry_equiv_pos_as_xyz
  1  'x, y, z'
loop_
 _atom_site_type_symbol
 _atom_site_label
 _atom_site_symmetry_multiplicity
 _atom_site_fract_x
 _atom_site_fract_y
 _atom_site_fract_z
 _atom_site_occupancy
  Ho  Ho0  1  0.349251  0.746916  0.700854  1
  Ho  Ho1  1  0.656251  0.249676  0.293887  1
  Ho  Ho2  1  0.839420  0.252398  0.792022  1
  Ho  Ho3  1  0.157610  0.749262  0.206481  1
  Ho  Ho4  1  0.873595  0.747821  0.806775  1
  Ho  Ho5  1  0.121413  0.250489  0.193799  1
  Ho  Ho6  1  0.383568  0.253138  0.694671  1
  Ho  Ho7  1  0.615263  0.750110  0.312599  1
  Ho  Ho8  1  0.053568  0.750151  0.498347  1
  Ho  Ho9  1  0.950736  0.249381  0.501527  1
  Ho  Ho10  1  0.549619  0.254062  0.998494  1
  Ho  Ho11  1  0.451592  0.746239  0.994714  1
  Er  Er12  1  0.674507  0.545185  0.567800  1
  Er  Er13  1  0.325328  0.466329  0.436427  1
  Er  Er14  1  0.179635  0.458620  0.933072  1
  Er  Er15  1  0.325421  0.034740  0.436933  1
  Er  Er16  1  0.821973  0.542729  0.065521  1
  Er  Er17  1  0.676415  0.952429  0.564160  1
  Er  Er18  1  0.821445  0.957266  0.066075  1
  Er  Er19  1  0.175603  0.042496  0.933277  1
  Tl  Tl20  1  0.571284  0.507821  0.827154  1
  Co  Co21  1  0.431385  0.750849  0.491102  1
  Bi  Bi22  1  0.429125  0.491296  0.174267  1
  Bi  Bi23  1  0.071622  0.491054  0.672034  1
  Bi  Bi24  1  0.428678  0.008504  0.172058  1
  Bi  Bi25  1  0.929253  0.509107  0.328322  1
  Bi  Bi26  1  0.569493  0.991439  0.827150  1
  Bi  Bi27  1  0.929164  0.990682  0.327357  1
  Bi  Bi28  1  0.070863  0.008401  0.673262  1
  Rh  Rh29  1  0.069253  0.750899  0.990951  1
  Rh  Rh30  1  0.927500  0.250327  0.010334  1
  Rh  Rh31  1  0.570168  0.250187  0.508571  1
