# generated using pymatgen
data_Ce4Fe3Si4Ru
_symmetry_space_group_name_H-M   'P 1'
_cell_length_a   7.30078503
_cell_length_b   4.33039600
_cell_length_c   6.47795202
_cell_angle_alpha   90.00000000
_cell_angle_beta   89.99092945
_cell_angle_gamma   90.00000000
_symmetry_Int_Tables_number   1
_chemical_formula_structural   Ce4Fe3Si4Ru
_chemical_formula_sum   'Ce4 Fe3 Si4 Ru1'
_cell_volume   204.80233086
_cell_formula_units_Z   1
loop_
 _symmetry_equiv_pos_site_id
 _symmetry_equiv_pos_as_xyz
  1  'x, y, z'
loop_
 _atom_site_type_symbol
 _atom_site_label
 _atom_site_symmetry_multiplicity
 _atom_site_fract_x
 _atom_site_fract_y
 _atom_site_fract_z
 _atom_site_occupancy
  Ce  Ce0  1  0.024130  0.250001  0.167220  1
  Ce  Ce1  1  0.523742  0.250001  0.340408  1
  Ce  Ce2  1  0.469930  0.750001  0.660588  1
  Ce  Ce3  1  0.978288  0.750001  0.828875  1
  Fe  Fe4  1  0.136048  0.750001  0.436187  1
  Fe  Fe5  1  0.868077  0.250001  0.566685  1
  Fe  Fe6  1  0.364963  0.250001  0.933444  1
  Si  Si7  1  0.307788  0.750001  0.114661  1
  Si  Si8  1  0.816419  0.750001  0.392169  1
  Si  Si9  1  0.186353  0.250001  0.616363  1
  Si  Si10  1  0.685965  0.250001  0.876827  1
  Ru  Ru11  1  0.638304  0.750001  0.066576  1
