# generated using pymatgen
data_Ca11SmPd12
_symmetry_space_group_name_H-M   'P 1'
_cell_length_a   5.76445455
_cell_length_b   4.49737300
_cell_length_c   22.09009463
_cell_angle_alpha   90.00000000
_cell_angle_beta   96.64101812
_cell_angle_gamma   90.00000000
_symmetry_Int_Tables_number   1
_chemical_formula_structural   Ca11SmPd12
_chemical_formula_sum   'Ca11 Sm1 Pd12'
_cell_volume   568.84096739
_cell_formula_units_Z   1
loop_
 _symmetry_equiv_pos_site_id
 _symmetry_equiv_pos_as_xyz
  1  'x, y, z'
loop_
 _atom_site_type_symbol
 _atom_site_label
 _atom_site_symmetry_multiplicity
 _atom_site_fract_x
 _atom_site_fract_y
 _atom_site_fract_z
 _atom_site_occupancy
  Ca  Ca0  1  0.177038  0.750000  0.107154  1
  Ca  Ca1  1  0.502935  0.250001  0.227476  1
  Ca  Ca2  1  0.025382  0.750000  0.274078  1
  Ca  Ca3  1  0.809603  0.250001  0.393967  1
  Ca  Ca4  1  0.332271  0.750000  0.439650  1
  Ca  Ca5  1  0.667270  0.250001  0.560446  1
  Ca  Ca6  1  0.190732  0.750000  0.606070  1
  Ca  Ca7  1  0.974689  0.250001  0.726637  1
  Ca  Ca8  1  0.497436  0.750000  0.773203  1
  Ca  Ca9  1  0.823475  0.250001  0.892164  1
  Ca  Ca10  1  0.336174  0.750000  0.938482  1
  Sm  Sm11  1  0.666121  0.250001  0.061062  1
  Pd  Pd12  1  0.150876  0.250001  0.014370  1
  Pd  Pd13  1  0.692735  0.750000  0.151993  1
  Pd  Pd14  1  0.983299  0.250001  0.179162  1
  Pd  Pd15  1  0.550409  0.750000  0.321156  1
  Pd  Pd16  1  0.282273  0.250001  0.345451  1
  Pd  Pd17  1  0.853588  0.750000  0.487873  1
  Pd  Pd18  1  0.146201  0.250001  0.512199  1
  Pd  Pd19  1  0.717192  0.750000  0.654295  1
  Pd  Pd20  1  0.449972  0.250001  0.678887  1
  Pd  Pd21  1  0.014696  0.750000  0.819736  1
  Pd  Pd22  1  0.304967  0.250001  0.845449  1
  Pd  Pd23  1  0.850667  0.750000  0.989041  1
