# generated using pymatgen
data_Rb2Fe2(SeO3)3
_symmetry_space_group_name_H-M   'P 1'
_cell_length_a   5.68017300
_cell_length_b   5.68017228
_cell_length_c   18.44761900
_cell_angle_alpha   90.00000000
_cell_angle_beta   90.00000000
_cell_angle_gamma   120.00001000
_symmetry_Int_Tables_number   1
_chemical_formula_structural   Rb2Fe2(SeO3)3
_chemical_formula_sum   'Rb4 Fe4 Se6 O18'
_cell_volume   515.45882565
_cell_formula_units_Z   2
loop_
 _symmetry_equiv_pos_site_id
 _symmetry_equiv_pos_as_xyz
  1  'x, y, z'
loop_
 _atom_site_type_symbol
 _atom_site_label
 _atom_site_symmetry_multiplicity
 _atom_site_fract_x
 _atom_site_fract_y
 _atom_site_fract_z
 _atom_site_occupancy
  Rb  Rb0  1  0.666667  0.333333  0.531434  1
  Rb  Rb1  1  0.333333  0.666667  0.455600  1
  Rb  Rb2  1  0.333333  0.666667  0.031434  1
  Rb  Rb3  1  0.666667  0.333333  0.955600  1
  Fe  Fe4  1  0.666667  0.333333  0.170636  1
  Fe  Fe5  1  0.333333  0.666667  0.834126  1
  Fe  Fe6  1  0.333333  0.666667  0.670636  1
  Fe  Fe7  1  0.666667  0.333333  0.334126  1
  Se  Se8  1  0.000000  0.000000  0.643079  1
  Se  Se9  1  0.000000  0.000000  0.355436  1
  Se  Se10  1  0.000000  0.000000  0.143079  1
  Se  Se11  1  0.000000  0.000000  0.855436  1
  Se  Se12  1  0.666667  0.333333  0.716220  1
  Se  Se13  1  0.333333  0.666667  0.216220  1
  O  O14  1  0.841205  0.158795  0.101913  1
  O  O15  1  0.317592  0.158795  0.101913  1
  O  O16  1  0.841205  0.682408  0.101913  1
  O  O17  1  0.157317  0.842683  0.898282  1
  O  O18  1  0.685367  0.842683  0.898282  1
  O  O19  1  0.157317  0.314633  0.898282  1
  O  O20  1  0.158795  0.841205  0.601913  1
  O  O21  1  0.682408  0.841205  0.601913  1
  O  O22  1  0.158795  0.317592  0.601913  1
  O  O23  1  0.842683  0.157317  0.398282  1
  O  O24  1  0.314633  0.157317  0.398282  1
  O  O25  1  0.842683  0.685367  0.398282  1
  O  O26  1  0.504097  0.495903  0.752663  1
  O  O27  1  0.991806  0.495903  0.752663  1
  O  O28  1  0.504097  0.008194  0.752663  1
  O  O29  1  0.495903  0.504097  0.252663  1
  O  O30  1  0.008194  0.504097  0.252663  1
  O  O31  1  0.495903  0.991806  0.252663  1
