# generated using pymatgen
data_SrMnNi2(PO4)3
_symmetry_space_group_name_H-M   'P 1'
_cell_length_a   9.15388025
_cell_length_b   9.15388096
_cell_length_c   9.15388018
_cell_angle_alpha   138.12643925
_cell_angle_beta   111.14839991
_cell_angle_gamma   83.94952947
_symmetry_Int_Tables_number   1
_chemical_formula_structural   SrMnNi2(PO4)3
_chemical_formula_sum   'Sr2 Mn2 Ni4 P6 O24'
_cell_volume   460.79591283
_cell_formula_units_Z   2
loop_
 _symmetry_equiv_pos_site_id
 _symmetry_equiv_pos_as_xyz
  1  'x, y, z'
loop_
 _atom_site_type_symbol
 _atom_site_label
 _atom_site_symmetry_multiplicity
 _atom_site_fract_x
 _atom_site_fract_y
 _atom_site_fract_z
 _atom_site_occupancy
  Sr  Sr0  1  0.250000  0.344842  0.094842  1
  Sr  Sr1  1  0.750000  0.655158  0.905158  1
  Mn  Mn2  1  0.000000  0.500000  0.500000  1
  Mn  Mn3  1  0.500000  0.000000  0.500000  1
  Ni  Ni4  1  0.116386  0.116386  0.500000  1
  Ni  Ni5  1  0.383614  0.883614  0.000000  1
  Ni  Ni6  1  0.616386  0.116386  0.000000  1
  Ni  Ni7  1  0.883614  0.883614  0.500000  1
  P  P8  1  0.250000  0.833369  0.583369  1
  P  P9  1  0.750000  0.166631  0.416631  1
  P  P10  1  0.321334  0.321334  0.500000  1
  P  P11  1  0.178666  0.678666  0.000000  1
  P  P12  1  0.821334  0.321334  0.000000  1
  P  P13  1  0.678666  0.678666  0.500000  1
  O  O14  1  0.341443  0.788444  0.447002  1
  O  O15  1  0.658557  0.211556  0.552998  1
  O  O16  1  0.841443  0.394442  0.552998  1
  O  O17  1  0.158557  0.605558  0.447002  1
  O  O18  1  0.130580  0.982121  0.612700  1
  O  O19  1  0.630580  0.017879  0.148459  1
  O  O20  1  0.869420  0.017879  0.387300  1
  O  O21  1  0.369420  0.982121  0.851541  1
  O  O22  1  0.342996  0.200046  0.275486  1
  O  O23  1  0.075440  0.799954  0.142950  1
  O  O24  1  0.842996  0.567511  0.142950  1
  O  O25  1  0.575440  0.432489  0.275486  1
  O  O26  1  0.657004  0.799954  0.724514  1
  O  O27  1  0.924560  0.200046  0.857050  1
  O  O28  1  0.157004  0.432489  0.857050  1
  O  O29  1  0.424560  0.567511  0.724514  1
  O  O30  1  0.131720  0.288920  0.432913  1
  O  O31  1  0.143994  0.711080  0.842801  1
  O  O32  1  0.631720  0.198807  0.842801  1
  O  O33  1  0.643994  0.801193  0.432913  1
  O  O34  1  0.868280  0.711080  0.567087  1
  O  O35  1  0.856006  0.288920  0.157199  1
  O  O36  1  0.368280  0.801193  0.157199  1
  O  O37  1  0.356006  0.198807  0.567087  1
