# generated using pymatgen
data_Sc12ZnCo4Os
_symmetry_space_group_name_H-M   'P 1'
_cell_length_a   7.67399191
_cell_length_b   7.67404550
_cell_length_c   7.67399168
_cell_angle_alpha   111.49642621
_cell_angle_beta   110.70643604
_cell_angle_gamma   106.25855656
_symmetry_Int_Tables_number   1
_chemical_formula_structural   Sc12ZnCo4Os
_chemical_formula_sum   'Sc12 Zn1 Co4 Os1'
_cell_volume   347.06179282
_cell_formula_units_Z   1
loop_
 _symmetry_equiv_pos_site_id
 _symmetry_equiv_pos_as_xyz
  1  'x, y, z'
loop_
 _atom_site_type_symbol
 _atom_site_label
 _atom_site_symmetry_multiplicity
 _atom_site_fract_x
 _atom_site_fract_y
 _atom_site_fract_z
 _atom_site_occupancy
  Sc  Sc0  1  0.427103  0.231323  0.195791  1
  Sc  Sc1  1  0.572897  0.768677  0.804209  1
  Sc  Sc2  1  0.035531  0.231323  0.804219  1
  Sc  Sc3  1  0.964469  0.768677  0.195781  1
  Sc  Sc4  1  0.315391  0.615531  0.300140  1
  Sc  Sc5  1  0.684609  0.384469  0.699860  1
  Sc  Sc6  1  0.315401  0.015280  0.699880  1
  Sc  Sc7  1  0.684599  0.984720  0.300120  1
  Sc  Sc8  1  0.182749  0.273427  0.456153  1
  Sc  Sc9  1  0.817251  0.726572  0.543847  1
  Sc  Sc10  1  0.182726  0.726572  0.909322  1
  Sc  Sc11  1  0.817274  0.273427  0.090678  1
  Zn  Zn12  1  0.500000  0.500000  0.000000  1
  Co  Co13  1  0.363813  0.000000  0.363813  1
  Co  Co14  1  0.636187  0.000000  0.636187  1
  Co  Co15  1  0.119195  0.619193  0.499998  1
  Co  Co16  1  0.880805  0.380807  0.500002  1
  Os  Os17  1  0.000000  0.000000  0.000000  1
