# generated using pymatgen
data_Nd6Er10Cd3AgIr4
_symmetry_space_group_name_H-M   'P 1'
_cell_length_a   9.67847657
_cell_length_b   9.67847735
_cell_length_c   9.67847696
_cell_angle_alpha   59.90001847
_cell_angle_beta   59.90001366
_cell_angle_gamma   59.90002080
_symmetry_Int_Tables_number   1
_chemical_formula_structural   Nd6Er10Cd3AgIr4
_chemical_formula_sum   'Nd6 Er10 Cd3 Ag1 Ir4'
_cell_volume   639.61677710
_cell_formula_units_Z   1
loop_
 _symmetry_equiv_pos_site_id
 _symmetry_equiv_pos_as_xyz
  1  'x, y, z'
loop_
 _atom_site_type_symbol
 _atom_site_label
 _atom_site_symmetry_multiplicity
 _atom_site_fract_x
 _atom_site_fract_y
 _atom_site_fract_z
 _atom_site_occupancy
  Nd  Nd0  1  0.937829  0.558947  0.558947  1
  Nd  Nd1  1  0.558294  0.939947  0.939947  1
  Nd  Nd2  1  0.558947  0.937829  0.558947  1
  Nd  Nd3  1  0.939947  0.558294  0.939947  1
  Nd  Nd4  1  0.558947  0.558947  0.937829  1
  Nd  Nd5  1  0.939947  0.939947  0.558294  1
  Er  Er6  1  0.346921  0.346921  0.346921  1
  Er  Er7  1  0.348761  0.348761  0.957117  1
  Er  Er8  1  0.348761  0.957117  0.348761  1
  Er  Er9  1  0.957117  0.348761  0.348761  1
  Er  Er10  1  0.811927  0.187295  0.187295  1
  Er  Er11  1  0.186009  0.812474  0.812474  1
  Er  Er12  1  0.187295  0.811927  0.187295  1
  Er  Er13  1  0.812474  0.186009  0.812474  1
  Er  Er14  1  0.187295  0.187295  0.811927  1
  Er  Er15  1  0.812474  0.812474  0.186009  1
  Cd  Cd16  1  0.580224  0.580224  0.262941  1
  Cd  Cd17  1  0.580224  0.262941  0.580224  1
  Cd  Cd18  1  0.262941  0.580224  0.580224  1
  Ag  Ag19  1  0.581209  0.581209  0.581209  1
  Ir  Ir20  1  0.141403  0.141403  0.141403  1
  Ir  Ir21  1  0.142089  0.142089  0.576872  1
  Ir  Ir22  1  0.142089  0.576872  0.142089  1
  Ir  Ir23  1  0.576872  0.142089  0.142089  1
