# generated using pymatgen
data_Dy4Er6Lu2Co5Bi
_symmetry_space_group_name_H-M   'P 1'
_cell_length_a   8.25601889
_cell_length_b   8.26485667
_cell_length_c   8.26485615
_cell_angle_alpha   110.87248715
_cell_angle_beta   110.75421021
_cell_angle_gamma   106.86035093
_symmetry_Int_Tables_number   1
_chemical_formula_structural   Dy4Er6Lu2Co5Bi
_chemical_formula_sum   'Dy4 Er6 Lu2 Co5 Bi1'
_cell_volume   433.22519538
_cell_formula_units_Z   1
loop_
 _symmetry_equiv_pos_site_id
 _symmetry_equiv_pos_as_xyz
  1  'x, y, z'
loop_
 _atom_site_type_symbol
 _atom_site_label
 _atom_site_symmetry_multiplicity
 _atom_site_fract_x
 _atom_site_fract_y
 _atom_site_fract_z
 _atom_site_occupancy
  Dy  Dy0  1  0.288529  0.185276  0.472181  1
  Dy  Dy1  1  0.711471  0.814724  0.527819  1
  Dy  Dy2  1  0.288529  0.816348  0.103255  1
  Dy  Dy3  1  0.711471  0.183652  0.896745  1
  Er  Er4  1  0.001240  0.311926  0.689312  1
  Er  Er5  1  0.998760  0.688074  0.310688  1
  Er  Er6  1  0.208541  0.402618  0.195436  1
  Er  Er7  1  0.791459  0.597382  0.804564  1
  Er  Er8  1  0.208541  0.013104  0.805923  1
  Er  Er9  1  0.791459  0.986896  0.194077  1
  Lu  Lu10  1  0.623402  0.312256  0.311146  1
  Lu  Lu11  1  0.376598  0.687744  0.688854  1
  Co  Co12  1  0.000000  0.375715  0.375715  1
  Co  Co13  1  0.000000  0.624285  0.624285  1
  Co  Co14  1  0.388333  0.887885  0.500447  1
  Co  Co15  1  0.611667  0.112115  0.499553  1
  Co  Co16  1  0.000000  0.000000  0.000000  1
  Bi  Bi17  1  0.500000  0.500000  0.000000  1
