# generated using pymatgen
data_Zn2CoNi5(Mo3N)4
_symmetry_space_group_name_H-M   'P 1'
_cell_length_a   6.72043362
_cell_length_b   6.71154403
_cell_length_c   6.72065614
_cell_angle_alpha   89.95207528
_cell_angle_beta   89.83472351
_cell_angle_gamma   90.10742598
_symmetry_Int_Tables_number   1
_chemical_formula_structural   Zn2CoNi5(Mo3N)4
_chemical_formula_sum   'Zn2 Co1 Ni5 Mo12 N4'
_cell_volume   303.12984013
_cell_formula_units_Z   1
loop_
 _symmetry_equiv_pos_site_id
 _symmetry_equiv_pos_as_xyz
  1  'x, y, z'
loop_
 _atom_site_type_symbol
 _atom_site_label
 _atom_site_symmetry_multiplicity
 _atom_site_fract_x
 _atom_site_fract_y
 _atom_site_fract_z
 _atom_site_occupancy
  Zn  Zn0  1  0.066897  0.066276  0.071361  1
  Zn  Zn1  1  0.321189  0.183039  0.817626  1
  Co  Co2  1  0.684022  0.681041  0.684291  1
  Ni  Ni3  1  0.819448  0.318833  0.183199  1
  Ni  Ni4  1  0.184586  0.819091  0.320009  1
  Ni  Ni5  1  0.434367  0.931679  0.568827  1
  Ni  Ni6  1  0.568602  0.431370  0.934792  1
  Ni  Ni7  1  0.934934  0.567730  0.434094  1
  Mo  Mo8  1  0.123712  0.206157  0.450508  1
  Mo  Mo9  1  0.383246  0.786794  0.946851  1
  Mo  Mo10  1  0.871626  0.695897  0.046765  1
  Mo  Mo11  1  0.198577  0.463134  0.132456  1
  Mo  Mo12  1  0.791258  0.945466  0.380319  1
  Mo  Mo13  1  0.041586  0.869042  0.693721  1
  Mo  Mo14  1  0.458290  0.124986  0.208687  1
  Mo  Mo15  1  0.300879  0.553378  0.624987  1
  Mo  Mo16  1  0.942223  0.381553  0.791775  1
  Mo  Mo17  1  0.547812  0.626630  0.300274  1
  Mo  Mo18  1  0.700198  0.042539  0.872593  1
  Mo  Mo19  1  0.631017  0.304205  0.541590  1
  N  N20  1  0.374271  0.377330  0.375615  1
  N  N21  1  0.625448  0.873472  0.123864  1
  N  N22  1  0.122464  0.625450  0.872515  1
  N  N23  1  0.873347  0.124910  0.623280  1
