# generated using pymatgen
data_Tb16Co3Hg4Ru
_symmetry_space_group_name_H-M   'P 1'
_cell_length_a   9.56284413
_cell_length_b   9.56284376
_cell_length_c   9.56284302
_cell_angle_alpha   59.89293401
_cell_angle_beta   59.89293452
_cell_angle_gamma   59.89293528
_symmetry_Int_Tables_number   1
_chemical_formula_structural   Tb16Co3Hg4Ru
_chemical_formula_sum   'Tb16 Co3 Hg4 Ru1'
_cell_volume   616.86474551
_cell_formula_units_Z   1
loop_
 _symmetry_equiv_pos_site_id
 _symmetry_equiv_pos_as_xyz
  1  'x, y, z'
loop_
 _atom_site_type_symbol
 _atom_site_label
 _atom_site_symmetry_multiplicity
 _atom_site_fract_x
 _atom_site_fract_y
 _atom_site_fract_z
 _atom_site_occupancy
  Tb  Tb0  1  0.438422  0.438422  0.057043  1
  Tb  Tb1  1  0.596656  0.596656  0.596656  1
  Tb  Tb2  1  0.188336  0.812372  0.812372  1
  Tb  Tb3  1  0.060634  0.060634  0.436681  1
  Tb  Tb4  1  0.436681  0.060634  0.060634  1
  Tb  Tb5  1  0.812372  0.188336  0.812372  1
  Tb  Tb6  1  0.438422  0.057043  0.438422  1
  Tb  Tb7  1  0.600752  0.207581  0.600752  1
  Tb  Tb8  1  0.812372  0.812372  0.188336  1
  Tb  Tb9  1  0.207581  0.600752  0.600752  1
  Tb  Tb10  1  0.808072  0.189586  0.189586  1
  Tb  Tb11  1  0.057043  0.438422  0.438422  1
  Tb  Tb12  1  0.189586  0.808072  0.189586  1
  Tb  Tb13  1  0.600752  0.600752  0.207581  1
  Tb  Tb14  1  0.189586  0.189586  0.808072  1
  Tb  Tb15  1  0.060634  0.436681  0.060634  1
  Co  Co16  1  0.828632  0.392634  0.392634  1
  Co  Co17  1  0.392634  0.828632  0.392634  1
  Co  Co18  1  0.392634  0.392634  0.828632  1
  Hg  Hg19  1  0.833551  0.833551  0.497295  1
  Hg  Hg20  1  0.833487  0.833487  0.833487  1
  Hg  Hg21  1  0.497295  0.833551  0.833551  1
  Hg  Hg22  1  0.833551  0.497295  0.833551  1
  Ru  Ru23  1  0.390317  0.390317  0.390317  1
