# generated using pymatgen
data_Ba4Zn2TeWO12
_symmetry_space_group_name_H-M   'P 1'
_cell_length_a   5.84546100
_cell_length_b   8.24090400
_cell_length_c   11.69320800
_cell_angle_alpha   90.00000000
_cell_angle_beta   90.00000000
_cell_angle_gamma   90.00000000
_symmetry_Int_Tables_number   1
_chemical_formula_structural   Ba4Zn2TeWO12
_chemical_formula_sum   'Ba8 Zn4 Te2 W2 O24'
_cell_volume   563.28384693
_cell_formula_units_Z   2
loop_
 _symmetry_equiv_pos_site_id
 _symmetry_equiv_pos_as_xyz
  1  'x, y, z'
loop_
 _atom_site_type_symbol
 _atom_site_label
 _atom_site_symmetry_multiplicity
 _atom_site_fract_x
 _atom_site_fract_y
 _atom_site_fract_z
 _atom_site_occupancy
  Ba  Ba0  1  0.999889  0.249263  0.125002  1
  Ba  Ba1  1  0.000111  0.750737  0.625002  1
  Ba  Ba2  1  0.499991  0.750779  0.875079  1
  Ba  Ba3  1  0.500009  0.249221  0.375079  1
  Ba  Ba4  1  0.499991  0.249221  0.875079  1
  Ba  Ba5  1  0.500009  0.750779  0.375079  1
  Ba  Ba6  1  0.999889  0.750737  0.125002  1
  Ba  Ba7  1  0.000111  0.249263  0.625002  1
  Zn  Zn8  1  0.001584  0.500000  0.374950  1
  Zn  Zn9  1  0.998416  0.500000  0.874950  1
  Zn  Zn10  1  0.499182  0.000000  0.625138  1
  Zn  Zn11  1  0.500818  0.000000  0.125138  1
  Te  Te12  1  0.000669  0.000000  0.874983  1
  Te  Te13  1  0.999331  0.000000  0.374983  1
  W  W14  1  0.499002  0.500000  0.124931  1
  W  W15  1  0.500998  0.500000  0.624931  1
  O  O16  1  0.498908  0.739228  0.124864  1
  O  O17  1  0.501092  0.260772  0.624864  1
  O  O18  1  0.000742  0.238037  0.875077  1
  O  O19  1  0.999258  0.761963  0.375077  1
  O  O20  1  0.000742  0.761963  0.875077  1
  O  O21  1  0.999258  0.238037  0.375077  1
  O  O22  1  0.498908  0.260772  0.124864  1
  O  O23  1  0.501092  0.739228  0.624864  1
  O  O24  1  0.260357  0.500000  0.006674  1
  O  O25  1  0.739643  0.500000  0.506674  1
  O  O26  1  0.240541  0.000000  0.993071  1
  O  O27  1  0.759459  0.000000  0.493071  1
  O  O28  1  0.262405  0.500000  0.244305  1
  O  O29  1  0.737595  0.500000  0.744305  1
  O  O30  1  0.236684  0.000000  0.755101  1
  O  O31  1  0.763316  0.000000  0.255101  1
  O  O32  1  0.737519  0.500000  0.243293  1
  O  O33  1  0.262481  0.500000  0.743293  1
  O  O34  1  0.760787  0.000000  0.756878  1
  O  O35  1  0.239213  0.000000  0.256878  1
  O  O36  1  0.735749  0.500000  0.005789  1
  O  O37  1  0.264251  0.500000  0.505789  1
  O  O38  1  0.764380  0.000000  0.994842  1
  O  O39  1  0.235620  0.000000  0.494842  1
