# generated using pymatgen
data_La8Zn8Ir5PdRh2
_symmetry_space_group_name_H-M   'P 1'
_cell_length_a   4.08104900
_cell_length_b   7.46254547
_cell_length_c   16.76576532
_cell_angle_alpha   90.24611585
_cell_angle_beta   90.00000000
_cell_angle_gamma   90.00000000
_symmetry_Int_Tables_number   1
_chemical_formula_structural   La8Zn8Ir5PdRh2
_chemical_formula_sum   'La8 Zn8 Ir5 Pd1 Rh2'
_cell_volume   510.59690210
_cell_formula_units_Z   1
loop_
 _symmetry_equiv_pos_site_id
 _symmetry_equiv_pos_as_xyz
  1  'x, y, z'
loop_
 _atom_site_type_symbol
 _atom_site_label
 _atom_site_symmetry_multiplicity
 _atom_site_fract_x
 _atom_site_fract_y
 _atom_site_fract_z
 _atom_site_occupancy
  La  La0  1  0.750000  0.451639  0.215498  1
  La  La1  1  0.750000  0.951819  0.283368  1
  La  La2  1  0.750000  0.830682  0.060071  1
  La  La3  1  0.250000  0.042916  0.720199  1
  La  La4  1  0.250000  0.169923  0.940840  1
  La  La5  1  0.250000  0.548020  0.784923  1
  La  La6  1  0.750000  0.332908  0.435152  1
  La  La7  1  0.250000  0.674349  0.559447  1
  Zn  Zn8  1  0.250000  0.995253  0.437570  1
  Zn  Zn9  1  0.750000  0.500897  0.940539  1
  Zn  Zn10  1  0.750000  0.999189  0.559775  1
  Zn  Zn11  1  0.250000  0.625539  0.349748  1
  Zn  Zn12  1  0.750000  0.377184  0.653564  1
  Zn  Zn13  1  0.750000  0.873143  0.851136  1
  Zn  Zn14  1  0.250000  0.497925  0.059197  1
  Zn  Zn15  1  0.250000  0.126755  0.149612  1
  Ir  Ir16  1  0.750000  0.258586  0.065883  1
  Ir  Ir17  1  0.250000  0.244654  0.314817  1
  Ir  Ir18  1  0.750000  0.254633  0.812651  1
  Ir  Ir19  1  0.750000  0.754594  0.685037  1
  Ir  Ir20  1  0.750000  0.758199  0.434195  1
  Pd  Pd21  1  0.250000  0.240653  0.566099  1
  Rh  Rh22  1  0.250000  0.743025  0.935582  1
  Rh  Rh23  1  0.250000  0.747517  0.185097  1
