# generated using pymatgen
data_Tb7Er7(Lu3Pb8)2
_symmetry_space_group_name_H-M   'P 1'
_cell_length_a   8.15088341
_cell_length_b   8.22977149
_cell_length_c   15.54093902
_cell_angle_alpha   90.00859062
_cell_angle_beta   90.05469662
_cell_angle_gamma   89.96040602
_symmetry_Int_Tables_number   1
_chemical_formula_structural   Tb7Er7(Lu3Pb8)2
_chemical_formula_sum   'Tb7 Er7 Lu6 Pb16'
_cell_volume   1042.48402356
_cell_formula_units_Z   1
loop_
 _symmetry_equiv_pos_site_id
 _symmetry_equiv_pos_as_xyz
  1  'x, y, z'
loop_
 _atom_site_type_symbol
 _atom_site_label
 _atom_site_symmetry_multiplicity
 _atom_site_fract_x
 _atom_site_fract_y
 _atom_site_fract_z
 _atom_site_occupancy
  Tb  Tb0  1  0.033973  0.176772  0.598846  1
  Tb  Tb1  1  0.465768  0.676901  0.401835  1
  Tb  Tb2  1  0.965652  0.823231  0.098176  1
  Tb  Tb3  1  0.468084  0.678570  0.096899  1
  Tb  Tb4  1  0.968240  0.821292  0.403012  1
  Tb  Tb5  1  0.533155  0.324670  0.599316  1
  Tb  Tb6  1  0.033252  0.175523  0.900594  1
  Er  Er7  1  0.627003  0.157120  0.379501  1
  Er  Er8  1  0.126819  0.342720  0.120411  1
  Er  Er9  1  0.625055  0.158856  0.121629  1
  Er  Er10  1  0.125301  0.341283  0.378176  1
  Er  Er11  1  0.374830  0.842730  0.621796  1
  Er  Er12  1  0.874721  0.657182  0.878376  1
  Er  Er13  1  0.534540  0.323554  0.901127  1
  Lu  Lu14  1  0.372407  0.843919  0.876353  1
  Lu  Lu15  1  0.872257  0.656158  0.623660  1
  Lu  Lu16  1  0.206031  0.505639  0.750109  1
  Lu  Lu17  1  0.705664  0.994248  0.750210  1
  Lu  Lu18  1  0.794171  0.494460  0.250590  1
  Lu  Lu19  1  0.294254  0.005576  0.249309  1
  Pb  Pb20  1  0.284736  0.034657  0.042035  1
  Pb  Pb21  1  0.785023  0.465145  0.458030  1
  Pb  Pb22  1  0.717016  0.962084  0.544181  1
  Pb  Pb23  1  0.218261  0.536922  0.955617  1
  Pb  Pb24  1  0.711790  0.963987  0.956284  1
  Pb  Pb25  1  0.212188  0.536915  0.543601  1
  Pb  Pb26  1  0.285203  0.035567  0.456541  1
  Pb  Pb27  1  0.784548  0.463805  0.043004  1
  Pb  Pb28  1  0.568081  0.626482  0.750597  1
  Pb  Pb29  1  0.068060  0.873322  0.749470  1
  Pb  Pb30  1  0.431496  0.374197  0.250553  1
  Pb  Pb31  1  0.931368  0.125587  0.249355  1
  Pb  Pb32  1  0.346601  0.156504  0.750743  1
  Pb  Pb33  1  0.845228  0.344228  0.750115  1
  Pb  Pb34  1  0.654497  0.844867  0.250185  1
  Pb  Pb35  1  0.154722  0.655324  0.249767  1
