# generated using pymatgen
data_Yb11TmAl8(SiO4)12
_symmetry_space_group_name_H-M   'P 1'
_cell_length_a   10.30255629
_cell_length_b   10.28115045
_cell_length_c   10.30255801
_cell_angle_alpha   109.51046872
_cell_angle_beta   109.47706911
_cell_angle_gamma   109.51047550
_symmetry_Int_Tables_number   1
_chemical_formula_structural   Yb11TmAl8(SiO4)12
_chemical_formula_sum   'Yb11 Tm1 Al8 Si12 O48'
_cell_volume   839.18347219
_cell_formula_units_Z   1
loop_
 _symmetry_equiv_pos_site_id
 _symmetry_equiv_pos_as_xyz
  1  'x, y, z'
loop_
 _atom_site_type_symbol
 _atom_site_label
 _atom_site_symmetry_multiplicity
 _atom_site_fract_x
 _atom_site_fract_y
 _atom_site_fract_z
 _atom_site_occupancy
  Yb  Yb0  1  0.249630  0.376790  0.122721  1
  Yb  Yb1  1  0.377280  0.123210  0.250372  1
  Yb  Yb2  1  0.875209  0.624669  0.250066  1
  Yb  Yb3  1  0.745929  0.123208  0.372838  1
  Yb  Yb4  1  0.125000  0.250000  0.375000  1
  Yb  Yb5  1  0.875000  0.750000  0.625000  1
  Yb  Yb6  1  0.249934  0.875330  0.624791  1
  Yb  Yb7  1  0.127162  0.376790  0.754070  1
  Yb  Yb8  1  0.625397  0.875330  0.750540  1
  Yb  Yb9  1  0.749460  0.624670  0.874603  1
  Yb  Yb10  1  0.625000  0.250000  0.875000  1
  Tm  Tm11  1  0.375003  0.749993  0.125004  1
  Al  Al12  1  0.000730  0.001242  0.000587  1
  Al  Al13  1  0.500980  0.001218  0.000370  1
  Al  Al14  1  0.999151  0.498782  0.999761  1
  Al  Al15  1  0.499631  0.498783  0.999022  1
  Al  Al16  1  0.000512  0.001241  0.500655  1
  Al  Al17  1  0.499415  0.498759  0.499271  1
  Al  Al18  1  0.999345  0.498758  0.499488  1
  Al  Al19  1  0.500240  0.001218  0.500848  1
  Si  Si20  1  0.875231  0.250000  0.125230  1
  Si  Si21  1  0.750736  0.873872  0.124383  1
  Si  Si22  1  0.625164  0.375758  0.249946  1
  Si  Si23  1  0.123136  0.873872  0.249489  1
  Si  Si24  1  0.250511  0.626128  0.376863  1
  Si  Si25  1  0.627988  0.750000  0.377988  1
  Si  Si26  1  0.750594  0.375758  0.625813  1
  Si  Si27  1  0.374770  0.250001  0.624770  1
  Si  Si28  1  0.874187  0.124242  0.749406  1
  Si  Si29  1  0.375617  0.626128  0.749264  1
  Si  Si30  1  0.250054  0.124241  0.874836  1
  Si  Si31  1  0.122011  0.750000  0.872011  1
  O  O32  1  0.198455  0.113739  0.009044  1
  O  O33  1  0.309959  0.892192  0.007173  1
  O  O34  1  0.698566  0.687655  0.083828  1
  O  O35  1  0.886114  0.395375  0.084243  1
  O  O36  1  0.614204  0.416836  0.104842  1
  O  O37  1  0.989090  0.687656  0.103827  1
  O  O38  1  0.009383  0.198519  0.114194  1
  O  O39  1  0.602848  0.911623  0.111605  1
  O  O40  1  0.199982  0.588376  0.191226  1
  O  O41  1  0.492824  0.607808  0.190038  1
  O  O42  1  0.114849  0.009119  0.198492  1
  O  O43  1  0.584698  0.189551  0.197272  1
  O  O44  1  0.308775  0.911624  0.300016  1
  O  O45  1  0.490957  0.386261  0.301546  1
  O  O46  1  0.915674  0.301481  0.310862  1
  O  O47  1  0.894272  0.009120  0.310627  1
  O  O48  1  0.582229  0.892191  0.385017  1
  O  O49  1  0.301508  0.490881  0.385152  1
  O  O50  1  0.811378  0.509715  0.395122  1
  O  O51  1  0.083352  0.885809  0.395142  1
  O  O52  1  0.812756  0.802015  0.417179  1
  O  O53  1  0.104859  0.614191  0.416649  1
  O  O54  1  0.385807  0.301481  0.490617  1
  O  O55  1  0.604853  0.189551  0.492279  1
  O  O56  1  0.396172  0.812344  0.510911  1
  O  O57  1  0.615165  0.697986  0.510742  1
  O  O58  1  0.895304  0.386261  0.584716  1
  O  O59  1  0.189136  0.198519  0.584325  1
  O  O60  1  0.915284  0.113738  0.604696  1
  O  O61  1  0.189372  0.490881  0.605729  1
  O  O62  1  0.415757  0.104625  0.613887  1
  O  O63  1  0.698336  0.509716  0.614594  1
  O  O64  1  0.104879  0.990284  0.688621  1
  O  O65  1  0.082820  0.697984  0.687243  1
  O  O66  1  0.688005  0.083163  0.697367  1
  O  O67  1  0.509333  0.614191  0.697542  1
  O  O68  1  0.416173  0.812345  0.801434  1
  O  O69  1  0.885406  0.990286  0.801663  1
  O  O70  1  0.509262  0.395376  0.811133  1
  O  O71  1  0.802635  0.416839  0.811996  1
  O  O72  1  0.395158  0.083163  0.885797  1
  O  O73  1  0.989257  0.802016  0.884835  1
  O  O74  1  0.388393  0.588377  0.897151  1
  O  O75  1  0.007720  0.310448  0.895146  1
  O  O76  1  0.302728  0.310449  0.915302  1
  O  O77  1  0.114980  0.607808  0.917767  1
  O  O78  1  0.688868  0.104625  0.990739  1
  O  O79  1  0.802457  0.885809  0.990667  1
