# generated using pymatgen
data_Ta2Ni20B6W
_symmetry_space_group_name_H-M   'P 1'
_cell_length_a   7.46272293
_cell_length_b   7.46215633
_cell_length_c   7.46238700
_cell_angle_alpha   59.99702980
_cell_angle_beta   59.99750254
_cell_angle_gamma   59.99590239
_symmetry_Int_Tables_number   1
_chemical_formula_structural   Ta2Ni20B6W
_chemical_formula_sum   'Ta2 Ni20 B6 W1'
_cell_volume   293.82790203
_cell_formula_units_Z   1
loop_
 _symmetry_equiv_pos_site_id
 _symmetry_equiv_pos_as_xyz
  1  'x, y, z'
loop_
 _atom_site_type_symbol
 _atom_site_label
 _atom_site_symmetry_multiplicity
 _atom_site_fract_x
 _atom_site_fract_y
 _atom_site_fract_z
 _atom_site_occupancy
  Ta  Ta0  1  0.250026  0.250022  0.250003  1
  Ta  Ta1  1  0.749974  0.749978  0.749997  1
  Ni  Ni2  1  0.341925  0.999990  0.000070  1
  Ni  Ni3  1  0.658075  0.000010  0.999930  1
  Ni  Ni4  1  0.999978  0.341897  0.658067  1
  Ni  Ni5  1  0.000022  0.658103  0.341933  1
  Ni  Ni6  1  0.000006  0.341892  0.000003  1
  Ni  Ni7  1  0.658099  0.999953  0.341991  1
  Ni  Ni8  1  0.999994  0.658108  0.999997  1
  Ni  Ni9  1  0.341901  0.000047  0.658009  1
  Ni  Ni10  1  0.000017  0.999957  0.341922  1
  Ni  Ni11  1  0.999983  0.000043  0.658078  1
  Ni  Ni12  1  0.658013  0.342045  0.999941  1
  Ni  Ni13  1  0.341987  0.657955  0.000059  1
  Ni  Ni14  1  0.384475  0.384456  0.384467  1
  Ni  Ni15  1  0.615525  0.615544  0.615533  1
  Ni  Ni16  1  0.384464  0.384461  0.846616  1
  Ni  Ni17  1  0.384476  0.846628  0.384456  1
  Ni  Ni18  1  0.615536  0.615539  0.153384  1
  Ni  Ni19  1  0.615524  0.153372  0.615544  1
  Ni  Ni20  1  0.846646  0.384462  0.384445  1
  Ni  Ni21  1  0.153354  0.615538  0.615555  1
  B  B22  1  0.732042  0.267942  0.267897  1
  B  B23  1  0.267958  0.732058  0.732103  1
  B  B24  1  0.267942  0.732077  0.267861  1
  B  B25  1  0.732058  0.267923  0.732139  1
  B  B26  1  0.267946  0.267911  0.732073  1
  B  B27  1  0.732054  0.732089  0.267927  1
  W  W28  1  0.000000  0.000000  0.000000  1
