# generated using pymatgen
data_K3Rb5Zr6BeI20
_symmetry_space_group_name_H-M   'P 1'
_cell_length_a   12.77979039
_cell_length_b   12.77977062
_cell_length_c   12.77282219
_cell_angle_alpha   60.05858079
_cell_angle_beta   60.05838434
_cell_angle_gamma   60.08333891
_symmetry_Int_Tables_number   1
_chemical_formula_structural   K3Rb5Zr6BeI20
_chemical_formula_sum   'K3 Rb5 Zr6 Be1 I20'
_cell_volume   1477.32233623
_cell_formula_units_Z   1
loop_
 _symmetry_equiv_pos_site_id
 _symmetry_equiv_pos_as_xyz
  1  'x, y, z'
loop_
 _atom_site_type_symbol
 _atom_site_label
 _atom_site_symmetry_multiplicity
 _atom_site_fract_x
 _atom_site_fract_y
 _atom_site_fract_z
 _atom_site_occupancy
  K  K0  1  0.362389  0.362382  0.362439  1
  K  K1  1  0.636885  0.636888  0.638030  1
  K  K2  1  0.362746  0.362756  0.912836  1
  Rb  Rb3  1  0.360585  0.918302  0.361169  1
  Rb  Rb4  1  0.638893  0.638891  0.082793  1
  Rb  Rb5  1  0.638620  0.082365  0.639834  1
  Rb  Rb6  1  0.918303  0.360585  0.361169  1
  Rb  Rb7  1  0.082366  0.638618  0.639835  1
  Zr  Zr8  1  0.864972  0.135079  0.135785  1
  Zr  Zr9  1  0.135063  0.864512  0.864572  1
  Zr  Zr10  1  0.135079  0.864971  0.135784  1
  Zr  Zr11  1  0.864509  0.135064  0.864569  1
  Zr  Zr12  1  0.135455  0.135454  0.864954  1
  Zr  Zr13  1  0.864531  0.864530  0.135474  1
  Be  Be14  1  0.000017  0.000019  0.999896  1
  I  I15  1  0.321771  0.000621  0.001337  1
  I  I16  1  0.678200  0.998719  0.999397  1
  I  I17  1  0.000475  0.321122  0.677806  1
  I  I18  1  0.999617  0.678983  0.321848  1
  I  I19  1  0.000621  0.321771  0.001336  1
  I  I20  1  0.678984  0.999617  0.321848  1
  I  I21  1  0.998718  0.678199  0.999398  1
  I  I22  1  0.321119  0.000476  0.677808  1
  I  I23  1  0.000588  0.000588  0.323092  1
  I  I24  1  0.999520  0.999520  0.676674  1
  I  I25  1  0.679619  0.320346  0.000393  1
  I  I26  1  0.320345  0.679619  0.000393  1
  I  I27  1  0.683060  0.312276  0.313012  1
  I  I28  1  0.317284  0.682331  0.691581  1
  I  I29  1  0.312276  0.683059  0.313012  1
  I  I30  1  0.682334  0.317279  0.691578  1
  I  I31  1  0.312827  0.312828  0.687570  1
  I  I32  1  0.687334  0.687334  0.317447  1
  I  I33  1  0.259227  0.259227  0.240434  1
  I  I34  1  0.745668  0.745667  0.744896  1
