# generated using pymatgen
data_Pm4Pd3Ru
_symmetry_space_group_name_H-M   'P 1'
_cell_length_a   7.31425509
_cell_length_b   5.75879556
_cell_length_c   4.52518800
_cell_angle_alpha   90.00000000
_cell_angle_beta   90.00000000
_cell_angle_gamma   89.86411155
_symmetry_Int_Tables_number   1
_chemical_formula_structural   Pm4Pd3Ru
_chemical_formula_sum   'Pm4 Pd3 Ru1'
_cell_volume   190.60626385
_cell_formula_units_Z   1
loop_
 _symmetry_equiv_pos_site_id
 _symmetry_equiv_pos_as_xyz
  1  'x, y, z'
loop_
 _atom_site_type_symbol
 _atom_site_label
 _atom_site_symmetry_multiplicity
 _atom_site_fract_x
 _atom_site_fract_y
 _atom_site_fract_z
 _atom_site_occupancy
  Pm  Pm0  1  0.100937  0.508181  0.000000  1
  Pm  Pm1  1  0.592612  0.745494  0.000000  1
  Pm  Pm2  1  0.244567  0.019125  0.499999  1
  Pm  Pm3  1  0.723628  0.235794  0.499999  1
  Pd  Pd4  1  0.962762  0.020172  0.000000  1
  Pd  Pd5  1  0.370783  0.527300  0.499999  1
  Pd  Pd6  1  0.879879  0.725159  0.499999  1
  Ru  Ru7  1  0.458164  0.218777  0.000000  1
