# generated using pymatgen
data_DyHoLu2CdPt
_symmetry_space_group_name_H-M   'P 1'
_cell_length_a   9.57838846
_cell_length_b   9.56766983
_cell_length_c   9.56766936
_cell_angle_alpha   60.07413821
_cell_angle_beta   59.96293545
_cell_angle_gamma   59.96293918
_symmetry_Int_Tables_number   1
_chemical_formula_structural   DyHoLu2CdPt
_chemical_formula_sum   'Dy4 Ho4 Lu8 Cd4 Pt4'
_cell_volume   619.99578577
_cell_formula_units_Z   4
loop_
 _symmetry_equiv_pos_site_id
 _symmetry_equiv_pos_as_xyz
  1  'x, y, z'
loop_
 _atom_site_type_symbol
 _atom_site_label
 _atom_site_symmetry_multiplicity
 _atom_site_fract_x
 _atom_site_fract_y
 _atom_site_fract_z
 _atom_site_occupancy
  Dy  Dy0  1  0.565702  0.934298  0.565702  1
  Dy  Dy1  1  0.934298  0.565701  0.934298  1
  Dy  Dy2  1  0.565702  0.565702  0.934298  1
  Dy  Dy3  1  0.934298  0.934298  0.565701  1
  Ho  Ho4  1  0.353501  0.352684  0.352684  1
  Ho  Ho5  1  0.352684  0.353501  0.941132  1
  Ho  Ho6  1  0.352684  0.941132  0.353501  1
  Ho  Ho7  1  0.941132  0.352684  0.352684  1
  Lu  Lu8  1  0.812100  0.187900  0.187900  1
  Lu  Lu9  1  0.187900  0.812100  0.812100  1
  Lu  Lu10  1  0.187843  0.812157  0.187843  1
  Lu  Lu11  1  0.812157  0.187843  0.812157  1
  Lu  Lu12  1  0.187843  0.187843  0.812157  1
  Lu  Lu13  1  0.812157  0.812157  0.187843  1
  Lu  Lu14  1  0.937989  0.562011  0.562011  1
  Lu  Lu15  1  0.562011  0.937989  0.937989  1
  Cd  Cd16  1  0.583395  0.581473  0.581473  1
  Cd  Cd17  1  0.581473  0.583395  0.253660  1
  Cd  Cd18  1  0.581473  0.253660  0.583395  1
  Cd  Cd19  1  0.253660  0.581473  0.581473  1
  Pt  Pt20  1  0.143407  0.141543  0.141543  1
  Pt  Pt21  1  0.141543  0.143407  0.573506  1
  Pt  Pt22  1  0.141543  0.573506  0.143407  1
  Pt  Pt23  1  0.573506  0.141543  0.141543  1
