# generated using pymatgen
data_Tb4Zn(InCo)2
_symmetry_space_group_name_H-M   'P 1'
_cell_length_a   3.64852100
_cell_length_b   7.29256168
_cell_length_c   8.00723186
_cell_angle_alpha   72.19799908
_cell_angle_beta   90.00000000
_cell_angle_gamma   90.00000000
_symmetry_Int_Tables_number   1
_chemical_formula_structural   Tb4Zn(InCo)2
_chemical_formula_sum   'Tb4 Zn1 In2 Co2'
_cell_volume   202.84787746
_cell_formula_units_Z   1
loop_
 _symmetry_equiv_pos_site_id
 _symmetry_equiv_pos_as_xyz
  1  'x, y, z'
loop_
 _atom_site_type_symbol
 _atom_site_label
 _atom_site_symmetry_multiplicity
 _atom_site_fract_x
 _atom_site_fract_y
 _atom_site_fract_z
 _atom_site_occupancy
  Tb  Tb0  1  0.500000  0.614923  0.180736  1
  Tb  Tb1  1  0.500000  0.385077  0.819264  1
  Tb  Tb2  1  0.500000  0.085859  0.267297  1
  Tb  Tb3  1  0.500000  0.914141  0.732703  1
  Zn  Zn4  1  0.000000  0.000000  0.000000  1
  In  In5  1  0.000000  0.705384  0.507988  1
  In  In6  1  0.000000  0.294616  0.492012  1
  Co  Co7  1  0.000000  0.649182  0.893359  1
  Co  Co8  1  0.000000  0.350818  0.106641  1
