# generated using pymatgen
data_La4PaPd15
_symmetry_space_group_name_H-M   'P 1'
_cell_length_a   4.21773200
_cell_length_b   4.21773200
_cell_length_c   21.09583900
_cell_angle_alpha   90.00000000
_cell_angle_beta   90.00000000
_cell_angle_gamma   90.00000000
_symmetry_Int_Tables_number   1
_chemical_formula_structural   La4PaPd15
_chemical_formula_sum   'La4 Pa1 Pd15'
_cell_volume   375.27943290
_cell_formula_units_Z   1
loop_
 _symmetry_equiv_pos_site_id
 _symmetry_equiv_pos_as_xyz
  1  'x, y, z'
loop_
 _atom_site_type_symbol
 _atom_site_label
 _atom_site_symmetry_multiplicity
 _atom_site_fract_x
 _atom_site_fract_y
 _atom_site_fract_z
 _atom_site_occupancy
  La  La0  1  0.000000  0.000000  0.201133  1
  La  La1  1  0.000000  0.000000  0.400295  1
  La  La2  1  0.000000  0.000000  0.599705  1
  La  La3  1  0.000000  0.000000  0.798867  1
  Pa  Pa4  1  0.000000  0.000000  0.000000  1
  Pd  Pd5  1  0.500000  0.500000  0.000000  1
  Pd  Pd6  1  0.500000  0.500000  0.194911  1
  Pd  Pd7  1  0.500000  0.500000  0.399808  1
  Pd  Pd8  1  0.500000  0.500000  0.600192  1
  Pd  Pd9  1  0.500000  0.500000  0.805089  1
  Pd  Pd10  1  0.500000  0.000000  0.093170  1
  Pd  Pd11  1  0.500000  0.000000  0.298423  1
  Pd  Pd12  1  0.500000  0.000000  0.500000  1
  Pd  Pd13  1  0.500000  0.000000  0.701577  1
  Pd  Pd14  1  0.500000  0.000000  0.906830  1
  Pd  Pd15  1  0.000000  0.500000  0.093170  1
  Pd  Pd16  1  0.000000  0.500000  0.298423  1
  Pd  Pd17  1  0.000000  0.500000  0.500000  1
  Pd  Pd18  1  0.000000  0.500000  0.701577  1
  Pd  Pd19  1  0.000000  0.500000  0.906830  1
