# generated using pymatgen
data_KRbBaCdSb2
_symmetry_space_group_name_H-M   'P 1'
_cell_length_a   5.14689000
_cell_length_b   8.71840800
_cell_length_c   10.06657100
_cell_angle_alpha   90.00000000
_cell_angle_beta   90.00000000
_cell_angle_gamma   90.00000000
_symmetry_Int_Tables_number   1
_chemical_formula_structural   KRbBaCdSb2
_chemical_formula_sum   'K2 Rb2 Ba2 Cd2 Sb4'
_cell_volume   451.71408915
_cell_formula_units_Z   2
loop_
 _symmetry_equiv_pos_site_id
 _symmetry_equiv_pos_as_xyz
  1  'x, y, z'
loop_
 _atom_site_type_symbol
 _atom_site_label
 _atom_site_symmetry_multiplicity
 _atom_site_fract_x
 _atom_site_fract_y
 _atom_site_fract_z
 _atom_site_occupancy
  K  K0  1  0.000000  0.347755  0.335733  1
  K  K1  1  0.000000  0.847755  0.664267  1
  Rb  Rb2  1  0.500000  0.025770  0.423726  1
  Rb  Rb3  1  0.500000  0.525770  0.576274  1
  Ba  Ba4  1  0.000000  0.496249  0.951037  1
  Ba  Ba5  1  0.000000  0.996249  0.048963  1
  Cd  Cd6  1  0.500000  0.150561  0.823480  1
  Cd  Cd7  1  0.500000  0.650561  0.176520  1
  Sb  Sb8  1  0.000000  0.237077  0.683469  1
  Sb  Sb9  1  0.500000  0.288106  0.110403  1
  Sb  Sb10  1  0.000000  0.737077  0.316531  1
  Sb  Sb11  1  0.500000  0.788106  0.889597  1
