# generated using pymatgen
data_Nb12AlGa4Pd3N4
_symmetry_space_group_name_H-M   'P 1'
_cell_length_a   7.07359123
_cell_length_b   7.07110478
_cell_length_c   7.07482866
_cell_angle_alpha   90.33514439
_cell_angle_beta   90.22256013
_cell_angle_gamma   90.37858129
_symmetry_Int_Tables_number   1
_chemical_formula_structural   Nb12AlGa4Pd3N4
_chemical_formula_sum   'Nb12 Al1 Ga4 Pd3 N4'
_cell_volume   353.85301929
_cell_formula_units_Z   1
loop_
 _symmetry_equiv_pos_site_id
 _symmetry_equiv_pos_as_xyz
  1  'x, y, z'
loop_
 _atom_site_type_symbol
 _atom_site_label
 _atom_site_symmetry_multiplicity
 _atom_site_fract_x
 _atom_site_fract_y
 _atom_site_fract_z
 _atom_site_occupancy
  Nb  Nb0  1  0.787833  0.957112  0.379562  1
  Nb  Nb1  1  0.709459  0.041758  0.871677  1
  Nb  Nb2  1  0.211467  0.455456  0.124012  1
  Nb  Nb3  1  0.290432  0.543835  0.623627  1
  Nb  Nb4  1  0.957031  0.380148  0.788041  1
  Nb  Nb5  1  0.041750  0.871465  0.710065  1
  Nb  Nb6  1  0.455749  0.123967  0.210822  1
  Nb  Nb7  1  0.543803  0.624065  0.290653  1
  Nb  Nb8  1  0.379860  0.788188  0.956958  1
  Nb  Nb9  1  0.871690  0.710223  0.041736  1
  Nb  Nb10  1  0.123709  0.211007  0.455601  1
  Nb  Nb11  1  0.624089  0.290497  0.544013  1
  Al  Al12  1  0.933459  0.571497  0.419714  1
  Ga  Ga13  1  0.677800  0.677105  0.676711  1
  Ga  Ga14  1  0.571254  0.420633  0.933732  1
  Ga  Ga15  1  0.420650  0.933581  0.571054  1
  Ga  Ga16  1  0.072936  0.072978  0.073064  1
  Pd  Pd17  1  0.177003  0.821544  0.318657  1
  Pd  Pd18  1  0.318290  0.178010  0.822669  1
  Pd  Pd19  1  0.823155  0.319261  0.179114  1
  N  N20  1  0.880198  0.126242  0.625630  1
  N  N21  1  0.625249  0.880316  0.126444  1
  N  N22  1  0.126757  0.625341  0.880496  1
  N  N23  1  0.376381  0.375773  0.375954  1
