# generated using pymatgen
data_Zr5CuSn2Bi
_symmetry_space_group_name_H-M   'P 1'
_cell_length_a   8.73255143
_cell_length_b   8.72390804
_cell_length_c   5.88266700
_cell_angle_alpha   90.00000000
_cell_angle_beta   90.00000000
_cell_angle_gamma   119.96726614
_symmetry_Int_Tables_number   1
_chemical_formula_structural   Zr5CuSn2Bi
_chemical_formula_sum   'Zr10 Cu2 Sn4 Bi2'
_cell_volume   388.24000550
_cell_formula_units_Z   2
loop_
 _symmetry_equiv_pos_site_id
 _symmetry_equiv_pos_as_xyz
  1  'x, y, z'
loop_
 _atom_site_type_symbol
 _atom_site_label
 _atom_site_symmetry_multiplicity
 _atom_site_fract_x
 _atom_site_fract_y
 _atom_site_fract_z
 _atom_site_occupancy
  Zr  Zr0  1  0.669425  0.335661  0.503050  1
  Zr  Zr1  1  0.330575  0.666237  0.503050  1
  Zr  Zr2  1  0.330575  0.666237  0.996950  1
  Zr  Zr3  1  0.669425  0.335661  0.996950  1
  Zr  Zr4  1  0.741360  0.736361  0.250000  1
  Zr  Zr5  1  0.258640  0.995002  0.250000  1
  Zr  Zr6  1  0.000000  0.264044  0.250000  1
  Zr  Zr7  1  0.263517  0.264380  0.750000  1
  Zr  Zr8  1  0.736483  0.000863  0.750000  1
  Zr  Zr9  1  0.000000  0.735018  0.750000  1
  Cu  Cu10  1  0.000000  0.999993  0.503736  1
  Cu  Cu11  1  0.000000  0.999993  0.996264  1
  Sn  Sn12  1  0.000000  0.612521  0.250000  1
  Sn  Sn13  1  0.615552  0.616547  0.750000  1
  Sn  Sn14  1  0.384448  0.000994  0.750000  1
  Sn  Sn15  1  0.000000  0.385267  0.750000  1
  Bi  Bi16  1  0.386841  0.386031  0.250000  1
  Bi  Bi17  1  0.613159  0.999190  0.250000  1
