# generated using pymatgen
data_Nb2ZnGeRu4
_symmetry_space_group_name_H-M   'P 1'
_cell_length_a   4.40861400
_cell_length_b   6.19024400
_cell_length_c   13.15422200
_cell_angle_alpha   90.00000000
_cell_angle_beta   89.99731547
_cell_angle_gamma   90.00000000
_symmetry_Int_Tables_number   1
_chemical_formula_structural   Nb2ZnGeRu4
_chemical_formula_sum   'Nb6 Zn3 Ge3 Ru12'
_cell_volume   358.98393201
_cell_formula_units_Z   3
loop_
 _symmetry_equiv_pos_site_id
 _symmetry_equiv_pos_as_xyz
  1  'x, y, z'
loop_
 _atom_site_type_symbol
 _atom_site_label
 _atom_site_symmetry_multiplicity
 _atom_site_fract_x
 _atom_site_fract_y
 _atom_site_fract_z
 _atom_site_occupancy
  Nb  Nb0  1  0.999995  0.500000  0.994329  1
  Nb  Nb1  1  0.499858  0.000000  0.166666  1
  Nb  Nb2  1  0.999829  0.500000  0.339020  1
  Nb  Nb3  1  0.499984  0.000000  0.505604  1
  Nb  Nb4  1  0.000160  0.500000  0.666675  1
  Nb  Nb5  1  0.500170  0.000000  0.827743  1
  Zn  Zn6  1  0.499974  0.500000  0.500024  1
  Zn  Zn7  1  0.000176  0.000000  0.666699  1
  Zn  Zn8  1  0.500177  0.500000  0.833306  1
  Ge  Ge9  1  0.999995  0.000000  0.998342  1
  Ge  Ge10  1  0.499836  0.500000  0.166660  1
  Ge  Ge11  1  0.999788  0.000000  0.334987  1
  Ru  Ru12  1  0.499991  0.249792  0.003390  1
  Ru  Ru13  1  0.499991  0.750209  0.003390  1
  Ru  Ru14  1  0.999888  0.248982  0.166663  1
  Ru  Ru15  1  0.999888  0.751019  0.166663  1
  Ru  Ru16  1  0.499809  0.249783  0.329911  1
  Ru  Ru17  1  0.499809  0.750216  0.329911  1
  Ru  Ru18  1  0.999978  0.248233  0.497229  1
  Ru  Ru19  1  0.999978  0.751768  0.497229  1
  Ru  Ru20  1  0.500193  0.250879  0.666660  1
  Ru  Ru21  1  0.500193  0.749120  0.666660  1
  Ru  Ru22  1  0.000171  0.248225  0.836119  1
  Ru  Ru23  1  0.000171  0.751776  0.836119  1
