# generated using pymatgen
data_Ba7Sr3Bi2Pb4F2
_symmetry_space_group_name_H-M   'P 1'
_cell_length_a   10.59748380
_cell_length_b   10.60852851
_cell_length_c   10.59710607
_cell_angle_alpha   129.29237340
_cell_angle_beta   129.26404294
_cell_angle_gamma   74.60521024
_symmetry_Int_Tables_number   1
_chemical_formula_structural   Ba7Sr3Bi2Pb4F2
_chemical_formula_sum   'Ba7 Sr3 Bi2 Pb4 F2'
_cell_volume   695.42320961
_cell_formula_units_Z   1
loop_
 _symmetry_equiv_pos_site_id
 _symmetry_equiv_pos_as_xyz
  1  'x, y, z'
loop_
 _atom_site_type_symbol
 _atom_site_label
 _atom_site_symmetry_multiplicity
 _atom_site_fract_x
 _atom_site_fract_y
 _atom_site_fract_z
 _atom_site_occupancy
  Ba  Ba0  1  0.516118  0.013546  0.825412  1
  Ba  Ba1  1  0.190706  0.688134  0.174588  1
  Ba  Ba2  1  0.014805  0.189313  0.500000  1
  Ba  Ba3  1  0.688651  0.515737  0.500000  1
  Ba  Ba4  1  0.483844  0.985984  0.173999  1
  Ba  Ba5  1  0.809846  0.311986  0.826001  1
  Ba  Ba6  1  0.985361  0.810457  0.500000  1
  Sr  Sr7  1  0.500118  0.500318  0.997486  1
  Sr  Sr8  1  0.002633  0.002832  0.002514  1
  Sr  Sr9  1  0.302111  0.491543  0.500000  1
  Bi  Bi10  1  0.251989  0.253418  0.007003  1
  Bi  Bi11  1  0.744986  0.746415  0.992997  1
  Pb  Pb12  1  0.876593  0.373445  0.246970  1
  Pb  Pb13  1  0.129624  0.626477  0.753031  1
  Pb  Pb14  1  0.370920  0.129982  0.500000  1
  Pb  Pb15  1  0.626535  0.874546  0.500000  1
  F  F16  1  0.253929  0.736700  0.500000  1
  F  F17  1  0.751232  0.249169  0.500000  1
