# generated using pymatgen
data_Rb8ZnNi3O8
_symmetry_space_group_name_H-M   'P 1'
_cell_length_a   7.34268107
_cell_length_b   9.38819695
_cell_length_c   8.39728204
_cell_angle_alpha   63.42382487
_cell_angle_beta   73.38680825
_cell_angle_gamma   97.35083380
_symmetry_Int_Tables_number   1
_chemical_formula_structural   Rb8ZnNi3O8
_chemical_formula_sum   'Rb8 Zn1 Ni3 O8'
_cell_volume   473.46569604
_cell_formula_units_Z   1
loop_
 _symmetry_equiv_pos_site_id
 _symmetry_equiv_pos_as_xyz
  1  'x, y, z'
loop_
 _atom_site_type_symbol
 _atom_site_label
 _atom_site_symmetry_multiplicity
 _atom_site_fract_x
 _atom_site_fract_y
 _atom_site_fract_z
 _atom_site_occupancy
  Rb  Rb0  1  0.684809  0.671586  0.493249  1
  Rb  Rb1  1  0.682778  0.671085  0.993528  1
  Rb  Rb2  1  0.684833  0.171056  0.243015  1
  Rb  Rb3  1  0.685043  0.170605  0.743672  1
  Rb  Rb4  1  0.317222  0.328915  0.506472  1
  Rb  Rb5  1  0.315191  0.328414  0.006751  1
  Rb  Rb6  1  0.315167  0.828944  0.256985  1
  Rb  Rb7  1  0.314957  0.829395  0.756328  1
  Zn  Zn8  1  0.000000  0.500000  0.250000  1
  Ni  Ni9  1  0.999903  0.000437  0.499522  1
  Ni  Ni10  1  0.000000  0.500000  0.750000  1
  Ni  Ni11  1  0.000097  0.999563  0.000478  1
  O  O12  1  0.736563  0.433803  0.349334  1
  O  O13  1  0.743777  0.435625  0.845807  1
  O  O14  1  0.743739  0.935889  0.096510  1
  O  O15  1  0.743597  0.936702  0.595309  1
  O  O16  1  0.256223  0.564375  0.654193  1
  O  O17  1  0.263437  0.566197  0.150666  1
  O  O18  1  0.256261  0.064111  0.403490  1
  O  O19  1  0.256403  0.063298  0.904691  1
