# generated using pymatgen
data_Yb3PBr3
_symmetry_space_group_name_H-M   'P 1'
_cell_length_a   10.23087657
_cell_length_b   10.23087650
_cell_length_c   10.23087600
_cell_angle_alpha   109.47121965
_cell_angle_beta   109.47121951
_cell_angle_gamma   109.47121910
_symmetry_Int_Tables_number   1
_chemical_formula_structural   Yb3PBr3
_chemical_formula_sum   'Yb12 P4 Br12'
_cell_volume   824.35948093
_cell_formula_units_Z   4
loop_
 _symmetry_equiv_pos_site_id
 _symmetry_equiv_pos_as_xyz
  1  'x, y, z'
loop_
 _atom_site_type_symbol
 _atom_site_label
 _atom_site_symmetry_multiplicity
 _atom_site_fract_x
 _atom_site_fract_y
 _atom_site_fract_z
 _atom_site_occupancy
  Yb  Yb0  1  0.479487  0.489744  0.239744  1
  Yb  Yb1  1  0.750000  0.239744  0.260256  1
  Yb  Yb2  1  0.750000  0.010256  0.489744  1
  Yb  Yb3  1  0.239744  0.479487  0.489744  1
  Yb  Yb4  1  0.260256  0.750000  0.239744  1
  Yb  Yb5  1  0.020513  0.260256  0.010256  1
  Yb  Yb6  1  0.010256  0.020513  0.260256  1
  Yb  Yb7  1  0.489744  0.750000  0.010256  1
  Yb  Yb8  1  0.489744  0.239744  0.479487  1
  Yb  Yb9  1  0.010256  0.489744  0.750000  1
  Yb  Yb10  1  0.260256  0.010256  0.020513  1
  Yb  Yb11  1  0.239744  0.260256  0.750000  1
  P  P12  1  0.250000  0.250000  0.250000  1
  P  P13  1  0.500000  0.000000  0.250000  1
  P  P14  1  0.000000  0.250000  0.500000  1
  P  P15  1  0.250000  0.500000  0.000000  1
  Br  Br16  1  0.250000  0.747923  0.752077  1
  Br  Br17  1  0.495846  0.497923  0.747923  1
  Br  Br18  1  0.004154  0.752077  0.002077  1
  Br  Br19  1  0.752077  0.250000  0.747923  1
  Br  Br20  1  0.002077  0.004154  0.752077  1
  Br  Br21  1  0.250000  0.002077  0.497923  1
  Br  Br22  1  0.747923  0.495846  0.497923  1
  Br  Br23  1  0.497923  0.250000  0.002077  1
  Br  Br24  1  0.747923  0.752077  0.250000  1
  Br  Br25  1  0.752077  0.002077  0.004154  1
  Br  Br26  1  0.002077  0.497923  0.250000  1
  Br  Br27  1  0.497923  0.747923  0.495846  1
