# generated using pymatgen
data_Sr7In2SnN2
_symmetry_space_group_name_H-M   'P 1'
_cell_length_a   13.31105176
_cell_length_b   13.31105186
_cell_length_c   5.25219100
_cell_angle_alpha   90.00000000
_cell_angle_beta   90.00000000
_cell_angle_gamma   157.08172701
_symmetry_Int_Tables_number   1
_chemical_formula_structural   Sr7In2SnN2
_chemical_formula_sum   'Sr7 In2 Sn1 N2'
_cell_volume   362.39397353
_cell_formula_units_Z   1
loop_
 _symmetry_equiv_pos_site_id
 _symmetry_equiv_pos_as_xyz
  1  'x, y, z'
loop_
 _atom_site_type_symbol
 _atom_site_label
 _atom_site_symmetry_multiplicity
 _atom_site_fract_x
 _atom_site_fract_y
 _atom_site_fract_z
 _atom_site_occupancy
  Sr  Sr0  1  0.903759  0.096240  0.000000  1
  Sr  Sr1  1  0.697541  0.302459  0.000000  1
  Sr  Sr2  1  0.500000  0.500000  0.000000  1
  Sr  Sr3  1  0.302459  0.697541  0.000000  1
  Sr  Sr4  1  0.096240  0.903759  0.000000  1
  Sr  Sr5  1  0.597445  0.402554  0.499999  1
  Sr  Sr6  1  0.402554  0.597445  0.499999  1
  In  In7  1  0.790806  0.209193  0.499999  1
  In  In8  1  0.209193  0.790806  0.499999  1
  Sn  Sn9  1  0.000000  0.000000  0.499999  1
  N  N10  1  0.604046  0.395954  0.000000  1
  N  N11  1  0.395954  0.604046  0.000000  1
