# generated using pymatgen
data_Lu12GaTc3
_symmetry_space_group_name_H-M   'P 1'
_cell_length_a   6.15815266
_cell_length_b   7.38805935
_cell_length_c   8.92703100
_cell_angle_alpha   90.00000000
_cell_angle_beta   90.00000000
_cell_angle_gamma   89.96420828
_symmetry_Int_Tables_number   1
_chemical_formula_structural   Lu12GaTc3
_chemical_formula_sum   'Lu12 Ga1 Tc3'
_cell_volume   406.15124104
_cell_formula_units_Z   1
loop_
 _symmetry_equiv_pos_site_id
 _symmetry_equiv_pos_as_xyz
  1  'x, y, z'
loop_
 _atom_site_type_symbol
 _atom_site_label
 _atom_site_symmetry_multiplicity
 _atom_site_fract_x
 _atom_site_fract_y
 _atom_site_fract_z
 _atom_site_occupancy
  Lu  Lu0  1  0.332653  0.675552  0.066283  1
  Lu  Lu1  1  0.162652  0.177435  0.435984  1
  Lu  Lu2  1  0.662922  0.312192  0.557199  1
  Lu  Lu3  1  0.846419  0.833788  0.941536  1
  Lu  Lu4  1  0.662922  0.312192  0.942801  1
  Lu  Lu5  1  0.846419  0.833788  0.558464  1
  Lu  Lu6  1  0.332653  0.675552  0.433717  1
  Lu  Lu7  1  0.162652  0.177435  0.064016  1
  Lu  Lu8  1  0.873547  0.539983  0.250000  1
  Lu  Lu9  1  0.621352  0.036987  0.250000  1
  Lu  Lu10  1  0.115558  0.456819  0.750000  1
  Lu  Lu11  1  0.372180  0.972744  0.750000  1
  Ga  Ga12  1  0.551505  0.613135  0.750000  1
  Tc  Tc13  1  0.038457  0.882536  0.250000  1
  Tc  Tc14  1  0.461697  0.382268  0.250000  1
  Tc  Tc15  1  0.956413  0.117596  0.750000  1
