# generated using pymatgen
data_Tb7ErGa12CoAu3
_symmetry_space_group_name_H-M   'P 1'
_cell_length_a   7.23646167
_cell_length_b   8.87152113
_cell_length_c   8.86044792
_cell_angle_alpha   120.04134654
_cell_angle_beta   90.04263550
_cell_angle_gamma   89.99999816
_symmetry_Int_Tables_number   1
_chemical_formula_structural   Tb7ErGa12CoAu3
_chemical_formula_sum   'Tb7 Er1 Ga12 Co1 Au3'
_cell_volume   492.41288983
_cell_formula_units_Z   1
loop_
 _symmetry_equiv_pos_site_id
 _symmetry_equiv_pos_as_xyz
  1  'x, y, z'
loop_
 _atom_site_type_symbol
 _atom_site_label
 _atom_site_symmetry_multiplicity
 _atom_site_fract_x
 _atom_site_fract_y
 _atom_site_fract_z
 _atom_site_occupancy
  Tb  Tb0  1  0.738562  0.000254  0.000508  1
  Tb  Tb1  1  0.252605  0.999857  0.999713  1
  Tb  Tb2  1  0.749343  0.486737  0.512818  1
  Tb  Tb3  1  0.257699  0.521306  0.477944  1
  Tb  Tb4  1  0.749343  0.026080  0.512818  1
  Tb  Tb5  1  0.257699  0.956638  0.477944  1
  Tb  Tb6  1  0.749345  0.486959  0.973918  1
  Er  Er7  1  0.259030  0.521958  0.043915  1
  Ga  Ga8  1  0.959787  0.837619  0.162425  1
  Ga  Ga9  1  0.046924  0.165697  0.835517  1
  Ga  Ga10  1  0.959787  0.324808  0.162425  1
  Ga  Ga11  1  0.460105  0.164088  0.836732  1
  Ga  Ga12  1  0.046924  0.669819  0.835517  1
  Ga  Ga13  1  0.537424  0.825320  0.173905  1
  Ga  Ga14  1  0.958832  0.837560  0.675118  1
  Ga  Ga15  1  0.460105  0.672643  0.836732  1
  Ga  Ga16  1  0.045263  0.165013  0.330026  1
  Ga  Ga17  1  0.537424  0.348586  0.173905  1
  Ga  Ga18  1  0.461648  0.163663  0.327327  1
  Ga  Ga19  1  0.538528  0.825610  0.651219  1
  Co  Co20  1  0.512465  0.666097  0.332194  1
  Au  Au21  1  0.956073  0.666210  0.332419  1
  Au  Au22  1  0.035361  0.333783  0.667567  1
  Au  Au23  1  0.469734  0.333696  0.667393  1
