# generated using pymatgen
data_Co2Cu5Ni(Mo3N)4
_symmetry_space_group_name_H-M   'P 1'
_cell_length_a   6.69855225
_cell_length_b   6.69790834
_cell_length_c   6.70059148
_cell_angle_alpha   90.07873880
_cell_angle_beta   90.19028097
_cell_angle_gamma   89.93243537
_symmetry_Int_Tables_number   1
_chemical_formula_structural   Co2Cu5Ni(Mo3N)4
_chemical_formula_sum   'Co2 Cu5 Ni1 Mo12 N4'
_cell_volume   300.62852417
_cell_formula_units_Z   1
loop_
 _symmetry_equiv_pos_site_id
 _symmetry_equiv_pos_as_xyz
  1  'x, y, z'
loop_
 _atom_site_type_symbol
 _atom_site_label
 _atom_site_symmetry_multiplicity
 _atom_site_fract_x
 _atom_site_fract_y
 _atom_site_fract_z
 _atom_site_occupancy
  Co  Co0  1  0.931219  0.569352  0.434192  1
  Co  Co1  1  0.682437  0.680123  0.683938  1
  Cu  Cu2  1  0.069581  0.067625  0.067969  1
  Cu  Cu3  1  0.316888  0.181829  0.819160  1
  Cu  Cu4  1  0.819934  0.316972  0.182214  1
  Cu  Cu5  1  0.182268  0.819710  0.318562  1
  Cu  Cu6  1  0.431078  0.932969  0.568994  1
  Ni  Ni7  1  0.569031  0.431011  0.933393  1
  Mo  Mo8  1  0.122094  0.209698  0.452852  1
  Mo  Mo9  1  0.380527  0.789628  0.948916  1
  Mo  Mo10  1  0.874642  0.700568  0.045107  1
  Mo  Mo11  1  0.201529  0.457612  0.127362  1
  Mo  Mo12  1  0.793842  0.946316  0.380760  1
  Mo  Mo13  1  0.037931  0.868459  0.697827  1
  Mo  Mo14  1  0.456610  0.127409  0.200803  1
  Mo  Mo15  1  0.299929  0.544389  0.628489  1
  Mo  Mo16  1  0.945923  0.382385  0.789438  1
  Mo  Mo17  1  0.550947  0.624394  0.298847  1
  Mo  Mo18  1  0.702756  0.044667  0.875275  1
  Mo  Mo19  1  0.629148  0.305021  0.546174  1
  N  N20  1  0.375787  0.375776  0.374873  1
  N  N21  1  0.626213  0.874037  0.125099  1
  N  N22  1  0.125022  0.624876  0.874222  1
  N  N23  1  0.874664  0.125178  0.625533  1
