# generated using pymatgen
data_ZrNp(Al3Rh)3
_symmetry_space_group_name_H-M   'P 1'
_cell_length_a   7.53176925
_cell_length_b   7.52119638
_cell_length_c   9.36496000
_cell_angle_alpha   90.00000000
_cell_angle_beta   90.00000000
_cell_angle_gamma   119.76701842
_symmetry_Int_Tables_number   1
_chemical_formula_structural   ZrNp(Al3Rh)3
_chemical_formula_sum   'Zr2 Np2 Al18 Rh6'
_cell_volume   460.50600332
_cell_formula_units_Z   2
loop_
 _symmetry_equiv_pos_site_id
 _symmetry_equiv_pos_as_xyz
  1  'x, y, z'
loop_
 _atom_site_type_symbol
 _atom_site_label
 _atom_site_symmetry_multiplicity
 _atom_site_fract_x
 _atom_site_fract_y
 _atom_site_fract_z
 _atom_site_occupancy
  Zr  Zr0  1  0.994861  0.671418  0.250000  1
  Zr  Zr1  1  0.005139  0.328582  0.750000  1
  Np  Np2  1  0.669122  0.993481  0.250000  1
  Np  Np3  1  0.330878  0.006519  0.750000  1
  Al  Al4  1  0.124948  0.124509  0.250000  1
  Al  Al5  1  0.875052  0.875491  0.750000  1
  Al  Al6  1  0.998747  0.337301  0.074680  1
  Al  Al7  1  0.001253  0.662699  0.925320  1
  Al  Al8  1  0.001253  0.662699  0.574680  1
  Al  Al9  1  0.331950  0.997946  0.422599  1
  Al  Al10  1  0.998747  0.337301  0.425320  1
  Al  Al11  1  0.668050  0.002054  0.577401  1
  Al  Al12  1  0.668050  0.002054  0.922599  1
  Al  Al13  1  0.331950  0.997946  0.077401  1
  Al  Al14  1  0.330713  0.333415  0.555707  1
  Al  Al15  1  0.669287  0.666585  0.444293  1
  Al  Al16  1  0.669287  0.666585  0.055707  1
  Al  Al17  1  0.330713  0.333415  0.944293  1
  Al  Al18  1  0.334364  0.547045  0.250000  1
  Al  Al19  1  0.665636  0.452955  0.750000  1
  Al  Al20  1  0.555285  0.343702  0.250000  1
  Al  Al21  1  0.444715  0.656298  0.750000  1
  Rh  Rh22  1  0.673029  0.329624  0.999455  1
  Rh  Rh23  1  0.326971  0.670376  0.000545  1
  Rh  Rh24  1  0.326971  0.670376  0.499455  1
  Rh  Rh25  1  0.673029  0.329624  0.500545  1
  Rh  Rh26  1  0.000000  0.000000  0.000000  1
  Rh  Rh27  1  0.000000  0.000000  0.500000  1
