# generated using pymatgen
data_Cs3GeIrBr8
_symmetry_space_group_name_H-M   'P 1'
_cell_length_a   8.78835300
_cell_length_b   10.92196500
_cell_length_c   10.56887300
_cell_angle_alpha   90.00000000
_cell_angle_beta   90.00000000
_cell_angle_gamma   90.00000000
_symmetry_Int_Tables_number   1
_chemical_formula_structural   Cs3GeIrBr8
_chemical_formula_sum   'Cs6 Ge2 Ir2 Br16'
_cell_volume   1014.46473023
_cell_formula_units_Z   2
loop_
 _symmetry_equiv_pos_site_id
 _symmetry_equiv_pos_as_xyz
  1  'x, y, z'
loop_
 _atom_site_type_symbol
 _atom_site_label
 _atom_site_symmetry_multiplicity
 _atom_site_fract_x
 _atom_site_fract_y
 _atom_site_fract_z
 _atom_site_occupancy
  Cs  Cs0  1  0.933481  0.241444  0.365294  1
  Cs  Cs1  1  0.433481  0.258556  0.634706  1
  Cs  Cs2  1  0.933481  0.758556  0.365294  1
  Cs  Cs3  1  0.992386  0.000000  0.860989  1
  Cs  Cs4  1  0.492386  0.500000  0.139011  1
  Cs  Cs5  1  0.433481  0.741444  0.634706  1
  Ge  Ge6  1  0.514573  0.000000  0.113380  1
  Ge  Ge7  1  0.014573  0.500000  0.886620  1
  Ir  Ir8  1  0.858389  0.500000  0.702336  1
  Ir  Ir9  1  0.358389  0.000000  0.297664  1
  Br  Br10  1  0.611314  0.500000  0.822250  1
  Br  Br11  1  0.189219  0.667987  0.921215  1
  Br  Br12  1  0.689219  0.167987  0.078785  1
  Br  Br13  1  0.197866  0.000000  0.506560  1
  Br  Br14  1  0.697866  0.500000  0.493440  1
  Br  Br15  1  0.849594  0.731839  0.699232  1
  Br  Br16  1  0.111314  0.000000  0.177750  1
  Br  Br17  1  0.101041  0.500000  0.570842  1
  Br  Br18  1  0.689219  0.832013  0.078785  1
  Br  Br19  1  0.411043  0.000000  0.896926  1
  Br  Br20  1  0.189219  0.332013  0.921215  1
  Br  Br21  1  0.601041  0.000000  0.429158  1
  Br  Br22  1  0.911043  0.500000  0.103074  1
  Br  Br23  1  0.849594  0.268161  0.699232  1
  Br  Br24  1  0.349594  0.768161  0.300768  1
  Br  Br25  1  0.349594  0.231839  0.300768  1
