# generated using pymatgen
data_Cs3Na2NbAs3
_symmetry_space_group_name_H-M   'P 1'
_cell_length_a   10.77341611
_cell_length_b   10.77341712
_cell_length_c   17.20794300
_cell_angle_alpha   90.00000000
_cell_angle_beta   90.00000000
_cell_angle_gamma   141.99138645
_symmetry_Int_Tables_number   1
_chemical_formula_structural   Cs3Na2NbAs3
_chemical_formula_sum   'Cs12 Na8 Nb4 As12'
_cell_volume   1229.87620949
_cell_formula_units_Z   4
loop_
 _symmetry_equiv_pos_site_id
 _symmetry_equiv_pos_as_xyz
  1  'x, y, z'
loop_
 _atom_site_type_symbol
 _atom_site_label
 _atom_site_symmetry_multiplicity
 _atom_site_fract_x
 _atom_site_fract_y
 _atom_site_fract_z
 _atom_site_occupancy
  Cs  Cs0  1  0.944072  0.611974  0.828713  1
  Cs  Cs1  1  0.555928  0.888026  0.328713  1
  Cs  Cs2  1  0.388026  0.055928  0.171287  1
  Cs  Cs3  1  0.055928  0.388026  0.171287  1
  Cs  Cs4  1  0.888026  0.555928  0.328713  1
  Cs  Cs5  1  0.444072  0.111974  0.671287  1
  Cs  Cs6  1  0.611974  0.944072  0.828713  1
  Cs  Cs7  1  0.278883  0.278883  0.315214  1
  Cs  Cs8  1  0.778883  0.778883  0.184786  1
  Cs  Cs9  1  0.221117  0.221117  0.815214  1
  Cs  Cs10  1  0.721117  0.721117  0.684786  1
  Cs  Cs11  1  0.111974  0.444072  0.671287  1
  Na  Na12  1  0.921342  0.078658  0.000000  1
  Na  Na13  1  0.578658  0.421342  0.500000  1
  Na  Na14  1  0.078658  0.921342  0.000000  1
  Na  Na15  1  0.421342  0.578658  0.500000  1
  Na  Na16  1  0.755127  0.244873  0.000000  1
  Na  Na17  1  0.744873  0.255127  0.500000  1
  Na  Na18  1  0.244873  0.755127  0.000000  1
  Na  Na19  1  0.255127  0.744873  0.500000  1
  Nb  Nb20  1  0.581412  0.418588  0.000000  1
  Nb  Nb21  1  0.918588  0.081412  0.500000  1
  Nb  Nb22  1  0.418588  0.581412  0.000000  1
  Nb  Nb23  1  0.081412  0.918588  0.500000  1
  As  As24  1  0.860166  0.554555  0.087303  1
  As  As25  1  0.445445  0.139834  0.912697  1
  As  As26  1  0.639834  0.945445  0.587303  1
  As  As27  1  0.945445  0.639834  0.587303  1
  As  As28  1  0.139834  0.445445  0.912697  1
  As  As29  1  0.554555  0.860166  0.087303  1
  As  As30  1  0.360166  0.054555  0.412697  1
  As  As31  1  0.198059  0.198059  0.583808  1
  As  As32  1  0.698059  0.698059  0.916192  1
  As  As33  1  0.301941  0.301941  0.083808  1
  As  As34  1  0.054555  0.360166  0.412697  1
  As  As35  1  0.801941  0.801941  0.416192  1
