# generated using pymatgen
data_Ti13Al9(CoRh3)2
_symmetry_space_group_name_H-M   'P 1'
_cell_length_a   8.68492986
_cell_length_b   8.68492876
_cell_length_c   8.68492910
_cell_angle_alpha   59.77178633
_cell_angle_beta   59.77179193
_cell_angle_gamma   59.77179408
_symmetry_Int_Tables_number   1
_chemical_formula_structural   Ti13Al9(CoRh3)2
_chemical_formula_sum   'Ti13 Al9 Co2 Rh6'
_cell_volume   460.81619105
_cell_formula_units_Z   1
loop_
 _symmetry_equiv_pos_site_id
 _symmetry_equiv_pos_as_xyz
  1  'x, y, z'
loop_
 _atom_site_type_symbol
 _atom_site_label
 _atom_site_symmetry_multiplicity
 _atom_site_fract_x
 _atom_site_fract_y
 _atom_site_fract_z
 _atom_site_occupancy
  Ti  Ti0  1  0.202538  0.202538  0.796765  1
  Ti  Ti1  1  0.796765  0.202538  0.202538  1
  Ti  Ti2  1  0.202538  0.796765  0.202538  1
  Ti  Ti3  1  0.803950  0.803950  0.183912  1
  Ti  Ti4  1  0.183912  0.803950  0.803950  1
  Ti  Ti5  1  0.803950  0.183912  0.803950  1
  Ti  Ti6  1  0.381657  0.381657  0.381657  1
  Ti  Ti7  1  0.382262  0.855809  0.382262  1
  Ti  Ti8  1  0.855809  0.382262  0.382262  1
  Ti  Ti9  1  0.382262  0.382262  0.855809  1
  Ti  Ti10  1  0.841297  0.479477  0.841297  1
  Ti  Ti11  1  0.479477  0.841297  0.841297  1
  Ti  Ti12  1  0.841297  0.841297  0.479477  1
  Al  Al13  1  0.158492  0.158492  0.158492  1
  Al  Al14  1  0.161531  0.517533  0.161531  1
  Al  Al15  1  0.517533  0.161531  0.161531  1
  Al  Al16  1  0.161531  0.161531  0.517533  1
  Al  Al17  1  0.617500  0.617500  0.617500  1
  Al  Al18  1  0.617364  0.150704  0.617364  1
  Al  Al19  1  0.150704  0.617364  0.617364  1
  Al  Al20  1  0.617364  0.617364  0.150704  1
  Al  Al21  1  0.830015  0.830015  0.830015  1
  Co  Co22  1  0.501708  0.501708  0.501708  1
  Co  Co23  1  0.003667  0.003667  0.003667  1
  Rh  Rh24  1  0.002876  0.002876  0.497816  1
  Rh  Rh25  1  0.497816  0.002876  0.002876  1
  Rh  Rh26  1  0.002876  0.497816  0.002876  1
  Rh  Rh27  1  0.499565  0.499565  0.002178  1
  Rh  Rh28  1  0.002178  0.499565  0.499565  1
  Rh  Rh29  1  0.499565  0.002178  0.499565  1
