# generated using pymatgen
data_DyY2Si2Ag3Hg
_symmetry_space_group_name_H-M   'P 1'
_cell_length_a   7.25564523
_cell_length_b   7.25249706
_cell_length_c   4.23650600
_cell_angle_alpha   90.00000000
_cell_angle_beta   90.00000000
_cell_angle_gamma   119.98564683
_symmetry_Int_Tables_number   1
_chemical_formula_structural   DyY2Si2Ag3Hg
_chemical_formula_sum   'Dy1 Y2 Si2 Ag3 Hg1'
_cell_volume   193.09225432
_cell_formula_units_Z   1
loop_
 _symmetry_equiv_pos_site_id
 _symmetry_equiv_pos_as_xyz
  1  'x, y, z'
loop_
 _atom_site_type_symbol
 _atom_site_label
 _atom_site_symmetry_multiplicity
 _atom_site_fract_x
 _atom_site_fract_y
 _atom_site_fract_z
 _atom_site_occupancy
  Dy  Dy0  1  0.000000  0.421238  0.500000  1
  Y  Y1  1  0.578672  0.578621  0.500000  1
  Y  Y2  1  0.421328  0.999949  0.500000  1
  Si  Si3  1  0.333113  0.666467  0.000000  1
  Si  Si4  1  0.666887  0.333353  0.000000  1
  Ag  Ag5  1  0.000000  0.731108  0.000000  1
  Ag  Ag6  1  0.268503  0.268648  0.000000  1
  Ag  Ag7  1  0.731497  0.000145  0.000000  1
  Hg  Hg8  1  0.000000  0.000471  0.500000  1
