# generated using pymatgen
data_TaTiB6(Ru3W2)2
_symmetry_space_group_name_H-M   'P 1'
_cell_length_a   3.03962000
_cell_length_b   8.93019625
_cell_length_c   15.72630981
_cell_angle_alpha   90.44153912
_cell_angle_beta   90.00000000
_cell_angle_gamma   90.00000000
_symmetry_Int_Tables_number   1
_chemical_formula_structural   TaTiB6(Ru3W2)2
_chemical_formula_sum   'Ta2 Ti2 B12 Ru12 W8'
_cell_volume   426.86861777
_cell_formula_units_Z   2
loop_
 _symmetry_equiv_pos_site_id
 _symmetry_equiv_pos_as_xyz
  1  'x, y, z'
loop_
 _atom_site_type_symbol
 _atom_site_label
 _atom_site_symmetry_multiplicity
 _atom_site_fract_x
 _atom_site_fract_y
 _atom_site_fract_z
 _atom_site_occupancy
  Ta  Ta0  1  0.000000  0.195171  0.299368  1
  Ta  Ta1  1  0.000000  0.804829  0.700632  1
  Ti  Ti2  1  0.000000  0.694636  0.200235  1
  Ti  Ti3  1  0.000000  0.305364  0.799765  1
  B  B4  1  0.500000  0.603759  0.495970  1
  B  B5  1  0.500000  0.396241  0.504030  1
  B  B6  1  0.500000  0.105866  0.004214  1
  B  B7  1  0.500000  0.894134  0.995786  1
  B  B8  1  0.000000  0.601762  0.831639  1
  B  B9  1  0.000000  0.398238  0.168361  1
  B  B10  1  0.000000  0.104041  0.669053  1
  B  B11  1  0.000000  0.895959  0.330947  1
  B  B12  1  0.500000  0.713421  0.594911  1
  B  B13  1  0.500000  0.286579  0.405089  1
  B  B14  1  0.500000  0.213442  0.903496  1
  B  B15  1  0.500000  0.786558  0.096504  1
  Ru  Ru16  1  0.500000  0.722694  0.350999  1
  Ru  Ru17  1  0.500000  0.277306  0.649001  1
  Ru  Ru18  1  0.500000  0.223506  0.147811  1
  Ru  Ru19  1  0.500000  0.776494  0.852189  1
  Ru  Ru20  1  0.500000  0.519981  0.090883  1
  Ru  Ru21  1  0.500000  0.480019  0.909117  1
  Ru  Ru22  1  0.500000  0.017698  0.410217  1
  Ru  Ru23  1  0.500000  0.982302  0.589783  1
  Ru  Ru24  1  0.500000  0.549236  0.734717  1
  Ru  Ru25  1  0.500000  0.450764  0.265283  1
  Ru  Ru26  1  0.500000  0.052741  0.766429  1
  Ru  Ru27  1  0.500000  0.947259  0.233571  1
  W  W28  1  0.000000  0.790661  0.492461  1
  W  W29  1  0.000000  0.209339  0.507539  1
  W  W30  1  0.000000  0.293307  0.005767  1
  W  W31  1  0.000000  0.706693  0.994233  1
  W  W32  1  0.000000  0.514273  0.591431  1
  W  W33  1  0.000000  0.485727  0.408569  1
  W  W34  1  0.000000  0.015765  0.909443  1
  W  W35  1  0.000000  0.984235  0.090557  1
