# generated using pymatgen
data_Hf18CuMo8Se
_symmetry_space_group_name_H-M   'P 1'
_cell_length_a   8.70384000
_cell_length_b   8.70384039
_cell_length_c   8.59365900
_cell_angle_alpha   90.00000000
_cell_angle_beta   90.00000000
_cell_angle_gamma   119.99999852
_symmetry_Int_Tables_number   1
_chemical_formula_structural   Hf18CuMo8Se
_chemical_formula_sum   'Hf18 Cu1 Mo8 Se1'
_cell_volume   563.80714093
_cell_formula_units_Z   1
loop_
 _symmetry_equiv_pos_site_id
 _symmetry_equiv_pos_as_xyz
  1  'x, y, z'
loop_
 _atom_site_type_symbol
 _atom_site_label
 _atom_site_symmetry_multiplicity
 _atom_site_fract_x
 _atom_site_fract_y
 _atom_site_fract_z
 _atom_site_occupancy
  Hf  Hf0  1  0.198200  0.801800  0.447356  1
  Hf  Hf1  1  0.198200  0.396401  0.447356  1
  Hf  Hf2  1  0.603599  0.801800  0.447356  1
  Hf  Hf3  1  0.805680  0.194320  0.545524  1
  Hf  Hf4  1  0.805680  0.611361  0.545524  1
  Hf  Hf5  1  0.388639  0.194320  0.545524  1
  Hf  Hf6  1  0.805680  0.194320  0.954476  1
  Hf  Hf7  1  0.805680  0.611361  0.954476  1
  Hf  Hf8  1  0.388639  0.194320  0.954476  1
  Hf  Hf9  1  0.198200  0.801800  0.052644  1
  Hf  Hf10  1  0.198200  0.396401  0.052644  1
  Hf  Hf11  1  0.603599  0.801800  0.052644  1
  Hf  Hf12  1  0.541434  0.458566  0.250000  1
  Hf  Hf13  1  0.541434  0.082868  0.250000  1
  Hf  Hf14  1  0.917132  0.458566  0.250000  1
  Hf  Hf15  1  0.456385  0.543615  0.750000  1
  Hf  Hf16  1  0.456385  0.912770  0.750000  1
  Hf  Hf17  1  0.087230  0.543615  0.750000  1
  Cu  Cu18  1  0.333333  0.666667  0.250000  1
  Mo  Mo19  1  0.888832  0.111168  0.250000  1
  Mo  Mo20  1  0.888832  0.777662  0.250000  1
  Mo  Mo21  1  0.222338  0.111168  0.250000  1
  Mo  Mo22  1  0.110959  0.889041  0.750000  1
  Mo  Mo23  1  0.110959  0.221919  0.750000  1
  Mo  Mo24  1  0.778081  0.889041  0.750000  1
  Mo  Mo25  1  0.000000  0.000000  0.499550  1
  Mo  Mo26  1  0.000000  0.000000  0.000450  1
  Se  Se27  1  0.666667  0.333333  0.750000  1
