# generated using pymatgen
data_TbGa7Au3
_symmetry_space_group_name_H-M   'P 1'
_cell_length_a   8.49544126
_cell_length_b   8.49544179
_cell_length_c   8.49544189
_cell_angle_alpha   58.37504847
_cell_angle_beta   58.37504579
_cell_angle_gamma   58.37504108
_symmetry_Int_Tables_number   1
_chemical_formula_structural   TbGa7Au3
_chemical_formula_sum   'Tb2 Ga14 Au6'
_cell_volume   417.42627846
_cell_formula_units_Z   2
loop_
 _symmetry_equiv_pos_site_id
 _symmetry_equiv_pos_as_xyz
  1  'x, y, z'
loop_
 _atom_site_type_symbol
 _atom_site_label
 _atom_site_symmetry_multiplicity
 _atom_site_fract_x
 _atom_site_fract_y
 _atom_site_fract_z
 _atom_site_occupancy
  Tb  Tb0  1  0.000000  0.000000  0.000000  1
  Tb  Tb1  1  0.500000  0.500000  0.500000  1
  Ga  Ga2  1  0.929038  0.146107  0.328910  1
  Ga  Ga3  1  0.328910  0.929038  0.146107  1
  Ga  Ga4  1  0.146107  0.328910  0.929038  1
  Ga  Ga5  1  0.570962  0.171090  0.353893  1
  Ga  Ga6  1  0.353893  0.570962  0.171090  1
  Ga  Ga7  1  0.171090  0.353893  0.570962  1
  Ga  Ga8  1  0.070962  0.853893  0.671090  1
  Ga  Ga9  1  0.671090  0.070962  0.853893  1
  Ga  Ga10  1  0.750000  0.750000  0.750000  1
  Ga  Ga11  1  0.250000  0.250000  0.250000  1
  Ga  Ga12  1  0.828910  0.646107  0.429038  1
  Ga  Ga13  1  0.646107  0.429038  0.828910  1
  Ga  Ga14  1  0.429038  0.828910  0.646107  1
  Ga  Ga15  1  0.853893  0.671090  0.070962  1
  Au  Au16  1  0.250000  0.568468  0.931532  1
  Au  Au17  1  0.931532  0.250000  0.568468  1
  Au  Au18  1  0.568468  0.931532  0.250000  1
  Au  Au19  1  0.750000  0.431532  0.068468  1
  Au  Au20  1  0.068468  0.750000  0.431532  1
  Au  Au21  1  0.431532  0.068468  0.750000  1
