# generated using pymatgen
data_Lu10Tl2Ru3Pt
_symmetry_space_group_name_H-M   'P 1'
_cell_length_a   8.69285285
_cell_length_b   8.69285443
_cell_length_c   8.59642500
_cell_angle_alpha   127.63205130
_cell_angle_beta   127.63204269
_cell_angle_gamma   78.01649530
_symmetry_Int_Tables_number   1
_chemical_formula_structural   Lu10Tl2Ru3Pt
_chemical_formula_sum   'Lu10 Tl2 Ru3 Pt1'
_cell_volume   393.02921765
_cell_formula_units_Z   1
loop_
 _symmetry_equiv_pos_site_id
 _symmetry_equiv_pos_as_xyz
  1  'x, y, z'
loop_
 _atom_site_type_symbol
 _atom_site_label
 _atom_site_symmetry_multiplicity
 _atom_site_fract_x
 _atom_site_fract_y
 _atom_site_fract_z
 _atom_site_occupancy
  Lu  Lu0  1  0.999340  0.999010  0.998350  1
  Lu  Lu1  1  0.500990  0.500660  0.001650  1
  Lu  Lu2  1  0.798285  0.288418  0.819855  1
  Lu  Lu3  1  0.211582  0.701715  0.180145  1
  Lu  Lu4  1  0.478430  0.968562  0.180145  1
  Lu  Lu5  1  0.277621  0.481771  0.500000  1
  Lu  Lu6  1  0.018229  0.222379  0.500000  1
  Lu  Lu7  1  0.531438  0.021570  0.819855  1
  Lu  Lu8  1  0.710574  0.528607  0.500000  1
  Lu  Lu9  1  0.971393  0.789426  0.500000  1
  Tl  Tl10  1  0.252275  0.247725  0.000000  1
  Tl  Tl11  1  0.752275  0.747725  0.000000  1
  Ru  Ru12  1  0.143989  0.646487  0.790476  1
  Ru  Ru13  1  0.853513  0.356011  0.209524  1
  Ru  Ru14  1  0.640745  0.859255  0.500000  1
  Pt  Pt15  1  0.359323  0.140677  0.500000  1
