# generated using pymatgen
data_CsTa2I11
_symmetry_space_group_name_H-M   'P 1'
_cell_length_a   8.37913402
_cell_length_b   8.46004774
_cell_length_c   20.65796564
_cell_angle_alpha   79.14851977
_cell_angle_beta   78.94419715
_cell_angle_gamma   88.69505587
_symmetry_Int_Tables_number   1
_chemical_formula_structural   CsTa2I11
_chemical_formula_sum   'Cs2 Ta4 I22'
_cell_volume   1411.38665805
_cell_formula_units_Z   2
loop_
 _symmetry_equiv_pos_site_id
 _symmetry_equiv_pos_as_xyz
  1  'x, y, z'
loop_
 _atom_site_type_symbol
 _atom_site_label
 _atom_site_symmetry_multiplicity
 _atom_site_fract_x
 _atom_site_fract_y
 _atom_site_fract_z
 _atom_site_occupancy
  Cs  Cs0  1  0.747813  0.748906  0.503208  1
  Cs  Cs1  1  0.252187  0.251094  0.496792  1
  Ta  Ta2  1  0.323591  0.820591  0.341791  1
  Ta  Ta3  1  0.676409  0.179409  0.658209  1
  Ta  Ta4  1  0.835765  0.333968  0.085029  1
  Ta  Ta5  1  0.164235  0.666032  0.914971  1
  I  I6  1  0.253379  0.768760  0.488138  1
  I  I7  1  0.746621  0.231240  0.511862  1
  I  I8  1  0.569812  0.028180  0.345896  1
  I  I9  1  0.430188  0.971820  0.654104  1
  I  I10  1  0.537747  0.565950  0.353626  1
  I  I11  1  0.462253  0.434050  0.646374  1
  I  I12  1  0.385698  0.861854  0.207881  1
  I  I13  1  0.614302  0.138146  0.792119  1
  I  I14  1  0.071018  0.603339  0.353567  1
  I  I15  1  0.928982  0.396661  0.646433  1
  I  I16  1  0.105832  0.069733  0.342629  1
  I  I17  1  0.894168  0.930267  0.657371  1
  I  I18  1  0.899467  0.040010  0.145943  1
  I  I19  1  0.100533  0.959990  0.854057  1
  I  I20  1  0.536049  0.381926  0.148150  1
  I  I21  1  0.463951  0.618074  0.851850  1
  I  I22  1  0.726829  0.222087  0.985639  1
  I  I23  1  0.273171  0.777913  0.014361  1
  I  I24  1  0.975264  0.479233  0.167775  1
  I  I25  1  0.024736  0.520767  0.832225  1
  I  I26  1  0.163132  0.344046  0.999634  1
  I  I27  1  0.836868  0.655954  0.000366  1
