# generated using pymatgen
data_Ho10Cd2FeHg
_symmetry_space_group_name_H-M   'P 1'
_cell_length_a   9.56049300
_cell_length_b   9.56189456
_cell_length_c   9.65372400
_cell_angle_alpha   90.00000000
_cell_angle_beta   90.00000000
_cell_angle_gamma   120.00484844
_symmetry_Int_Tables_number   1
_chemical_formula_structural   Ho10Cd2FeHg
_chemical_formula_sum   'Ho20 Cd4 Fe2 Hg2'
_cell_volume   764.23782404
_cell_formula_units_Z   2
loop_
 _symmetry_equiv_pos_site_id
 _symmetry_equiv_pos_as_xyz
  1  'x, y, z'
loop_
 _atom_site_type_symbol
 _atom_site_label
 _atom_site_symmetry_multiplicity
 _atom_site_fract_x
 _atom_site_fract_y
 _atom_site_fract_z
 _atom_site_occupancy
  Ho  Ho0  1  0.996070  0.998035  0.493200  1
  Ho  Ho1  1  0.996070  0.998035  0.006800  1
  Ho  Ho2  1  0.544926  0.460831  0.250000  1
  Ho  Ho3  1  0.544926  0.084095  0.250000  1
  Ho  Ho4  1  0.917108  0.458555  0.250000  1
  Ho  Ho5  1  0.457903  0.541713  0.750000  1
  Ho  Ho6  1  0.457903  0.916191  0.750000  1
  Ho  Ho7  1  0.084733  0.542367  0.750000  1
  Ho  Ho8  1  0.212641  0.788306  0.435696  1
  Ho  Ho9  1  0.212641  0.424336  0.435696  1
  Ho  Ho10  1  0.575478  0.787740  0.435860  1
  Ho  Ho11  1  0.787908  0.212596  0.564423  1
  Ho  Ho12  1  0.787908  0.575312  0.564423  1
  Ho  Ho13  1  0.424274  0.212137  0.563201  1
  Ho  Ho14  1  0.787908  0.212596  0.935577  1
  Ho  Ho15  1  0.787908  0.575312  0.935577  1
  Ho  Ho16  1  0.424274  0.212137  0.936799  1
  Ho  Ho17  1  0.212641  0.788306  0.064304  1
  Ho  Ho18  1  0.212641  0.424336  0.064304  1
  Ho  Ho19  1  0.575478  0.787740  0.064140  1
  Cd  Cd20  1  0.235438  0.117719  0.250000  1
  Cd  Cd21  1  0.113040  0.886046  0.750000  1
  Cd  Cd22  1  0.113040  0.226994  0.750000  1
  Cd  Cd23  1  0.771353  0.885677  0.750000  1
  Fe  Fe24  1  0.333559  0.666780  0.250000  1
  Fe  Fe25  1  0.666233  0.333116  0.750000  1
  Hg  Hg26  1  0.882997  0.120920  0.250000  1
  Hg  Hg27  1  0.882997  0.762079  0.250000  1
