# generated using pymatgen
data_As4RuRh3
_symmetry_space_group_name_H-M   'P 1'
_cell_length_a   3.69201600
_cell_length_b   5.61453226
_cell_length_c   6.16280214
_cell_angle_alpha   89.77154385
_cell_angle_beta   90.00000000
_cell_angle_gamma   90.00000000
_symmetry_Int_Tables_number   1
_chemical_formula_structural   As4RuRh3
_chemical_formula_sum   'As4 Ru1 Rh3'
_cell_volume   127.74735829
_cell_formula_units_Z   1
loop_
 _symmetry_equiv_pos_site_id
 _symmetry_equiv_pos_as_xyz
  1  'x, y, z'
loop_
 _atom_site_type_symbol
 _atom_site_label
 _atom_site_symmetry_multiplicity
 _atom_site_fract_x
 _atom_site_fract_y
 _atom_site_fract_z
 _atom_site_occupancy
  As  As0  1  0.250000  0.692247  0.084285  1
  As  As1  1  0.750000  0.310282  0.911414  1
  As  As2  1  0.250000  0.197746  0.414378  1
  As  As3  1  0.750000  0.798087  0.590899  1
  Ru  Ru4  1  0.250000  0.500424  0.698307  1
  Rh  Rh5  1  0.750000  0.498893  0.302365  1
  Rh  Rh6  1  0.250000  0.002764  0.800093  1
  Rh  Rh7  1  0.750000  0.999557  0.198257  1
