# generated using pymatgen
data_Ho4Rh3AuO14
_symmetry_space_group_name_H-M   'P 1'
_cell_length_a   7.25131885
_cell_length_b   7.25131979
_cell_length_c   7.22826141
_cell_angle_alpha   59.89442905
_cell_angle_beta   59.89442419
_cell_angle_gamma   60.00000341
_symmetry_Int_Tables_number   1
_chemical_formula_structural   Ho4Rh3AuO14
_chemical_formula_sum   'Ho4 Rh3 Au1 O14'
_cell_volume   268.32309594
_cell_formula_units_Z   1
loop_
 _symmetry_equiv_pos_site_id
 _symmetry_equiv_pos_as_xyz
  1  'x, y, z'
loop_
 _atom_site_type_symbol
 _atom_site_label
 _atom_site_symmetry_multiplicity
 _atom_site_fract_x
 _atom_site_fract_y
 _atom_site_fract_z
 _atom_site_occupancy
  Ho  Ho0  1  0.125000  0.125000  0.625000  1
  Ho  Ho1  1  0.125000  0.625000  0.125000  1
  Ho  Ho2  1  0.125000  0.125000  0.125000  1
  Ho  Ho3  1  0.625000  0.125000  0.125000  1
  Rh  Rh4  1  0.125000  0.625000  0.625000  1
  Rh  Rh5  1  0.625000  0.625000  0.625000  1
  Rh  Rh6  1  0.625000  0.125000  0.625000  1
  Au  Au7  1  0.625000  0.625000  0.125000  1
  O  O8  1  0.286599  0.712719  0.714084  1
  O  O9  1  0.532526  0.970053  0.964896  1
  O  O10  1  0.712719  0.286599  0.714084  1
  O  O11  1  0.717474  0.717474  0.285104  1
  O  O12  1  0.279947  0.717474  0.285104  1
  O  O13  1  0.286599  0.286599  0.714084  1
  O  O14  1  0.999576  0.999576  0.001272  1
  O  O15  1  0.250424  0.250424  0.248728  1
  O  O16  1  0.970053  0.532526  0.964896  1
  O  O17  1  0.532526  0.532526  0.964896  1
  O  O18  1  0.963401  0.963401  0.535916  1
  O  O19  1  0.537281  0.963401  0.535916  1
  O  O20  1  0.717474  0.279947  0.285104  1
  O  O21  1  0.963401  0.537281  0.535916  1
