# generated using pymatgen
data_LiYEr(Co3P2)3
_symmetry_space_group_name_H-M   'P 1'
_cell_length_a   3.66757000
_cell_length_b   10.25201300
_cell_length_c   11.82145600
_cell_angle_alpha   90.00000000
_cell_angle_beta   90.00000000
_cell_angle_gamma   90.00000000
_symmetry_Int_Tables_number   1
_chemical_formula_structural   LiYEr(Co3P2)3
_chemical_formula_sum   'Li2 Y2 Er2 Co18 P12'
_cell_volume   444.48645383
_cell_formula_units_Z   2
loop_
 _symmetry_equiv_pos_site_id
 _symmetry_equiv_pos_as_xyz
  1  'x, y, z'
loop_
 _atom_site_type_symbol
 _atom_site_label
 _atom_site_symmetry_multiplicity
 _atom_site_fract_x
 _atom_site_fract_y
 _atom_site_fract_z
 _atom_site_occupancy
  Li  Li0  1  0.250000  0.702396  0.990682  1
  Li  Li1  1  0.250000  0.797604  0.490682  1
  Y  Y2  1  0.250000  0.579274  0.702348  1
  Y  Y3  1  0.250000  0.920726  0.202348  1
  Er  Er4  1  0.750000  0.420155  0.297866  1
  Er  Er5  1  0.750000  0.079845  0.797866  1
  Co  Co6  1  0.750000  0.288435  0.008393  1
  Co  Co7  1  0.750000  0.211565  0.508393  1
  Co  Co8  1  0.250000  0.403533  0.486357  1
  Co  Co9  1  0.250000  0.096467  0.986357  1
  Co  Co10  1  0.750000  0.590324  0.513811  1
  Co  Co11  1  0.750000  0.909676  0.013811  1
  Co  Co12  1  0.250000  0.224785  0.174590  1
  Co  Co13  1  0.250000  0.275215  0.674590  1
  Co  Co14  1  0.750000  0.779842  0.826364  1
  Co  Co15  1  0.750000  0.720158  0.326364  1
  Co  Co16  1  0.250000  0.881557  0.698977  1
  Co  Co17  1  0.250000  0.618443  0.198977  1
  Co  Co18  1  0.750000  0.121944  0.300088  1
  Co  Co19  1  0.750000  0.378056  0.800088  1
  Co  Co20  1  0.250000  0.462731  0.932031  1
  Co  Co21  1  0.250000  0.037269  0.432031  1
  Co  Co22  1  0.750000  0.532516  0.066697  1
  Co  Co23  1  0.750000  0.967484  0.566697  1
  P  P24  1  0.250000  0.422266  0.112757  1
  P  P25  1  0.250000  0.077734  0.612757  1
  P  P26  1  0.750000  0.576524  0.884615  1
  P  P27  1  0.750000  0.923476  0.384615  1
  P  P28  1  0.250000  0.267262  0.866439  1
  P  P29  1  0.250000  0.232738  0.366439  1
  P  P30  1  0.750000  0.729208  0.138187  1
  P  P31  1  0.750000  0.770792  0.638187  1
  P  P32  1  0.250000  0.600760  0.392944  1
  P  P33  1  0.250000  0.899240  0.892944  1
  P  P34  1  0.750000  0.394991  0.606852  1
  P  P35  1  0.750000  0.105009  0.106852  1
