# generated using pymatgen
data_KU2Tl7Se10
_symmetry_space_group_name_H-M   'P 1'
_cell_length_a   7.83034339
_cell_length_b   11.71784245
_cell_length_c   7.57745700
_cell_angle_alpha   102.01473485
_cell_angle_beta   100.47554182
_cell_angle_gamma   109.93379651
_symmetry_Int_Tables_number   1
_chemical_formula_structural   KU2Tl7Se10
_chemical_formula_sum   'K1 U2 Tl7 Se10'
_cell_volume   614.66056913
_cell_formula_units_Z   1
loop_
 _symmetry_equiv_pos_site_id
 _symmetry_equiv_pos_as_xyz
  1  'x, y, z'
loop_
 _atom_site_type_symbol
 _atom_site_label
 _atom_site_symmetry_multiplicity
 _atom_site_fract_x
 _atom_site_fract_y
 _atom_site_fract_z
 _atom_site_occupancy
  K  K0  1  0.999982  0.000027  0.500007  1
  U  U1  1  0.190674  0.194769  0.099896  1
  U  U2  1  0.809287  0.805201  0.900075  1
  Tl  Tl3  1  0.000187  0.500090  0.000099  1
  Tl  Tl4  1  0.407301  0.903884  0.211294  1
  Tl  Tl5  1  0.596778  0.596167  0.293879  1
  Tl  Tl6  1  0.789060  0.304878  0.416610  1
  Tl  Tl7  1  0.211000  0.695185  0.583325  1
  Tl  Tl8  1  0.403232  0.403830  0.706191  1
  Tl  Tl9  1  0.592748  0.096192  0.788750  1
  Se  Se10  1  0.533762  0.316669  0.060005  1
  Se  Se11  1  0.830710  0.040631  0.112346  1
  Se  Se12  1  0.976708  0.756631  0.197521  1
  Se  Se13  1  0.186191  0.405569  0.314257  1
  Se  Se14  1  0.367828  0.159291  0.404338  1
  Se  Se15  1  0.632194  0.840707  0.595627  1
  Se  Se16  1  0.813791  0.594334  0.685744  1
  Se  Se17  1  0.023292  0.243406  0.802516  1
  Se  Se18  1  0.169170  0.959260  0.887567  1
  Se  Se19  1  0.466108  0.683278  0.939953  1
