# generated using pymatgen
data_TbDy3Al4Ir3Pt
_symmetry_space_group_name_H-M   'P 1'
_cell_length_a   4.30325500
_cell_length_b   6.86418205
_cell_length_c   7.89948701
_cell_angle_alpha   90.04654087
_cell_angle_beta   90.00000000
_cell_angle_gamma   90.00000000
_symmetry_Int_Tables_number   1
_chemical_formula_structural   TbDy3Al4Ir3Pt
_chemical_formula_sum   'Tb1 Dy3 Al4 Ir3 Pt1'
_cell_volume   233.33754321
_cell_formula_units_Z   1
loop_
 _symmetry_equiv_pos_site_id
 _symmetry_equiv_pos_as_xyz
  1  'x, y, z'
loop_
 _atom_site_type_symbol
 _atom_site_label
 _atom_site_symmetry_multiplicity
 _atom_site_fract_x
 _atom_site_fract_y
 _atom_site_fract_z
 _atom_site_occupancy
  Tb  Tb0  1  0.250000  0.471443  0.182835  1
  Dy  Dy1  1  0.750000  0.535412  0.818538  1
  Dy  Dy2  1  0.750000  0.028339  0.677820  1
  Dy  Dy3  1  0.250000  0.969114  0.320471  1
  Al  Al4  1  0.250000  0.856587  0.937786  1
  Al  Al5  1  0.750000  0.139040  0.064384  1
  Al  Al6  1  0.750000  0.640458  0.437696  1
  Al  Al7  1  0.250000  0.360674  0.560659  1
  Ir  Ir8  1  0.250000  0.732545  0.619698  1
  Ir  Ir9  1  0.750000  0.267459  0.381785  1
  Ir  Ir10  1  0.750000  0.768665  0.117744  1
  Pt  Pt11  1  0.250000  0.230262  0.880585  1
