# generated using pymatgen
data_LiPr5YIrBr12
_symmetry_space_group_name_H-M   'P 1'
_cell_length_a   9.58849629
_cell_length_b   9.65032606
_cell_length_c   9.56608816
_cell_angle_alpha   108.36761818
_cell_angle_beta   108.33953613
_cell_angle_gamma   107.44519363
_symmetry_Int_Tables_number   1
_chemical_formula_structural   LiPr5YIrBr12
_chemical_formula_sum   'Li1 Pr5 Y1 Ir1 Br12'
_cell_volume   714.95039631
_cell_formula_units_Z   1
loop_
 _symmetry_equiv_pos_site_id
 _symmetry_equiv_pos_as_xyz
  1  'x, y, z'
loop_
 _atom_site_type_symbol
 _atom_site_label
 _atom_site_symmetry_multiplicity
 _atom_site_fract_x
 _atom_site_fract_y
 _atom_site_fract_z
 _atom_site_occupancy
  Li  Li0  1  0.499884  0.500686  0.499615  1
  Pr  Pr1  1  0.321479  0.035352  0.118116  1
  Pr  Pr2  1  0.038742  0.121026  0.324844  1
  Pr  Pr3  1  0.962784  0.884161  0.677606  1
  Pr  Pr4  1  0.678966  0.964370  0.882251  1
  Pr  Pr5  1  0.877701  0.665961  0.961716  1
  Y  Y6  1  0.119609  0.325246  0.038154  1
  Ir  Ir7  1  0.000795  0.000750  0.001573  1
  Br  Br8  1  0.214255  0.677782  0.070542  1
  Br  Br9  1  0.454676  0.385623  0.172544  1
  Br  Br10  1  0.687141  0.071882  0.217888  1
  Br  Br11  1  0.929769  0.785861  0.315149  1
  Br  Br12  1  0.177778  0.466419  0.375671  1
  Br  Br13  1  0.388407  0.180873  0.469438  1
  Br  Br14  1  0.612107  0.820308  0.531102  1
  Br  Br15  1  0.820051  0.533542  0.611666  1
  Br  Br16  1  0.074174  0.222990  0.697635  1
  Br  Br17  1  0.312991  0.928663  0.782665  1
  Br  Br18  1  0.532463  0.614083  0.819384  1
  Br  Br19  1  0.796231  0.314425  0.932443  1
