# generated using pymatgen
data_Sm2Cl3O
_symmetry_space_group_name_H-M   'P 1'
_cell_length_a   8.24940408
_cell_length_b   8.24940389
_cell_length_c   10.60700238
_cell_angle_alpha   61.10171529
_cell_angle_beta   61.10171665
_cell_angle_gamma   28.22675172
_symmetry_Int_Tables_number   1
_chemical_formula_structural   Sm2Cl3O
_chemical_formula_sum   'Sm4 Cl6 O2'
_cell_volume   295.99643912
_cell_formula_units_Z   2
loop_
 _symmetry_equiv_pos_site_id
 _symmetry_equiv_pos_as_xyz
  1  'x, y, z'
loop_
 _atom_site_type_symbol
 _atom_site_label
 _atom_site_symmetry_multiplicity
 _atom_site_fract_x
 _atom_site_fract_y
 _atom_site_fract_z
 _atom_site_occupancy
  Sm  Sm0  1  0.864546  0.864546  0.286816  1
  Sm  Sm1  1  0.135454  0.135454  0.713184  1
  Sm  Sm2  1  0.584878  0.584878  0.048171  1
  Sm  Sm3  1  0.415122  0.415122  0.951829  1
  Cl  Cl4  1  0.045649  0.045649  0.262384  1
  Cl  Cl5  1  0.954351  0.954351  0.737616  1
  Cl  Cl6  1  0.664027  0.664027  0.491319  1
  Cl  Cl7  1  0.335973  0.335973  0.508681  1
  Cl  Cl8  1  0.771963  0.771963  0.115724  1
  Cl  Cl9  1  0.228037  0.228037  0.884276  1
  O  O10  1  0.416478  0.416478  0.169799  1
  O  O11  1  0.583522  0.583522  0.830201  1
