# generated using pymatgen
data_Ho4Zr(Pd2Pt)5
_symmetry_space_group_name_H-M   'P 1'
_cell_length_a   4.10669000
_cell_length_b   4.09288300
_cell_length_c   20.49952400
_cell_angle_alpha   90.00000000
_cell_angle_beta   90.00000000
_cell_angle_gamma   90.00000000
_symmetry_Int_Tables_number   1
_chemical_formula_structural   Ho4Zr(Pd2Pt)5
_chemical_formula_sum   'Ho4 Zr1 Pd10 Pt5'
_cell_volume   344.56013389
_cell_formula_units_Z   1
loop_
 _symmetry_equiv_pos_site_id
 _symmetry_equiv_pos_as_xyz
  1  'x, y, z'
loop_
 _atom_site_type_symbol
 _atom_site_label
 _atom_site_symmetry_multiplicity
 _atom_site_fract_x
 _atom_site_fract_y
 _atom_site_fract_z
 _atom_site_occupancy
  Ho  Ho0  1  0.000000  0.000000  0.198523  1
  Ho  Ho1  1  0.000000  0.000000  0.398310  1
  Ho  Ho2  1  0.000000  0.000000  0.601690  1
  Ho  Ho3  1  0.000000  0.000000  0.801477  1
  Zr  Zr4  1  0.000000  0.000000  0.000000  1
  Pd  Pd5  1  0.500000  0.500000  0.196801  1
  Pd  Pd6  1  0.500000  0.500000  0.398960  1
  Pd  Pd7  1  0.500000  0.500000  0.601040  1
  Pd  Pd8  1  0.500000  0.500000  0.803199  1
  Pd  Pd9  1  0.500000  0.000000  0.500000  1
  Pd  Pd10  1  0.000000  0.500000  0.095790  1
  Pd  Pd11  1  0.000000  0.500000  0.297875  1
  Pd  Pd12  1  0.000000  0.500000  0.500000  1
  Pd  Pd13  1  0.000000  0.500000  0.702125  1
  Pd  Pd14  1  0.000000  0.500000  0.904210  1
  Pt  Pt15  1  0.500000  0.500000  0.000000  1
  Pt  Pt16  1  0.500000  0.000000  0.095332  1
  Pt  Pt17  1  0.500000  0.000000  0.297820  1
  Pt  Pt18  1  0.500000  0.000000  0.702180  1
  Pt  Pt19  1  0.500000  0.000000  0.904668  1
