# generated using pymatgen
data_Er3PaInTc
_symmetry_space_group_name_H-M   'P 1'
_cell_length_a   9.57917980
_cell_length_b   9.57918021
_cell_length_c   9.57918100
_cell_angle_alpha   60.00000072
_cell_angle_beta   59.99999932
_cell_angle_gamma   60.00000095
_symmetry_Int_Tables_number   1
_chemical_formula_structural   Er3PaInTc
_chemical_formula_sum   'Er12 Pa4 In4 Tc4'
_cell_volume   621.54138817
_cell_formula_units_Z   4
loop_
 _symmetry_equiv_pos_site_id
 _symmetry_equiv_pos_as_xyz
  1  'x, y, z'
loop_
 _atom_site_type_symbol
 _atom_site_label
 _atom_site_symmetry_multiplicity
 _atom_site_fract_x
 _atom_site_fract_y
 _atom_site_fract_z
 _atom_site_occupancy
  Er  Er0  1  0.807851  0.191742  0.191753  1
  Er  Er1  1  0.191207  0.808108  0.808082  1
  Er  Er2  1  0.191705  0.807871  0.191684  1
  Er  Er3  1  0.808089  0.191215  0.808071  1
  Er  Er4  1  0.191736  0.191724  0.807839  1
  Er  Er5  1  0.808030  0.808061  0.191248  1
  Er  Er6  1  0.940517  0.560675  0.560691  1
  Er  Er7  1  0.561042  0.940029  0.940012  1
  Er  Er8  1  0.560712  0.940506  0.560695  1
  Er  Er9  1  0.940052  0.560982  0.940046  1
  Er  Er10  1  0.560703  0.560653  0.940520  1
  Er  Er11  1  0.940040  0.940043  0.561013  1
  Pa  Pa12  1  0.343402  0.343501  0.343369  1
  Pa  Pa13  1  0.344396  0.344431  0.968851  1
  Pa  Pa14  1  0.344397  0.968826  0.344409  1
  Pa  Pa15  1  0.968677  0.344510  0.344468  1
  In  In16  1  0.582542  0.582469  0.582486  1
  In  In17  1  0.582020  0.582016  0.251224  1
  In  In18  1  0.581994  0.251205  0.582051  1
  In  In19  1  0.251158  0.582044  0.582065  1
  Tc  Tc20  1  0.147112  0.146996  0.146992  1
  Tc  Tc21  1  0.146898  0.146726  0.558874  1
  Tc  Tc22  1  0.146841  0.558874  0.146768  1
  Tc  Tc23  1  0.558882  0.146794  0.146788  1
