# generated using pymatgen
data_La2Pr10Mn2I17
_symmetry_space_group_name_H-M   'P 1'
_cell_length_a   10.20583441
_cell_length_b   12.09398755
_cell_length_c   12.18391393
_cell_angle_alpha   93.05734930
_cell_angle_beta   105.17212055
_cell_angle_gamma   114.95106681
_symmetry_Int_Tables_number   1
_chemical_formula_structural   La2Pr10Mn2I17
_chemical_formula_sum   'La2 Pr10 Mn2 I17'
_cell_volume   1292.72498694
_cell_formula_units_Z   1
loop_
 _symmetry_equiv_pos_site_id
 _symmetry_equiv_pos_as_xyz
  1  'x, y, z'
loop_
 _atom_site_type_symbol
 _atom_site_label
 _atom_site_symmetry_multiplicity
 _atom_site_fract_x
 _atom_site_fract_y
 _atom_site_fract_z
 _atom_site_occupancy
  La  La0  1  0.042404  0.485614  0.312904  1
  La  La1  1  0.001932  0.801867  0.604144  1
  Pr  Pr2  1  0.642331  0.238573  0.284335  1
  Pr  Pr3  1  0.014774  0.189056  0.423598  1
  Pr  Pr4  1  0.211409  0.672228  0.975241  1
  Pr  Pr5  1  0.263308  0.992644  0.895616  1
  Pr  Pr6  1  0.356921  0.759157  0.713834  1
  Pr  Pr7  1  0.938288  0.482947  0.674940  1
  Pr  Pr8  1  0.750758  0.030023  0.114849  1
  Pr  Pr9  1  0.157386  0.289518  0.150767  1
  Pr  Pr10  1  0.777805  0.333778  0.006130  1
  Pr  Pr11  1  0.843699  0.711900  0.849561  1
  Mn  Mn12  1  0.094009  0.743651  0.769616  1
  Mn  Mn13  1  0.910138  0.281436  0.223282  1
  I  I14  1  0.780908  0.522908  0.418689  1
  I  I15  1  0.638056  0.417751  0.754204  1
  I  I16  1  0.845537  0.898774  0.325916  1
  I  I17  1  0.324529  0.210836  0.369782  1
  I  I18  1  0.162535  0.108136  0.681541  1
  I  I19  1  0.589168  0.054289  0.847093  1
  I  I20  1  0.752715  0.176960  0.536344  1
  I  I21  1  0.543123  0.710288  0.954038  1
  I  I22  1  0.354641  0.580244  0.232704  1
  I  I23  1  0.214495  0.467226  0.586145  1
  I  I24  1  0.053976  0.366902  0.893905  1
  I  I25  1  0.456735  0.297103  0.048083  1
  I  I26  1  0.998278  0.001174  0.002003  1
  I  I27  1  0.242743  0.807206  0.461377  1
  I  I28  1  0.416256  0.945868  0.154590  1
  I  I29  1  0.674624  0.786964  0.633455  1
  I  I30  1  0.946521  0.634977  0.101319  1
