# generated using pymatgen
data_Tb5Nd3(AsBr6)2
_symmetry_space_group_name_H-M   'P 1'
_cell_length_a   4.11932800
_cell_length_b   13.53714684
_cell_length_c   14.23964928
_cell_angle_alpha   89.61582467
_cell_angle_beta   90.00000000
_cell_angle_gamma   90.00000000
_symmetry_Int_Tables_number   1
_chemical_formula_structural   Tb5Nd3(AsBr6)2
_chemical_formula_sum   'Tb5 Nd3 As2 Br12'
_cell_volume   794.04121203
_cell_formula_units_Z   1
loop_
 _symmetry_equiv_pos_site_id
 _symmetry_equiv_pos_as_xyz
  1  'x, y, z'
loop_
 _atom_site_type_symbol
 _atom_site_label
 _atom_site_symmetry_multiplicity
 _atom_site_fract_x
 _atom_site_fract_y
 _atom_site_fract_z
 _atom_site_occupancy
  Tb  Tb0  1  0.500000  0.118706  0.341270  1
  Tb  Tb1  1  0.500000  0.882034  0.658194  1
  Tb  Tb2  1  0.500000  0.617228  0.157998  1
  Tb  Tb3  1  0.500000  0.382173  0.842509  1
  Tb  Tb4  1  0.000000  0.381219  0.079330  1
  Nd  Nd5  1  0.000000  0.120569  0.579995  1
  Nd  Nd6  1  0.000000  0.879841  0.419164  1
  Nd  Nd7  1  0.000000  0.618856  0.920507  1
  As  As8  1  0.500000  0.000197  0.499549  1
  As  As9  1  0.500000  0.496287  0.002514  1
  Br  Br10  1  0.500000  0.245315  0.163742  1
  Br  Br11  1  0.500000  0.760962  0.833552  1
  Br  Br12  1  0.500000  0.736284  0.332345  1
  Br  Br13  1  0.500000  0.262483  0.668584  1
  Br  Br14  1  0.000000  0.253425  0.406089  1
  Br  Br15  1  0.000000  0.747167  0.593130  1
  Br  Br16  1  0.000000  0.752194  0.092309  1
  Br  Br17  1  0.000000  0.249104  0.913456  1
  Br  Br18  1  0.000000  0.008531  0.242610  1
  Br  Br19  1  0.000000  0.992882  0.756463  1
  Br  Br20  1  0.000000  0.500928  0.252422  1
  Br  Br21  1  0.000000  0.493615  0.744268  1
