# generated using pymatgen
data_LaHo5(AuO7)2
_symmetry_space_group_name_H-M   'P 1'
_cell_length_a   6.51164285
_cell_length_b   6.51164253
_cell_length_c   7.48917868
_cell_angle_alpha   89.90178804
_cell_angle_beta   90.09821178
_cell_angle_gamma   108.59339156
_symmetry_Int_Tables_number   1
_chemical_formula_structural   LaHo5(AuO7)2
_chemical_formula_sum   'La1 Ho5 Au2 O14'
_cell_volume   300.97708481
_cell_formula_units_Z   1
loop_
 _symmetry_equiv_pos_site_id
 _symmetry_equiv_pos_as_xyz
  1  'x, y, z'
loop_
 _atom_site_type_symbol
 _atom_site_label
 _atom_site_symmetry_multiplicity
 _atom_site_fract_x
 _atom_site_fract_y
 _atom_site_fract_z
 _atom_site_occupancy
  La  La0  1  0.499294  0.499294  0.500000  1
  Ho  Ho1  1  0.487452  0.487452  0.000000  1
  Ho  Ho2  1  0.997349  0.530211  0.244760  1
  Ho  Ho3  1  0.999972  0.472864  0.752553  1
  Ho  Ho4  1  0.530211  0.997349  0.755240  1
  Ho  Ho5  1  0.472864  0.999972  0.247447  1
  Au  Au6  1  0.000563  0.000563  0.500000  1
  Au  Au7  1  0.001475  0.001475  0.000000  1
  O  O8  1  0.922440  0.080442  0.750221  1
  O  O9  1  0.080442  0.922440  0.249779  1
  O  O10  1  0.357273  0.641042  0.238236  1
  O  O11  1  0.641042  0.357273  0.761764  1
  O  O12  1  0.362926  0.635364  0.761840  1
  O  O13  1  0.635364  0.362926  0.238160  1
  O  O14  1  0.330939  0.083977  0.976103  1
  O  O15  1  0.671506  0.929063  0.477122  1
  O  O16  1  0.328864  0.070347  0.525139  1
  O  O17  1  0.673796  0.922844  0.025689  1
  O  O18  1  0.070347  0.328864  0.474861  1
  O  O19  1  0.922844  0.673796  0.974311  1
  O  O20  1  0.929063  0.671506  0.522878  1
  O  O21  1  0.083977  0.330939  0.023897  1
