# generated using pymatgen
data_PrY2(AgSn)4
_symmetry_space_group_name_H-M   'P 1'
_cell_length_a   8.84903791
_cell_length_b   8.84903695
_cell_length_c   8.84903673
_cell_angle_alpha   149.89529204
_cell_angle_beta   129.72215673
_cell_angle_gamma   59.72336501
_symmetry_Int_Tables_number   1
_chemical_formula_structural   PrY2(AgSn)4
_chemical_formula_sum   'Pr1 Y2 Ag4 Sn4'
_cell_volume   265.18940673
_cell_formula_units_Z   1
loop_
 _symmetry_equiv_pos_site_id
 _symmetry_equiv_pos_as_xyz
  1  'x, y, z'
loop_
 _atom_site_type_symbol
 _atom_site_label
 _atom_site_symmetry_multiplicity
 _atom_site_fract_x
 _atom_site_fract_y
 _atom_site_fract_z
 _atom_site_occupancy
  Pr  Pr0  1  0.500000  0.000000  0.500000  1
  Y  Y1  1  0.872458  0.872458  0.000000  1
  Y  Y2  1  0.127542  0.127542  0.000000  1
  Ag  Ag3  1  0.473532  0.670963  0.802569  1
  Ag  Ag4  1  0.868394  0.670963  0.197431  1
  Ag  Ag5  1  0.131606  0.329037  0.802569  1
  Ag  Ag6  1  0.526468  0.329037  0.197431  1
  Sn  Sn7  1  0.282878  0.782878  0.500000  1
  Sn  Sn8  1  0.717122  0.217122  0.500000  1
  Sn  Sn9  1  0.809499  0.500000  0.309499  1
  Sn  Sn10  1  0.190501  0.500000  0.690501  1
