# generated using pymatgen
data_Dy5Y3Lu2(SiB4)4
_symmetry_space_group_name_H-M   'P 1'
_cell_length_a   7.21643702
_cell_length_b   7.21643702
_cell_length_c   8.03815700
_cell_angle_alpha   90.00078899
_cell_angle_beta   90.00078899
_cell_angle_gamma   90.00746324
_symmetry_Int_Tables_number   1
_chemical_formula_structural   Dy5Y3Lu2(SiB4)4
_chemical_formula_sum   'Dy5 Y3 Lu2 Si4 B16'
_cell_volume   418.60280266
_cell_formula_units_Z   1
loop_
 _symmetry_equiv_pos_site_id
 _symmetry_equiv_pos_as_xyz
  1  'x, y, z'
loop_
 _atom_site_type_symbol
 _atom_site_label
 _atom_site_symmetry_multiplicity
 _atom_site_fract_x
 _atom_site_fract_y
 _atom_site_fract_z
 _atom_site_occupancy
  Dy  Dy0  1  0.819747  0.680272  0.225508  1
  Dy  Dy1  1  0.819730  0.680238  0.774499  1
  Dy  Dy2  1  0.680370  0.180370  0.774554  1
  Dy  Dy3  1  0.180238  0.319730  0.774499  1
  Dy  Dy4  1  0.180272  0.319747  0.225508  1
  Y  Y5  1  0.680356  0.180356  0.225538  1
  Y  Y6  1  0.319667  0.819667  0.774487  1
  Y  Y7  1  0.319647  0.819647  0.225524  1
  Lu  Lu8  1  0.999993  0.000012  0.500014  1
  Lu  Lu9  1  0.500012  0.499993  0.500014  1
  Si  Si10  1  0.115865  0.615865  0.499994  1
  Si  Si11  1  0.884119  0.384119  0.500034  1
  Si  Si12  1  0.384078  0.115946  0.500030  1
  Si  Si13  1  0.615946  0.884078  0.500030  1
  B  B14  1  0.172530  0.039304  0.000007  1
  B  B15  1  0.827434  0.960767  0.999956  1
  B  B16  1  0.960881  0.172599  0.999967  1
  B  B17  1  0.327396  0.539065  0.000011  1
  B  B18  1  0.039065  0.827396  0.000011  1
  B  B19  1  0.672599  0.460881  0.999967  1
  B  B20  1  0.539304  0.672530  0.000007  1
  B  B21  1  0.460767  0.327434  0.999956  1
  B  B22  1  0.089551  0.589551  0.000001  1
  B  B23  1  0.910411  0.410411  0.999960  1
  B  B24  1  0.410404  0.089656  0.999957  1
  B  B25  1  0.589656  0.910404  0.999957  1
  B  B26  1  0.000008  0.999977  0.163853  1
  B  B27  1  0.999926  0.000051  0.836154  1
  B  B28  1  0.500051  0.499926  0.836154  1
  B  B29  1  0.499977  0.500008  0.163853  1
