# generated using pymatgen
data_Sm3GdSc4(ReB6)4
_symmetry_space_group_name_H-M   'P 1'
_cell_length_a   3.61391300
_cell_length_b   9.06137897
_cell_length_c   11.47449800
_cell_angle_alpha   89.97346838
_cell_angle_beta   90.00000000
_cell_angle_gamma   90.00000000
_symmetry_Int_Tables_number   1
_chemical_formula_structural   Sm3GdSc4(ReB6)4
_chemical_formula_sum   'Sm3 Gd1 Sc4 Re4 B24'
_cell_volume   375.75575035
_cell_formula_units_Z   1
loop_
 _symmetry_equiv_pos_site_id
 _symmetry_equiv_pos_as_xyz
  1  'x, y, z'
loop_
 _atom_site_type_symbol
 _atom_site_label
 _atom_site_symmetry_multiplicity
 _atom_site_fract_x
 _atom_site_fract_y
 _atom_site_fract_z
 _atom_site_occupancy
  Sm  Sm0  1  0.000000  0.321927  0.414891  1
  Sm  Sm1  1  0.000000  0.678079  0.585311  1
  Sm  Sm2  1  0.000000  0.822232  0.085091  1
  Gd  Gd3  1  0.000000  0.177723  0.914599  1
  Sc  Sc4  1  0.000000  0.944374  0.369852  1
  Sc  Sc5  1  0.000000  0.055936  0.630642  1
  Sc  Sc6  1  0.000000  0.443909  0.129866  1
  Sc  Sc7  1  0.000000  0.555671  0.869866  1
  Re  Re8  1  0.000000  0.641690  0.317238  1
  Re  Re9  1  0.000000  0.358054  0.683260  1
  Re  Re10  1  0.000000  0.141669  0.181977  1
  Re  Re11  1  0.000000  0.858677  0.817590  1
  B  B12  1  0.500000  0.555340  0.430721  1
  B  B13  1  0.500000  0.444273  0.569445  1
  B  B14  1  0.500000  0.056041  0.068009  1
  B  B15  1  0.500000  0.945407  0.931008  1
  B  B16  1  0.500000  0.755033  0.416264  1
  B  B17  1  0.500000  0.245078  0.584279  1
  B  B18  1  0.500000  0.254670  0.082243  1
  B  B19  1  0.500000  0.745207  0.916447  1
  B  B20  1  0.500000  0.795282  0.264680  1
  B  B21  1  0.500000  0.204619  0.736142  1
  B  B22  1  0.500000  0.295056  0.234238  1
  B  B23  1  0.500000  0.704837  0.765239  1
  B  B24  1  0.500000  0.628628  0.182733  1
  B  B25  1  0.500000  0.370524  0.817845  1
  B  B26  1  0.500000  0.128778  0.316702  1
  B  B27  1  0.500000  0.871588  0.683462  1
  B  B28  1  0.500000  0.982725  0.214129  1
  B  B29  1  0.500000  0.018213  0.786206  1
  B  B30  1  0.500000  0.482304  0.285043  1
  B  B31  1  0.500000  0.517243  0.715014  1
  B  B32  1  0.500000  0.594046  0.025212  1
  B  B33  1  0.500000  0.404864  0.974296  1
  B  B34  1  0.500000  0.094424  0.474840  1
  B  B35  1  0.500000  0.905876  0.525617  1
