# generated using pymatgen
data_Tb2Y3(ZnB4)2
_symmetry_space_group_name_H-M   'P 1'
_cell_length_a   7.21525232
_cell_length_b   7.21523033
_cell_length_c   8.42876002
_cell_angle_alpha   89.99262991
_cell_angle_beta   90.00012579
_cell_angle_gamma   90.03390781
_symmetry_Int_Tables_number   1
_chemical_formula_structural   Tb2Y3(ZnB4)2
_chemical_formula_sum   'Tb4 Y6 Zn4 B16'
_cell_volume   438.79869939
_cell_formula_units_Z   2
loop_
 _symmetry_equiv_pos_site_id
 _symmetry_equiv_pos_as_xyz
  1  'x, y, z'
loop_
 _atom_site_type_symbol
 _atom_site_label
 _atom_site_symmetry_multiplicity
 _atom_site_fract_x
 _atom_site_fract_y
 _atom_site_fract_z
 _atom_site_occupancy
  Tb  Tb0  1  0.682011  0.182007  0.212892  1
  Tb  Tb1  1  0.318005  0.818039  0.786878  1
  Tb  Tb2  1  0.318062  0.818062  0.212996  1
  Tb  Tb3  1  0.818102  0.681869  0.212893  1
  Y  Y4  1  0.818080  0.681912  0.787662  1
  Y  Y5  1  0.682043  0.182074  0.787675  1
  Y  Y6  1  0.181990  0.318004  0.787752  1
  Y  Y7  1  0.181933  0.318039  0.212127  1
  Y  Y8  1  0.999935  0.000171  0.500097  1
  Y  Y9  1  0.499937  0.499828  0.500097  1
  Zn  Zn10  1  0.117342  0.617268  0.500071  1
  Zn  Zn11  1  0.882632  0.382556  0.500163  1
  Zn  Zn12  1  0.382506  0.117565  0.500075  1
  Zn  Zn13  1  0.617464  0.882607  0.500161  1
  B  B14  1  0.171802  0.040394  0.999848  1
  B  B15  1  0.828238  0.959692  0.999911  1
  B  B16  1  0.959590  0.171801  0.999897  1
  B  B17  1  0.328276  0.540356  0.999848  1
  B  B18  1  0.040387  0.828327  0.999860  1
  B  B19  1  0.671749  0.459559  0.999907  1
  B  B20  1  0.540333  0.671715  0.999897  1
  B  B21  1  0.459624  0.328154  0.999862  1
  B  B22  1  0.090854  0.590870  0.999966  1
  B  B23  1  0.909195  0.409212  0.000102  1
  B  B24  1  0.409296  0.090681  0.999965  1
  B  B25  1  0.590742  0.909237  0.000105  1
  B  B26  1  0.000033  0.000149  0.156672  1
  B  B27  1  0.999907  0.000108  0.842977  1
  B  B28  1  0.500029  0.499853  0.842975  1
  B  B29  1  0.499900  0.499889  0.156670  1
