# generated using pymatgen
data_TbHo7Lu2Cd2(In3Pt2)2
_symmetry_space_group_name_H-M   'P 1'
_cell_length_a   3.60154000
_cell_length_b   8.15598831
_cell_length_c   18.17137000
_cell_angle_alpha   90.06537462
_cell_angle_beta   90.00000000
_cell_angle_gamma   90.00000000
_symmetry_Int_Tables_number   1
_chemical_formula_structural   TbHo7Lu2Cd2(In3Pt2)2
_chemical_formula_sum   'Tb1 Ho7 Lu2 Cd2 In6 Pt4'
_cell_volume   533.76762160
_cell_formula_units_Z   1
loop_
 _symmetry_equiv_pos_site_id
 _symmetry_equiv_pos_as_xyz
  1  'x, y, z'
loop_
 _atom_site_type_symbol
 _atom_site_label
 _atom_site_symmetry_multiplicity
 _atom_site_fract_x
 _atom_site_fract_y
 _atom_site_fract_z
 _atom_site_occupancy
  Tb  Tb0  1  0.000000  0.500000  0.500000  1
  Ho  Ho1  1  0.000000  0.383335  0.914387  1
  Ho  Ho2  1  0.000000  0.616665  0.085613  1
  Ho  Ho3  1  0.000000  0.243680  0.221165  1
  Ho  Ho4  1  0.000000  0.756320  0.778835  1
  Ho  Ho5  1  0.000000  0.258958  0.719146  1
  Ho  Ho6  1  0.000000  0.741042  0.280854  1
  Ho  Ho7  1  0.000000  0.000000  0.000000  1
  Lu  Lu8  1  0.000000  0.117830  0.412988  1
  Lu  Lu9  1  0.000000  0.882170  0.587012  1
  Cd  Cd10  1  0.500000  0.421806  0.352433  1
  Cd  Cd11  1  0.500000  0.578194  0.647567  1
  In  In12  1  0.500000  0.075663  0.851069  1
  In  In13  1  0.500000  0.924337  0.148931  1
  In  In14  1  0.500000  0.291653  0.066625  1
  In  In15  1  0.500000  0.708347  0.933375  1
  In  In16  1  0.500000  0.204867  0.565217  1
  In  In17  1  0.500000  0.795133  0.434783  1
  Pt  Pt18  1  0.500000  0.024794  0.304514  1
  Pt  Pt19  1  0.500000  0.975206  0.695486  1
  Pt  Pt20  1  0.500000  0.475423  0.803484  1
  Pt  Pt21  1  0.500000  0.524577  0.196516  1
