# generated using pymatgen
data_Er8Si8Ni5Pt3
_symmetry_space_group_name_H-M   'P 1'
_cell_length_a   4.17837800
_cell_length_b   7.25826434
_cell_length_c   13.74282378
_cell_angle_alpha   89.86557457
_cell_angle_beta   90.00000000
_cell_angle_gamma   90.00000000
_symmetry_Int_Tables_number   1
_chemical_formula_structural   Er8Si8Ni5Pt3
_chemical_formula_sum   'Er8 Si8 Ni5 Pt3'
_cell_volume   416.78807967
_cell_formula_units_Z   1
loop_
 _symmetry_equiv_pos_site_id
 _symmetry_equiv_pos_as_xyz
  1  'x, y, z'
loop_
 _atom_site_type_symbol
 _atom_site_label
 _atom_site_symmetry_multiplicity
 _atom_site_fract_x
 _atom_site_fract_y
 _atom_site_fract_z
 _atom_site_occupancy
  Er  Er0  1  0.000000  0.299947  0.003116  1
  Er  Er1  1  0.500000  0.697771  0.499070  1
  Er  Er2  1  0.000000  0.299950  0.498926  1
  Er  Er3  1  0.500000  0.704904  0.001101  1
  Er  Er4  1  0.000000  0.211578  0.246464  1
  Er  Er5  1  0.500000  0.790509  0.249104  1
  Er  Er6  1  0.000000  0.211998  0.751584  1
  Er  Er7  1  0.500000  0.785463  0.749831  1
  Si  Si8  1  0.000000  0.897069  0.595449  1
  Si  Si9  1  0.500000  0.099750  0.906546  1
  Si  Si10  1  0.000000  0.898298  0.402830  1
  Si  Si11  1  0.500000  0.089385  0.097567  1
  Si  Si12  1  0.000000  0.592634  0.147987  1
  Si  Si13  1  0.500000  0.418054  0.348189  1
  Si  Si14  1  0.000000  0.580938  0.851077  1
  Si  Si15  1  0.500000  0.416601  0.650250  1
  Ni  Ni16  1  0.000000  0.924698  0.108156  1
  Ni  Ni17  1  0.500000  0.425344  0.158357  1
  Ni  Ni18  1  0.000000  0.579139  0.338606  1
  Ni  Ni19  1  0.500000  0.420775  0.844641  1
  Ni  Ni20  1  0.000000  0.578164  0.658458  1
  Pt  Pt21  1  0.500000  0.076863  0.608341  1
  Pt  Pt22  1  0.000000  0.920276  0.893682  1
  Pt  Pt23  1  0.500000  0.079890  0.390672  1
