# generated using pymatgen
data_Hf6Zr4ZnGaSb6
_symmetry_space_group_name_H-M   'P 1'
_cell_length_a   8.64152031
_cell_length_b   8.64539091
_cell_length_c   5.81295604
_cell_angle_alpha   89.98711096
_cell_angle_beta   90.00650958
_cell_angle_gamma   120.01498596
_symmetry_Int_Tables_number   1
_chemical_formula_structural   Hf6Zr4ZnGaSb6
_chemical_formula_sum   'Hf6 Zr4 Zn1 Ga1 Sb6'
_cell_volume   376.04242699
_cell_formula_units_Z   1
loop_
 _symmetry_equiv_pos_site_id
 _symmetry_equiv_pos_as_xyz
  1  'x, y, z'
loop_
 _atom_site_type_symbol
 _atom_site_label
 _atom_site_symmetry_multiplicity
 _atom_site_fract_x
 _atom_site_fract_y
 _atom_site_fract_z
 _atom_site_occupancy
  Hf  Hf0  1  0.269048  0.268704  0.748960  1
  Hf  Hf1  1  0.269047  0.000343  0.251040  1
  Hf  Hf2  1  0.333286  0.666643  0.499999  1
  Hf  Hf3  1  0.665873  0.332935  0.999999  1
  Hf  Hf4  1  0.665972  0.332986  0.499999  1
  Hf  Hf5  1  0.333185  0.666592  0.000001  1
  Zr  Zr6  1  0.730549  0.730622  0.250889  1
  Zr  Zr7  1  0.730548  0.999927  0.749110  1
  Zr  Zr8  1  0.000329  0.269272  0.250978  1
  Zr  Zr9  1  0.000329  0.731058  0.749023  1
  Zn  Zn10  1  0.001022  0.000511  0.500001  1
  Ga  Ga11  1  0.000953  0.000477  0.000000  1
  Sb  Sb12  1  0.388148  0.000503  0.749350  1
  Sb  Sb13  1  0.388149  0.387645  0.250652  1
  Sb  Sb14  1  0.000445  0.612467  0.250658  1
  Sb  Sb15  1  0.000445  0.387978  0.749342  1
  Sb  Sb16  1  0.611336  0.611432  0.749384  1
  Sb  Sb17  1  0.611336  0.999905  0.250616  1
