# generated using pymatgen
data_DyTmMoRuC3
_symmetry_space_group_name_H-M   'P 1'
_cell_length_a   6.01500831
_cell_length_b   6.01500776
_cell_length_c   5.67762045
_cell_angle_alpha   67.79053638
_cell_angle_beta   67.79053529
_cell_angle_gamma   32.20978928
_symmetry_Int_Tables_number   1
_chemical_formula_structural   DyTmMoRuC3
_chemical_formula_sum   'Dy1 Tm1 Mo1 Ru1 C3'
_cell_volume   100.66192629
_cell_formula_units_Z   1
loop_
 _symmetry_equiv_pos_site_id
 _symmetry_equiv_pos_as_xyz
  1  'x, y, z'
loop_
 _atom_site_type_symbol
 _atom_site_label
 _atom_site_symmetry_multiplicity
 _atom_site_fract_x
 _atom_site_fract_y
 _atom_site_fract_z
 _atom_site_occupancy
  Dy  Dy0  1  0.608607  0.608607  0.181767  1
  Tm  Tm1  1  0.390145  0.390145  0.833248  1
  Mo  Mo2  1  0.158506  0.158506  0.676069  1
  Ru  Ru3  1  0.842327  0.842327  0.318310  1
  C  C4  1  0.755854  0.755854  0.729861  1
  C  C5  1  0.246383  0.246383  0.268321  1
  C  C6  1  0.998178  0.998178  0.992423  1
