# generated using pymatgen
data_LiY3(Co4P3)2
_symmetry_space_group_name_H-M   'P 1'
_cell_length_a   3.71951600
_cell_length_b   10.58086900
_cell_length_c   12.19510800
_cell_angle_alpha   90.00000000
_cell_angle_beta   90.00000000
_cell_angle_gamma   90.00000000
_symmetry_Int_Tables_number   1
_chemical_formula_structural   LiY3(Co4P3)2
_chemical_formula_sum   'Li2 Y6 Co16 P12'
_cell_volume   479.94715264
_cell_formula_units_Z   2
loop_
 _symmetry_equiv_pos_site_id
 _symmetry_equiv_pos_as_xyz
  1  'x, y, z'
loop_
 _atom_site_type_symbol
 _atom_site_label
 _atom_site_symmetry_multiplicity
 _atom_site_fract_x
 _atom_site_fract_y
 _atom_site_fract_z
 _atom_site_occupancy
  Li  Li0  1  0.500000  0.500000  0.152451  1
  Li  Li1  1  0.000000  0.000000  0.847549  1
  Y  Y2  1  0.000000  0.500000  0.523153  1
  Y  Y3  1  0.500000  0.000000  0.476847  1
  Y  Y4  1  0.500000  0.819273  0.206078  1
  Y  Y5  1  0.500000  0.180727  0.206078  1
  Y  Y6  1  0.000000  0.680727  0.793922  1
  Y  Y7  1  0.000000  0.319273  0.793922  1
  Co  Co8  1  0.500000  0.500000  0.704010  1
  Co  Co9  1  0.000000  0.000000  0.295990  1
  Co  Co10  1  0.000000  0.500000  0.986942  1
  Co  Co11  1  0.500000  0.000000  0.013058  1
  Co  Co12  1  0.500000  0.332886  0.996897  1
  Co  Co13  1  0.500000  0.667114  0.996897  1
  Co  Co14  1  0.000000  0.167114  0.003103  1
  Co  Co15  1  0.000000  0.832886  0.003103  1
  Co  Co16  1  0.500000  0.296526  0.431234  1
  Co  Co17  1  0.500000  0.703474  0.431234  1
  Co  Co18  1  0.000000  0.203474  0.568766  1
  Co  Co19  1  0.000000  0.796526  0.568766  1
  Co  Co20  1  0.500000  0.878898  0.706461  1
  Co  Co21  1  0.500000  0.121102  0.706461  1
  Co  Co22  1  0.000000  0.621102  0.293539  1
  Co  Co23  1  0.000000  0.378898  0.293539  1
  P  P24  1  0.500000  0.500000  0.884914  1
  P  P25  1  0.000000  0.000000  0.115086  1
  P  P26  1  0.500000  0.500000  0.345343  1
  P  P27  1  0.000000  0.000000  0.654657  1
  P  P28  1  0.500000  0.309354  0.615827  1
  P  P29  1  0.500000  0.690646  0.615827  1
  P  P30  1  0.000000  0.190646  0.384173  1
  P  P31  1  0.000000  0.809354  0.384173  1
  P  P32  1  0.500000  0.843588  0.893633  1
  P  P33  1  0.500000  0.156412  0.893633  1
  P  P34  1  0.000000  0.656412  0.106367  1
  P  P35  1  0.000000  0.343588  0.106367  1
