# generated using pymatgen
data_Tm7P12Ir17
_symmetry_space_group_name_H-M   'P 1'
_cell_length_a   12.68610300
_cell_length_b   12.97143933
_cell_length_c   3.95931000
_cell_angle_alpha   90.00000000
_cell_angle_beta   90.00000000
_cell_angle_gamma   119.27496764
_symmetry_Int_Tables_number   1
_chemical_formula_structural   Tm7P12Ir17
_chemical_formula_sum   'Tm7 P12 Ir17'
_cell_volume   568.32049331
_cell_formula_units_Z   1
loop_
 _symmetry_equiv_pos_site_id
 _symmetry_equiv_pos_as_xyz
  1  'x, y, z'
loop_
 _atom_site_type_symbol
 _atom_site_label
 _atom_site_symmetry_multiplicity
 _atom_site_fract_x
 _atom_site_fract_y
 _atom_site_fract_z
 _atom_site_occupancy
  Tm  Tm0  1  0.329983  0.661739  0.500000  1
  Tm  Tm1  1  0.668244  0.338261  0.500000  1
  Tm  Tm2  1  0.002276  0.816466  0.000000  1
  Tm  Tm3  1  0.185811  0.183534  0.000000  1
  Tm  Tm4  1  0.810604  0.000000  0.000000  1
  Tm  Tm5  1  0.995931  0.443963  0.500000  1
  Tm  Tm6  1  0.551968  0.556037  0.500000  1
  P  P7  1  0.009750  0.658764  0.500000  1
  P  P8  1  0.350986  0.341236  0.500000  1
  P  P9  1  0.645025  0.000000  0.500000  1
  P  P10  1  0.515891  0.690554  0.000000  1
  P  P11  1  0.309360  0.823922  0.000000  1
  P  P12  1  0.166938  0.481344  0.000000  1
  P  P13  1  0.485437  0.176078  0.000000  1
  P  P14  1  0.685595  0.518656  0.000000  1
  P  P15  1  0.825336  0.309446  0.000000  1
  P  P16  1  0.999409  0.174026  0.500000  1
  P  P17  1  0.825384  0.825974  0.500000  1
  P  P18  1  0.181227  0.000000  0.500000  1
  Ir  Ir19  1  0.503740  0.865226  0.000000  1
  Ir  Ir20  1  0.122251  0.645203  0.000000  1
  Ir  Ir21  1  0.357576  0.502330  0.000000  1
  Ir  Ir22  1  0.477049  0.354797  0.000000  1
  Ir  Ir23  1  0.855248  0.497670  0.000000  1
  Ir  Ir24  1  0.638514  0.134774  0.000000  1
  Ir  Ir25  1  0.465310  0.000000  0.500000  1
  Ir  Ir26  1  0.996393  0.271571  0.000000  1
  Ir  Ir27  1  0.724823  0.728429  0.000000  1
  Ir  Ir28  1  0.286347  0.000000  0.000000  1
  Ir  Ir29  1  0.624556  0.811175  0.500000  1
  Ir  Ir30  1  0.208295  0.828232  0.500000  1
  Ir  Ir31  1  0.180702  0.363644  0.500000  1
  Ir  Ir32  1  0.380062  0.171768  0.500000  1
  Ir  Ir33  1  0.817058  0.636356  0.500000  1
  Ir  Ir34  1  0.813381  0.188825  0.500000  1
  Ir  Ir35  1  0.003539  0.000000  0.500000  1
