# generated using pymatgen
data_Pr2FeCo2B8Os5
_symmetry_space_group_name_H-M   'P 1'
_cell_length_a   7.38023201
_cell_length_b   7.44052630
_cell_length_c   3.95835042
_cell_angle_alpha   89.76586518
_cell_angle_beta   90.01123557
_cell_angle_gamma   89.08220695
_symmetry_Int_Tables_number   1
_chemical_formula_structural   Pr2FeCo2B8Os5
_chemical_formula_sum   'Pr2 Fe1 Co2 B8 Os5'
_cell_volume   217.33443757
_cell_formula_units_Z   1
loop_
 _symmetry_equiv_pos_site_id
 _symmetry_equiv_pos_as_xyz
  1  'x, y, z'
loop_
 _atom_site_type_symbol
 _atom_site_label
 _atom_site_symmetry_multiplicity
 _atom_site_fract_x
 _atom_site_fract_y
 _atom_site_fract_z
 _atom_site_occupancy
  Pr  Pr0  1  0.000534  0.998744  0.065596  1
  Pr  Pr1  1  0.499222  0.505963  0.589795  1
  Fe  Fe2  1  0.373800  0.881929  0.378529  1
  Co  Co3  1  0.609012  0.868401  0.878813  1
  Co  Co4  1  0.379340  0.116965  0.880893  1
  B  B5  1  0.336101  0.813444  0.880053  1
  B  B6  1  0.665584  0.199087  0.881663  1
  B  B7  1  0.313180  0.154661  0.381096  1
  B  B8  1  0.684079  0.837257  0.380461  1
  B  B9  1  0.173232  0.730054  0.596739  1
  B  B10  1  0.833894  0.276051  0.601100  1
  B  B11  1  0.227761  0.324338  0.099190  1
  B  B12  1  0.771556  0.673152  0.098575  1
  Os  Os13  1  0.848933  0.397041  0.102070  1
  Os  Os14  1  0.157262  0.606718  0.101912  1
  Os  Os15  1  0.893760  0.656611  0.601700  1
  Os  Os16  1  0.112430  0.344775  0.601672  1
  Os  Os17  1  0.620320  0.114808  0.380144  1
