# generated using pymatgen
data_DyHoLu4(Al3Ru)8
_symmetry_space_group_name_H-M   'P 1'
_cell_length_a   8.75800600
_cell_length_b   8.74812093
_cell_length_c   9.57767800
_cell_angle_alpha   90.00000000
_cell_angle_beta   90.00000000
_cell_angle_gamma   120.00389660
_symmetry_Int_Tables_number   1
_chemical_formula_structural   DyHoLu4(Al3Ru)8
_chemical_formula_sum   'Dy1 Ho1 Lu4 Al24 Ru8'
_cell_volume   635.46820553
_cell_formula_units_Z   1
loop_
 _symmetry_equiv_pos_site_id
 _symmetry_equiv_pos_as_xyz
  1  'x, y, z'
loop_
 _atom_site_type_symbol
 _atom_site_label
 _atom_site_symmetry_multiplicity
 _atom_site_fract_x
 _atom_site_fract_y
 _atom_site_fract_z
 _atom_site_occupancy
  Dy  Dy0  1  0.806358  0.613025  0.750000  1
  Ho  Ho1  1  0.806293  0.193897  0.750000  1
  Lu  Lu2  1  0.194942  0.390650  0.250000  1
  Lu  Lu3  1  0.608525  0.804117  0.250000  1
  Lu  Lu4  1  0.392456  0.196479  0.750000  1
  Lu  Lu5  1  0.194948  0.804218  0.250000  1
  Al  Al6  1  0.333093  0.666301  0.020275  1
  Al  Al7  1  0.666519  0.333078  0.982041  1
  Al  Al8  1  0.666519  0.333078  0.517959  1
  Al  Al9  1  0.333093  0.666301  0.479725  1
  Al  Al10  1  0.163396  0.325843  0.576800  1
  Al  Al11  1  0.837272  0.674550  0.421085  1
  Al  Al12  1  0.673520  0.837073  0.576740  1
  Al  Al13  1  0.837272  0.674550  0.078915  1
  Al  Al14  1  0.324902  0.162495  0.421781  1
  Al  Al15  1  0.163396  0.325843  0.923200  1
  Al  Al16  1  0.163304  0.837581  0.576746  1
  Al  Al17  1  0.324902  0.162495  0.078219  1
  Al  Al18  1  0.836972  0.162378  0.421178  1
  Al  Al19  1  0.673520  0.837073  0.923260  1
  Al  Al20  1  0.836972  0.162378  0.078822  1
  Al  Al21  1  0.163304  0.837581  0.923254  1
  Al  Al22  1  0.560626  0.122267  0.250000  1
  Al  Al23  1  0.437778  0.876664  0.750000  1
  Al  Al24  1  0.876897  0.438362  0.250000  1
  Al  Al25  1  0.124611  0.562225  0.750000  1
  Al  Al26  1  0.560693  0.438260  0.250000  1
  Al  Al27  1  0.437559  0.561396  0.750000  1
  Al  Al28  1  0.999547  0.999772  0.250000  1
  Al  Al29  1  0.003817  0.002436  0.750000  1
  Ru  Ru30  1  0.498355  0.998526  0.000951  1
  Ru  Ru31  1  0.001384  0.500185  0.001340  1
  Ru  Ru32  1  0.498355  0.998526  0.499049  1
  Ru  Ru33  1  0.499360  0.500217  0.000683  1
  Ru  Ru34  1  0.001384  0.500185  0.498660  1
  Ru  Ru35  1  0.499360  0.500217  0.499317  1
  Ru  Ru36  1  0.999401  0.999888  0.999705  1
  Ru  Ru37  1  0.999401  0.999888  0.500295  1
