# generated using pymatgen
data_Y4Sc8Tl2FeTc2
_symmetry_space_group_name_H-M   'P 1'
_cell_length_a   8.09066209
_cell_length_b   8.09063804
_cell_length_c   8.09066404
_cell_angle_alpha   108.34329624
_cell_angle_beta   108.34086715
_cell_angle_gamma   111.75403978
_symmetry_Int_Tables_number   1
_chemical_formula_structural   Y4Sc8Tl2FeTc2
_chemical_formula_sum   'Y4 Sc8 Tl2 Fe1 Tc2'
_cell_volume   407.20089688
_cell_formula_units_Z   1
loop_
 _symmetry_equiv_pos_site_id
 _symmetry_equiv_pos_as_xyz
  1  'x, y, z'
loop_
 _atom_site_type_symbol
 _atom_site_label
 _atom_site_symmetry_multiplicity
 _atom_site_fract_x
 _atom_site_fract_y
 _atom_site_fract_z
 _atom_site_occupancy
  Y  Y0  1  0.298880  0.298874  0.600435  1
  Y  Y1  1  0.698438  0.698443  0.399563  1
  Y  Y2  1  0.698439  0.298874  0.999994  1
  Y  Y3  1  0.298880  0.698443  0.000005  1
  Sc  Sc4  1  0.187755  0.424380  0.236624  1
  Sc  Sc5  1  0.809258  0.577236  0.767978  1
  Sc  Sc6  1  0.187755  0.951130  0.763376  1
  Sc  Sc7  1  0.951126  0.187755  0.763372  1
  Sc  Sc8  1  0.809257  0.041281  0.232023  1
  Sc  Sc9  1  0.041292  0.809261  0.232032  1
  Sc  Sc10  1  0.424384  0.187755  0.236627  1
  Sc  Sc11  1  0.577229  0.809261  0.767968  1
  Tl  Tl12  1  0.997161  0.497162  0.500000  1
  Tl  Tl13  1  0.497160  0.997160  0.500000  1
  Fe  Fe14  1  0.639546  0.639542  0.999996  1
  Tc  Tc15  1  0.381569  0.381570  0.000001  1
  Tc  Tc16  1  0.001872  0.001875  0.000003  1
