# generated using pymatgen
data_Tb3Y(B10Ir)2
_symmetry_space_group_name_H-M   'P 1'
_cell_length_a   4.17878800
_cell_length_b   5.68900602
_cell_length_c   11.35581703
_cell_angle_alpha   89.99972666
_cell_angle_beta   90.00000000
_cell_angle_gamma   90.00000000
_symmetry_Int_Tables_number   1
_chemical_formula_structural   Tb3Y(B10Ir)2
_chemical_formula_sum   'Tb3 Y1 B20 Ir2'
_cell_volume   269.96354269
_cell_formula_units_Z   1
loop_
 _symmetry_equiv_pos_site_id
 _symmetry_equiv_pos_as_xyz
  1  'x, y, z'
loop_
 _atom_site_type_symbol
 _atom_site_label
 _atom_site_symmetry_multiplicity
 _atom_site_fract_x
 _atom_site_fract_y
 _atom_site_fract_z
 _atom_site_occupancy
  Tb  Tb0  1  0.500000  0.794518  0.634526  1
  Tb  Tb1  1  0.500000  0.294549  0.865330  1
  Tb  Tb2  1  0.500000  0.705447  0.134619  1
  Y  Y3  1  0.500000  0.204817  0.365569  1
  B  B4  1  0.000000  0.381200  0.042596  1
  B  B5  1  0.000000  0.618767  0.957330  1
  B  B6  1  0.000000  0.118611  0.542714  1
  B  B7  1  0.000000  0.881083  0.457458  1
  B  B8  1  0.000000  0.364136  0.197039  1
  B  B9  1  0.000000  0.636148  0.802839  1
  B  B10  1  0.000000  0.136109  0.697141  1
  B  B11  1  0.000000  0.863903  0.302843  1
  B  B12  1  0.000000  0.056075  0.193266  1
  B  B13  1  0.000000  0.944031  0.806750  1
  B  B14  1  0.000000  0.444062  0.693228  1
  B  B15  1  0.000000  0.556189  0.306628  1
  B  B16  1  0.301436  0.219914  0.119186  1
  B  B17  1  0.698548  0.780174  0.880811  1
  B  B18  1  0.301452  0.780174  0.880811  1
  B  B19  1  0.698526  0.280223  0.619266  1
  B  B20  1  0.698564  0.219914  0.119186  1
  B  B21  1  0.301461  0.720061  0.380867  1
  B  B22  1  0.698539  0.720061  0.380867  1
  B  B23  1  0.301474  0.280223  0.619266  1
  Ir  Ir24  1  0.000000  0.999951  0.000054  1
  Ir  Ir25  1  0.000000  0.499657  0.499812  1
