# generated using pymatgen
data_Dy3Er3Al24Os7Pt
_symmetry_space_group_name_H-M   'P 1'
_cell_length_a   8.82089769
_cell_length_b   8.81711527
_cell_length_c   9.53460000
_cell_angle_alpha   89.63347904
_cell_angle_beta   90.35775347
_cell_angle_gamma   119.90248909
_symmetry_Int_Tables_number   1
_chemical_formula_structural   Dy3Er3Al24Os7Pt
_chemical_formula_sum   'Dy3 Er3 Al24 Os7 Pt1'
_cell_volume   642.81606701
_cell_formula_units_Z   1
loop_
 _symmetry_equiv_pos_site_id
 _symmetry_equiv_pos_as_xyz
  1  'x, y, z'
loop_
 _atom_site_type_symbol
 _atom_site_label
 _atom_site_symmetry_multiplicity
 _atom_site_fract_x
 _atom_site_fract_y
 _atom_site_fract_z
 _atom_site_occupancy
  Dy  Dy0  1  0.190723  0.387176  0.251257  1
  Dy  Dy1  1  0.809189  0.612843  0.748727  1
  Dy  Dy2  1  0.612812  0.809270  0.251263  1
  Er  Er3  1  0.387780  0.190876  0.748515  1
  Er  Er4  1  0.195381  0.804571  0.251413  1
  Er  Er5  1  0.804629  0.195306  0.748656  1
  Al  Al6  1  0.331448  0.668476  0.020202  1
  Al  Al7  1  0.668279  0.331464  0.979638  1
  Al  Al8  1  0.666439  0.333256  0.517513  1
  Al  Al9  1  0.333294  0.666563  0.482642  1
  Al  Al10  1  0.163744  0.325527  0.577552  1
  Al  Al11  1  0.836414  0.674376  0.422567  1
  Al  Al12  1  0.674473  0.836473  0.577542  1
  Al  Al13  1  0.842134  0.675438  0.077687  1
  Al  Al14  1  0.325547  0.163530  0.422736  1
  Al  Al15  1  0.157977  0.324500  0.922217  1
  Al  Al16  1  0.163590  0.836741  0.575501  1
  Al  Al17  1  0.324510  0.157853  0.077515  1
  Al  Al18  1  0.836498  0.163466  0.424625  1
  Al  Al19  1  0.675494  0.842131  0.922225  1
  Al  Al20  1  0.836860  0.163131  0.075500  1
  Al  Al21  1  0.163240  0.837100  0.924376  1
  Al  Al22  1  0.559994  0.121806  0.249016  1
  Al  Al23  1  0.439918  0.878549  0.750944  1
  Al  Al24  1  0.878229  0.440009  0.249041  1
  Al  Al25  1  0.121798  0.560031  0.750961  1
  Al  Al26  1  0.561804  0.438156  0.251929  1
  Al  Al27  1  0.438145  0.561454  0.748134  1
  Al  Al28  1  0.999838  0.000146  0.250123  1
  Al  Al29  1  0.000577  0.000053  0.749898  1
  Os  Os30  1  0.499859  0.000206  0.999748  1
  Os  Os31  1  0.999862  0.499912  0.999937  1
  Os  Os32  1  0.499877  0.000129  0.500197  1
  Os  Os33  1  0.999848  0.499914  0.500061  1
  Os  Os34  1  0.499896  0.499704  0.500222  1
  Os  Os35  1  0.999987  0.999999  0.999967  1
  Os  Os36  1  0.999999  0.000001  0.500046  1
  Pt  Pt37  1  0.499915  0.499865  0.999909  1
