# generated using pymatgen
data_HfScCrRe3
_symmetry_space_group_name_H-M   'P 1'
_cell_length_a   5.18116657
_cell_length_b   5.27185359
_cell_length_c   8.56262600
_cell_angle_alpha   90.00000000
_cell_angle_beta   90.00000000
_cell_angle_gamma   120.58072050
_symmetry_Int_Tables_number   1
_chemical_formula_structural   HfScCrRe3
_chemical_formula_sum   'Hf2 Sc2 Cr2 Re6'
_cell_volume   201.35261318
_cell_formula_units_Z   2
loop_
 _symmetry_equiv_pos_site_id
 _symmetry_equiv_pos_as_xyz
  1  'x, y, z'
loop_
 _atom_site_type_symbol
 _atom_site_label
 _atom_site_symmetry_multiplicity
 _atom_site_fract_x
 _atom_site_fract_y
 _atom_site_fract_z
 _atom_site_occupancy
  Hf  Hf0  1  0.334288  0.667145  0.438914  1
  Hf  Hf1  1  0.665712  0.332855  0.938914  1
  Sc  Sc2  1  0.665572  0.332786  0.561511  1
  Sc  Sc3  1  0.334428  0.667214  0.061511  1
  Cr  Cr4  1  0.660606  0.830303  0.749712  1
  Cr  Cr5  1  0.339394  0.169697  0.249712  1
  Re  Re6  1  0.825169  0.171425  0.249931  1
  Re  Re7  1  0.174831  0.346256  0.749931  1
  Re  Re8  1  0.174831  0.828575  0.749931  1
  Re  Re9  1  0.825169  0.653744  0.249931  1
  Re  Re10  1  0.000344  0.000172  0.500001  1
  Re  Re11  1  0.999656  0.999828  0.000001  1
