# generated using pymatgen
data_Ta7TiTc8
_symmetry_space_group_name_H-M   'P 1'
_cell_length_a   6.36086800
_cell_length_b   6.36086800
_cell_length_c   6.36086800
_cell_angle_alpha   90.00000000
_cell_angle_beta   90.00000000
_cell_angle_gamma   90.00000000
_symmetry_Int_Tables_number   1
_chemical_formula_structural   Ta7TiTc8
_chemical_formula_sum   'Ta7 Ti1 Tc8'
_cell_volume   257.36480113
_cell_formula_units_Z   1
loop_
 _symmetry_equiv_pos_site_id
 _symmetry_equiv_pos_as_xyz
  1  'x, y, z'
loop_
 _atom_site_type_symbol
 _atom_site_label
 _atom_site_symmetry_multiplicity
 _atom_site_fract_x
 _atom_site_fract_y
 _atom_site_fract_z
 _atom_site_occupancy
  Ta  Ta0  1  0.500001  0.000000  0.000000  1
  Ta  Ta1  1  0.000000  0.500001  0.000000  1
  Ta  Ta2  1  0.500001  0.500001  0.000000  1
  Ta  Ta3  1  0.000000  0.000000  0.500001  1
  Ta  Ta4  1  0.500001  0.000000  0.500001  1
  Ta  Ta5  1  0.000000  0.500001  0.500001  1
  Ta  Ta6  1  0.500001  0.500001  0.500001  1
  Ti  Ti7  1  0.000000  0.000000  0.000000  1
  Tc  Tc8  1  0.249390  0.249390  0.249390  1
  Tc  Tc9  1  0.750610  0.249390  0.249390  1
  Tc  Tc10  1  0.249390  0.750610  0.249390  1
  Tc  Tc11  1  0.750610  0.750610  0.249390  1
  Tc  Tc12  1  0.249390  0.249390  0.750610  1
  Tc  Tc13  1  0.750610  0.249390  0.750610  1
  Tc  Tc14  1  0.249390  0.750610  0.750610  1
  Tc  Tc15  1  0.750610  0.750610  0.750610  1
