# generated using pymatgen
data_Er3Nb3(B2Ru5)2
_symmetry_space_group_name_H-M   'P 1'
_cell_length_a   9.58126678
_cell_length_b   9.58126674
_cell_length_c   3.11960700
_cell_angle_alpha   90.00000000
_cell_angle_beta   90.00000000
_cell_angle_gamma   89.73038041
_symmetry_Int_Tables_number   1
_chemical_formula_structural   Er3Nb3(B2Ru5)2
_chemical_formula_sum   'Er3 Nb3 B4 Ru10'
_cell_volume   286.37885032
_cell_formula_units_Z   1
loop_
 _symmetry_equiv_pos_site_id
 _symmetry_equiv_pos_as_xyz
  1  'x, y, z'
loop_
 _atom_site_type_symbol
 _atom_site_label
 _atom_site_symmetry_multiplicity
 _atom_site_fract_x
 _atom_site_fract_y
 _atom_site_fract_z
 _atom_site_occupancy
  Er  Er0  1  0.174224  0.825776  0.000000  1
  Er  Er1  1  0.325325  0.324116  0.000000  1
  Er  Er2  1  0.675884  0.674675  0.000000  1
  Nb  Nb3  1  0.496453  0.997713  0.000000  1
  Nb  Nb4  1  0.002287  0.503547  0.000000  1
  Nb  Nb5  1  0.824335  0.175665  0.000000  1
  B  B6  1  0.624069  0.375931  0.000000  1
  B  B7  1  0.381090  0.618910  0.000000  1
  B  B8  1  0.118971  0.123824  0.000000  1
  B  B9  1  0.876176  0.881029  0.000000  1
  Ru  Ru10  1  0.504112  0.495888  0.500000  1
  Ru  Ru11  1  0.990823  0.009177  0.500000  1
  Ru  Ru12  1  0.583757  0.213322  0.500000  1
  Ru  Ru13  1  0.430374  0.780094  0.500000  1
  Ru  Ru14  1  0.059879  0.280787  0.500000  1
  Ru  Ru15  1  0.928621  0.722178  0.500000  1
  Ru  Ru16  1  0.277822  0.071379  0.500000  1
  Ru  Ru17  1  0.719213  0.940121  0.500000  1
  Ru  Ru18  1  0.219906  0.569626  0.500000  1
  Ru  Ru19  1  0.786678  0.416243  0.500000  1
