# generated using pymatgen
data_TaAgF7
_symmetry_space_group_name_H-M   'P 1'
_cell_length_a   5.70500700
_cell_length_b   8.68496869
_cell_length_c   12.94780895
_cell_angle_alpha   68.49120121
_cell_angle_beta   90.00000000
_cell_angle_gamma   90.00000000
_symmetry_Int_Tables_number   1
_chemical_formula_structural   TaAgF7
_chemical_formula_sum   'Ta4 Ag4 F28'
_cell_volume   596.85982393
_cell_formula_units_Z   4
loop_
 _symmetry_equiv_pos_site_id
 _symmetry_equiv_pos_as_xyz
  1  'x, y, z'
loop_
 _atom_site_type_symbol
 _atom_site_label
 _atom_site_symmetry_multiplicity
 _atom_site_fract_x
 _atom_site_fract_y
 _atom_site_fract_z
 _atom_site_occupancy
  Ta  Ta0  1  0.209369  0.290756  0.439321  1
  Ta  Ta1  1  0.709369  0.709244  0.060679  1
  Ta  Ta2  1  0.790631  0.709244  0.560679  1
  Ta  Ta3  1  0.290631  0.290756  0.939321  1
  Ag  Ag4  1  0.286792  0.858198  0.715232  1
  Ag  Ag5  1  0.786792  0.141802  0.784768  1
  Ag  Ag6  1  0.713208  0.141802  0.284768  1
  Ag  Ag7  1  0.213208  0.858198  0.215232  1
  F  F8  1  0.578036  0.980133  0.740515  1
  F  F9  1  0.078036  0.019867  0.759485  1
  F  F10  1  0.421964  0.019867  0.259485  1
  F  F11  1  0.921964  0.980133  0.240515  1
  F  F12  1  0.384784  0.317350  0.554435  1
  F  F13  1  0.884784  0.682650  0.945565  1
  F  F14  1  0.615216  0.682650  0.445565  1
  F  F15  1  0.115216  0.317350  0.054435  1
  F  F16  1  0.468510  0.258573  0.815154  1
  F  F17  1  0.968510  0.741427  0.684846  1
  F  F18  1  0.531490  0.741427  0.184846  1
  F  F19  1  0.031490  0.258573  0.315154  1
  F  F20  1  0.005568  0.294649  0.849422  1
  F  F21  1  0.505568  0.705351  0.650578  1
  F  F22  1  0.994432  0.705351  0.150578  1
  F  F23  1  0.494432  0.294649  0.349422  1
  F  F24  1  0.247149  0.054302  0.002415  1
  F  F25  1  0.747149  0.945698  0.497585  1
  F  F26  1  0.752851  0.945698  0.997585  1
  F  F27  1  0.252851  0.054302  0.502415  1
  F  F28  1  0.319062  0.523260  0.861324  1
  F  F29  1  0.819062  0.476740  0.638676  1
  F  F30  1  0.680938  0.476740  0.138676  1
  F  F31  1  0.180938  0.523260  0.361324  1
  F  F32  1  0.578560  0.271483  0.014199  1
  F  F33  1  0.078560  0.728517  0.485801  1
  F  F34  1  0.421440  0.728517  0.985801  1
  F  F35  1  0.921440  0.271483  0.514199  1
