# generated using pymatgen
data_HoEr4InPd3Pt
_symmetry_space_group_name_H-M   'P 1'
_cell_length_a   7.79544772
_cell_length_b   7.80373074
_cell_length_c   3.71506700
_cell_angle_alpha   90.00000000
_cell_angle_beta   90.00000000
_cell_angle_gamma   90.07628079
_symmetry_Int_Tables_number   1
_chemical_formula_structural   HoEr4InPd3Pt
_chemical_formula_sum   'Ho1 Er4 In1 Pd3 Pt1'
_cell_volume   226.00060659
_cell_formula_units_Z   1
loop_
 _symmetry_equiv_pos_site_id
 _symmetry_equiv_pos_as_xyz
  1  'x, y, z'
loop_
 _atom_site_type_symbol
 _atom_site_label
 _atom_site_symmetry_multiplicity
 _atom_site_fract_x
 _atom_site_fract_y
 _atom_site_fract_z
 _atom_site_occupancy
  Ho  Ho0  1  0.001510  0.001294  0.000000  1
  Er  Er1  1  0.354564  0.821614  0.500000  1
  Er  Er2  1  0.819891  0.642810  0.500000  1
  Er  Er3  1  0.184995  0.352218  0.500000  1
  Er  Er4  1  0.639982  0.182667  0.500000  1
  In  In5  1  0.500018  0.503721  0.000000  1
  Pd  Pd6  1  0.875500  0.358993  0.000000  1
  Pd  Pd7  1  0.123965  0.640272  0.000000  1
  Pd  Pd8  1  0.643228  0.875882  0.000000  1
  Pt  Pt9  1  0.356347  0.120529  0.000000  1
