# generated using pymatgen
data_Gd6YEr13Pt16
_symmetry_space_group_name_H-M   'P 1'
_cell_length_a   7.53821300
_cell_length_b   7.61848614
_cell_length_c   14.75893000
_cell_angle_alpha   90.01084474
_cell_angle_beta   90.00112491
_cell_angle_gamma   89.91692693
_symmetry_Int_Tables_number   1
_chemical_formula_structural   Gd6YEr13Pt16
_chemical_formula_sum   'Gd6 Y1 Er13 Pt16'
_cell_volume   847.60106833
_cell_formula_units_Z   1
loop_
 _symmetry_equiv_pos_site_id
 _symmetry_equiv_pos_as_xyz
  1  'x, y, z'
loop_
 _atom_site_type_symbol
 _atom_site_label
 _atom_site_symmetry_multiplicity
 _atom_site_fract_x
 _atom_site_fract_y
 _atom_site_fract_z
 _atom_site_occupancy
  Gd  Gd0  1  0.497934  0.679575  0.094548  1
  Gd  Gd1  1  0.501874  0.321085  0.594775  1
  Gd  Gd2  1  0.001427  0.177596  0.906696  1
  Gd  Gd3  1  0.001249  0.176786  0.593026  1
  Gd  Gd4  1  0.502016  0.321300  0.905665  1
  Gd  Gd5  1  0.498280  0.679925  0.405533  1
  Y  Y6  1  0.998237  0.820693  0.094197  1
  Er  Er7  1  0.681514  0.990302  0.249855  1
  Er  Er8  1  0.180904  0.510651  0.249994  1
  Er  Er9  1  0.819002  0.488954  0.750004  1
  Er  Er10  1  0.318406  0.010290  0.750267  1
  Er  Er11  1  0.656293  0.833192  0.622453  1
  Er  Er12  1  0.155537  0.667667  0.877850  1
  Er  Er13  1  0.844396  0.332024  0.377256  1
  Er  Er14  1  0.342547  0.166725  0.122490  1
  Er  Er15  1  0.342560  0.166763  0.377820  1
  Er  Er16  1  0.844165  0.332266  0.122598  1
  Er  Er17  1  0.155134  0.668334  0.621902  1
  Er  Er18  1  0.656388  0.832742  0.877871  1
  Er  Er19  1  0.997205  0.819871  0.405325  1
  Pt  Pt20  1  0.819021  0.642005  0.250967  1
  Pt  Pt21  1  0.312651  0.861116  0.249836  1
  Pt  Pt22  1  0.685121  0.139163  0.749701  1
  Pt  Pt23  1  0.184153  0.360611  0.749789  1
  Pt  Pt24  1  0.548211  0.380225  0.249862  1
  Pt  Pt25  1  0.045767  0.117187  0.250519  1
  Pt  Pt26  1  0.953425  0.879858  0.750050  1
  Pt  Pt27  1  0.453047  0.620521  0.749823  1
  Pt  Pt28  1  0.820815  0.536757  0.542159  1
  Pt  Pt29  1  0.318727  0.963844  0.958143  1
  Pt  Pt30  1  0.686241  0.032459  0.456709  1
  Pt  Pt31  1  0.178624  0.467275  0.043899  1
  Pt  Pt32  1  0.176791  0.468486  0.455687  1
  Pt  Pt33  1  0.683169  0.033359  0.043237  1
  Pt  Pt34  1  0.318534  0.964517  0.541834  1
  Pt  Pt35  1  0.820636  0.535875  0.957658  1
