# generated using pymatgen
data_Li3Sc8TcPt4
_symmetry_space_group_name_H-M   'P 1'
_cell_length_a   6.57589600
_cell_length_b   4.67250100
_cell_length_c   9.31519800
_cell_angle_alpha   90.00000000
_cell_angle_beta   90.00188566
_cell_angle_gamma   90.00000000
_symmetry_Int_Tables_number   1
_chemical_formula_structural   Li3Sc8TcPt4
_chemical_formula_sum   'Li3 Sc8 Tc1 Pt4'
_cell_volume   286.21766177
_cell_formula_units_Z   1
loop_
 _symmetry_equiv_pos_site_id
 _symmetry_equiv_pos_as_xyz
  1  'x, y, z'
loop_
 _atom_site_type_symbol
 _atom_site_label
 _atom_site_symmetry_multiplicity
 _atom_site_fract_x
 _atom_site_fract_y
 _atom_site_fract_z
 _atom_site_occupancy
  Li  Li0  1  0.749968  0.250001  0.125573  1
  Li  Li1  1  0.249978  0.750000  0.374996  1
  Li  Li2  1  0.750031  0.250001  0.624465  1
  Sc  Sc3  1  0.495677  0.750000  0.119155  1
  Sc  Sc4  1  0.004243  0.750000  0.119176  1
  Sc  Sc5  1  0.501667  0.250001  0.375002  1
  Sc  Sc6  1  0.998211  0.250001  0.375014  1
  Sc  Sc7  1  0.004345  0.750000  0.630810  1
  Sc  Sc8  1  0.495788  0.750000  0.630814  1
  Sc  Sc9  1  0.009282  0.250001  0.875005  1
  Sc  Sc10  1  0.490776  0.250001  0.875019  1
  Tc  Tc11  1  0.250042  0.750000  0.874993  1
  Pt  Pt12  1  0.249947  0.250001  0.130210  1
  Pt  Pt13  1  0.749951  0.750000  0.374987  1
  Pt  Pt14  1  0.250042  0.250001  0.619786  1
  Pt  Pt15  1  0.750050  0.750000  0.874993  1
