# generated using pymatgen
data_Y12Ga5Si3Rh8
_symmetry_space_group_name_H-M   'P 1'
_cell_length_a   5.54830296
_cell_length_b   7.94375506
_cell_length_c   13.32198900
_cell_angle_alpha   90.00000000
_cell_angle_beta   90.00000000
_cell_angle_gamma   89.77454478
_symmetry_Int_Tables_number   1
_chemical_formula_structural   Y12Ga5Si3Rh8
_chemical_formula_sum   'Y12 Ga5 Si3 Rh8'
_cell_volume   587.15358967
_cell_formula_units_Z   1
loop_
 _symmetry_equiv_pos_site_id
 _symmetry_equiv_pos_as_xyz
  1  'x, y, z'
loop_
 _atom_site_type_symbol
 _atom_site_label
 _atom_site_symmetry_multiplicity
 _atom_site_fract_x
 _atom_site_fract_y
 _atom_site_fract_z
 _atom_site_occupancy
  Y  Y0  1  0.636045  0.260978  0.250000  1
  Y  Y1  1  0.363825  0.740507  0.750000  1
  Y  Y2  1  0.363670  0.759758  0.250000  1
  Y  Y3  1  0.633817  0.237412  0.750000  1
  Y  Y4  1  0.149265  0.400048  0.102714  1
  Y  Y5  1  0.848209  0.602635  0.900415  1
  Y  Y6  1  0.848209  0.602635  0.599585  1
  Y  Y7  1  0.850188  0.900439  0.396378  1
  Y  Y8  1  0.149265  0.400048  0.397286  1
  Y  Y9  1  0.150548  0.099177  0.599943  1
  Y  Y10  1  0.150548  0.099177  0.900057  1
  Y  Y11  1  0.850188  0.900439  0.103622  1
  Ga  Ga12  1  0.129746  0.387879  0.750000  1
  Ga  Ga13  1  0.643066  0.248183  0.001393  1
  Ga  Ga14  1  0.357272  0.750371  0.001144  1
  Ga  Ga15  1  0.357272  0.750371  0.498856  1
  Ga  Ga16  1  0.643066  0.248183  0.498607  1
  Si  Si17  1  0.139125  0.113915  0.250000  1
  Si  Si18  1  0.863783  0.888627  0.750000  1
  Si  Si19  1  0.861894  0.614160  0.250000  1
  Rh  Rh20  1  0.357181  0.032869  0.096170  1
  Rh  Rh21  1  0.642114  0.964644  0.904894  1
  Rh  Rh22  1  0.642114  0.964644  0.595106  1
  Rh  Rh23  1  0.646088  0.533756  0.403761  1
  Rh  Rh24  1  0.357181  0.032869  0.403830  1
  Rh  Rh25  1  0.360116  0.466260  0.590764  1
  Rh  Rh26  1  0.360116  0.466260  0.909236  1
  Rh  Rh27  1  0.646088  0.533756  0.096239  1
