# generated using pymatgen
data_NaPr4Nd2RuBr12
_symmetry_space_group_name_H-M   'P 1'
_cell_length_a   9.61325457
_cell_length_b   9.60796784
_cell_length_c   9.61779234
_cell_angle_alpha   107.18397839
_cell_angle_beta   107.21042689
_cell_angle_gamma   107.13815457
_symmetry_Int_Tables_number   1
_chemical_formula_structural   NaPr4Nd2RuBr12
_chemical_formula_sum   'Na1 Pr4 Nd2 Ru1 Br12'
_cell_volume   736.20272557
_cell_formula_units_Z   1
loop_
 _symmetry_equiv_pos_site_id
 _symmetry_equiv_pos_as_xyz
  1  'x, y, z'
loop_
 _atom_site_type_symbol
 _atom_site_label
 _atom_site_symmetry_multiplicity
 _atom_site_fract_x
 _atom_site_fract_y
 _atom_site_fract_z
 _atom_site_occupancy
  Na  Na0  1  0.499967  0.499953  0.499849  1
  Pr  Pr1  1  0.030916  0.113176  0.319433  1
  Pr  Pr2  1  0.969663  0.887488  0.680852  1
  Pr  Pr3  1  0.680566  0.969553  0.886770  1
  Pr  Pr4  1  0.887206  0.680507  0.969153  1
  Nd  Nd5  1  0.113181  0.318390  0.031413  1
  Nd  Nd6  1  0.318253  0.031106  0.112863  1
  Ru  Ru7  1  0.000799  0.000738  0.000411  1
  Br  Br8  1  0.217554  0.684747  0.072637  1
  Br  Br9  1  0.453437  0.370779  0.155840  1
  Br  Br10  1  0.683574  0.073304  0.216651  1
  Br  Br11  1  0.926971  0.782606  0.315378  1
  Br  Br12  1  0.156415  0.455342  0.370882  1
  Br  Br13  1  0.372678  0.155819  0.453819  1
  Br  Br14  1  0.627347  0.843371  0.544219  1
  Br  Br15  1  0.843410  0.544324  0.627285  1
  Br  Br16  1  0.073377  0.218235  0.686323  1
  Br  Br17  1  0.315634  0.927144  0.785009  1
  Br  Br18  1  0.544154  0.627305  0.843082  1
  Br  Br19  1  0.784902  0.316116  0.928134  1
