# generated using pymatgen
data_KBaMoAs4Rh3
_symmetry_space_group_name_H-M   'P 1'
_cell_length_a   7.09775747
_cell_length_b   7.16832053
_cell_length_c   5.87317300
_cell_angle_alpha   90.00000000
_cell_angle_beta   90.00000000
_cell_angle_gamma   131.44102859
_symmetry_Int_Tables_number   1
_chemical_formula_structural   KBaMoAs4Rh3
_chemical_formula_sum   'K1 Ba1 Mo1 As4 Rh3'
_cell_volume   224.00750351
_cell_formula_units_Z   1
loop_
 _symmetry_equiv_pos_site_id
 _symmetry_equiv_pos_as_xyz
  1  'x, y, z'
loop_
 _atom_site_type_symbol
 _atom_site_label
 _atom_site_symmetry_multiplicity
 _atom_site_fract_x
 _atom_site_fract_y
 _atom_site_fract_z
 _atom_site_occupancy
  K  K0  1  0.000000  0.000000  0.004192  1
  Ba  Ba1  1  0.500000  0.500000  0.490305  1
  Mo  Mo2  1  0.500000  0.000000  0.751627  1
  As  As3  1  0.643111  0.350273  0.998159  1
  As  As4  1  0.145119  0.853817  0.503188  1
  As  As5  1  0.854881  0.146183  0.503188  1
  As  As6  1  0.356889  0.649727  0.998159  1
  Rh  Rh7  1  0.000000  0.500000  0.251533  1
  Rh  Rh8  1  0.000000  0.500000  0.748898  1
  Rh  Rh9  1  0.500000  0.000000  0.250750  1
