# generated using pymatgen
data_LuTa5TiSn6
_symmetry_space_group_name_H-M   'P 1'
_cell_length_a   5.75858619
_cell_length_b   5.74655695
_cell_length_c   9.61216400
_cell_angle_alpha   90.00000000
_cell_angle_beta   90.00000000
_cell_angle_gamma   119.93092577
_symmetry_Int_Tables_number   1
_chemical_formula_structural   LuTa5TiSn6
_chemical_formula_sum   'Lu1 Ta5 Ti1 Sn6'
_cell_volume   275.66222330
_cell_formula_units_Z   1
loop_
 _symmetry_equiv_pos_site_id
 _symmetry_equiv_pos_as_xyz
  1  'x, y, z'
loop_
 _atom_site_type_symbol
 _atom_site_label
 _atom_site_symmetry_multiplicity
 _atom_site_fract_x
 _atom_site_fract_y
 _atom_site_fract_z
 _atom_site_occupancy
  Lu  Lu0  1  0.000000  0.000000  0.001557  1
  Ta  Ta1  1  0.500000  0.500000  0.751059  1
  Ta  Ta2  1  0.500000  0.000000  0.751059  1
  Ta  Ta3  1  0.500000  0.500000  0.247481  1
  Ta  Ta4  1  0.500000  0.000000  0.247481  1
  Ta  Ta5  1  0.000000  0.500000  0.250148  1
  Ti  Ti6  1  0.000000  0.500000  0.751368  1
  Sn  Sn7  1  0.669131  0.334565  0.998559  1
  Sn  Sn8  1  0.330869  0.665435  0.998559  1
  Sn  Sn9  1  0.668750  0.334374  0.500663  1
  Sn  Sn10  1  0.331250  0.665626  0.500663  1
  Sn  Sn11  1  0.000000  0.000000  0.671847  1
  Sn  Sn12  1  0.000000  0.000000  0.329556  1
