# generated using pymatgen
data_Tb3Y3(WO7)2
_symmetry_space_group_name_H-M   'P 1'
_cell_length_a   6.48940477
_cell_length_b   6.50874288
_cell_length_c   7.51833001
_cell_angle_alpha   89.99629202
_cell_angle_beta   89.99591886
_cell_angle_gamma   109.19273735
_symmetry_Int_Tables_number   1
_chemical_formula_structural   Tb3Y3(WO7)2
_chemical_formula_sum   'Tb3 Y3 W2 O14'
_cell_volume   299.90771592
_cell_formula_units_Z   1
loop_
 _symmetry_equiv_pos_site_id
 _symmetry_equiv_pos_as_xyz
  1  'x, y, z'
loop_
 _atom_site_type_symbol
 _atom_site_label
 _atom_site_symmetry_multiplicity
 _atom_site_fract_x
 _atom_site_fract_y
 _atom_site_fract_z
 _atom_site_occupancy
  Tb  Tb0  1  0.518301  0.518249  0.249998  1
  Tb  Tb1  1  0.482212  0.482058  0.750034  1
  Tb  Tb2  1  0.998866  0.466971  0.497350  1
  Y  Y3  1  0.532945  0.001108  0.502625  1
  Y  Y4  1  0.001217  0.532374  0.997292  1
  Y  Y5  1  0.466739  0.998804  0.002687  1
  W  W6  1  0.000706  0.000747  0.249792  1
  W  W7  1  0.999202  0.999221  0.750142  1
  O  O8  1  0.067988  0.318447  0.217841  1
  O  O9  1  0.682835  0.933771  0.782436  1
  O  O10  1  0.931789  0.681281  0.718501  1
  O  O11  1  0.317135  0.066298  0.282305  1
  O  O12  1  0.675951  0.920138  0.222249  1
  O  O13  1  0.081687  0.325349  0.777467  1
  O  O14  1  0.323875  0.079888  0.722323  1
  O  O15  1  0.918169  0.674537  0.276930  1
  O  O16  1  0.370706  0.633175  0.500110  1
  O  O17  1  0.630707  0.367517  0.000003  1
  O  O18  1  0.363925  0.637987  0.999979  1
  O  O19  1  0.635101  0.362044  0.499926  1
  O  O20  1  0.926720  0.074122  0.499993  1
  O  O21  1  0.073221  0.925913  0.000017  1
