# generated using pymatgen
data_Yb3Co3Si4Ni
_symmetry_space_group_name_H-M   'P 1'
_cell_length_a   6.16768261
_cell_length_b   6.13807160
_cell_length_c   6.13807193
_cell_angle_alpha   109.37329967
_cell_angle_beta   109.56896948
_cell_angle_gamma   109.56896883
_symmetry_Int_Tables_number   1
_chemical_formula_structural   Yb3Co3Si4Ni
_chemical_formula_sum   'Yb3 Co3 Si4 Ni1'
_cell_volume   178.66467533
_cell_formula_units_Z   1
loop_
 _symmetry_equiv_pos_site_id
 _symmetry_equiv_pos_as_xyz
  1  'x, y, z'
loop_
 _atom_site_type_symbol
 _atom_site_label
 _atom_site_symmetry_multiplicity
 _atom_site_fract_x
 _atom_site_fract_y
 _atom_site_fract_z
 _atom_site_occupancy
  Yb  Yb0  1  0.498484  0.497714  0.000000  1
  Yb  Yb1  1  0.498484  0.000000  0.497714  1
  Yb  Yb2  1  0.000770  0.502286  0.502286  1
  Co  Co3  1  0.002392  0.261011  0.000000  1
  Co  Co4  1  0.002392  0.000000  0.261011  1
  Co  Co5  1  0.741381  0.738989  0.738989  1
  Si  Si6  1  0.629507  0.000000  0.000000  1
  Si  Si7  1  0.994267  0.618946  0.000000  1
  Si  Si8  1  0.375323  0.381055  0.381055  1
  Si  Si9  1  0.994267  0.000000  0.618946  1
  Ni  Ni10  1  0.262734  0.000000  0.000000  1
