# generated using pymatgen
data_Er8Tm2Zn3Bi2Pt
_symmetry_space_group_name_H-M   'P 1'
_cell_length_a   8.60924723
_cell_length_b   8.60924592
_cell_length_c   8.56991880
_cell_angle_alpha   124.23755541
_cell_angle_beta   124.23754765
_cell_angle_gamma   83.10152742
_symmetry_Int_Tables_number   1
_chemical_formula_structural   Er8Tm2Zn3Bi2Pt
_chemical_formula_sum   'Er8 Tm2 Zn3 Bi2 Pt1'
_cell_volume   415.80782000
_cell_formula_units_Z   1
loop_
 _symmetry_equiv_pos_site_id
 _symmetry_equiv_pos_as_xyz
  1  'x, y, z'
loop_
 _atom_site_type_symbol
 _atom_site_label
 _atom_site_symmetry_multiplicity
 _atom_site_fract_x
 _atom_site_fract_y
 _atom_site_fract_z
 _atom_site_occupancy
  Er  Er0  1  0.794290  0.294290  0.808634  1
  Er  Er1  1  0.294562  0.492855  0.506799  1
  Er  Er2  1  0.992855  0.794562  0.506799  1
  Er  Er3  1  0.712239  0.513945  0.506799  1
  Er  Er4  1  0.013945  0.212239  0.506799  1
  Er  Er5  1  0.514344  0.014344  0.808634  1
  Er  Er6  1  0.199772  0.699772  0.177036  1
  Er  Er7  1  0.477264  0.977264  0.177036  1
  Tm  Tm8  1  0.002402  0.995599  0.998001  1
  Tm  Tm9  1  0.495599  0.502402  0.998001  1
  Zn  Zn10  1  0.862216  0.362216  0.224431  1
  Zn  Zn11  1  0.363420  0.139310  0.502730  1
  Zn  Zn12  1  0.639310  0.863420  0.502730  1
  Bi  Bi13  1  0.252752  0.252752  0.005504  1
  Bi  Bi14  1  0.752752  0.752752  0.005504  1
  Pt  Pt15  1  0.132281  0.632281  0.764561  1
