# generated using pymatgen
data_Nd3Cu2Pt7
_symmetry_space_group_name_H-M   'P 1'
_cell_length_a   9.22383597
_cell_length_b   9.22383629
_cell_length_c   9.22383621
_cell_angle_alpha   34.62066113
_cell_angle_beta   34.62065941
_cell_angle_gamma   34.62066274
_symmetry_Int_Tables_number   1
_chemical_formula_structural   Nd3Cu2Pt7
_chemical_formula_sum   'Nd3 Cu2 Pt7'
_cell_volume   226.02663251
_cell_formula_units_Z   1
loop_
 _symmetry_equiv_pos_site_id
 _symmetry_equiv_pos_as_xyz
  1  'x, y, z'
loop_
 _atom_site_type_symbol
 _atom_site_label
 _atom_site_symmetry_multiplicity
 _atom_site_fract_x
 _atom_site_fract_y
 _atom_site_fract_z
 _atom_site_occupancy
  Nd  Nd0  1  0.860964  0.860964  0.860964  1
  Nd  Nd1  1  0.139036  0.139036  0.139036  1
  Nd  Nd2  1  0.000000  0.000000  0.000000  1
  Cu  Cu3  1  0.666498  0.666498  0.666498  1
  Cu  Cu4  1  0.333502  0.333502  0.333502  1
  Pt  Pt5  1  0.418200  0.922682  0.418200  1
  Pt  Pt6  1  0.418200  0.418200  0.922682  1
  Pt  Pt7  1  0.922682  0.418200  0.418200  1
  Pt  Pt8  1  0.581800  0.077318  0.581800  1
  Pt  Pt9  1  0.581800  0.581800  0.077318  1
  Pt  Pt10  1  0.077318  0.581800  0.581800  1
  Pt  Pt11  1  0.500000  0.500000  0.500000  1
