# generated using pymatgen
data_Nd4ErPaS10
_symmetry_space_group_name_H-M   'P 1'
_cell_length_a   7.48818000
_cell_length_b   7.92995800
_cell_length_c   11.88543300
_cell_angle_alpha   90.00000000
_cell_angle_beta   90.00000000
_cell_angle_gamma   90.00000000
_symmetry_Int_Tables_number   1
_chemical_formula_structural   Nd4ErPaS10
_chemical_formula_sum   'Nd8 Er2 Pa2 S20'
_cell_volume   705.76833713
_cell_formula_units_Z   2
loop_
 _symmetry_equiv_pos_site_id
 _symmetry_equiv_pos_as_xyz
  1  'x, y, z'
loop_
 _atom_site_type_symbol
 _atom_site_label
 _atom_site_symmetry_multiplicity
 _atom_site_fract_x
 _atom_site_fract_y
 _atom_site_fract_z
 _atom_site_occupancy
  Nd  Nd0  1  0.527086  0.502886  0.322673  1
  Nd  Nd1  1  0.972914  0.997114  0.822673  1
  Nd  Nd2  1  0.475912  0.996469  0.677271  1
  Nd  Nd3  1  0.024088  0.503531  0.177271  1
  Nd  Nd4  1  0.475912  0.503531  0.677271  1
  Nd  Nd5  1  0.024088  0.996469  0.177271  1
  Nd  Nd6  1  0.527086  0.997114  0.322673  1
  Nd  Nd7  1  0.972914  0.502886  0.822673  1
  Er  Er8  1  0.073379  0.750000  0.494633  1
  Er  Er9  1  0.426621  0.750000  0.994633  1
  Pa  Pa10  1  0.937680  0.250000  0.505679  1
  Pa  Pa11  1  0.562320  0.250000  0.005679  1
  S  S12  1  0.835554  0.963577  0.595641  1
  S  S13  1  0.664446  0.536423  0.095641  1
  S  S14  1  0.164913  0.456505  0.404733  1
  S  S15  1  0.335087  0.043495  0.904733  1
  S  S16  1  0.164913  0.043495  0.404733  1
  S  S17  1  0.335087  0.456505  0.904733  1
  S  S18  1  0.835554  0.536423  0.595641  1
  S  S19  1  0.664446  0.963577  0.095641  1
  S  S20  1  0.830688  0.750000  0.315225  1
  S  S21  1  0.669312  0.750000  0.815225  1
  S  S22  1  0.169211  0.250000  0.684211  1
  S  S23  1  0.330789  0.250000  0.184211  1
  S  S24  1  0.453777  0.750000  0.497735  1
  S  S25  1  0.046223  0.750000  0.997735  1
  S  S26  1  0.550756  0.250000  0.500477  1
  S  S27  1  0.949244  0.250000  0.000477  1
  S  S28  1  0.192513  0.750000  0.712655  1
  S  S29  1  0.307487  0.750000  0.212655  1
  S  S30  1  0.808893  0.250000  0.288753  1
  S  S31  1  0.691107  0.250000  0.788753  1
