# generated using pymatgen
data_Ti8Al15Ir5Rh2
_symmetry_space_group_name_H-M   'P 1'
_cell_length_a   8.65390765
_cell_length_b   8.65390721
_cell_length_c   8.65390773
_cell_angle_alpha   120.14814535
_cell_angle_beta   119.74526907
_cell_angle_gamma   90.09268894
_symmetry_Int_Tables_number   1
_chemical_formula_structural   Ti8Al15Ir5Rh2
_chemical_formula_sum   'Ti8 Al15 Ir5 Rh2'
_cell_volume   458.63174772
_cell_formula_units_Z   1
loop_
 _symmetry_equiv_pos_site_id
 _symmetry_equiv_pos_as_xyz
  1  'x, y, z'
loop_
 _atom_site_type_symbol
 _atom_site_label
 _atom_site_symmetry_multiplicity
 _atom_site_fract_x
 _atom_site_fract_y
 _atom_site_fract_z
 _atom_site_occupancy
  Ti  Ti0  1  0.790646  0.291375  0.074589  1
  Ti  Ti1  1  0.216786  0.291375  0.500730  1
  Ti  Ti2  1  0.208052  0.708052  0.500000  1
  Ti  Ti3  1  0.216786  0.716056  0.925411  1
  Ti  Ti4  1  0.790646  0.716056  0.499270  1
  Ti  Ti5  1  0.783625  0.283625  0.500000  1
  Ti  Ti6  1  0.378339  0.122606  0.744267  1
  Ti  Ti7  1  0.378339  0.634072  0.255733  1
  Al  Al8  1  0.996600  0.496600  0.500000  1
  Al  Al9  1  0.152514  0.341765  0.189250  1
  Al  Al10  1  0.152514  0.963263  0.810750  1
  Al  Al11  1  0.150135  0.347144  0.802990  1
  Al  Al12  1  0.544153  0.347144  0.197010  1
  Al  Al13  1  0.846773  0.653953  0.807181  1
  Al  Al14  1  0.846773  0.039592  0.192819  1
  Al  Al15  1  0.843200  0.654475  0.188725  1
  Al  Al16  1  0.465749  0.654475  0.811275  1
  Al  Al17  1  0.379611  0.121322  0.258289  1
  Al  Al18  1  0.863034  0.121322  0.741711  1
  Al  Al19  1  0.621547  0.877826  0.256280  1
  Al  Al20  1  0.621547  0.365267  0.743720  1
  Al  Al21  1  0.620240  0.878251  0.741989  1
  Al  Al22  1  0.136261  0.878251  0.258011  1
  Ir  Ir23  1  0.001710  0.000088  0.501991  1
  Ir  Ir24  1  0.498097  0.000088  0.998378  1
  Ir  Ir25  1  0.497407  0.497407  0.000000  1
  Ir  Ir26  1  0.498097  0.499718  0.498009  1
  Ir  Ir27  1  0.001710  0.499718  0.001622  1
  Rh  Rh28  1  0.999137  0.999137  0.000000  1
  Rh  Rh29  1  0.499972  0.999972  0.500000  1
