# generated using pymatgen
data_VInPO5
_symmetry_space_group_name_H-M   'P 1'
_cell_length_a   6.35533180
_cell_length_b   6.81034058
_cell_length_c   10.40007314
_cell_angle_alpha   82.44746841
_cell_angle_beta   72.70248794
_cell_angle_gamma   109.72365903
_symmetry_Int_Tables_number   1
_chemical_formula_structural   VInPO5
_chemical_formula_sum   'V4 In4 P4 O20'
_cell_volume   390.87862030
_cell_formula_units_Z   4
loop_
 _symmetry_equiv_pos_site_id
 _symmetry_equiv_pos_as_xyz
  1  'x, y, z'
loop_
 _atom_site_type_symbol
 _atom_site_label
 _atom_site_symmetry_multiplicity
 _atom_site_fract_x
 _atom_site_fract_y
 _atom_site_fract_z
 _atom_site_occupancy
  V  V0  1  0.445458  0.322657  0.920295  1
  V  V1  1  0.554548  0.677382  0.079706  1
  V  V2  1  0.945256  0.822633  0.420277  1
  V  V3  1  0.054762  0.177325  0.579723  1
  In  In4  1  0.997109  0.274782  0.212188  1
  In  In5  1  0.497377  0.774793  0.712153  1
  In  In6  1  0.502557  0.225180  0.287858  1
  In  In7  1  0.002862  0.725144  0.787805  1
  P  P8  1  0.395909  0.684691  0.415353  1
  P  P9  1  0.895857  0.184680  0.915323  1
  P  P10  1  0.104192  0.815384  0.084679  1
  P  P11  1  0.604094  0.315298  0.584647  1
  O  O12  1  0.395179  0.347123  0.115868  1
  O  O13  1  0.895319  0.847048  0.615849  1
  O  O14  1  0.104601  0.152875  0.384182  1
  O  O15  1  0.604834  0.652898  0.884112  1
  O  O16  1  0.597069  0.806505  0.467874  1
  O  O17  1  0.097103  0.306317  0.967936  1
  O  O18  1  0.902981  0.693724  0.032035  1
  O  O19  1  0.402916  0.193490  0.532126  1
  O  O20  1  0.806073  0.500658  0.462214  1
  O  O21  1  0.306198  0.000689  0.962315  1
  O  O22  1  0.693839  0.999385  0.037692  1
  O  O23  1  0.193963  0.499343  0.537778  1
  O  O24  1  0.297382  0.851118  0.368515  1
  O  O25  1  0.797582  0.351207  0.868468  1
  O  O26  1  0.202410  0.648821  0.131525  1
  O  O27  1  0.702563  0.148840  0.631485  1
  O  O28  1  0.498852  0.600811  0.289721  1
  O  O29  1  0.998916  0.100785  0.789714  1
  O  O30  1  0.001048  0.899219  0.210307  1
  O  O31  1  0.501188  0.399194  0.710279  1
