# generated using pymatgen
data_Pr2Sm2Ga4CoRu3
_symmetry_space_group_name_H-M   'P 1'
_cell_length_a   4.62622500
_cell_length_b   7.37214356
_cell_length_c   7.07712109
_cell_angle_alpha   89.89835687
_cell_angle_beta   90.00000000
_cell_angle_gamma   90.00000000
_symmetry_Int_Tables_number   1
_chemical_formula_structural   Pr2Sm2Ga4CoRu3
_chemical_formula_sum   'Pr2 Sm2 Ga4 Co1 Ru3'
_cell_volume   241.36621407
_cell_formula_units_Z   1
loop_
 _symmetry_equiv_pos_site_id
 _symmetry_equiv_pos_as_xyz
  1  'x, y, z'
loop_
 _atom_site_type_symbol
 _atom_site_label
 _atom_site_symmetry_multiplicity
 _atom_site_fract_x
 _atom_site_fract_y
 _atom_site_fract_z
 _atom_site_occupancy
  Pr  Pr0  1  0.750000  0.971562  0.188772  1
  Pr  Pr1  1  0.750000  0.475878  0.308569  1
  Sm  Sm2  1  0.250000  0.031279  0.805542  1
  Sm  Sm3  1  0.250000  0.531760  0.695717  1
  Ga  Ga4  1  0.250000  0.191747  0.394423  1
  Ga  Ga5  1  0.250000  0.689574  0.101911  1
  Ga  Ga6  1  0.750000  0.805300  0.616086  1
  Ga  Ga7  1  0.750000  0.313889  0.888947  1
  Co  Co8  1  0.750000  0.648981  0.935836  1
  Ru  Ru9  1  0.250000  0.843121  0.440323  1
  Ru  Ru10  1  0.250000  0.344708  0.058896  1
  Ru  Ru11  1  0.750000  0.152203  0.564977  1
