# generated using pymatgen
data_HoEr3(Sc3Si4)2
_symmetry_space_group_name_H-M   'P 1'
_cell_length_a   7.06906312
_cell_length_b   7.35909524
_cell_length_c   13.94389026
_cell_angle_alpha   90.02122541
_cell_angle_beta   90.00613939
_cell_angle_gamma   90.02053800
_symmetry_Int_Tables_number   1
_chemical_formula_structural   HoEr3(Sc3Si4)2
_chemical_formula_sum   'Ho2 Er6 Sc12 Si16'
_cell_volume   725.38768706
_cell_formula_units_Z   2
loop_
 _symmetry_equiv_pos_site_id
 _symmetry_equiv_pos_as_xyz
  1  'x, y, z'
loop_
 _atom_site_type_symbol
 _atom_site_label
 _atom_site_symmetry_multiplicity
 _atom_site_fract_x
 _atom_site_fract_y
 _atom_site_fract_z
 _atom_site_occupancy
  Ho  Ho0  1  0.011790  0.175837  0.096699  1
  Ho  Ho1  1  0.988210  0.824163  0.903301  1
  Er  Er2  1  0.488179  0.675885  0.903245  1
  Er  Er3  1  0.988039  0.823859  0.596636  1
  Er  Er4  1  0.511821  0.324115  0.096755  1
  Er  Er5  1  0.011961  0.176141  0.403364  1
  Er  Er6  1  0.512030  0.324047  0.403584  1
  Er  Er7  1  0.487970  0.675953  0.596416  1
  Sc  Sc8  1  0.160801  0.502762  0.749946  1
  Sc  Sc9  1  0.839199  0.497238  0.250054  1
  Sc  Sc10  1  0.339237  0.002907  0.250056  1
  Sc  Sc11  1  0.660763  0.997093  0.749944  1
  Sc  Sc12  1  0.330934  0.176974  0.625256  1
  Sc  Sc13  1  0.669066  0.823026  0.374744  1
  Sc  Sc14  1  0.169148  0.676834  0.374809  1
  Sc  Sc15  1  0.668709  0.822829  0.125372  1
  Sc  Sc16  1  0.830852  0.323166  0.625191  1
  Sc  Sc17  1  0.331291  0.177171  0.874628  1
  Sc  Sc18  1  0.830797  0.323539  0.874821  1
  Sc  Sc19  1  0.169203  0.676461  0.125179  1
  Si  Si20  1  0.033111  0.115576  0.749892  1
  Si  Si21  1  0.966889  0.884424  0.250108  1
  Si  Si22  1  0.466987  0.615086  0.250104  1
  Si  Si23  1  0.533013  0.384914  0.749896  1
  Si  Si24  1  0.285397  0.871951  0.749755  1
  Si  Si25  1  0.714603  0.128049  0.250245  1
  Si  Si26  1  0.214943  0.372124  0.250218  1
  Si  Si27  1  0.785057  0.627876  0.749782  1
  Si  Si28  1  0.158824  0.465080  0.539473  1
  Si  Si29  1  0.841176  0.534920  0.460527  1
  Si  Si30  1  0.341072  0.965132  0.460627  1
  Si  Si31  1  0.840799  0.534951  0.039483  1
  Si  Si32  1  0.658928  0.034868  0.539373  1
  Si  Si33  1  0.159201  0.465049  0.960517  1
  Si  Si34  1  0.658137  0.035127  0.960642  1
  Si  Si35  1  0.341863  0.964873  0.039358  1
