# generated using pymatgen
data_Np5NbBr30
_symmetry_space_group_name_H-M   'P 1'
_cell_length_a   15.89298425
_cell_length_b   15.89040829
_cell_length_c   7.70353559
_cell_angle_alpha   87.72718500
_cell_angle_beta   87.72203420
_cell_angle_gamma   84.04887737
_symmetry_Int_Tables_number   1
_chemical_formula_structural   Np5NbBr30
_chemical_formula_sum   'Np5 Nb1 Br30'
_cell_volume   1932.24669992
_cell_formula_units_Z   1
loop_
 _symmetry_equiv_pos_site_id
 _symmetry_equiv_pos_as_xyz
  1  'x, y, z'
loop_
 _atom_site_type_symbol
 _atom_site_label
 _atom_site_symmetry_multiplicity
 _atom_site_fract_x
 _atom_site_fract_y
 _atom_site_fract_z
 _atom_site_occupancy
  Np  Np0  1  0.429454  0.236533  0.481178  1
  Np  Np1  1  0.769765  0.564411  0.518361  1
  Np  Np2  1  0.565589  0.768028  0.518695  1
  Np  Np3  1  0.101520  0.898103  0.000264  1
  Np  Np4  1  0.898340  0.101846  0.999896  1
  Nb  Nb5  1  0.227721  0.438657  0.482071  1
  Br  Br6  1  0.520155  0.332040  0.277060  1
  Br  Br7  1  0.676016  0.472390  0.723259  1
  Br  Br8  1  0.474200  0.673153  0.723213  1
  Br  Br9  1  0.331076  0.508580  0.290898  1
  Br  Br10  1  0.557805  0.202025  0.687100  1
  Br  Br11  1  0.804510  0.437358  0.308153  1
  Br  Br12  1  0.047147  0.046819  0.798090  1
  Br  Br13  1  0.952774  0.952932  0.201903  1
  Br  Br14  1  0.866781  0.233311  0.784565  1
  Br  Br15  1  0.766922  0.133513  0.215083  1
  Br  Br16  1  0.132946  0.766367  0.216555  1
  Br  Br17  1  0.233056  0.866597  0.784739  1
  Br  Br18  1  0.989792  0.188848  0.191759  1
  Br  Br19  1  0.811418  0.010624  0.808025  1
  Br  Br20  1  0.010540  0.810670  0.808508  1
  Br  Br21  1  0.188535  0.989089  0.191780  1
  Br  Br22  1  0.285480  0.295174  0.289814  1
  Br  Br23  1  0.710906  0.709476  0.713579  1
  Br  Br24  1  0.110469  0.467631  0.287704  1
  Br  Br25  1  0.530191  0.895391  0.727195  1
  Br  Br26  1  0.898185  0.529843  0.726325  1
  Br  Br27  1  0.463479  0.108706  0.273871  1
  Br  Br28  1  0.158110  0.335080  0.673317  1
  Br  Br29  1  0.660392  0.859389  0.314513  1
  Br  Br30  1  0.859982  0.660227  0.312934  1
  Br  Br31  1  0.334315  0.145424  0.685414  1
  Br  Br32  1  0.371449  0.380466  0.673074  1
  Br  Br33  1  0.623864  0.622553  0.324900  1
  Br  Br34  1  0.198718  0.555806  0.676906  1
  Br  Br35  1  0.438395  0.802940  0.309302  1
