# generated using pymatgen
data_Tm3In3HgPt
_symmetry_space_group_name_H-M   'P 1'
_cell_length_a   7.87164600
_cell_length_b   7.87164601
_cell_length_c   3.59669500
_cell_angle_alpha   90.00000000
_cell_angle_beta   90.00000000
_cell_angle_gamma   119.99999153
_symmetry_Int_Tables_number   1
_chemical_formula_structural   Tm3In3HgPt
_chemical_formula_sum   'Tm3 In3 Hg1 Pt1'
_cell_volume   193.00359152
_cell_formula_units_Z   1
loop_
 _symmetry_equiv_pos_site_id
 _symmetry_equiv_pos_as_xyz
  1  'x, y, z'
loop_
 _atom_site_type_symbol
 _atom_site_label
 _atom_site_symmetry_multiplicity
 _atom_site_fract_x
 _atom_site_fract_y
 _atom_site_fract_z
 _atom_site_occupancy
  Tm  Tm0  1  0.574211  0.975178  0.500001  1
  Tm  Tm1  1  0.400966  0.425788  0.500001  1
  Tm  Tm2  1  0.024822  0.599033  0.500001  1
  In  In3  1  0.232007  0.001939  0.000000  1
  In  In4  1  0.998061  0.230068  0.000000  1
  In  In5  1  0.769932  0.767994  0.000000  1
  Hg  Hg6  1  0.666667  0.333333  0.000000  1
  Pt  Pt7  1  0.333333  0.666667  0.000000  1
