# generated using pymatgen
data_DyEr7Ga3Fe
_symmetry_space_group_name_H-M   'P 1'
_cell_length_a   9.89398900
_cell_length_b   9.89399077
_cell_length_c   6.92844900
_cell_angle_alpha   90.00000000
_cell_angle_beta   90.00000000
_cell_angle_gamma   120.00000410
_symmetry_Int_Tables_number   1
_chemical_formula_structural   DyEr7Ga3Fe
_chemical_formula_sum   'Dy2 Er14 Ga6 Fe2'
_cell_volume   587.36702637
_cell_formula_units_Z   2
loop_
 _symmetry_equiv_pos_site_id
 _symmetry_equiv_pos_as_xyz
  1  'x, y, z'
loop_
 _atom_site_type_symbol
 _atom_site_label
 _atom_site_symmetry_multiplicity
 _atom_site_fract_x
 _atom_site_fract_y
 _atom_site_fract_z
 _atom_site_occupancy
  Dy  Dy0  1  0.000000  0.000000  0.269382  1
  Dy  Dy1  1  0.000000  0.000000  0.769382  1
  Er  Er2  1  0.173570  0.826430  0.989914  1
  Er  Er3  1  0.826430  0.173570  0.489914  1
  Er  Er4  1  0.173570  0.347140  0.989914  1
  Er  Er5  1  0.652860  0.826430  0.989914  1
  Er  Er6  1  0.347140  0.173570  0.489914  1
  Er  Er7  1  0.826430  0.652860  0.489914  1
  Er  Er8  1  0.333333  0.666667  0.671240  1
  Er  Er9  1  0.666667  0.333333  0.171240  1
  Er  Er10  1  0.463271  0.536729  0.293766  1
  Er  Er11  1  0.536729  0.463271  0.793766  1
  Er  Er12  1  0.463271  0.926541  0.293766  1
  Er  Er13  1  0.073459  0.536729  0.293766  1
  Er  Er14  1  0.926541  0.463271  0.793766  1
  Er  Er15  1  0.536729  0.073459  0.793766  1
  Ga  Ga16  1  0.164214  0.835786  0.541918  1
  Ga  Ga17  1  0.835786  0.164214  0.041918  1
  Ga  Ga18  1  0.164214  0.328427  0.541918  1
  Ga  Ga19  1  0.671573  0.835786  0.541918  1
  Ga  Ga20  1  0.328427  0.164214  0.041918  1
  Ga  Ga21  1  0.835786  0.671573  0.041918  1
  Fe  Fe22  1  0.333333  0.666667  0.055643  1
  Fe  Fe23  1  0.666667  0.333333  0.555643  1
