# generated using pymatgen
data_Lu11(In3Si2)2
_symmetry_space_group_name_H-M   'P 1'
_cell_length_a   11.18447227
_cell_length_b   11.18447277
_cell_length_c   11.18447200
_cell_angle_alpha   119.84410406
_cell_angle_beta   119.84410552
_cell_angle_gamma   90.27023245
_symmetry_Int_Tables_number   1
_chemical_formula_structural   Lu11(In3Si2)2
_chemical_formula_sum   'Lu22 In12 Si8'
_cell_volume   991.62716172
_cell_formula_units_Z   2
loop_
 _symmetry_equiv_pos_site_id
 _symmetry_equiv_pos_as_xyz
  1  'x, y, z'
loop_
 _atom_site_type_symbol
 _atom_site_label
 _atom_site_symmetry_multiplicity
 _atom_site_fract_x
 _atom_site_fract_y
 _atom_site_fract_z
 _atom_site_occupancy
  Lu  Lu0  1  0.684680  0.935904  0.251224  1
  Lu  Lu1  1  0.684680  0.433457  0.748776  1
  Lu  Lu2  1  0.935904  0.684680  0.251224  1
  Lu  Lu3  1  0.433457  0.684680  0.748776  1
  Lu  Lu4  1  0.315320  0.064096  0.748776  1
  Lu  Lu5  1  0.315320  0.566543  0.251224  1
  Lu  Lu6  1  0.064096  0.315320  0.748776  1
  Lu  Lu7  1  0.566543  0.315320  0.251224  1
  Lu  Lu8  1  0.898051  0.246120  0.348069  1
  Lu  Lu9  1  0.898051  0.549981  0.651931  1
  Lu  Lu10  1  0.246120  0.898051  0.348069  1
  Lu  Lu11  1  0.549981  0.898051  0.651931  1
  Lu  Lu12  1  0.101949  0.753880  0.651931  1
  Lu  Lu13  1  0.101949  0.450019  0.348069  1
  Lu  Lu14  1  0.753880  0.101949  0.651931  1
  Lu  Lu15  1  0.450019  0.101949  0.348069  1
  Lu  Lu16  1  0.334912  0.334912  0.669823  1
  Lu  Lu17  1  0.665088  0.665088  0.330177  1
  Lu  Lu18  1  0.334912  0.665088  0.000000  1
  Lu  Lu19  1  0.665088  0.334912  0.000000  1
  Lu  Lu20  1  0.825765  0.825765  0.000000  1
  Lu  Lu21  1  0.174235  0.174235  0.000000  1
  In  In22  1  0.036211  0.036211  0.412901  1
  In  In23  1  0.623311  0.623311  0.587099  1
  In  In24  1  0.036211  0.623311  0.000000  1
  In  In25  1  0.623311  0.036211  0.000000  1
  In  In26  1  0.963789  0.963789  0.587099  1
  In  In27  1  0.376689  0.376689  0.412901  1
  In  In28  1  0.963789  0.376689  0.000000  1
  In  In29  1  0.376689  0.963789  0.000000  1
  In  In30  1  0.129770  0.129770  0.259540  1
  In  In31  1  0.870230  0.870230  0.740460  1
  In  In32  1  0.129770  0.870230  0.000000  1
  In  In33  1  0.870230  0.129770  0.000000  1
  Si  Si34  1  0.152021  0.500000  0.652021  1
  Si  Si35  1  0.847979  0.500000  0.347979  1
  Si  Si36  1  0.500000  0.847979  0.347979  1
  Si  Si37  1  0.500000  0.152021  0.652021  1
  Si  Si38  1  0.620315  0.620315  0.000000  1
  Si  Si39  1  0.379685  0.379685  0.000000  1
  Si  Si40  1  0.750000  0.250000  0.500000  1
  Si  Si41  1  0.250000  0.750000  0.500000  1
