# generated using pymatgen
data_K3Nb(SO)2
_symmetry_space_group_name_H-M   'P 1'
_cell_length_a   7.52031200
_cell_length_b   10.91777163
_cell_length_c   12.15083291
_cell_angle_alpha   57.97652190
_cell_angle_beta   90.00000000
_cell_angle_gamma   90.00000000
_symmetry_Int_Tables_number   1
_chemical_formula_structural   K3Nb(SO)2
_chemical_formula_sum   'K12 Nb4 S8 O8'
_cell_volume   845.83401101
_cell_formula_units_Z   4
loop_
 _symmetry_equiv_pos_site_id
 _symmetry_equiv_pos_as_xyz
  1  'x, y, z'
loop_
 _atom_site_type_symbol
 _atom_site_label
 _atom_site_symmetry_multiplicity
 _atom_site_fract_x
 _atom_site_fract_y
 _atom_site_fract_z
 _atom_site_occupancy
  K  K0  1  0.740710  0.063688  0.883175  1
  K  K1  1  0.863214  0.515285  0.161504  1
  K  K2  1  0.259290  0.936312  0.116825  1
  K  K3  1  0.759290  0.063688  0.383175  1
  K  K4  1  0.136786  0.484715  0.838496  1
  K  K5  1  0.725045  0.767311  0.794118  1
  K  K6  1  0.363214  0.484715  0.338496  1
  K  K7  1  0.225045  0.232689  0.705882  1
  K  K8  1  0.274955  0.232689  0.205882  1
  K  K9  1  0.774955  0.767311  0.294118  1
  K  K10  1  0.240710  0.936312  0.616825  1
  K  K11  1  0.636786  0.515285  0.661504  1
  Nb  Nb12  1  0.699688  0.304009  0.028079  1
  Nb  Nb13  1  0.800312  0.304009  0.528079  1
  Nb  Nb14  1  0.300312  0.695991  0.971921  1
  Nb  Nb15  1  0.199688  0.695991  0.471921  1
  S  S16  1  0.456602  0.246995  0.939981  1
  S  S17  1  0.573162  0.130550  0.595509  1
  S  S18  1  0.956602  0.753005  0.560019  1
  S  S19  1  0.543398  0.753005  0.060019  1
  S  S20  1  0.043398  0.246995  0.439981  1
  S  S21  1  0.073162  0.869450  0.904491  1
  S  S22  1  0.426838  0.869450  0.404491  1
  S  S23  1  0.926838  0.130550  0.095509  1
  O  O24  1  0.290964  0.517336  0.590491  1
  O  O25  1  0.628179  0.304766  0.171812  1
  O  O26  1  0.790964  0.482664  0.909509  1
  O  O27  1  0.209036  0.517336  0.090491  1
  O  O28  1  0.871821  0.304766  0.671812  1
  O  O29  1  0.709036  0.482664  0.409509  1
  O  O30  1  0.128179  0.695234  0.328188  1
  O  O31  1  0.371821  0.695234  0.828188  1
