# generated using pymatgen
data_Dy5ScAl6(SiAu)3
_symmetry_space_group_name_H-M   'P 1'
_cell_length_a   6.94784748
_cell_length_b   6.93713826
_cell_length_c   8.53053536
_cell_angle_alpha   89.97427015
_cell_angle_beta   90.03128364
_cell_angle_gamma   119.75462676
_symmetry_Int_Tables_number   1
_chemical_formula_structural   Dy5ScAl6(SiAu)3
_chemical_formula_sum   'Dy5 Sc1 Al6 Si3 Au3'
_cell_volume   356.94884602
_cell_formula_units_Z   1
loop_
 _symmetry_equiv_pos_site_id
 _symmetry_equiv_pos_as_xyz
  1  'x, y, z'
loop_
 _atom_site_type_symbol
 _atom_site_label
 _atom_site_symmetry_multiplicity
 _atom_site_fract_x
 _atom_site_fract_y
 _atom_site_fract_z
 _atom_site_occupancy
  Dy  Dy0  1  0.579579  0.000001  0.743915  1
  Dy  Dy1  1  0.998566  0.578609  0.743712  1
  Dy  Dy2  1  0.419921  0.419460  0.744630  1
  Dy  Dy3  1  0.997514  0.579014  0.255268  1
  Dy  Dy4  1  0.580041  0.999433  0.255297  1
  Sc  Sc5  1  0.418433  0.418582  0.258408  1
  Al  Al6  1  0.746644  0.752650  0.004707  1
  Al  Al7  1  0.246460  0.994251  0.001430  1
  Al  Al8  1  0.007832  0.252567  0.001692  1
  Al  Al9  1  0.757606  0.757456  0.495674  1
  Al  Al10  1  0.242314  0.001016  0.498024  1
  Al  Al11  1  0.999993  0.241444  0.498144  1
  Si  Si12  1  0.663822  0.334388  0.003275  1
  Si  Si13  1  0.662333  0.334616  0.496275  1
  Si  Si14  1  0.334391  0.662613  0.496479  1
  Au  Au15  1  0.000362  0.000451  0.753839  1
  Au  Au16  1  0.009991  0.010126  0.246015  1
  Au  Au17  1  0.334200  0.663321  0.003215  1
