# generated using pymatgen
data_PmThZn3Ga
_symmetry_space_group_name_H-M   'P 1'
_cell_length_a   4.50402000
_cell_length_b   4.50402023
_cell_length_c   7.52050000
_cell_angle_alpha   90.00000000
_cell_angle_beta   90.00000000
_cell_angle_gamma   119.99999834
_symmetry_Int_Tables_number   1
_chemical_formula_structural   PmThZn3Ga
_chemical_formula_sum   'Pm1 Th1 Zn3 Ga1'
_cell_volume   132.12286940
_cell_formula_units_Z   1
loop_
 _symmetry_equiv_pos_site_id
 _symmetry_equiv_pos_as_xyz
  1  'x, y, z'
loop_
 _atom_site_type_symbol
 _atom_site_label
 _atom_site_symmetry_multiplicity
 _atom_site_fract_x
 _atom_site_fract_y
 _atom_site_fract_z
 _atom_site_occupancy
  Pm  Pm0  1  0.000000  0.000000  0.006288  1
  Th  Th1  1  0.000000  0.000000  0.496058  1
  Zn  Zn2  1  0.666667  0.333334  0.270550  1
  Zn  Zn3  1  0.333334  0.666667  0.232727  1
  Zn  Zn4  1  0.666667  0.333334  0.718639  1
  Ga  Ga5  1  0.333334  0.666667  0.775737  1
