# generated using pymatgen
data_Rb4NpSb2F14
_symmetry_space_group_name_H-M   'P 1'
_cell_length_a   7.10336241
_cell_length_b   7.81500790
_cell_length_c   8.12262800
_cell_angle_alpha   91.95049140
_cell_angle_beta   91.15946296
_cell_angle_gamma   115.18617714
_symmetry_Int_Tables_number   1
_chemical_formula_structural   Rb4NpSb2F14
_chemical_formula_sum   'Rb4 Np1 Sb2 F14'
_cell_volume   407.50493347
_cell_formula_units_Z   1
loop_
 _symmetry_equiv_pos_site_id
 _symmetry_equiv_pos_as_xyz
  1  'x, y, z'
loop_
 _atom_site_type_symbol
 _atom_site_label
 _atom_site_symmetry_multiplicity
 _atom_site_fract_x
 _atom_site_fract_y
 _atom_site_fract_z
 _atom_site_occupancy
  Rb  Rb0  1  0.289552  0.556177  0.144732  1
  Rb  Rb1  1  0.851595  0.734094  0.416480  1
  Rb  Rb2  1  0.710448  0.443823  0.855268  1
  Rb  Rb3  1  0.148405  0.265906  0.583520  1
  Np  Np4  1  0.000000  0.000000  0.000000  1
  Sb  Sb5  1  0.392947  0.810974  0.677028  1
  Sb  Sb6  1  0.607053  0.189026  0.322972  1
  F  F7  1  0.909008  0.366101  0.330225  1
  F  F8  1  0.293102  0.126891  0.873202  1
  F  F9  1  0.426769  0.663252  0.485955  1
  F  F10  1  0.706898  0.873109  0.126798  1
  F  F11  1  0.944291  0.244806  0.942811  1
  F  F12  1  0.283624  0.936193  0.495425  1
  F  F13  1  0.055709  0.755194  0.057189  1
  F  F14  1  0.848317  0.865309  0.764808  1
  F  F15  1  0.090992  0.633899  0.669775  1
  F  F16  1  0.151683  0.134691  0.235192  1
  F  F17  1  0.403169  0.586156  0.806307  1
  F  F18  1  0.596831  0.413844  0.193693  1
  F  F19  1  0.716376  0.063807  0.504575  1
  F  F20  1  0.573231  0.336748  0.514045  1
