# generated using pymatgen
data_LiLa7HoPt6
_symmetry_space_group_name_H-M   'P 1'
_cell_length_a   7.83431131
_cell_length_b   7.83431202
_cell_length_c   7.83431191
_cell_angle_alpha   69.62709349
_cell_angle_beta   69.62709679
_cell_angle_gamma   69.62709672
_symmetry_Int_Tables_number   1
_chemical_formula_structural   LiLa7HoPt6
_chemical_formula_sum   'Li1 La7 Ho1 Pt6'
_cell_volume   408.23502405
_cell_formula_units_Z   1
loop_
 _symmetry_equiv_pos_site_id
 _symmetry_equiv_pos_as_xyz
  1  'x, y, z'
loop_
 _atom_site_type_symbol
 _atom_site_label
 _atom_site_symmetry_multiplicity
 _atom_site_fract_x
 _atom_site_fract_y
 _atom_site_fract_z
 _atom_site_occupancy
  Li  Li0  1  0.997649  0.997649  0.997649  1
  La  La1  1  0.184500  0.184500  0.184500  1
  La  La2  1  0.316517  0.615299  0.858323  1
  La  La3  1  0.858323  0.316517  0.615299  1
  La  La4  1  0.615299  0.858323  0.316517  1
  La  La5  1  0.682663  0.390427  0.138508  1
  La  La6  1  0.138508  0.682663  0.390427  1
  La  La7  1  0.390427  0.138508  0.682663  1
  Ho  Ho8  1  0.817652  0.817652  0.817652  1
  Pt  Pt9  1  0.174430  0.951657  0.580983  1
  Pt  Pt10  1  0.580983  0.174430  0.951657  1
  Pt  Pt11  1  0.951657  0.580983  0.174430  1
  Pt  Pt12  1  0.816851  0.042940  0.431601  1
  Pt  Pt13  1  0.431601  0.816851  0.042940  1
  Pt  Pt14  1  0.042940  0.431601  0.816851  1
