# generated using pymatgen
data_RbNa(GaI4)2
_symmetry_space_group_name_H-M   'P 1'
_cell_length_a   11.99251069
_cell_length_b   7.76198786
_cell_length_c   13.21884410
_cell_angle_alpha   81.07586241
_cell_angle_beta   89.47442901
_cell_angle_gamma   95.93123919
_symmetry_Int_Tables_number   1
_chemical_formula_structural   RbNa(GaI4)2
_chemical_formula_sum   'Rb2 Na2 Ga4 I16'
_cell_volume   1208.68484939
_cell_formula_units_Z   2
loop_
 _symmetry_equiv_pos_site_id
 _symmetry_equiv_pos_as_xyz
  1  'x, y, z'
loop_
 _atom_site_type_symbol
 _atom_site_label
 _atom_site_symmetry_multiplicity
 _atom_site_fract_x
 _atom_site_fract_y
 _atom_site_fract_z
 _atom_site_occupancy
  Rb  Rb0  1  0.483181  0.570317  0.701955  1
  Rb  Rb1  1  0.516819  0.429683  0.298045  1
  Na  Na2  1  0.979435  0.446086  0.238262  1
  Na  Na3  1  0.020565  0.553914  0.761738  1
  Ga  Ga4  1  0.756731  0.271816  0.553581  1
  Ga  Ga5  1  0.243269  0.728184  0.446419  1
  Ga  Ga6  1  0.750551  0.426502  0.020995  1
  Ga  Ga7  1  0.249449  0.573498  0.979005  1
  I  I8  1  0.784130  0.162470  0.378540  1
  I  I9  1  0.913709  0.233747  0.051207  1
  I  I10  1  0.725997  0.601886  0.509499  1
  I  I11  1  0.422477  0.891386  0.350714  1
  I  I12  1  0.765342  0.600812  0.835310  1
  I  I13  1  0.772784  0.658592  0.146380  1
  I  I14  1  0.561649  0.237513  0.053367  1
  I  I15  1  0.086291  0.766253  0.948793  1
  I  I16  1  0.215870  0.837530  0.621460  1
  I  I17  1  0.577523  0.108614  0.649286  1
  I  I18  1  0.065589  0.782034  0.341297  1
  I  I19  1  0.274003  0.398114  0.490501  1
  I  I20  1  0.234658  0.399188  0.164690  1
  I  I21  1  0.934411  0.217966  0.658703  1
  I  I22  1  0.438351  0.762487  0.946633  1
  I  I23  1  0.227216  0.341408  0.853620  1
