# generated using pymatgen
data_BeCr21RuC6
_symmetry_space_group_name_H-M   'P 1'
_cell_length_a   7.46216615
_cell_length_b   7.46210756
_cell_length_c   7.46236900
_cell_angle_alpha   60.00144051
_cell_angle_beta   60.00112940
_cell_angle_gamma   60.00044941
_symmetry_Int_Tables_number   1
_chemical_formula_structural   BeCr21RuC6
_chemical_formula_sum   'Be1 Cr21 Ru1 C6'
_cell_volume   293.83129666
_cell_formula_units_Z   1
loop_
 _symmetry_equiv_pos_site_id
 _symmetry_equiv_pos_as_xyz
  1  'x, y, z'
loop_
 _atom_site_type_symbol
 _atom_site_label
 _atom_site_symmetry_multiplicity
 _atom_site_fract_x
 _atom_site_fract_y
 _atom_site_fract_z
 _atom_site_occupancy
  Be  Be0  1  0.000015  0.999984  0.999994  1
  Cr  Cr1  1  0.249975  0.250036  0.249956  1
  Cr  Cr2  1  0.615954  0.615963  0.152126  1
  Cr  Cr3  1  0.615960  0.152124  0.615953  1
  Cr  Cr4  1  0.152121  0.615968  0.615948  1
  Cr  Cr5  1  0.615950  0.615975  0.615951  1
  Cr  Cr6  1  0.379770  0.379782  0.860679  1
  Cr  Cr7  1  0.379755  0.860718  0.379770  1
  Cr  Cr8  1  0.860685  0.379773  0.379775  1
  Cr  Cr9  1  0.379756  0.379776  0.379776  1
  Cr  Cr10  1  0.000312  0.000304  0.336581  1
  Cr  Cr11  1  0.662784  0.000299  0.336615  1
  Cr  Cr12  1  0.000326  0.662818  0.336524  1
  Cr  Cr13  1  0.662757  0.336560  0.000346  1
  Cr  Cr14  1  0.000348  0.336570  0.000338  1
  Cr  Cr15  1  0.000363  0.336532  0.662748  1
  Cr  Cr16  1  0.336510  0.662838  0.000324  1
  Cr  Cr17  1  0.336578  0.000319  0.662780  1
  Cr  Cr18  1  0.336555  0.000305  0.000307  1
  Cr  Cr19  1  0.000347  0.000327  0.662780  1
  Cr  Cr20  1  0.000344  0.662808  0.000332  1
  Cr  Cr21  1  0.662789  0.000309  0.000325  1
  Ru  Ru22  1  0.750020  0.749942  0.750066  1
  C  C23  1  0.722025  0.722009  0.277968  1
  C  C24  1  0.278013  0.721995  0.277987  1
  C  C25  1  0.722026  0.277991  0.277971  1
  C  C26  1  0.277982  0.277975  0.722030  1
  C  C27  1  0.722004  0.277985  0.722014  1
  C  C28  1  0.277976  0.722014  0.722036  1
