# generated using pymatgen
data_LaNdHo6(WO6)4
_symmetry_space_group_name_H-M   'P 1'
_cell_length_a   5.44215100
_cell_length_b   7.76105783
_cell_length_c   11.54627193
_cell_angle_alpha   75.53437067
_cell_angle_beta   90.00000000
_cell_angle_gamma   90.00000000
_symmetry_Int_Tables_number   1
_chemical_formula_structural   LaNdHo6(WO6)4
_chemical_formula_sum   'La1 Nd1 Ho6 W4 O24'
_cell_volume   472.21760387
_cell_formula_units_Z   1
loop_
 _symmetry_equiv_pos_site_id
 _symmetry_equiv_pos_as_xyz
  1  'x, y, z'
loop_
 _atom_site_type_symbol
 _atom_site_label
 _atom_site_symmetry_multiplicity
 _atom_site_fract_x
 _atom_site_fract_y
 _atom_site_fract_z
 _atom_site_occupancy
  La  La0  1  0.686523  0.500000  0.750000  1
  Nd  Nd1  1  0.314696  0.500000  0.250000  1
  Ho  Ho2  1  0.740953  0.000000  0.750000  1
  Ho  Ho3  1  0.259438  0.000000  0.250000  1
  Ho  Ho4  1  0.187748  0.799437  0.576305  1
  Ho  Ho5  1  0.812635  0.798215  0.077225  1
  Ho  Ho6  1  0.187748  0.200563  0.923695  1
  Ho  Ho7  1  0.812635  0.201785  0.422775  1
  W  W8  1  0.252681  0.728358  0.885136  1
  W  W9  1  0.747292  0.727802  0.384031  1
  W  W10  1  0.252681  0.271642  0.614864  1
  W  W11  1  0.747292  0.272198  0.115969  1
  O  O12  1  0.039305  0.941408  0.896437  1
  O  O13  1  0.531810  0.847235  0.930942  1
  O  O14  1  0.960000  0.942105  0.395171  1
  O  O15  1  0.454519  0.796199  0.727713  1
  O  O16  1  0.469090  0.847480  0.430739  1
  O  O17  1  0.987941  0.721765  0.769084  1
  O  O18  1  0.543432  0.794561  0.227246  1
  O  O19  1  0.859168  0.642064  0.544210  1
  O  O20  1  0.346164  0.493231  0.888823  1
  O  O21  1  0.013898  0.718735  0.269510  1
  O  O22  1  0.346164  0.506769  0.611177  1
  O  O23  1  0.859168  0.357936  0.955790  1
  O  O24  1  0.143811  0.642362  0.046398  1
  O  O25  1  0.649700  0.493125  0.387791  1
  O  O26  1  0.987941  0.278235  0.730916  1
  O  O27  1  0.649700  0.506875  0.112209  1
  O  O28  1  0.143811  0.357638  0.453602  1
  O  O29  1  0.454519  0.203801  0.772287  1
  O  O30  1  0.013898  0.281265  0.230490  1
  O  O31  1  0.531810  0.152765  0.569058  1
  O  O32  1  0.543432  0.205439  0.272754  1
  O  O33  1  0.039305  0.058592  0.603563  1
  O  O34  1  0.469090  0.152520  0.069261  1
  O  O35  1  0.960000  0.057895  0.104829  1
