# generated using pymatgen
data_Tb(Y3S4)2
_symmetry_space_group_name_H-M   'P 1'
_cell_length_a   7.82002803
_cell_length_b   7.82009294
_cell_length_c   7.82002803
_cell_angle_alpha   120.00027918
_cell_angle_beta   90.00775159
_cell_angle_gamma   120.00027918
_symmetry_Int_Tables_number   1
_chemical_formula_structural   Tb(Y3S4)2
_chemical_formula_sum   'Tb1 Y6 S8'
_cell_volume   338.12749099
_cell_formula_units_Z   1
loop_
 _symmetry_equiv_pos_site_id
 _symmetry_equiv_pos_as_xyz
  1  'x, y, z'
loop_
 _atom_site_type_symbol
 _atom_site_label
 _atom_site_symmetry_multiplicity
 _atom_site_fract_x
 _atom_site_fract_y
 _atom_site_fract_z
 _atom_site_occupancy
  Tb  Tb0  1  0.249985  0.000000  0.750016  1
  Y  Y1  1  0.249984  0.000001  0.249984  1
  Y  Y2  1  0.249984  0.499966  0.249984  1
  Y  Y3  1  0.750016  0.000000  0.249985  1
  Y  Y4  1  0.250002  0.500001  0.750001  1
  Y  Y5  1  0.750016  0.999999  0.750016  1
  Y  Y6  1  0.750016  0.500033  0.750016  1
  S  S7  1  0.999911  0.000000  0.000089  1
  S  S8  1  0.500088  0.000000  0.499912  1
  S  S9  1  0.999421  0.999009  0.499422  1
  S  S10  1  0.999421  0.499834  0.499422  1
  S  S11  1  0.500471  0.500001  0.499532  1
  S  S12  1  0.999532  0.500001  0.000470  1
  S  S13  1  0.500579  0.500168  0.000579  1
  S  S14  1  0.500579  0.000990  0.000579  1
