# generated using pymatgen
data_La2Er3Co2
_symmetry_space_group_name_H-M   'P 1'
_cell_length_a   8.79236298
_cell_length_b   8.79236265
_cell_length_c   6.88128248
_cell_angle_alpha   84.56346322
_cell_angle_beta   84.56346571
_cell_angle_gamma   42.60669170
_symmetry_Int_Tables_number   1
_chemical_formula_structural   La2Er3Co2
_chemical_formula_sum   'La4 Er6 Co4'
_cell_volume   358.25114056
_cell_formula_units_Z   2
loop_
 _symmetry_equiv_pos_site_id
 _symmetry_equiv_pos_as_xyz
  1  'x, y, z'
loop_
 _atom_site_type_symbol
 _atom_site_label
 _atom_site_symmetry_multiplicity
 _atom_site_fract_x
 _atom_site_fract_y
 _atom_site_fract_z
 _atom_site_occupancy
  La  La0  1  0.017379  0.786523  0.903839  1
  La  La1  1  0.213477  0.982621  0.596161  1
  La  La2  1  0.982621  0.213477  0.096161  1
  La  La3  1  0.786523  0.017379  0.403839  1
  Er  Er4  1  0.360482  0.213106  0.818986  1
  Er  Er5  1  0.786894  0.639518  0.681014  1
  Er  Er6  1  0.639518  0.786894  0.181014  1
  Er  Er7  1  0.213106  0.360482  0.318986  1
  Er  Er8  1  0.569761  0.430239  0.750000  1
  Er  Er9  1  0.430239  0.569761  0.250000  1
  Co  Co10  1  0.174017  0.598463  0.581147  1
  Co  Co11  1  0.401537  0.825983  0.918853  1
  Co  Co12  1  0.825983  0.401537  0.418853  1
  Co  Co13  1  0.598463  0.174017  0.081147  1
