# generated using pymatgen
data_NdLu2Fe2Co7P6
_symmetry_space_group_name_H-M   'P 1'
_cell_length_a   3.69483700
_cell_length_b   10.54739000
_cell_length_c   12.10488300
_cell_angle_alpha   90.00000000
_cell_angle_beta   90.00000000
_cell_angle_gamma   90.00000000
_symmetry_Int_Tables_number   1
_chemical_formula_structural   NdLu2Fe2Co7P6
_chemical_formula_sum   'Nd2 Lu4 Fe4 Co14 P12'
_cell_volume   471.73802543
_cell_formula_units_Z   2
loop_
 _symmetry_equiv_pos_site_id
 _symmetry_equiv_pos_as_xyz
  1  'x, y, z'
loop_
 _atom_site_type_symbol
 _atom_site_label
 _atom_site_symmetry_multiplicity
 _atom_site_fract_x
 _atom_site_fract_y
 _atom_site_fract_z
 _atom_site_occupancy
  Nd  Nd0  1  0.000000  0.500000  0.523637  1
  Nd  Nd1  1  0.500000  0.000000  0.476363  1
  Lu  Lu2  1  0.500000  0.819509  0.203082  1
  Lu  Lu3  1  0.500000  0.180491  0.203082  1
  Lu  Lu4  1  0.000000  0.680491  0.796918  1
  Lu  Lu5  1  0.000000  0.319509  0.796918  1
  Fe  Fe6  1  0.500000  0.500000  0.154189  1
  Fe  Fe7  1  0.000000  0.000000  0.845811  1
  Fe  Fe8  1  0.000000  0.500000  0.988555  1
  Fe  Fe9  1  0.500000  0.000000  0.011445  1
  Co  Co10  1  0.500000  0.500000  0.706339  1
  Co  Co11  1  0.000000  0.000000  0.293661  1
  Co  Co12  1  0.500000  0.331434  0.994610  1
  Co  Co13  1  0.500000  0.668566  0.994610  1
  Co  Co14  1  0.000000  0.168566  0.005390  1
  Co  Co15  1  0.000000  0.831434  0.005390  1
  Co  Co16  1  0.500000  0.295863  0.428629  1
  Co  Co17  1  0.500000  0.704137  0.428629  1
  Co  Co18  1  0.000000  0.204137  0.571371  1
  Co  Co19  1  0.000000  0.795863  0.571371  1
  Co  Co20  1  0.500000  0.878358  0.712549  1
  Co  Co21  1  0.500000  0.121642  0.712549  1
  Co  Co22  1  0.000000  0.621642  0.287451  1
  Co  Co23  1  0.000000  0.378358  0.287451  1
  P  P24  1  0.500000  0.500000  0.885137  1
  P  P25  1  0.000000  0.000000  0.114863  1
  P  P26  1  0.500000  0.500000  0.338360  1
  P  P27  1  0.000000  0.000000  0.661640  1
  P  P28  1  0.500000  0.307969  0.619701  1
  P  P29  1  0.500000  0.692031  0.619701  1
  P  P30  1  0.000000  0.192031  0.380299  1
  P  P31  1  0.000000  0.807969  0.380299  1
  P  P32  1  0.500000  0.846337  0.893616  1
  P  P33  1  0.500000  0.153663  0.893616  1
  P  P34  1  0.000000  0.653663  0.106384  1
  P  P35  1  0.000000  0.346337  0.106384  1
