# generated using pymatgen
data_Zr6ReSi12Rh5
_symmetry_space_group_name_H-M   'P 1'
_cell_length_a   10.03122673
_cell_length_b   10.00157895
_cell_length_c   9.99272583
_cell_angle_alpha   148.36586189
_cell_angle_beta   133.78435614
_cell_angle_gamma   57.23037598
_symmetry_Int_Tables_number   1
_chemical_formula_structural   Zr6ReSi12Rh5
_chemical_formula_sum   'Zr6 Re1 Si12 Rh5'
_cell_volume   376.57768491
_cell_formula_units_Z   1
loop_
 _symmetry_equiv_pos_site_id
 _symmetry_equiv_pos_as_xyz
  1  'x, y, z'
loop_
 _atom_site_type_symbol
 _atom_site_label
 _atom_site_symmetry_multiplicity
 _atom_site_fract_x
 _atom_site_fract_y
 _atom_site_fract_z
 _atom_site_occupancy
  Zr  Zr0  1  0.347911  0.095079  0.254584  1
  Zr  Zr1  1  0.652089  0.904921  0.745416  1
  Zr  Zr2  1  0.160969  0.905139  0.252947  1
  Zr  Zr3  1  0.839031  0.094861  0.747053  1
  Zr  Zr4  1  0.636813  0.638763  0.997368  1
  Zr  Zr5  1  0.363187  0.361237  0.002632  1
  Re  Re6  1  0.500000  0.500000  0.500000  1
  Si  Si7  1  0.999566  0.779621  0.780390  1
  Si  Si8  1  0.000434  0.220379  0.219610  1
  Si  Si9  1  0.500540  0.227582  0.727075  1
  Si  Si10  1  0.499460  0.772418  0.272925  1
  Si  Si11  1  0.201223  0.207480  0.005300  1
  Si  Si12  1  0.798777  0.792520  0.994700  1
  Si  Si13  1  0.294628  0.792862  0.499277  1
  Si  Si14  1  0.705372  0.207138  0.500723  1
  Si  Si15  1  0.716462  0.362161  0.355104  1
  Si  Si16  1  0.283538  0.637839  0.644896  1
  Si  Si17  1  0.986280  0.637411  0.351856  1
  Si  Si18  1  0.013720  0.362589  0.648144  1
  Rh  Rh19  1  0.500000  0.000000  0.000000  1
  Rh  Rh20  1  0.000000  0.000000  0.500000  1
  Rh  Rh21  1  0.000000  0.500000  0.000000  1
  Rh  Rh22  1  0.246230  0.499759  0.742468  1
  Rh  Rh23  1  0.753770  0.500241  0.257532  1
