# generated using pymatgen
data_Yb3Si2IrPd
_symmetry_space_group_name_H-M   'P 1'
_cell_length_a   5.66493768
_cell_length_b   7.75696007
_cell_length_c   13.31816445
_cell_angle_alpha   89.97659006
_cell_angle_beta   89.74923502
_cell_angle_gamma   90.51639483
_symmetry_Int_Tables_number   1
_chemical_formula_structural   Yb3Si2IrPd
_chemical_formula_sum   'Yb12 Si8 Ir4 Pd4'
_cell_volume   585.20661047
_cell_formula_units_Z   4
loop_
 _symmetry_equiv_pos_site_id
 _symmetry_equiv_pos_as_xyz
  1  'x, y, z'
loop_
 _atom_site_type_symbol
 _atom_site_label
 _atom_site_symmetry_multiplicity
 _atom_site_fract_x
 _atom_site_fract_y
 _atom_site_fract_z
 _atom_site_occupancy
  Yb  Yb0  1  0.645393  0.241309  0.251073  1
  Yb  Yb1  1  0.350586  0.761501  0.748387  1
  Yb  Yb2  1  0.355343  0.742570  0.248916  1
  Yb  Yb3  1  0.640280  0.254864  0.751370  1
  Yb  Yb4  1  0.135652  0.388390  0.099310  1
  Yb  Yb5  1  0.860282  0.614529  0.899655  1
  Yb  Yb6  1  0.865621  0.613271  0.598560  1
  Yb  Yb7  1  0.865526  0.888770  0.400989  1
  Yb  Yb8  1  0.141452  0.394749  0.398844  1
  Yb  Yb9  1  0.142105  0.103122  0.601693  1
  Yb  Yb10  1  0.138272  0.102341  0.900199  1
  Yb  Yb11  1  0.857483  0.894512  0.100307  1
  Si  Si12  1  0.153696  0.096005  0.247526  1
  Si  Si13  1  0.835036  0.907716  0.748072  1
  Si  Si14  1  0.842734  0.593987  0.252744  1
  Si  Si15  1  0.147580  0.403102  0.751832  1
  Si  Si16  1  0.619571  0.237457  0.998417  1
  Si  Si17  1  0.377477  0.762216  0.002033  1
  Si  Si18  1  0.396421  0.748686  0.500240  1
  Si  Si19  1  0.631781  0.251055  0.499755  1
  Ir  Ir20  1  0.371348  0.036555  0.093302  1
  Ir  Ir21  1  0.627125  0.962816  0.906462  1
  Ir  Ir22  1  0.630396  0.972622  0.588027  1
  Ir  Ir23  1  0.628032  0.528127  0.411050  1
  Pd  Pd24  1  0.369291  0.035226  0.406853  1
  Pd  Pd25  1  0.371840  0.463788  0.594219  1
  Pd  Pd26  1  0.371254  0.471899  0.910308  1
  Pd  Pd27  1  0.628424  0.528816  0.089860  1
