# generated using pymatgen
data_Tb9Zr3Ga20
_symmetry_space_group_name_H-M   'P 1'
_cell_length_a   6.06374769
_cell_length_b   9.54830200
_cell_length_c   11.36668030
_cell_angle_alpha   90.00000000
_cell_angle_beta   90.05478406
_cell_angle_gamma   90.00000000
_symmetry_Int_Tables_number   1
_chemical_formula_structural   Tb9Zr3Ga20
_chemical_formula_sum   'Tb9 Zr3 Ga20'
_cell_volume   658.11337280
_cell_formula_units_Z   1
loop_
 _symmetry_equiv_pos_site_id
 _symmetry_equiv_pos_as_xyz
  1  'x, y, z'
loop_
 _atom_site_type_symbol
 _atom_site_label
 _atom_site_symmetry_multiplicity
 _atom_site_fract_x
 _atom_site_fract_y
 _atom_site_fract_z
 _atom_site_occupancy
  Tb  Tb0  1  0.349018  0.250000  0.424051  1
  Tb  Tb1  1  0.887674  0.511178  0.352576  1
  Tb  Tb2  1  0.612884  0.987948  0.853756  1
  Tb  Tb3  1  0.111092  0.010101  0.648579  1
  Tb  Tb4  1  0.388987  0.489107  0.146824  1
  Tb  Tb5  1  0.111092  0.489899  0.648579  1
  Tb  Tb6  1  0.388987  0.010893  0.146824  1
  Tb  Tb7  1  0.887674  0.988822  0.352576  1
  Tb  Tb8  1  0.612884  0.512052  0.853756  1
  Zr  Zr9  1  0.857233  0.750000  0.075602  1
  Zr  Zr10  1  0.643059  0.750000  0.577499  1
  Zr  Zr11  1  0.144775  0.250000  0.924187  1
  Ga  Ga12  1  0.874807  0.049850  0.087181  1
  Ga  Ga13  1  0.624761  0.451415  0.591200  1
  Ga  Ga14  1  0.124822  0.551758  0.912102  1
  Ga  Ga15  1  0.376324  0.940959  0.411020  1
  Ga  Ga16  1  0.124822  0.948242  0.912102  1
  Ga  Ga17  1  0.376324  0.559041  0.411020  1
  Ga  Ga18  1  0.874807  0.450150  0.087181  1
  Ga  Ga19  1  0.624761  0.048585  0.591200  1
  Ga  Ga20  1  0.167889  0.750000  0.249867  1
  Ga  Ga21  1  0.332056  0.750000  0.750868  1
  Ga  Ga22  1  0.832988  0.250000  0.750940  1
  Ga  Ga23  1  0.677335  0.250000  0.246499  1
  Ga  Ga24  1  0.380226  0.750000  0.004550  1
  Ga  Ga25  1  0.115147  0.750000  0.506176  1
  Ga  Ga26  1  0.621781  0.250000  0.993248  1
  Ga  Ga27  1  0.869915  0.250000  0.498371  1
  Ga  Ga28  1  0.603236  0.750000  0.292423  1
  Ga  Ga29  1  0.899855  0.750000  0.795307  1
  Ga  Ga30  1  0.401852  0.250000  0.709119  1
  Ga  Ga31  1  0.100933  0.250000  0.194819  1
