# generated using pymatgen
data_CsTe12Rh2I5
_symmetry_space_group_name_H-M   'P 1'
_cell_length_a   10.74880921
_cell_length_b   10.74880911
_cell_length_c   10.21970960
_cell_angle_alpha   108.95528992
_cell_angle_beta   108.95529034
_cell_angle_gamma   113.77866148
_symmetry_Int_Tables_number   1
_chemical_formula_structural   CsTe12Rh2I5
_chemical_formula_sum   'Cs1 Te12 Rh2 I5'
_cell_volume   868.72394061
_cell_formula_units_Z   1
loop_
 _symmetry_equiv_pos_site_id
 _symmetry_equiv_pos_as_xyz
  1  'x, y, z'
loop_
 _atom_site_type_symbol
 _atom_site_label
 _atom_site_symmetry_multiplicity
 _atom_site_fract_x
 _atom_site_fract_y
 _atom_site_fract_z
 _atom_site_occupancy
  Cs  Cs0  1  0.934987  0.565013  0.250000  1
  Te  Te1  1  0.985090  0.192577  0.197556  1
  Te  Te2  1  0.169146  0.937045  0.155193  1
  Te  Te3  1  0.172312  0.173698  0.943700  1
  Te  Te4  1  0.681254  0.668987  0.444081  1
  Te  Te5  1  0.443920  0.658792  0.656401  1
  Te  Te6  1  0.664558  0.456367  0.687432  1
  Te  Te7  1  0.043633  0.835442  0.812568  1
  Te  Te8  1  0.841208  0.056080  0.843599  1
  Te  Te9  1  0.831013  0.818746  0.055919  1
  Te  Te10  1  0.326302  0.327688  0.556300  1
  Te  Te11  1  0.562955  0.330854  0.344807  1
  Te  Te12  1  0.307423  0.514910  0.302444  1
  Rh  Rh13  1  0.261412  0.238588  0.250000  1
  Rh  Rh14  1  0.749647  0.750353  0.750000  1
  I  I15  1  0.264880  0.999689  0.512658  1
  I  I16  1  0.500311  0.235120  0.987342  1
  I  I17  1  0.772256  0.004757  0.502672  1
  I  I18  1  0.495243  0.727744  0.997328  1
  I  I19  1  0.992452  0.507548  0.750000  1
