# generated using pymatgen
data_PrEu2(AgSn)4
_symmetry_space_group_name_H-M   'P 1'
_cell_length_a   8.97918871
_cell_length_b   8.97918843
_cell_length_c   8.97918933
_cell_angle_alpha   149.01850600
_cell_angle_beta   130.27974916
_cell_angle_gamma   59.74470569
_symmetry_Int_Tables_number   1
_chemical_formula_structural   PrEu2(AgSn)4
_chemical_formula_sum   'Pr1 Eu2 Ag4 Sn4'
_cell_volume   281.95011216
_cell_formula_units_Z   1
loop_
 _symmetry_equiv_pos_site_id
 _symmetry_equiv_pos_as_xyz
  1  'x, y, z'
loop_
 _atom_site_type_symbol
 _atom_site_label
 _atom_site_symmetry_multiplicity
 _atom_site_fract_x
 _atom_site_fract_y
 _atom_site_fract_z
 _atom_site_occupancy
  Pr  Pr0  1  0.128622  0.128622  0.000000  1
  Eu  Eu1  1  0.498818  0.998818  0.500000  1
  Eu  Eu2  1  0.871455  0.871455  0.000000  1
  Ag  Ag3  1  0.478008  0.671594  0.806415  1
  Ag  Ag4  1  0.865178  0.671594  0.193585  1
  Ag  Ag5  1  0.135811  0.329108  0.806703  1
  Ag  Ag6  1  0.522406  0.329108  0.193297  1
  Sn  Sn7  1  0.282439  0.782439  0.500000  1
  Sn  Sn8  1  0.715066  0.215066  0.500000  1
  Sn  Sn9  1  0.809206  0.501099  0.308107  1
  Sn  Sn10  1  0.192991  0.501099  0.691893  1
