# generated using pymatgen
data_DyHo5TcSb2
_symmetry_space_group_name_H-M   'P 1'
_cell_length_a   8.16968000
_cell_length_b   8.16959340
_cell_length_c   4.24043000
_cell_angle_alpha   90.00000000
_cell_angle_beta   90.00000000
_cell_angle_gamma   120.00034256
_symmetry_Int_Tables_number   1
_chemical_formula_structural   DyHo5TcSb2
_chemical_formula_sum   'Dy1 Ho5 Tc1 Sb2'
_cell_volume   245.10068164
_cell_formula_units_Z   1
loop_
 _symmetry_equiv_pos_site_id
 _symmetry_equiv_pos_as_xyz
  1  'x, y, z'
loop_
 _atom_site_type_symbol
 _atom_site_label
 _atom_site_symmetry_multiplicity
 _atom_site_fract_x
 _atom_site_fract_y
 _atom_site_fract_z
 _atom_site_occupancy
  Dy  Dy0  1  0.602049  0.000000  0.500000  1
  Ho  Ho1  1  0.236380  0.000000  0.000000  1
  Ho  Ho2  1  0.763673  0.763504  0.000000  1
  Ho  Ho3  1  0.000169  0.236496  0.000000  1
  Ho  Ho4  1  0.397599  0.397599  0.500000  1
  Ho  Ho5  1  0.000000  0.602401  0.500000  1
  Tc  Tc6  1  0.000301  0.000000  0.500000  1
  Sb  Sb7  1  0.333115  0.666401  0.000000  1
  Sb  Sb8  1  0.666714  0.333599  0.000000  1
