# generated using pymatgen
data_Sc3Zn3AgGe2
_symmetry_space_group_name_H-M   'P 1'
_cell_length_a   6.60771700
_cell_length_b   6.60771830
_cell_length_c   4.13520600
_cell_angle_alpha   90.00000000
_cell_angle_beta   90.00000000
_cell_angle_gamma   119.99999848
_symmetry_Int_Tables_number   1
_chemical_formula_structural   Sc3Zn3AgGe2
_chemical_formula_sum   'Sc3 Zn3 Ag1 Ge2'
_cell_volume   156.36182914
_cell_formula_units_Z   1
loop_
 _symmetry_equiv_pos_site_id
 _symmetry_equiv_pos_as_xyz
  1  'x, y, z'
loop_
 _atom_site_type_symbol
 _atom_site_label
 _atom_site_symmetry_multiplicity
 _atom_site_fract_x
 _atom_site_fract_y
 _atom_site_fract_z
 _atom_site_occupancy
  Sc  Sc0  1  0.569027  0.000000  0.000000  1
  Sc  Sc1  1  0.000000  0.569027  0.000000  1
  Sc  Sc2  1  0.430973  0.430973  0.000000  1
  Zn  Zn3  1  0.245377  0.000000  0.500000  1
  Zn  Zn4  1  0.000000  0.245377  0.500000  1
  Zn  Zn5  1  0.754623  0.754623  0.500000  1
  Ag  Ag6  1  0.000000  0.000000  0.000000  1
  Ge  Ge7  1  0.333333  0.666667  0.500000  1
  Ge  Ge8  1  0.666667  0.333333  0.500000  1
