# generated using pymatgen
data_HoZrSc2(SiMo)4
_symmetry_space_group_name_H-M   'P 1'
_cell_length_a   3.57723300
_cell_length_b   7.09712709
_cell_length_c   8.28692413
_cell_angle_alpha   90.20062437
_cell_angle_beta   90.00000000
_cell_angle_gamma   90.00000000
_symmetry_Int_Tables_number   1
_chemical_formula_structural   HoZrSc2(SiMo)4
_chemical_formula_sum   'Ho1 Zr1 Sc2 Si4 Mo4'
_cell_volume   210.38778019
_cell_formula_units_Z   1
loop_
 _symmetry_equiv_pos_site_id
 _symmetry_equiv_pos_as_xyz
  1  'x, y, z'
loop_
 _atom_site_type_symbol
 _atom_site_label
 _atom_site_symmetry_multiplicity
 _atom_site_fract_x
 _atom_site_fract_y
 _atom_site_fract_z
 _atom_site_occupancy
  Ho  Ho0  1  0.750000  0.956315  0.664418  1
  Zr  Zr1  1  0.750000  0.456389  0.834833  1
  Sc  Sc2  1  0.250000  0.043842  0.330090  1
  Sc  Sc3  1  0.250000  0.541689  0.165579  1
  Si  Si4  1  0.250000  0.264361  0.637120  1
  Si  Si5  1  0.250000  0.753561  0.869227  1
  Si  Si6  1  0.750000  0.739782  0.358261  1
  Si  Si7  1  0.750000  0.242959  0.138496  1
  Mo  Mo8  1  0.250000  0.129615  0.943211  1
  Mo  Mo9  1  0.250000  0.624198  0.556571  1
  Mo  Mo10  1  0.750000  0.873104  0.061343  1
  Mo  Mo11  1  0.750000  0.374185  0.440850  1
