# generated using pymatgen
data_Mn21TcWC6
_symmetry_space_group_name_H-M   'P 1'
_cell_length_a   7.40305725
_cell_length_b   7.40305683
_cell_length_c   7.40305700
_cell_angle_alpha   60.00000373
_cell_angle_beta   60.00000557
_cell_angle_gamma   60.00000703
_symmetry_Int_Tables_number   1
_chemical_formula_structural   Mn21TcWC6
_chemical_formula_sum   'Mn21 Tc1 W1 C6'
_cell_volume   286.89193532
_cell_formula_units_Z   1
loop_
 _symmetry_equiv_pos_site_id
 _symmetry_equiv_pos_as_xyz
  1  'x, y, z'
loop_
 _atom_site_type_symbol
 _atom_site_label
 _atom_site_symmetry_multiplicity
 _atom_site_fract_x
 _atom_site_fract_y
 _atom_site_fract_z
 _atom_site_occupancy
  Mn  Mn0  1  0.000000  0.000000  0.000000  1
  Mn  Mn1  1  0.381885  0.381885  0.381885  1
  Mn  Mn2  1  0.156201  0.614599  0.614599  1
  Mn  Mn3  1  0.614599  0.156201  0.614599  1
  Mn  Mn4  1  0.614599  0.614599  0.156201  1
  Mn  Mn5  1  0.381885  0.854347  0.381885  1
  Mn  Mn6  1  0.381885  0.381885  0.854347  1
  Mn  Mn7  1  0.854347  0.381885  0.381885  1
  Mn  Mn8  1  0.614599  0.614599  0.614599  1
  Mn  Mn9  1  0.000061  0.333596  0.000061  1
  Mn  Mn10  1  0.333596  0.000061  0.000061  1
  Mn  Mn11  1  0.000061  0.333596  0.666282  1
  Mn  Mn12  1  0.666282  0.000061  0.333596  1
  Mn  Mn13  1  0.333596  0.000061  0.666282  1
  Mn  Mn14  1  0.000061  0.000061  0.333596  1
  Mn  Mn15  1  0.666282  0.333596  0.000061  1
  Mn  Mn16  1  0.000061  0.666282  0.333596  1
  Mn  Mn17  1  0.000061  0.000061  0.666282  1
  Mn  Mn18  1  0.333596  0.666282  0.000061  1
  Mn  Mn19  1  0.666282  0.000061  0.000061  1
  Mn  Mn20  1  0.000061  0.666282  0.000061  1
  Tc  Tc21  1  0.250000  0.250000  0.250000  1
  W  W22  1  0.750000  0.750000  0.750000  1
  C  C23  1  0.274709  0.725291  0.274709  1
  C  C24  1  0.274709  0.725291  0.725291  1
  C  C25  1  0.725291  0.274709  0.274709  1
  C  C26  1  0.725291  0.725291  0.274709  1
  C  C27  1  0.274709  0.274709  0.725291  1
  C  C28  1  0.725291  0.274709  0.725291  1
