# generated using pymatgen
data_Er2Al9PdRuPt
_symmetry_space_group_name_H-M   'P 1'
_cell_length_a   7.57800384
_cell_length_b   7.57800391
_cell_length_c   9.45546830
_cell_angle_alpha   90.01457808
_cell_angle_beta   90.01457407
_cell_angle_gamma   119.40998682
_symmetry_Int_Tables_number   1
_chemical_formula_structural   Er2Al9PdRuPt
_chemical_formula_sum   'Er4 Al18 Pd2 Ru2 Pt2'
_cell_volume   473.01479311
_cell_formula_units_Z   2
loop_
 _symmetry_equiv_pos_site_id
 _symmetry_equiv_pos_as_xyz
  1  'x, y, z'
loop_
 _atom_site_type_symbol
 _atom_site_label
 _atom_site_symmetry_multiplicity
 _atom_site_fract_x
 _atom_site_fract_y
 _atom_site_fract_z
 _atom_site_occupancy
  Er  Er0  1  0.995153  0.671258  0.249793  1
  Er  Er1  1  0.004847  0.328742  0.750207  1
  Er  Er2  1  0.671258  0.995153  0.249793  1
  Er  Er3  1  0.328742  0.004847  0.750207  1
  Al  Al4  1  0.124184  0.124184  0.250060  1
  Al  Al5  1  0.875816  0.875816  0.749940  1
  Al  Al6  1  0.000063  0.330100  0.076588  1
  Al  Al7  1  0.999937  0.669900  0.923412  1
  Al  Al8  1  0.999833  0.669998  0.576954  1
  Al  Al9  1  0.330002  0.000167  0.423046  1
  Al  Al10  1  0.000167  0.330002  0.423046  1
  Al  Al11  1  0.669998  0.999833  0.576954  1
  Al  Al12  1  0.669900  0.999937  0.923412  1
  Al  Al13  1  0.330100  0.000063  0.076588  1
  Al  Al14  1  0.327544  0.327544  0.555353  1
  Al  Al15  1  0.672456  0.672456  0.444647  1
  Al  Al16  1  0.672639  0.672639  0.054981  1
  Al  Al17  1  0.327361  0.327361  0.945019  1
  Al  Al18  1  0.341885  0.547484  0.250135  1
  Al  Al19  1  0.658115  0.452516  0.749865  1
  Al  Al20  1  0.547484  0.341885  0.250135  1
  Al  Al21  1  0.452516  0.658115  0.749865  1
  Pd  Pd22  1  0.327627  0.672373  0.500000  1
  Pd  Pd23  1  0.672373  0.327627  0.500000  1
  Ru  Ru24  1  0.000000  0.000000  0.000000  1
  Ru  Ru25  1  0.000000  0.000000  0.500000  1
  Pt  Pt26  1  0.672420  0.327580  0.000000  1
  Pt  Pt27  1  0.327580  0.672420  0.000000  1
