# generated using pymatgen
data_V12Fe5Si7CN3
_symmetry_space_group_name_H-M   'P 1'
_cell_length_a   7.57463543
_cell_length_b   7.57463482
_cell_length_c   7.57686504
_cell_angle_alpha   60.36082105
_cell_angle_beta   60.36081349
_cell_angle_gamma   60.35150220
_symmetry_Int_Tables_number   1
_chemical_formula_structural   V12Fe5Si7CN3
_chemical_formula_sum   'V12 Fe5 Si7 C1 N3'
_cell_volume   309.88320248
_cell_formula_units_Z   1
loop_
 _symmetry_equiv_pos_site_id
 _symmetry_equiv_pos_as_xyz
  1  'x, y, z'
loop_
 _atom_site_type_symbol
 _atom_site_label
 _atom_site_symmetry_multiplicity
 _atom_site_fract_x
 _atom_site_fract_y
 _atom_site_fract_z
 _atom_site_occupancy
  V  V0  1  0.810105  0.810105  0.189258  1
  V  V1  1  0.190938  0.190938  0.807197  1
  V  V2  1  0.810183  0.189264  0.810236  1
  V  V3  1  0.191219  0.807047  0.190904  1
  V  V4  1  0.189264  0.810183  0.810236  1
  V  V5  1  0.807047  0.191219  0.190904  1
  V  V6  1  0.439159  0.439159  0.060384  1
  V  V7  1  0.057981  0.057981  0.443904  1
  V  V8  1  0.439105  0.060406  0.438987  1
  V  V9  1  0.057770  0.444064  0.057938  1
  V  V10  1  0.060406  0.439105  0.438987  1
  V  V11  1  0.444064  0.057770  0.057938  1
  Fe  Fe12  1  0.130069  0.621819  0.621754  1
  Fe  Fe13  1  0.621819  0.130069  0.621754  1
  Fe  Fe14  1  0.621622  0.621622  0.130277  1
  Fe  Fe15  1  0.624326  0.624326  0.624333  1
  Fe  Fe16  1  0.836845  0.836845  0.837022  1
  Si  Si17  1  0.757851  0.413231  0.413221  1
  Si  Si18  1  0.413231  0.757851  0.413221  1
  Si  Si19  1  0.413206  0.413206  0.757871  1
  Si  Si20  1  0.413632  0.413632  0.413731  1
  Si  Si21  1  0.498713  0.836641  0.836654  1
  Si  Si22  1  0.836641  0.498713  0.836654  1
  Si  Si23  1  0.836665  0.836665  0.498601  1
  C  C24  1  0.124864  0.124864  0.124842  1
  N  N25  1  0.626431  0.123428  0.123392  1
  N  N26  1  0.123428  0.626431  0.123392  1
  N  N27  1  0.123417  0.123417  0.626409  1
