# generated using pymatgen
data_NaTm5(Si3Ru)8
_symmetry_space_group_name_H-M   'P 1'
_cell_length_a   10.11380913
_cell_length_b   10.11380877
_cell_length_c   8.11027574
_cell_angle_alpha   90.09740066
_cell_angle_beta   89.90259710
_cell_angle_gamma   132.71855751
_symmetry_Int_Tables_number   1
_chemical_formula_structural   NaTm5(Si3Ru)8
_chemical_formula_sum   'Na1 Tm5 Si24 Ru8'
_cell_volume   609.49674839
_cell_formula_units_Z   1
loop_
 _symmetry_equiv_pos_site_id
 _symmetry_equiv_pos_as_xyz
  1  'x, y, z'
loop_
 _atom_site_type_symbol
 _atom_site_label
 _atom_site_symmetry_multiplicity
 _atom_site_fract_x
 _atom_site_fract_y
 _atom_site_fract_z
 _atom_site_occupancy
  Na  Na0  1  0.001298  0.501298  0.750000  1
  Tm  Tm1  1  0.500951  0.500628  0.500137  1
  Tm  Tm2  1  0.000628  0.000951  0.999863  1
  Tm  Tm3  1  0.503538  0.003538  0.750000  1
  Tm  Tm4  1  0.996378  0.496378  0.250000  1
  Tm  Tm5  1  0.500354  0.000354  0.250000  1
  Si  Si6  1  0.798027  0.210436  0.504419  1
  Si  Si7  1  0.290877  0.702198  0.996501  1
  Si  Si8  1  0.202198  0.790877  0.503499  1
  Si  Si9  1  0.710436  0.298027  0.995581  1
  Si  Si10  1  0.336707  0.330532  0.832375  1
  Si  Si11  1  0.672761  0.663574  0.166993  1
  Si  Si12  1  0.163574  0.172761  0.333007  1
  Si  Si13  1  0.830532  0.836707  0.667625  1
  Si  Si14  1  0.124493  0.890164  0.729782  1
  Si  Si15  1  0.109315  0.876093  0.273283  1
  Si  Si16  1  0.610972  0.377070  0.225868  1
  Si  Si17  1  0.621676  0.385619  0.770562  1
  Si  Si18  1  0.877070  0.110972  0.274132  1
  Si  Si19  1  0.885619  0.121676  0.729438  1
  Si  Si20  1  0.390164  0.624493  0.770218  1
  Si  Si21  1  0.376093  0.609315  0.226717  1
  Si  Si22  1  0.342427  0.110453  0.506418  1
  Si  Si23  1  0.887609  0.652804  0.493898  1
  Si  Si24  1  0.390102  0.156547  0.003304  1
  Si  Si25  1  0.846603  0.611352  0.996958  1
  Si  Si26  1  0.656547  0.890102  0.496696  1
  Si  Si27  1  0.111352  0.346603  0.503042  1
  Si  Si28  1  0.610453  0.842427  0.993582  1
  Si  Si29  1  0.152804  0.387609  0.006102  1
  Ru  Ru30  1  0.664056  0.326213  0.495166  1
  Ru  Ru31  1  0.173446  0.833292  0.003979  1
  Ru  Ru32  1  0.333292  0.673446  0.496021  1
  Ru  Ru33  1  0.826213  0.164056  0.004834  1
  Ru  Ru34  1  0.126822  0.127257  0.627341  1
  Ru  Ru35  1  0.874415  0.872940  0.373990  1
  Ru  Ru36  1  0.372940  0.374415  0.126010  1
  Ru  Ru37  1  0.627257  0.626822  0.872659  1
