# generated using pymatgen
data_Hf7(NbGa2)3
_symmetry_space_group_name_H-M   'P 1'
_cell_length_a   7.96545900
_cell_length_b   7.96545752
_cell_length_c   5.49797000
_cell_angle_alpha   90.00000000
_cell_angle_beta   90.00000000
_cell_angle_gamma   119.99999370
_symmetry_Int_Tables_number   1
_chemical_formula_structural   Hf7(NbGa2)3
_chemical_formula_sum   'Hf7 Nb3 Ga6'
_cell_volume   302.10266558
_cell_formula_units_Z   1
loop_
 _symmetry_equiv_pos_site_id
 _symmetry_equiv_pos_as_xyz
  1  'x, y, z'
loop_
 _atom_site_type_symbol
 _atom_site_label
 _atom_site_symmetry_multiplicity
 _atom_site_fract_x
 _atom_site_fract_y
 _atom_site_fract_z
 _atom_site_occupancy
  Hf  Hf0  1  0.666667  0.333333  0.000000  1
  Hf  Hf1  1  0.754517  0.755466  0.748427  1
  Hf  Hf2  1  0.244534  0.999051  0.748427  1
  Hf  Hf3  1  0.000949  0.245483  0.748427  1
  Hf  Hf4  1  0.244534  0.245483  0.251573  1
  Hf  Hf5  1  0.754517  0.999051  0.251573  1
  Hf  Hf6  1  0.000949  0.755466  0.251573  1
  Nb  Nb7  1  0.333333  0.666667  0.000000  1
  Nb  Nb8  1  0.333333  0.666667  0.500000  1
  Nb  Nb9  1  0.666667  0.333333  0.500000  1
  Ga  Ga10  1  0.393856  0.395848  0.747984  1
  Ga  Ga11  1  0.604152  0.998008  0.747984  1
  Ga  Ga12  1  0.001992  0.606144  0.747984  1
  Ga  Ga13  1  0.604152  0.606144  0.252016  1
  Ga  Ga14  1  0.393856  0.998008  0.252016  1
  Ga  Ga15  1  0.001992  0.395848  0.252016  1
