# generated using pymatgen
data_SmDyGeBr2
_symmetry_space_group_name_H-M   'P 1'
_cell_length_a   4.19737900
_cell_length_b   4.19738198
_cell_length_c   10.64511200
_cell_angle_alpha   90.00000000
_cell_angle_beta   90.00000000
_cell_angle_gamma   119.99998437
_symmetry_Int_Tables_number   1
_chemical_formula_structural   SmDyGeBr2
_chemical_formula_sum   'Sm1 Dy1 Ge1 Br2'
_cell_volume   162.41929262
_cell_formula_units_Z   1
loop_
 _symmetry_equiv_pos_site_id
 _symmetry_equiv_pos_as_xyz
  1  'x, y, z'
loop_
 _atom_site_type_symbol
 _atom_site_label
 _atom_site_symmetry_multiplicity
 _atom_site_fract_x
 _atom_site_fract_y
 _atom_site_fract_z
 _atom_site_occupancy
  Sm  Sm0  1  0.333333  0.666667  0.349051  1
  Dy  Dy1  1  0.666667  0.333333  0.651771  1
  Ge  Ge2  1  0.000000  0.000000  0.503059  1
  Br  Br3  1  0.333333  0.666667  0.815525  1
  Br  Br4  1  0.666667  0.333333  0.180594  1
