# generated using pymatgen
data_Dy2MnCo2Si5
_symmetry_space_group_name_H-M   'P 1'
_cell_length_a   5.43623157
_cell_length_b   7.98717788
_cell_length_c   7.98717912
_cell_angle_alpha   73.11970074
_cell_angle_beta   70.10424505
_cell_angle_gamma   70.10424373
_symmetry_Int_Tables_number   1
_chemical_formula_structural   Dy2MnCo2Si5
_chemical_formula_sum   'Dy4 Mn2 Co4 Si10'
_cell_volume   300.60539110
_cell_formula_units_Z   2
loop_
 _symmetry_equiv_pos_site_id
 _symmetry_equiv_pos_as_xyz
  1  'x, y, z'
loop_
 _atom_site_type_symbol
 _atom_site_label
 _atom_site_symmetry_multiplicity
 _atom_site_fract_x
 _atom_site_fract_y
 _atom_site_fract_z
 _atom_site_occupancy
  Dy  Dy0  1  0.865045  0.867760  0.402152  1
  Dy  Dy1  1  0.134955  0.132240  0.597848  1
  Dy  Dy2  1  0.365045  0.402152  0.867760  1
  Dy  Dy3  1  0.634955  0.597848  0.132240  1
  Mn  Mn4  1  0.250000  0.000000  0.000000  1
  Mn  Mn5  1  0.750000  0.000000  0.000000  1
  Co  Co6  1  0.640058  0.260735  0.459147  1
  Co  Co7  1  0.359942  0.739265  0.540853  1
  Co  Co8  1  0.140058  0.459147  0.260735  1
  Co  Co9  1  0.859942  0.540853  0.739265  1
  Si  Si10  1  0.250000  0.500000  0.500000  1
  Si  Si11  1  0.750000  0.500000  0.500000  1
  Si  Si12  1  0.030305  0.219695  0.219695  1
  Si  Si13  1  0.469695  0.780305  0.780305  1
  Si  Si14  1  0.969695  0.780305  0.780305  1
  Si  Si15  1  0.530305  0.219695  0.219695  1
  Si  Si16  1  0.599932  0.067270  0.732867  1
  Si  Si17  1  0.400068  0.932730  0.267133  1
  Si  Si18  1  0.099932  0.732867  0.067270  1
  Si  Si19  1  0.900068  0.267133  0.932730  1
