# generated using pymatgen
data_La5Pr5(Zn2Ru3)2
_symmetry_space_group_name_H-M   'P 1'
_cell_length_a   8.54013909
_cell_length_b   8.54013903
_cell_length_c   8.62234476
_cell_angle_alpha   109.32420017
_cell_angle_beta   109.46185821
_cell_angle_gamma   109.23936515
_symmetry_Int_Tables_number   1
_chemical_formula_structural   La5Pr5(Zn2Ru3)2
_chemical_formula_sum   'La5 Pr5 Zn4 Ru6'
_cell_volume   486.40236804
_cell_formula_units_Z   1
loop_
 _symmetry_equiv_pos_site_id
 _symmetry_equiv_pos_as_xyz
  1  'x, y, z'
loop_
 _atom_site_type_symbol
 _atom_site_label
 _atom_site_symmetry_multiplicity
 _atom_site_fract_x
 _atom_site_fract_y
 _atom_site_fract_z
 _atom_site_occupancy
  La  La0  1  0.251106  0.691260  0.440327  1
  La  La1  1  0.750933  0.810779  0.059673  1
  La  La2  1  0.441488  0.249981  0.688986  1
  La  La3  1  0.689701  0.439701  0.250000  1
  La  La4  1  0.060997  0.752502  0.811014  1
  Pr  Pr5  1  0.815159  0.065159  0.750000  1
  Pr  Pr6  1  0.219037  0.221182  0.220733  1
  Pr  Pr7  1  0.500449  0.998303  0.279267  1
  Pr  Pr8  1  0.279488  0.499172  0.997988  1
  Pr  Pr9  1  0.001183  0.281500  0.502012  1
  Zn  Zn10  1  0.586168  0.586140  0.584609  1
  Zn  Zn11  1  0.501531  0.001560  0.915391  1
  Zn  Zn12  1  0.916972  0.498837  0.000842  1
  Zn  Zn13  1  0.997995  0.916130  0.499158  1
  Ru  Ru14  1  0.243655  0.118607  0.869023  1
  Ru  Ru15  1  0.749583  0.374631  0.630977  1
  Ru  Ru16  1  0.871138  0.255242  0.132696  1
  Ru  Ru17  1  0.121918  0.871917  0.250000  1
  Ru  Ru18  1  0.622545  0.738443  0.367304  1
  Ru  Ru19  1  0.378954  0.628954  0.750000  1
