# generated using pymatgen
data_TbCeRh6C
_symmetry_space_group_name_H-M   'P 1'
_cell_length_a   5.82998815
_cell_length_b   5.82998698
_cell_length_c   5.82999600
_cell_angle_alpha   59.99994225
_cell_angle_beta   59.99992446
_cell_angle_gamma   60.00009465
_symmetry_Int_Tables_number   1
_chemical_formula_structural   TbCeRh6C
_chemical_formula_sum   'Tb1 Ce1 Rh6 C1'
_cell_volume   140.11621236
_cell_formula_units_Z   1
loop_
 _symmetry_equiv_pos_site_id
 _symmetry_equiv_pos_as_xyz
  1  'x, y, z'
loop_
 _atom_site_type_symbol
 _atom_site_label
 _atom_site_symmetry_multiplicity
 _atom_site_fract_x
 _atom_site_fract_y
 _atom_site_fract_z
 _atom_site_occupancy
  Tb  Tb0  1  0.750000  0.750000  0.750000  1
  Ce  Ce1  1  0.250000  0.250000  0.250000  1
  Rh  Rh2  1  0.746872  0.253129  0.253129  1
  Rh  Rh3  1  0.253129  0.746872  0.253129  1
  Rh  Rh4  1  0.746866  0.746867  0.253134  1
  Rh  Rh5  1  0.253133  0.253133  0.746867  1
  Rh  Rh6  1  0.746871  0.253130  0.746871  1
  Rh  Rh7  1  0.253129  0.746871  0.746872  1
  C  C8  1  0.000000  0.000000  0.000000  1
