# generated using pymatgen
data_Co3Si3(NiMo2)2
_symmetry_space_group_name_H-M   'P 1'
_cell_length_a   4.75764559
_cell_length_b   4.75764566
_cell_length_c   7.55285700
_cell_angle_alpha   90.00000000
_cell_angle_beta   90.00000000
_cell_angle_gamma   120.10428983
_symmetry_Int_Tables_number   1
_chemical_formula_structural   Co3Si3(NiMo2)2
_chemical_formula_sum   'Co3 Si3 Ni2 Mo4'
_cell_volume   147.90018509
_cell_formula_units_Z   1
loop_
 _symmetry_equiv_pos_site_id
 _symmetry_equiv_pos_as_xyz
  1  'x, y, z'
loop_
 _atom_site_type_symbol
 _atom_site_label
 _atom_site_symmetry_multiplicity
 _atom_site_fract_x
 _atom_site_fract_y
 _atom_site_fract_z
 _atom_site_occupancy
  Co  Co0  1  0.822864  0.177136  0.000000  1
  Co  Co1  1  0.338223  0.175780  0.000000  1
  Co  Co2  1  0.824220  0.661777  0.000000  1
  Si  Si3  1  0.990868  0.009132  0.240546  1
  Si  Si4  1  0.990868  0.009132  0.759454  1
  Si  Si5  1  0.187883  0.812117  0.500000  1
  Ni  Ni6  1  0.677717  0.823252  0.500000  1
  Ni  Ni7  1  0.176748  0.322283  0.500000  1
  Mo  Mo8  1  0.328292  0.671708  0.821682  1
  Mo  Mo9  1  0.667025  0.332975  0.689139  1
  Mo  Mo10  1  0.667025  0.332975  0.310861  1
  Mo  Mo11  1  0.328292  0.671708  0.178318  1
