# generated using pymatgen
data_NpClF5
_symmetry_space_group_name_H-M   'P 1'
_cell_length_a   5.95942600
_cell_length_b   9.59101300
_cell_length_c   10.91878700
_cell_angle_alpha   90.00000000
_cell_angle_beta   90.00000000
_cell_angle_gamma   90.00000000
_symmetry_Int_Tables_number   1
_chemical_formula_structural   NpClF5
_chemical_formula_sum   'Np4 Cl4 F20'
_cell_volume   624.08436869
_cell_formula_units_Z   4
loop_
 _symmetry_equiv_pos_site_id
 _symmetry_equiv_pos_as_xyz
  1  'x, y, z'
loop_
 _atom_site_type_symbol
 _atom_site_label
 _atom_site_symmetry_multiplicity
 _atom_site_fract_x
 _atom_site_fract_y
 _atom_site_fract_z
 _atom_site_occupancy
  Np  Np0  1  0.909316  0.750000  0.633692  1
  Np  Np1  1  0.090684  0.250000  0.366308  1
  Np  Np2  1  0.409316  0.250000  0.866308  1
  Np  Np3  1  0.590684  0.750000  0.133692  1
  Cl  Cl4  1  0.242222  0.750000  0.500379  1
  Cl  Cl5  1  0.757778  0.250000  0.499621  1
  Cl  Cl6  1  0.742222  0.250000  0.999621  1
  Cl  Cl7  1  0.257778  0.750000  0.000379  1
  F  F8  1  0.637182  0.750000  0.742087  1
  F  F9  1  0.362818  0.250000  0.257913  1
  F  F10  1  0.137182  0.250000  0.757913  1
  F  F11  1  0.862818  0.750000  0.242087  1
  F  F12  1  0.769612  0.602214  0.527947  1
  F  F13  1  0.230388  0.397786  0.472053  1
  F  F14  1  0.269612  0.397786  0.972053  1
  F  F15  1  0.230388  0.102214  0.472053  1
  F  F16  1  0.730388  0.602214  0.027947  1
  F  F17  1  0.769612  0.897786  0.527947  1
  F  F18  1  0.730388  0.897786  0.027947  1
  F  F19  1  0.269612  0.102214  0.972053  1
  F  F20  1  0.050200  0.601942  0.738694  1
  F  F21  1  0.949800  0.398058  0.261306  1
  F  F22  1  0.550200  0.398058  0.761306  1
  F  F23  1  0.949800  0.101942  0.261306  1
  F  F24  1  0.449800  0.601942  0.238694  1
  F  F25  1  0.050200  0.898058  0.738694  1
  F  F26  1  0.449800  0.898058  0.238694  1
  F  F27  1  0.550200  0.101942  0.761306  1
