# generated using pymatgen
data_Ta2BeNb4Si3
_symmetry_space_group_name_H-M   'P 1'
_cell_length_a   6.69264498
_cell_length_b   6.69264350
_cell_length_c   3.47365100
_cell_angle_alpha   90.00000000
_cell_angle_beta   90.00000000
_cell_angle_gamma   89.59745602
_symmetry_Int_Tables_number   1
_chemical_formula_structural   Ta2BeNb4Si3
_chemical_formula_sum   'Ta2 Be1 Nb4 Si3'
_cell_volume   155.58615341
_cell_formula_units_Z   1
loop_
 _symmetry_equiv_pos_site_id
 _symmetry_equiv_pos_as_xyz
  1  'x, y, z'
loop_
 _atom_site_type_symbol
 _atom_site_label
 _atom_site_symmetry_multiplicity
 _atom_site_fract_x
 _atom_site_fract_y
 _atom_site_fract_z
 _atom_site_occupancy
  Ta  Ta0  1  0.499285  0.495494  0.000000  1
  Ta  Ta1  1  0.004506  0.000715  0.000000  1
  Be  Be2  1  0.376817  0.123183  0.000000  1
  Nb  Nb3  1  0.668301  0.176460  0.500000  1
  Nb  Nb4  1  0.323540  0.831699  0.500000  1
  Nb  Nb5  1  0.179750  0.320250  0.500000  1
  Nb  Nb6  1  0.825346  0.674654  0.500000  1
  Si  Si7  1  0.128443  0.623096  0.000000  1
  Si  Si8  1  0.876904  0.371557  0.000000  1
  Si  Si9  1  0.617109  0.882891  0.000000  1
