# generated using pymatgen
data_Er10Cd3In5Pd4
_symmetry_space_group_name_H-M   'P 1'
_cell_length_a   3.60634400
_cell_length_b   8.03908499
_cell_length_c   18.27474910
_cell_angle_alpha   89.95671599
_cell_angle_beta   90.00000000
_cell_angle_gamma   90.00000000
_symmetry_Int_Tables_number   1
_chemical_formula_structural   Er10Cd3In5Pd4
_chemical_formula_sum   'Er10 Cd3 In5 Pd4'
_cell_volume   529.81600064
_cell_formula_units_Z   1
loop_
 _symmetry_equiv_pos_site_id
 _symmetry_equiv_pos_as_xyz
  1  'x, y, z'
loop_
 _atom_site_type_symbol
 _atom_site_label
 _atom_site_symmetry_multiplicity
 _atom_site_fract_x
 _atom_site_fract_y
 _atom_site_fract_z
 _atom_site_occupancy
  Er  Er0  1  0.000000  0.499415  0.499197  1
  Er  Er1  1  0.000000  0.999802  0.999763  1
  Er  Er2  1  0.000000  0.747550  0.280134  1
  Er  Er3  1  0.000000  0.254126  0.721085  1
  Er  Er4  1  0.000000  0.753081  0.780089  1
  Er  Er5  1  0.000000  0.247062  0.220215  1
  Er  Er6  1  0.000000  0.616778  0.084721  1
  Er  Er7  1  0.000000  0.383734  0.915872  1
  Er  Er8  1  0.000000  0.880782  0.584619  1
  Er  Er9  1  0.000000  0.115603  0.415205  1
  Cd  Cd10  1  0.500000  0.709614  0.931929  1
  Cd  Cd11  1  0.500000  0.290464  0.068121  1
  Cd  Cd12  1  0.500000  0.789975  0.431728  1
  In  In13  1  0.500000  0.207031  0.567901  1
  In  In14  1  0.500000  0.572413  0.647748  1
  In  In15  1  0.500000  0.429895  0.352128  1
  In  In16  1  0.500000  0.929231  0.146994  1
  In  In17  1  0.500000  0.071633  0.852664  1
  Pd  Pd18  1  0.500000  0.528981  0.196483  1
  Pd  Pd19  1  0.500000  0.471513  0.803619  1
  Pd  Pd20  1  0.500000  0.971935  0.696376  1
  Pd  Pd21  1  0.500000  0.029383  0.303412  1
