# generated using pymatgen
data_Zr4GaC3
_symmetry_space_group_name_H-M   'P 1'
_cell_length_a   3.35821600
_cell_length_b   3.35821568
_cell_length_c   25.00516400
_cell_angle_alpha   90.00013649
_cell_angle_beta   89.99990757
_cell_angle_gamma   119.99998607
_symmetry_Int_Tables_number   1
_chemical_formula_structural   Zr4GaC3
_chemical_formula_sum   'Zr8 Ga2 C6'
_cell_volume   244.21796704
_cell_formula_units_Z   2
loop_
 _symmetry_equiv_pos_site_id
 _symmetry_equiv_pos_as_xyz
  1  'x, y, z'
loop_
 _atom_site_type_symbol
 _atom_site_label
 _atom_site_symmetry_multiplicity
 _atom_site_fract_x
 _atom_site_fract_y
 _atom_site_fract_z
 _atom_site_occupancy
  Zr  Zr0  1  0.333334  0.666668  0.052581  1
  Zr  Zr1  1  0.999998  0.999996  0.158137  1
  Zr  Zr2  1  0.999997  0.999992  0.341849  1
  Zr  Zr3  1  0.333336  0.666671  0.447438  1
  Zr  Zr4  1  0.666666  0.333333  0.552536  1
  Zr  Zr5  1  0.000004  0.000008  0.658117  1
  Zr  Zr6  1  0.000002  0.000004  0.841885  1
  Zr  Zr7  1  0.666666  0.333330  0.947491  1
  Ga  Ga8  1  0.333308  0.666619  0.249961  1
  Ga  Ga9  1  0.666691  0.333379  0.749953  1
  C  C10  1  0.000001  0.000000  0.000032  1
  C  C11  1  0.666663  0.333328  0.111291  1
  C  C12  1  0.666665  0.333326  0.388713  1
  C  C13  1  0.000002  0.000002  0.500001  1
  C  C14  1  0.333337  0.666674  0.611264  1
  C  C15  1  0.333337  0.666672  0.888752  1
