# generated using pymatgen
data_Sr(Co2B)6
_symmetry_space_group_name_H-M   'P 1'
_cell_length_a   5.99687051
_cell_length_b   5.99687048
_cell_length_c   5.99687109
_cell_angle_alpha   104.02330500
_cell_angle_beta   104.02330526
_cell_angle_gamma   104.02330469
_symmetry_Int_Tables_number   1
_chemical_formula_structural   Sr(Co2B)6
_chemical_formula_sum   'Sr1 Co12 B6'
_cell_volume   192.33777555
_cell_formula_units_Z   1
loop_
 _symmetry_equiv_pos_site_id
 _symmetry_equiv_pos_as_xyz
  1  'x, y, z'
loop_
 _atom_site_type_symbol
 _atom_site_label
 _atom_site_symmetry_multiplicity
 _atom_site_fract_x
 _atom_site_fract_y
 _atom_site_fract_z
 _atom_site_occupancy
  Sr  Sr0  1  0.000000  0.000000  0.000000  1
  Co  Co1  1  0.500000  0.867025  0.132975  1
  Co  Co2  1  0.867025  0.500000  0.132975  1
  Co  Co3  1  0.500000  0.132975  0.867025  1
  Co  Co4  1  0.461571  0.187782  0.461571  1
  Co  Co5  1  0.812218  0.538429  0.538429  1
  Co  Co6  1  0.187782  0.461571  0.461571  1
  Co  Co7  1  0.538429  0.538429  0.812218  1
  Co  Co8  1  0.132975  0.867025  0.500000  1
  Co  Co9  1  0.867025  0.132975  0.500000  1
  Co  Co10  1  0.538429  0.812218  0.538429  1
  Co  Co11  1  0.132975  0.500000  0.867025  1
  Co  Co12  1  0.461571  0.461571  0.187782  1
  B  B13  1  0.672415  0.231768  0.231768  1
  B  B14  1  0.231768  0.231768  0.672415  1
  B  B15  1  0.231768  0.672415  0.231768  1
  B  B16  1  0.768232  0.768232  0.327585  1
  B  B17  1  0.768232  0.327585  0.768232  1
  B  B18  1  0.327585  0.768232  0.768232  1
