# generated using pymatgen
data_Zr5Hg4IrRh
_symmetry_space_group_name_H-M   'P 1'
_cell_length_a   3.31317700
_cell_length_b   7.70349804
_cell_length_c   17.74984493
_cell_angle_alpha   90.08438092
_cell_angle_beta   90.00000000
_cell_angle_gamma   90.00000000
_symmetry_Int_Tables_number   1
_chemical_formula_structural   Zr5Hg4IrRh
_chemical_formula_sum   'Zr10 Hg8 Ir2 Rh2'
_cell_volume   453.02973306
_cell_formula_units_Z   2
loop_
 _symmetry_equiv_pos_site_id
 _symmetry_equiv_pos_as_xyz
  1  'x, y, z'
loop_
 _atom_site_type_symbol
 _atom_site_label
 _atom_site_symmetry_multiplicity
 _atom_site_fract_x
 _atom_site_fract_y
 _atom_site_fract_z
 _atom_site_occupancy
  Zr  Zr0  1  0.000000  0.134151  0.919229  1
  Zr  Zr1  1  0.000000  0.758056  0.780255  1
  Zr  Zr2  1  0.000000  0.634518  0.580942  1
  Zr  Zr3  1  0.000000  0.260433  0.719488  1
  Zr  Zr4  1  0.000000  0.365482  0.419058  1
  Zr  Zr5  1  0.000000  0.241944  0.219745  1
  Zr  Zr6  1  0.000000  0.000000  0.500000  1
  Zr  Zr7  1  0.000000  0.739567  0.280512  1
  Zr  Zr8  1  0.000000  0.500000  0.000000  1
  Zr  Zr9  1  0.000000  0.865849  0.080771  1
  Hg  Hg10  1  0.500000  0.798368  0.933097  1
  Hg  Hg11  1  0.500000  0.562022  0.147177  1
  Hg  Hg12  1  0.500000  0.437978  0.852823  1
  Hg  Hg13  1  0.500000  0.057788  0.351126  1
  Hg  Hg14  1  0.500000  0.296958  0.565625  1
  Hg  Hg15  1  0.500000  0.942212  0.648874  1
  Hg  Hg16  1  0.500000  0.703042  0.434375  1
  Hg  Hg17  1  0.500000  0.201632  0.066903  1
  Ir  Ir18  1  0.500000  0.545808  0.693857  1
  Ir  Ir19  1  0.500000  0.454192  0.306143  1
  Rh  Rh20  1  0.500000  0.046362  0.806788  1
  Rh  Rh21  1  0.500000  0.953638  0.193212  1
