# generated using pymatgen
data_TbEr11Si11Ni
_symmetry_space_group_name_H-M   'P 1'
_cell_length_a   3.82926800
_cell_length_b   5.65657745
_cell_length_c   23.53655004
_cell_angle_alpha   82.72373453
_cell_angle_beta   90.00000000
_cell_angle_gamma   90.00000000
_symmetry_Int_Tables_number   1
_chemical_formula_structural   TbEr11Si11Ni
_chemical_formula_sum   'Tb1 Er11 Si11 Ni1'
_cell_volume   505.70910239
_cell_formula_units_Z   1
loop_
 _symmetry_equiv_pos_site_id
 _symmetry_equiv_pos_as_xyz
  1  'x, y, z'
loop_
 _atom_site_type_symbol
 _atom_site_label
 _atom_site_symmetry_multiplicity
 _atom_site_fract_x
 _atom_site_fract_y
 _atom_site_fract_z
 _atom_site_occupancy
  Tb  Tb0  1  0.750000  0.170904  0.893360  1
  Er  Er1  1  0.750000  0.358092  0.066383  1
  Er  Er2  1  0.250000  0.662676  0.940420  1
  Er  Er3  1  0.750000  0.522602  0.221215  1
  Er  Er4  1  0.250000  0.468154  0.772799  1
  Er  Er5  1  0.750000  0.168123  0.392870  1
  Er  Er6  1  0.250000  0.824828  0.606208  1
  Er  Er7  1  0.750000  0.350154  0.559097  1
  Er  Er8  1  0.250000  0.642834  0.439506  1
  Er  Er9  1  0.750000  0.993241  0.725884  1
  Er  Er10  1  0.250000  0.996308  0.272746  1
  Er  Er11  1  0.250000  0.837685  0.109049  1
  Si  Si12  1  0.750000  0.875265  0.014333  1
  Si  Si13  1  0.250000  0.150540  0.989814  1
  Si  Si14  1  0.750000  0.054732  0.179439  1
  Si  Si15  1  0.250000  0.956623  0.820138  1
  Si  Si16  1  0.750000  0.705231  0.345290  1
  Si  Si17  1  0.250000  0.285429  0.653206  1
  Si  Si18  1  0.750000  0.859605  0.512050  1
  Si  Si19  1  0.250000  0.133357  0.486716  1
  Si  Si20  1  0.750000  0.532482  0.678879  1
  Si  Si21  1  0.250000  0.461316  0.318686  1
  Si  Si22  1  0.750000  0.681624  0.845442  1
  Ni  Ni23  1  0.250000  0.308199  0.156469  1
