# generated using pymatgen
data_Tb2Lu4Al24Os5Pd3
_symmetry_space_group_name_H-M   'P 1'
_cell_length_a   8.81040792
_cell_length_b   8.83758847
_cell_length_c   9.53091737
_cell_angle_alpha   90.29114301
_cell_angle_beta   89.80648368
_cell_angle_gamma   119.91820786
_symmetry_Int_Tables_number   1
_chemical_formula_structural   Tb2Lu4Al24Os5Pd3
_chemical_formula_sum   'Tb2 Lu4 Al24 Os5 Pd3'
_cell_volume   643.20093451
_cell_formula_units_Z   1
loop_
 _symmetry_equiv_pos_site_id
 _symmetry_equiv_pos_as_xyz
  1  'x, y, z'
loop_
 _atom_site_type_symbol
 _atom_site_label
 _atom_site_symmetry_multiplicity
 _atom_site_fract_x
 _atom_site_fract_y
 _atom_site_fract_z
 _atom_site_occupancy
  Tb  Tb0  1  0.193614  0.811717  0.251320  1
  Tb  Tb1  1  0.806386  0.188283  0.748680  1
  Lu  Lu2  1  0.201490  0.388673  0.252312  1
  Lu  Lu3  1  0.798510  0.611327  0.747688  1
  Lu  Lu4  1  0.608909  0.801858  0.251570  1
  Lu  Lu5  1  0.391091  0.198142  0.748430  1
  Al  Al6  1  0.334645  0.664407  0.030475  1
  Al  Al7  1  0.665355  0.335593  0.969525  1
  Al  Al8  1  0.662674  0.331101  0.527452  1
  Al  Al9  1  0.337326  0.668899  0.472548  1
  Al  Al10  1  0.168209  0.325353  0.577955  1
  Al  Al11  1  0.831791  0.674647  0.422045  1
  Al  Al12  1  0.671094  0.835190  0.575392  1
  Al  Al13  1  0.831562  0.674846  0.077942  1
  Al  Al14  1  0.328906  0.164810  0.424608  1
  Al  Al15  1  0.168438  0.325154  0.922058  1
  Al  Al16  1  0.167508  0.843285  0.579555  1
  Al  Al17  1  0.326285  0.169413  0.079353  1
  Al  Al18  1  0.832492  0.156715  0.420445  1
  Al  Al19  1  0.673715  0.830587  0.920647  1
  Al  Al20  1  0.839607  0.162723  0.082740  1
  Al  Al21  1  0.160393  0.837277  0.917260  1
  Al  Al22  1  0.563304  0.125474  0.252075  1
  Al  Al23  1  0.436696  0.874526  0.747925  1
  Al  Al24  1  0.876268  0.437603  0.250060  1
  Al  Al25  1  0.123732  0.562397  0.749940  1
  Al  Al26  1  0.561977  0.439029  0.249697  1
  Al  Al27  1  0.438023  0.560971  0.750303  1
  Al  Al28  1  0.000065  0.002467  0.250287  1
  Al  Al29  1  0.999935  0.997533  0.749713  1
  Os  Os30  1  0.500000  0.000000  0.500000  1
  Os  Os31  1  0.500000  0.500000  0.000000  1
  Os  Os32  1  0.500000  0.500000  0.500000  1
  Os  Os33  1  0.000000  0.000000  0.000000  1
  Os  Os34  1  0.000000  0.000000  0.500000  1
  Pd  Pd35  1  0.500000  0.000000  0.000000  1
  Pd  Pd36  1  0.000000  0.500000  0.000000  1
  Pd  Pd37  1  0.000000  0.500000  0.500000  1
