# generated using pymatgen
data_Gd2Tm2LuSi4
_symmetry_space_group_name_H-M   'P 1'
_cell_length_a   7.57330900
_cell_length_b   7.57330900
_cell_length_c   13.91798800
_cell_angle_alpha   90.00000000
_cell_angle_beta   90.00000000
_cell_angle_gamma   90.00000000
_symmetry_Int_Tables_number   1
_chemical_formula_structural   Gd2Tm2LuSi4
_chemical_formula_sum   'Gd8 Tm8 Lu4 Si16'
_cell_volume   798.26632992
_cell_formula_units_Z   4
loop_
 _symmetry_equiv_pos_site_id
 _symmetry_equiv_pos_as_xyz
  1  'x, y, z'
loop_
 _atom_site_type_symbol
 _atom_site_label
 _atom_site_symmetry_multiplicity
 _atom_site_fract_x
 _atom_site_fract_y
 _atom_site_fract_z
 _atom_site_occupancy
  Gd  Gd0  1  0.991734  0.642786  0.039882  1
  Gd  Gd1  1  0.008266  0.357214  0.539882  1
  Gd  Gd2  1  0.642786  0.991734  0.960118  1
  Gd  Gd3  1  0.142786  0.508266  0.789882  1
  Gd  Gd4  1  0.857214  0.491734  0.289882  1
  Gd  Gd5  1  0.508266  0.142786  0.210118  1
  Gd  Gd6  1  0.491734  0.857214  0.710118  1
  Gd  Gd7  1  0.357214  0.008266  0.460118  1
  Tm  Tm8  1  0.361005  0.491159  0.375689  1
  Tm  Tm9  1  0.861005  0.008841  0.374311  1
  Tm  Tm10  1  0.991159  0.138995  0.125689  1
  Tm  Tm11  1  0.008841  0.861005  0.625689  1
  Tm  Tm12  1  0.638995  0.508841  0.875689  1
  Tm  Tm13  1  0.491159  0.361005  0.624311  1
  Tm  Tm14  1  0.508841  0.638995  0.124311  1
  Tm  Tm15  1  0.138995  0.991159  0.874311  1
  Lu  Lu16  1  0.682140  0.682140  0.500000  1
  Lu  Lu17  1  0.817860  0.182140  0.750000  1
  Lu  Lu18  1  0.182140  0.817860  0.250000  1
  Lu  Lu19  1  0.317860  0.317860  0.000000  1
  Si  Si20  1  0.061352  0.707738  0.436988  1
  Si  Si21  1  0.938648  0.292262  0.936988  1
  Si  Si22  1  0.707738  0.061352  0.563012  1
  Si  Si23  1  0.207739  0.438648  0.186988  1
  Si  Si24  1  0.792262  0.561352  0.686988  1
  Si  Si25  1  0.438648  0.207739  0.813012  1
  Si  Si26  1  0.561352  0.792262  0.313012  1
  Si  Si27  1  0.292262  0.938648  0.063012  1
  Si  Si28  1  0.847718  0.796549  0.812693  1
  Si  Si29  1  0.152282  0.203451  0.312693  1
  Si  Si30  1  0.796549  0.847718  0.187307  1
  Si  Si31  1  0.296549  0.652282  0.562693  1
  Si  Si32  1  0.703451  0.347718  0.062693  1
  Si  Si33  1  0.652282  0.296549  0.437307  1
  Si  Si34  1  0.347718  0.703451  0.937307  1
  Si  Si35  1  0.203451  0.152282  0.687307  1
