# generated using pymatgen
data_YbTh3B16
_symmetry_space_group_name_H-M   'P 1'
_cell_length_a   7.21813853
_cell_length_b   7.21813853
_cell_length_c   4.10427900
_cell_angle_alpha   90.00000000
_cell_angle_beta   90.00000000
_cell_angle_gamma   90.52768761
_symmetry_Int_Tables_number   1
_chemical_formula_structural   YbTh3B16
_chemical_formula_sum   'Yb1 Th3 B16'
_cell_volume   213.83012120
_cell_formula_units_Z   1
loop_
 _symmetry_equiv_pos_site_id
 _symmetry_equiv_pos_as_xyz
  1  'x, y, z'
loop_
 _atom_site_type_symbol
 _atom_site_label
 _atom_site_symmetry_multiplicity
 _atom_site_fract_x
 _atom_site_fract_y
 _atom_site_fract_z
 _atom_site_occupancy
  Yb  Yb0  1  0.683053  0.816947  0.000000  1
  Th  Th1  1  0.814239  0.314561  0.000000  1
  Th  Th2  1  0.185439  0.685761  0.000000  1
  Th  Th3  1  0.316648  0.183352  0.000000  1
  B  B4  1  0.503908  0.505482  0.797790  1
  B  B5  1  0.994518  0.996092  0.797790  1
  B  B6  1  0.503908  0.505482  0.202210  1
  B  B7  1  0.994518  0.996092  0.202210  1
  B  B8  1  0.913523  0.586477  0.500000  1
  B  B9  1  0.090362  0.409638  0.500000  1
  B  B10  1  0.410165  0.911709  0.500000  1
  B  B11  1  0.588291  0.089835  0.500000  1
  B  B12  1  0.677265  0.542491  0.500000  1
  B  B13  1  0.328019  0.461207  0.500000  1
  B  B14  1  0.173305  0.960192  0.500000  1
  B  B15  1  0.822028  0.035299  0.500000  1
  B  B16  1  0.464701  0.677972  0.500000  1
  B  B17  1  0.539808  0.326695  0.500000  1
  B  B18  1  0.038793  0.171981  0.500000  1
  B  B19  1  0.957509  0.822735  0.500000  1
