# generated using pymatgen
data_Eu4Sb4Pt3Rh
_symmetry_space_group_name_H-M   'P 1'
_cell_length_a   4.68146500
_cell_length_b   7.58165805
_cell_length_c   7.96613185
_cell_angle_alpha   90.01974443
_cell_angle_beta   90.00000000
_cell_angle_gamma   90.00000000
_symmetry_Int_Tables_number   1
_chemical_formula_structural   Eu4Sb4Pt3Rh
_chemical_formula_sum   'Eu4 Sb4 Pt3 Rh1'
_cell_volume   282.74402631
_cell_formula_units_Z   1
loop_
 _symmetry_equiv_pos_site_id
 _symmetry_equiv_pos_as_xyz
  1  'x, y, z'
loop_
 _atom_site_type_symbol
 _atom_site_label
 _atom_site_symmetry_multiplicity
 _atom_site_fract_x
 _atom_site_fract_y
 _atom_site_fract_z
 _atom_site_occupancy
  Eu  Eu0  1  0.750000  0.487428  0.802691  1
  Eu  Eu1  1  0.250000  0.007235  0.304059  1
  Eu  Eu2  1  0.750000  0.989660  0.693772  1
  Eu  Eu3  1  0.250000  0.512997  0.197478  1
  Sb  Sb4  1  0.250000  0.686338  0.596138  1
  Sb  Sb5  1  0.250000  0.176992  0.911655  1
  Sb  Sb6  1  0.750000  0.317070  0.409928  1
  Sb  Sb7  1  0.750000  0.813812  0.083718  1
  Pt  Pt8  1  0.250000  0.300686  0.586916  1
  Pt  Pt9  1  0.750000  0.696849  0.413723  1
  Pt  Pt10  1  0.750000  0.199792  0.084860  1
  Rh  Rh11  1  0.250000  0.811143  0.915064  1
