# generated using pymatgen
data_Ta4Co2B6MoW
_symmetry_space_group_name_H-M   'P 1'
_cell_length_a   4.58472200
_cell_length_b   4.58472228
_cell_length_c   10.98737400
_cell_angle_alpha   90.00000000
_cell_angle_beta   90.00000000
_cell_angle_gamma   138.65152127
_symmetry_Int_Tables_number   1
_chemical_formula_structural   Ta4Co2B6MoW
_chemical_formula_sum   'Ta4 Co2 B6 Mo1 W1'
_cell_volume   152.57483112
_cell_formula_units_Z   1
loop_
 _symmetry_equiv_pos_site_id
 _symmetry_equiv_pos_as_xyz
  1  'x, y, z'
loop_
 _atom_site_type_symbol
 _atom_site_label
 _atom_site_symmetry_multiplicity
 _atom_site_fract_x
 _atom_site_fract_y
 _atom_site_fract_z
 _atom_site_occupancy
  Ta  Ta0  1  0.792203  0.207797  0.605943  1
  Ta  Ta1  1  0.207774  0.792226  0.393867  1
  Ta  Ta2  1  0.207774  0.792226  0.106133  1
  Ta  Ta3  1  0.792203  0.207797  0.894057  1
  Co  Co4  1  0.499864  0.500136  0.000096  1
  Co  Co5  1  0.499864  0.500136  0.499904  1
  B  B6  1  0.794049  0.205951  0.250000  1
  B  B7  1  0.206442  0.793558  0.750000  1
  B  B8  1  0.086785  0.913215  0.605770  1
  B  B9  1  0.913064  0.086936  0.394367  1
  B  B10  1  0.913064  0.086936  0.105633  1
  B  B11  1  0.086785  0.913215  0.894230  1
  Mo  Mo12  1  0.498510  0.501490  0.250000  1
  W  W13  1  0.501618  0.498382  0.750000  1
