# generated using pymatgen
data_Nd9Bi16Cl3
_symmetry_space_group_name_H-M   'P 1'
_cell_length_a   21.27263300
_cell_length_b   21.27263274
_cell_length_c   4.42559600
_cell_angle_alpha   90.00000000
_cell_angle_beta   90.00000000
_cell_angle_gamma   120.00000195
_symmetry_Int_Tables_number   1
_chemical_formula_structural   Nd9Bi16Cl3
_chemical_formula_sum   'Nd18 Bi32 Cl6'
_cell_volume   1734.38248502
_cell_formula_units_Z   2
loop_
 _symmetry_equiv_pos_site_id
 _symmetry_equiv_pos_as_xyz
  1  'x, y, z'
loop_
 _atom_site_type_symbol
 _atom_site_label
 _atom_site_symmetry_multiplicity
 _atom_site_fract_x
 _atom_site_fract_y
 _atom_site_fract_z
 _atom_site_occupancy
  Nd  Nd0  1  0.307324  0.766722  0.750000  1
  Nd  Nd1  1  0.459398  0.692676  0.750000  1
  Nd  Nd2  1  0.010131  0.608091  0.250000  1
  Nd  Nd3  1  0.540602  0.307324  0.250000  1
  Nd  Nd4  1  0.692676  0.233278  0.250000  1
  Nd  Nd5  1  0.391909  0.402040  0.250000  1
  Nd  Nd6  1  0.608091  0.597960  0.750000  1
  Nd  Nd7  1  0.863878  0.766825  0.750000  1
  Nd  Nd8  1  0.902947  0.136122  0.750000  1
  Nd  Nd9  1  0.766722  0.459398  0.250000  1
  Nd  Nd10  1  0.097053  0.863878  0.250000  1
  Nd  Nd11  1  0.233278  0.540602  0.750000  1
  Nd  Nd12  1  0.136122  0.233175  0.250000  1
  Nd  Nd13  1  0.766825  0.902947  0.250000  1
  Nd  Nd14  1  0.402040  0.010131  0.750000  1
  Nd  Nd15  1  0.989869  0.391909  0.750000  1
  Nd  Nd16  1  0.233175  0.097053  0.750000  1
  Nd  Nd17  1  0.597960  0.989869  0.250000  1
  Bi  Bi18  1  0.280618  0.006543  0.250000  1
  Bi  Bi19  1  0.504726  0.401178  0.750000  1
  Bi  Bi20  1  0.425024  0.178020  0.750000  1
  Bi  Bi21  1  0.752996  0.574976  0.750000  1
  Bi  Bi22  1  0.122012  0.348890  0.750000  1
  Bi  Bi23  1  0.773121  0.122012  0.250000  1
  Bi  Bi24  1  0.574976  0.821980  0.250000  1
  Bi  Bi25  1  0.489260  0.864120  0.750000  1
  Bi  Bi26  1  0.993457  0.274075  0.250000  1
  Bi  Bi27  1  0.719382  0.993457  0.750000  1
  Bi  Bi28  1  0.864120  0.374859  0.250000  1
  Bi  Bi29  1  0.103547  0.504726  0.250000  1
  Bi  Bi30  1  0.374859  0.510740  0.750000  1
  Bi  Bi31  1  0.274075  0.280618  0.750000  1
  Bi  Bi32  1  0.821980  0.247004  0.750000  1
  Bi  Bi33  1  0.495274  0.598822  0.250000  1
  Bi  Bi34  1  0.006543  0.725925  0.750000  1
  Bi  Bi35  1  0.247004  0.425024  0.250000  1
  Bi  Bi36  1  0.725925  0.719382  0.250000  1
  Bi  Bi37  1  0.226879  0.877988  0.750000  1
  Bi  Bi38  1  0.625141  0.489260  0.250000  1
  Bi  Bi39  1  0.401178  0.896453  0.250000  1
  Bi  Bi40  1  0.598822  0.103547  0.750000  1
  Bi  Bi41  1  0.877988  0.651110  0.250000  1
  Bi  Bi42  1  0.348890  0.226879  0.250000  1
  Bi  Bi43  1  0.178020  0.752996  0.250000  1
  Bi  Bi44  1  0.651110  0.773121  0.750000  1
  Bi  Bi45  1  0.510740  0.135880  0.250000  1
  Bi  Bi46  1  0.896453  0.495274  0.750000  1
  Bi  Bi47  1  0.135880  0.625141  0.750000  1
  Bi  Bi48  1  0.666667  0.333333  0.750000  1
  Bi  Bi49  1  0.333333  0.666667  0.250000  1
  Cl  Cl50  1  0.145660  0.099388  0.250000  1
  Cl  Cl51  1  0.953727  0.854340  0.250000  1
  Cl  Cl52  1  0.046273  0.145660  0.750000  1
  Cl  Cl53  1  0.099388  0.953727  0.750000  1
  Cl  Cl54  1  0.854340  0.900612  0.750000  1
  Cl  Cl55  1  0.900612  0.046273  0.250000  1
