# generated using pymatgen
data_Li2La8Si12NiRh
_symmetry_space_group_name_H-M   'P 1'
_cell_length_a   8.30844200
_cell_length_b   8.30844164
_cell_length_c   8.71655600
_cell_angle_alpha   90.00000000
_cell_angle_beta   90.00000000
_cell_angle_gamma   119.99999347
_symmetry_Int_Tables_number   1
_chemical_formula_structural   Li2La8Si12NiRh
_chemical_formula_sum   'Li2 La8 Si12 Ni1 Rh1'
_cell_volume   521.09241432
_cell_formula_units_Z   1
loop_
 _symmetry_equiv_pos_site_id
 _symmetry_equiv_pos_as_xyz
  1  'x, y, z'
loop_
 _atom_site_type_symbol
 _atom_site_label
 _atom_site_symmetry_multiplicity
 _atom_site_fract_x
 _atom_site_fract_y
 _atom_site_fract_z
 _atom_site_occupancy
  Li  Li0  1  0.666667  0.333333  0.504585  1
  Li  Li1  1  0.666667  0.333333  0.996780  1
  La  La2  1  0.000000  0.000000  0.250965  1
  La  La3  1  0.000000  0.000000  0.749076  1
  La  La4  1  0.494630  0.505370  0.249058  1
  La  La5  1  0.494630  0.989259  0.249058  1
  La  La6  1  0.010741  0.505370  0.249058  1
  La  La7  1  0.493288  0.506712  0.751049  1
  La  La8  1  0.493288  0.986574  0.751049  1
  La  La9  1  0.013426  0.506712  0.751049  1
  Si  Si10  1  0.170502  0.829498  0.499808  1
  Si  Si11  1  0.170502  0.341004  0.499808  1
  Si  Si12  1  0.658996  0.829498  0.499808  1
  Si  Si13  1  0.835523  0.164477  0.499764  1
  Si  Si14  1  0.835523  0.671045  0.499764  1
  Si  Si15  1  0.328955  0.164477  0.499764  1
  Si  Si16  1  0.836272  0.163728  0.999773  1
  Si  Si17  1  0.836272  0.672544  0.999773  1
  Si  Si18  1  0.327456  0.163728  0.999773  1
  Si  Si19  1  0.166384  0.833616  0.000419  1
  Si  Si20  1  0.166384  0.332770  0.000419  1
  Si  Si21  1  0.667230  0.833616  0.000419  1
  Ni  Ni22  1  0.333333  0.666667  0.499056  1
  Rh  Rh23  1  0.333333  0.666667  0.999924  1
