# generated using pymatgen
data_Tb3DyReRuC4
_symmetry_space_group_name_H-M   'P 1'
_cell_length_a   5.13788300
_cell_length_b   6.54924200
_cell_length_c   9.86025700
_cell_angle_alpha   90.00000000
_cell_angle_beta   90.00000000
_cell_angle_gamma   90.00000000
_symmetry_Int_Tables_number   1
_chemical_formula_structural   Tb3DyReRuC4
_chemical_formula_sum   'Tb6 Dy2 Re2 Ru2 C8'
_cell_volume   331.79014572
_cell_formula_units_Z   2
loop_
 _symmetry_equiv_pos_site_id
 _symmetry_equiv_pos_as_xyz
  1  'x, y, z'
loop_
 _atom_site_type_symbol
 _atom_site_label
 _atom_site_symmetry_multiplicity
 _atom_site_fract_x
 _atom_site_fract_y
 _atom_site_fract_z
 _atom_site_occupancy
  Tb  Tb0  1  0.750000  0.318146  0.443823  1
  Tb  Tb1  1  0.250000  0.181854  0.943823  1
  Tb  Tb2  1  0.750000  0.468708  0.785497  1
  Tb  Tb3  1  0.250000  0.031292  0.285497  1
  Tb  Tb4  1  0.750000  0.970422  0.714352  1
  Tb  Tb5  1  0.250000  0.529578  0.214352  1
  Dy  Dy6  1  0.750000  0.823857  0.054467  1
  Dy  Dy7  1  0.250000  0.676143  0.554467  1
  Re  Re8  1  0.750000  0.777395  0.363987  1
  Re  Re9  1  0.250000  0.722605  0.863987  1
  Ru  Ru10  1  0.750000  0.276816  0.135066  1
  Ru  Ru11  1  0.250000  0.223184  0.635066  1
  C  C12  1  0.750000  0.176335  0.950980  1
  C  C13  1  0.250000  0.821752  0.049927  1
  C  C14  1  0.750000  0.678248  0.549927  1
  C  C15  1  0.250000  0.323665  0.450980  1
  C  C16  1  0.750000  0.042415  0.259717  1
  C  C17  1  0.250000  0.457585  0.759717  1
  C  C18  1  0.750000  0.544563  0.242185  1
  C  C19  1  0.250000  0.955437  0.742185  1
