# generated using pymatgen
data_Ac9Sm7(TmSn4)4
_symmetry_space_group_name_H-M   'P 1'
_cell_length_a   8.33009200
_cell_length_b   8.60291114
_cell_length_c   16.48806100
_cell_angle_alpha   90.12458957
_cell_angle_beta   90.14038357
_cell_angle_gamma   89.97503932
_symmetry_Int_Tables_number   1
_chemical_formula_structural   Ac9Sm7(TmSn4)4
_chemical_formula_sum   'Ac9 Sm7 Tm4 Sn16'
_cell_volume   1181.57814617
_cell_formula_units_Z   1
loop_
 _symmetry_equiv_pos_site_id
 _symmetry_equiv_pos_as_xyz
  1  'x, y, z'
loop_
 _atom_site_type_symbol
 _atom_site_label
 _atom_site_symmetry_multiplicity
 _atom_site_fract_x
 _atom_site_fract_y
 _atom_site_fract_z
 _atom_site_occupancy
  Ac  Ac0  1  0.154581  0.334032  0.619648  1
  Ac  Ac1  1  0.494015  0.678138  0.598367  1
  Ac  Ac2  1  0.995570  0.822712  0.906479  1
  Ac  Ac3  1  0.504182  0.323267  0.096573  1
  Ac  Ac4  1  0.003340  0.178565  0.400714  1
  Ac  Ac5  1  0.505877  0.324028  0.401173  1
  Ac  Ac6  1  0.004471  0.177633  0.097025  1
  Ac  Ac7  1  0.496284  0.677501  0.905286  1
  Ac  Ac8  1  0.994802  0.821228  0.596281  1
  Sm  Sm9  1  0.656000  0.166206  0.626057  1
  Sm  Sm10  1  0.155371  0.333252  0.876786  1
  Sm  Sm11  1  0.343689  0.834973  0.124732  1
  Sm  Sm12  1  0.845704  0.664653  0.375175  1
  Sm  Sm13  1  0.346596  0.835530  0.371311  1
  Sm  Sm14  1  0.844051  0.666553  0.124178  1
  Sm  Sm15  1  0.656649  0.164727  0.878058  1
  Tm  Tm16  1  0.819022  0.499181  0.751832  1
  Tm  Tm17  1  0.322039  0.999773  0.753361  1
  Tm  Tm18  1  0.180023  0.502022  0.249112  1
  Tm  Tm19  1  0.679170  0.997787  0.248809  1
  Sn  Sn20  1  0.680087  0.958534  0.457524  1
  Sn  Sn21  1  0.180403  0.541904  0.043198  1
  Sn  Sn22  1  0.319183  0.041325  0.957951  1
  Sn  Sn23  1  0.802058  0.459429  0.540670  1
  Sn  Sn24  1  0.330763  0.031741  0.538727  1
  Sn  Sn25  1  0.820340  0.458021  0.957815  1
  Sn  Sn26  1  0.680399  0.959252  0.044169  1
  Sn  Sn27  1  0.184126  0.547509  0.449588  1
  Sn  Sn28  1  0.463032  0.371936  0.755055  1
  Sn  Sn29  1  0.956175  0.121312  0.753101  1
  Sn  Sn30  1  0.542151  0.628306  0.248425  1
  Sn  Sn31  1  0.039080  0.871926  0.249577  1
  Sn  Sn32  1  0.688717  0.860646  0.751939  1
  Sn  Sn33  1  0.189516  0.644207  0.753432  1
  Sn  Sn34  1  0.311023  0.139684  0.248661  1
  Sn  Sn35  1  0.811512  0.362511  0.249210  1
