# generated using pymatgen
data_Cs5U2Tl3Se10
_symmetry_space_group_name_H-M   'P 1'
_cell_length_a   8.19414500
_cell_length_b   12.07603266
_cell_length_c   8.20483300
_cell_angle_alpha   101.31145249
_cell_angle_beta   102.57058753
_cell_angle_gamma   108.64567921
_symmetry_Int_Tables_number   1
_chemical_formula_structural   Cs5U2Tl3Se10
_chemical_formula_sum   'Cs5 U2 Tl3 Se10'
_cell_volume   719.17497690
_cell_formula_units_Z   1
loop_
 _symmetry_equiv_pos_site_id
 _symmetry_equiv_pos_as_xyz
  1  'x, y, z'
loop_
 _atom_site_type_symbol
 _atom_site_label
 _atom_site_symmetry_multiplicity
 _atom_site_fract_x
 _atom_site_fract_y
 _atom_site_fract_z
 _atom_site_occupancy
  Cs  Cs0  1  0.442660  0.911643  0.229197  1
  Cs  Cs1  1  0.602468  0.593538  0.290625  1
  Cs  Cs2  1  0.794342  0.297153  0.433074  1
  Cs  Cs3  1  0.202466  0.709706  0.567502  1
  Cs  Cs4  1  0.394251  0.400763  0.704076  1
  U  U5  1  0.175111  0.189167  0.091415  1
  U  U6  1  0.821422  0.810894  0.902371  1
  Tl  Tl7  1  0.992630  0.497117  0.998439  1
  Tl  Tl8  1  0.003964  0.002133  0.507351  1
  Tl  Tl9  1  0.609898  0.091475  0.815984  1
  Se  Se10  1  0.496774  0.286353  0.050790  1
  Se  Se11  1  0.843116  0.037386  0.111169  1
  Se  Se12  1  0.982885  0.764820  0.185614  1
  Se  Se13  1  0.170031  0.396242  0.279144  1
  Se  Se14  1  0.325198  0.149446  0.380501  1
  Se  Se15  1  0.664184  0.856549  0.616974  1
  Se  Se16  1  0.829403  0.605950  0.714924  1
  Se  Se17  1  0.998943  0.234082  0.808146  1
  Se  Se18  1  0.150487  0.965479  0.882484  1
  Se  Se19  1  0.499770  0.700100  0.930220  1
