# generated using pymatgen
data_Ba4In(RuO4)3
_symmetry_space_group_name_H-M   'P 1'
_cell_length_a   10.33605714
_cell_length_b   10.33605721
_cell_length_c   10.33605830
_cell_angle_alpha   33.19765596
_cell_angle_beta   33.19765609
_cell_angle_gamma   33.19765228
_symmetry_Int_Tables_number   1
_chemical_formula_structural   Ba4In(RuO4)3
_chemical_formula_sum   'Ba4 In1 Ru3 O12'
_cell_volume   294.69060792
_cell_formula_units_Z   1
loop_
 _symmetry_equiv_pos_site_id
 _symmetry_equiv_pos_as_xyz
  1  'x, y, z'
loop_
 _atom_site_type_symbol
 _atom_site_label
 _atom_site_symmetry_multiplicity
 _atom_site_fract_x
 _atom_site_fract_y
 _atom_site_fract_z
 _atom_site_occupancy
  Ba  Ba0  1  0.711727  0.711727  0.711727  1
  Ba  Ba1  1  0.288273  0.288273  0.288273  1
  Ba  Ba2  1  0.873429  0.873429  0.873429  1
  Ba  Ba3  1  0.126571  0.126571  0.126571  1
  In  In4  1  0.000000  0.000000  0.000000  1
  Ru  Ru5  1  0.412851  0.412851  0.412851  1
  Ru  Ru6  1  0.500000  0.500000  0.500000  1
  Ru  Ru7  1  0.587149  0.587149  0.587149  1
  O  O8  1  0.214591  0.214591  0.699383  1
  O  O9  1  0.699383  0.214591  0.214591  1
  O  O10  1  0.214591  0.699383  0.214591  1
  O  O11  1  0.785409  0.300617  0.785409  1
  O  O12  1  0.785409  0.785409  0.300617  1
  O  O13  1  0.300617  0.785409  0.785409  1
  O  O14  1  0.388194  0.388194  0.852746  1
  O  O15  1  0.852746  0.388194  0.388194  1
  O  O16  1  0.147254  0.611806  0.611806  1
  O  O17  1  0.611806  0.611806  0.147254  1
  O  O18  1  0.611806  0.147254  0.611806  1
  O  O19  1  0.388194  0.852746  0.388194  1
