# generated using pymatgen
data_TbTm(Ni3As2)2
_symmetry_space_group_name_H-M   'P 1'
_cell_length_a   3.88859400
_cell_length_b   10.84064075
_cell_length_c   12.72253487
_cell_angle_alpha   89.95754020
_cell_angle_beta   90.00000000
_cell_angle_gamma   90.00000000
_symmetry_Int_Tables_number   1
_chemical_formula_structural   TbTm(Ni3As2)2
_chemical_formula_sum   'Tb3 Tm3 Ni18 As12'
_cell_volume   536.31640899
_cell_formula_units_Z   3
loop_
 _symmetry_equiv_pos_site_id
 _symmetry_equiv_pos_as_xyz
  1  'x, y, z'
loop_
 _atom_site_type_symbol
 _atom_site_label
 _atom_site_symmetry_multiplicity
 _atom_site_fract_x
 _atom_site_fract_y
 _atom_site_fract_z
 _atom_site_occupancy
  Tb  Tb0  1  0.000000  0.499844  0.523465  1
  Tb  Tb1  1  0.500000  0.000448  0.477244  1
  Tb  Tb2  1  0.500000  0.816612  0.206474  1
  Tm  Tm3  1  0.500000  0.183338  0.206972  1
  Tm  Tm4  1  0.000000  0.683084  0.793254  1
  Tm  Tm5  1  0.000000  0.316904  0.792663  1
  Ni  Ni6  1  0.500000  0.500106  0.156294  1
  Ni  Ni7  1  0.000000  0.000002  0.843710  1
  Ni  Ni8  1  0.500000  0.499818  0.699731  1
  Ni  Ni9  1  0.000000  0.000782  0.300395  1
  Ni  Ni10  1  0.000000  0.499057  0.981424  1
  Ni  Ni11  1  0.500000  0.000845  0.016984  1
  Ni  Ni12  1  0.500000  0.332834  0.997643  1
  Ni  Ni13  1  0.500000  0.666209  0.996773  1
  Ni  Ni14  1  0.000000  0.167873  0.001711  1
  Ni  Ni15  1  0.000000  0.832832  0.002036  1
  Ni  Ni16  1  0.500000  0.302877  0.426066  1
  Ni  Ni17  1  0.500000  0.697113  0.426893  1
  Ni  Ni18  1  0.000000  0.197537  0.574093  1
  Ni  Ni19  1  0.000000  0.802855  0.574958  1
  Ni  Ni20  1  0.500000  0.878948  0.708507  1
  Ni  Ni21  1  0.500000  0.121191  0.708263  1
  Ni  Ni22  1  0.000000  0.619956  0.292494  1
  Ni  Ni23  1  0.000000  0.378581  0.291547  1
  As  As24  1  0.500000  0.499592  0.875843  1
  As  As25  1  0.000000  0.001412  0.123272  1
  As  As26  1  0.500000  0.500090  0.344889  1
  As  As27  1  0.000000  0.000305  0.655528  1
  As  As28  1  0.500000  0.314463  0.614045  1
  As  As29  1  0.500000  0.685441  0.614522  1
  As  As30  1  0.000000  0.185881  0.386068  1
  As  As31  1  0.000000  0.814586  0.387116  1
  As  As32  1  0.500000  0.846114  0.890505  1
  As  As33  1  0.500000  0.154049  0.889886  1
  As  As34  1  0.000000  0.652020  0.108992  1
  As  As35  1  0.000000  0.346401  0.109736  1
