# generated using pymatgen
data_Tm2Nb3Ni9P7
_symmetry_space_group_name_H-M   'P 1'
_cell_length_a   3.70133500
_cell_length_b   9.31183454
_cell_length_c   9.31183500
_cell_angle_alpha   119.99999098
_cell_angle_beta   90.00000000
_cell_angle_gamma   90.00000000
_symmetry_Int_Tables_number   1
_chemical_formula_structural   Tm2Nb3Ni9P7
_chemical_formula_sum   'Tm2 Nb3 Ni9 P7'
_cell_volume   277.94546187
_cell_formula_units_Z   1
loop_
 _symmetry_equiv_pos_site_id
 _symmetry_equiv_pos_as_xyz
  1  'x, y, z'
loop_
 _atom_site_type_symbol
 _atom_site_label
 _atom_site_symmetry_multiplicity
 _atom_site_fract_x
 _atom_site_fract_y
 _atom_site_fract_z
 _atom_site_occupancy
  Tm  Tm0  1  0.000000  0.666667  0.333333  1
  Tm  Tm1  1  0.500000  0.333333  0.666667  1
  Nb  Nb2  1  0.500000  0.774327  0.894681  1
  Nb  Nb3  1  0.500000  0.120354  0.225673  1
  Nb  Nb4  1  0.500000  0.105319  0.879646  1
  Ni  Ni5  1  0.000000  0.565088  0.934693  1
  Ni  Ni6  1  0.000000  0.369604  0.434912  1
  Ni  Ni7  1  0.000000  0.065307  0.630396  1
  Ni  Ni8  1  0.500000  0.940803  0.386879  1
  Ni  Ni9  1  0.500000  0.446075  0.059197  1
  Ni  Ni10  1  0.500000  0.613121  0.553925  1
  Ni  Ni11  1  0.000000  0.870253  0.158262  1
  Ni  Ni12  1  0.000000  0.288009  0.129747  1
  Ni  Ni13  1  0.000000  0.841738  0.711991  1
  P  P14  1  0.500000  0.710055  0.122020  1
  P  P15  1  0.500000  0.411965  0.289945  1
  P  P16  1  0.500000  0.877980  0.588035  1
  P  P17  1  0.000000  0.000000  0.000000  1
  P  P18  1  0.000000  0.583193  0.695848  1
  P  P19  1  0.000000  0.112655  0.416807  1
  P  P20  1  0.000000  0.304152  0.887345  1
