# generated using pymatgen
data_Th8Sc12Sn5Sb11
_symmetry_space_group_name_H-M   'P 1'
_cell_length_a   7.95117640
_cell_length_b   7.85488157
_cell_length_c   14.93131700
_cell_angle_alpha   90.00000000
_cell_angle_beta   90.00000000
_cell_angle_gamma   90.13500809
_symmetry_Int_Tables_number   1
_chemical_formula_structural   Th8Sc12Sn5Sb11
_chemical_formula_sum   'Th8 Sc12 Sn5 Sb11'
_cell_volume   932.54101108
_cell_formula_units_Z   1
loop_
 _symmetry_equiv_pos_site_id
 _symmetry_equiv_pos_as_xyz
  1  'x, y, z'
loop_
 _atom_site_type_symbol
 _atom_site_label
 _atom_site_symmetry_multiplicity
 _atom_site_fract_x
 _atom_site_fract_y
 _atom_site_fract_z
 _atom_site_occupancy
  Th  Th0  1  0.517843  0.324953  0.906541  1
  Th  Th1  1  0.017677  0.174889  0.593540  1
  Th  Th2  1  0.483056  0.675615  0.406375  1
  Th  Th3  1  0.983403  0.824023  0.092123  1
  Th  Th4  1  0.483056  0.675615  0.093625  1
  Th  Th5  1  0.983403  0.824023  0.407877  1
  Th  Th6  1  0.517843  0.324953  0.593459  1
  Th  Th7  1  0.017677  0.174889  0.906460  1
  Sc  Sc8  1  0.348731  0.845590  0.875892  1
  Sc  Sc9  1  0.848814  0.654236  0.624255  1
  Sc  Sc10  1  0.649903  0.155258  0.376175  1
  Sc  Sc11  1  0.149411  0.344550  0.124630  1
  Sc  Sc12  1  0.649903  0.155258  0.123825  1
  Sc  Sc13  1  0.149411  0.344550  0.375370  1
  Sc  Sc14  1  0.348731  0.845590  0.624108  1
  Sc  Sc15  1  0.848814  0.654236  0.875745  1
  Sc  Sc16  1  0.181287  0.499283  0.750000  1
  Sc  Sc17  1  0.681307  0.000780  0.750000  1
  Sc  Sc18  1  0.817798  0.501548  0.250000  1
  Sc  Sc19  1  0.318261  0.998749  0.250000  1
  Sn  Sn20  1  0.952913  0.131020  0.250000  1
  Sn  Sn21  1  0.323529  0.146555  0.750000  1
  Sn  Sn22  1  0.823453  0.353575  0.750000  1
  Sn  Sn23  1  0.680430  0.857655  0.250000  1
  Sn  Sn24  1  0.175501  0.646592  0.250000  1
  Sb  Sb25  1  0.308008  0.047824  0.045656  1
  Sb  Sb26  1  0.807656  0.452606  0.454190  1
  Sb  Sb27  1  0.692349  0.952237  0.546338  1
  Sb  Sb28  1  0.192777  0.547007  0.953803  1
  Sb  Sb29  1  0.692349  0.952237  0.953662  1
  Sb  Sb30  1  0.192777  0.547007  0.546197  1
  Sb  Sb31  1  0.308008  0.047824  0.454344  1
  Sb  Sb32  1  0.807656  0.452606  0.045810  1
  Sb  Sb33  1  0.546102  0.634407  0.750000  1
  Sb  Sb34  1  0.046004  0.865745  0.750000  1
  Sb  Sb35  1  0.454158  0.366513  0.250000  1
