# generated using pymatgen
data_Tb4Al18(FeAu)3
_symmetry_space_group_name_H-M   'P 1'
_cell_length_a   7.61068216
_cell_length_b   7.61068243
_cell_length_c   9.46603644
_cell_angle_alpha   89.92015208
_cell_angle_beta   89.92014766
_cell_angle_gamma   119.95984607
_symmetry_Int_Tables_number   1
_chemical_formula_structural   Tb4Al18(FeAu)3
_chemical_formula_sum   'Tb4 Al18 Fe3 Au3'
_cell_volume   475.02873952
_cell_formula_units_Z   1
loop_
 _symmetry_equiv_pos_site_id
 _symmetry_equiv_pos_as_xyz
  1  'x, y, z'
loop_
 _atom_site_type_symbol
 _atom_site_label
 _atom_site_symmetry_multiplicity
 _atom_site_fract_x
 _atom_site_fract_y
 _atom_site_fract_z
 _atom_site_occupancy
  Tb  Tb0  1  0.996591  0.664415  0.248255  1
  Tb  Tb1  1  0.009404  0.340669  0.751397  1
  Tb  Tb2  1  0.659331  0.990596  0.248603  1
  Tb  Tb3  1  0.335585  0.003409  0.751745  1
  Al  Al4  1  0.107681  0.110589  0.245654  1
  Al  Al5  1  0.889411  0.892319  0.754346  1
  Al  Al6  1  0.982164  0.317993  0.071624  1
  Al  Al7  1  0.988525  0.667614  0.928236  1
  Al  Al8  1  0.995567  0.684681  0.578798  1
  Al  Al9  1  0.315319  0.004433  0.421202  1
  Al  Al10  1  0.000171  0.315283  0.422745  1
  Al  Al11  1  0.684717  0.999829  0.577255  1
  Al  Al12  1  0.682007  0.017836  0.928376  1
  Al  Al13  1  0.332386  0.011475  0.071764  1
  Al  Al14  1  0.318662  0.318973  0.560066  1
  Al  Al15  1  0.681027  0.681338  0.439934  1
  Al  Al16  1  0.681850  0.670371  0.046529  1
  Al  Al17  1  0.329629  0.318150  0.953471  1
  Al  Al18  1  0.339524  0.532072  0.248896  1
  Al  Al19  1  0.659050  0.450144  0.765611  1
  Al  Al20  1  0.549856  0.340950  0.234389  1
  Al  Al21  1  0.467928  0.660476  0.751104  1
  Fe  Fe22  1  0.670917  0.329083  0.000000  1
  Fe  Fe23  1  0.000176  0.999824  0.000000  1
  Fe  Fe24  1  0.999382  0.000618  0.500000  1
  Au  Au25  1  0.325966  0.674034  0.000000  1
  Au  Au26  1  0.325226  0.674774  0.500000  1
  Au  Au27  1  0.671949  0.328051  0.500000  1
