# generated using pymatgen
data_LiPrPt3Rh
_symmetry_space_group_name_H-M   'P 1'
_cell_length_a   5.38320296
_cell_length_b   5.38320366
_cell_length_c   5.38320223
_cell_angle_alpha   60.02750352
_cell_angle_beta   60.02749502
_cell_angle_gamma   60.02751284
_symmetry_Int_Tables_number   1
_chemical_formula_structural   LiPrPt3Rh
_chemical_formula_sum   'Li1 Pr1 Pt3 Rh1'
_cell_volume   110.37683779
_cell_formula_units_Z   1
loop_
 _symmetry_equiv_pos_site_id
 _symmetry_equiv_pos_as_xyz
  1  'x, y, z'
loop_
 _atom_site_type_symbol
 _atom_site_label
 _atom_site_symmetry_multiplicity
 _atom_site_fract_x
 _atom_site_fract_y
 _atom_site_fract_z
 _atom_site_occupancy
  Li  Li0  1  0.750036  0.750036  0.750036  1
  Pr  Pr1  1  0.499908  0.499908  0.499908  1
  Pt  Pt2  1  0.626590  0.124455  0.124455  1
  Pt  Pt3  1  0.124455  0.626590  0.124455  1
  Pt  Pt4  1  0.124455  0.124455  0.626590  1
  Rh  Rh5  1  0.124557  0.124557  0.124557  1
