# generated using pymatgen
data_Ti8VSiBi4
_symmetry_space_group_name_H-M   'P 1'
_cell_length_a   7.88827577
_cell_length_b   7.88827624
_cell_length_c   7.88827640
_cell_angle_alpha   95.81172214
_cell_angle_beta   95.81173373
_cell_angle_gamma   142.89012699
_symmetry_Int_Tables_number   1
_chemical_formula_structural   Ti8VSiBi4
_chemical_formula_sum   'Ti8 V1 Si1 Bi4'
_cell_volume   280.75622910
_cell_formula_units_Z   1
loop_
 _symmetry_equiv_pos_site_id
 _symmetry_equiv_pos_as_xyz
  1  'x, y, z'
loop_
 _atom_site_type_symbol
 _atom_site_label
 _atom_site_symmetry_multiplicity
 _atom_site_fract_x
 _atom_site_fract_y
 _atom_site_fract_z
 _atom_site_occupancy
  Ti  Ti0  1  0.078333  0.193578  0.280602  1
  Ti  Ti1  1  0.912976  0.797730  0.719398  1
  Ti  Ti2  1  0.797730  0.078333  0.884753  1
  Ti  Ti3  1  0.421667  0.702270  0.115247  1
  Ti  Ti4  1  0.193578  0.912976  0.115247  1
  Ti  Ti5  1  0.587024  0.306422  0.884753  1
  Ti  Ti6  1  0.702270  0.587024  0.280602  1
  Ti  Ti7  1  0.306422  0.421667  0.719398  1
  V  V8  1  0.750000  0.750000  0.000000  1
  Si  Si9  1  0.250000  0.250000  0.000000  1
  Bi  Bi10  1  0.139027  0.639027  0.778054  1
  Bi  Bi11  1  0.860973  0.360973  0.221946  1
  Bi  Bi12  1  0.360973  0.139027  0.500000  1
  Bi  Bi13  1  0.639027  0.860973  0.500000  1
