# generated using pymatgen
data_Nd2Eu2Zr2TaSnO14
_symmetry_space_group_name_H-M   'P 1'
_cell_length_a   7.65401277
_cell_length_b   7.63120450
_cell_length_c   7.63120200
_cell_angle_alpha   59.48542100
_cell_angle_beta   59.73692656
_cell_angle_gamma   59.73692629
_symmetry_Int_Tables_number   1
_chemical_formula_structural   Nd2Eu2Zr2TaSnO14
_chemical_formula_sum   'Nd2 Eu2 Zr2 Ta1 Sn1 O14'
_cell_volume   312.69274824
_cell_formula_units_Z   1
loop_
 _symmetry_equiv_pos_site_id
 _symmetry_equiv_pos_as_xyz
  1  'x, y, z'
loop_
 _atom_site_type_symbol
 _atom_site_label
 _atom_site_symmetry_multiplicity
 _atom_site_fract_x
 _atom_site_fract_y
 _atom_site_fract_z
 _atom_site_occupancy
  Nd  Nd0  1  0.125000  0.625000  0.625000  1
  Nd  Nd1  1  0.625000  0.625000  0.625000  1
  Eu  Eu2  1  0.625000  0.125000  0.625000  1
  Eu  Eu3  1  0.625000  0.625000  0.125000  1
  Zr  Zr4  1  0.125000  0.125000  0.625000  1
  Zr  Zr5  1  0.125000  0.625000  0.125000  1
  Ta  Ta6  1  0.125000  0.125000  0.125000  1
  Sn  Sn7  1  0.625000  0.125000  0.125000  1
  O  O8  1  0.207755  0.787808  0.787808  1
  O  O9  1  0.789835  0.793429  0.205062  1
  O  O10  1  0.789835  0.205062  0.793429  1
  O  O11  1  0.198162  0.808587  0.199515  1
  O  O12  1  0.198162  0.199515  0.808587  1
  O  O13  1  0.812230  0.194962  0.194962  1
  O  O14  1  0.437770  0.055038  0.055038  1
  O  O15  1  0.051838  0.050485  0.441413  1
  O  O16  1  0.051838  0.441413  0.050485  1
  O  O17  1  0.460165  0.044938  0.456571  1
  O  O18  1  0.753482  0.748535  0.748535  1
  O  O19  1  0.460165  0.456571  0.044938  1
  O  O20  1  0.042245  0.462192  0.462192  1
  O  O21  1  0.496518  0.501465  0.501465  1
