# generated using pymatgen
data_Er16Al4CuNi3
_symmetry_space_group_name_H-M   'P 1'
_cell_length_a   9.37840787
_cell_length_b   9.37840717
_cell_length_c   9.37840639
_cell_angle_alpha   60.06679604
_cell_angle_beta   60.06680117
_cell_angle_gamma   60.06679358
_symmetry_Int_Tables_number   1
_chemical_formula_structural   Er16Al4CuNi3
_chemical_formula_sum   'Er16 Al4 Cu1 Ni3'
_cell_volume   584.15647474
_cell_formula_units_Z   1
loop_
 _symmetry_equiv_pos_site_id
 _symmetry_equiv_pos_as_xyz
  1  'x, y, z'
loop_
 _atom_site_type_symbol
 _atom_site_label
 _atom_site_symmetry_multiplicity
 _atom_site_fract_x
 _atom_site_fract_y
 _atom_site_fract_z
 _atom_site_occupancy
  Er  Er0  1  0.184838  0.815807  0.815807  1
  Er  Er1  1  0.814672  0.186405  0.186405  1
  Er  Er2  1  0.815807  0.184838  0.815807  1
  Er  Er3  1  0.186405  0.814672  0.186405  1
  Er  Er4  1  0.815807  0.815807  0.184838  1
  Er  Er5  1  0.186405  0.186405  0.814672  1
  Er  Er6  1  0.598956  0.598956  0.598956  1
  Er  Er7  1  0.605076  0.605076  0.193332  1
  Er  Er8  1  0.605076  0.193332  0.605076  1
  Er  Er9  1  0.193332  0.605076  0.605076  1
  Er  Er10  1  0.052095  0.441860  0.441860  1
  Er  Er11  1  0.440381  0.060197  0.060197  1
  Er  Er12  1  0.441860  0.052095  0.441860  1
  Er  Er13  1  0.060197  0.440381  0.060197  1
  Er  Er14  1  0.441860  0.441860  0.052095  1
  Er  Er15  1  0.060197  0.060197  0.440381  1
  Al  Al16  1  0.827625  0.827625  0.827625  1
  Al  Al17  1  0.826835  0.826835  0.517875  1
  Al  Al18  1  0.826835  0.517875  0.826835  1
  Al  Al19  1  0.517875  0.826835  0.826835  1
  Cu  Cu20  1  0.393233  0.393233  0.393233  1
  Ni  Ni21  1  0.392176  0.392176  0.820277  1
  Ni  Ni22  1  0.392176  0.820277  0.392176  1
  Ni  Ni23  1  0.820277  0.392176  0.392176  1
