# generated using pymatgen
data_Dy5Ti3P12Ir15Ru
_symmetry_space_group_name_H-M   'P 1'
_cell_length_a   12.77280944
_cell_length_b   12.78152903
_cell_length_c   3.94933800
_cell_angle_alpha   90.00000000
_cell_angle_beta   90.00000000
_cell_angle_gamma   120.23945284
_symmetry_Int_Tables_number   1
_chemical_formula_structural   Dy5Ti3P12Ir15Ru
_chemical_formula_sum   'Dy5 Ti3 P12 Ir15 Ru1'
_cell_volume   557.02054155
_cell_formula_units_Z   1
loop_
 _symmetry_equiv_pos_site_id
 _symmetry_equiv_pos_as_xyz
  1  'x, y, z'
loop_
 _atom_site_type_symbol
 _atom_site_label
 _atom_site_symmetry_multiplicity
 _atom_site_fract_x
 _atom_site_fract_y
 _atom_site_fract_z
 _atom_site_occupancy
  Dy  Dy0  1  0.334194  0.666646  0.500000  1
  Dy  Dy1  1  0.666797  0.333475  0.500000  1
  Dy  Dy2  1  0.999677  0.811377  0.000000  1
  Dy  Dy3  1  0.188499  0.188643  0.000000  1
  Dy  Dy4  1  0.810341  0.999828  0.000000  1
  Ti  Ti5  1  0.000120  0.446689  0.500000  1
  Ti  Ti6  1  0.553314  0.553735  0.500000  1
  Ti  Ti7  1  0.447087  0.001385  0.500000  1
  P  P8  1  0.999630  0.638919  0.500000  1
  P  P9  1  0.360982  0.361455  0.500000  1
  P  P10  1  0.638234  0.995304  0.500000  1
  P  P11  1  0.520434  0.688200  0.000000  1
  P  P12  1  0.316227  0.832869  0.000000  1
  P  P13  1  0.168271  0.483070  0.000000  1
  P  P14  1  0.482820  0.167890  0.000000  1
  P  P15  1  0.685158  0.517284  0.000000  1
  P  P16  1  0.832525  0.315079  0.000000  1
  P  P17  1  0.998784  0.176326  0.500000  1
  P  P18  1  0.819040  0.822708  0.500000  1
  P  P19  1  0.176254  0.999480  0.500000  1
  Ir  Ir20  1  0.512554  0.871827  0.000000  1
  Ir  Ir21  1  0.133589  0.642071  0.000000  1
  Ir  Ir22  1  0.359027  0.492203  0.000000  1
  Ir  Ir23  1  0.490697  0.357795  0.000000  1
  Ir  Ir24  1  0.867787  0.509260  0.000000  1
  Ir  Ir25  1  0.641524  0.133737  0.000000  1
  Ir  Ir26  1  0.999882  0.281677  0.000000  1
  Ir  Ir27  1  0.719959  0.717825  0.000000  1
  Ir  Ir28  1  0.281804  0.999864  0.000000  1
  Ir  Ir29  1  0.194632  0.821179  0.500000  1
  Ir  Ir30  1  0.178819  0.373592  0.500000  1
  Ir  Ir31  1  0.373081  0.178720  0.500000  1
  Ir  Ir32  1  0.805227  0.625454  0.500000  1
  Ir  Ir33  1  0.820436  0.194006  0.500000  1
  Ir  Ir34  1  0.999303  0.999420  0.500000  1
  Ru  Ru35  1  0.623293  0.801009  0.500000  1
