# generated using pymatgen
data_La2Nd5Ho13Pb16
_symmetry_space_group_name_H-M   'P 1'
_cell_length_a   8.24076973
_cell_length_b   8.34139156
_cell_length_c   15.72377200
_cell_angle_alpha   90.04951756
_cell_angle_beta   90.48540313
_cell_angle_gamma   89.62272489
_symmetry_Int_Tables_number   1
_chemical_formula_structural   La2Nd5Ho13Pb16
_chemical_formula_sum   'La2 Nd5 Ho13 Pb16'
_cell_volume   1080.78145063
_cell_formula_units_Z   1
loop_
 _symmetry_equiv_pos_site_id
 _symmetry_equiv_pos_as_xyz
  1  'x, y, z'
loop_
 _atom_site_type_symbol
 _atom_site_label
 _atom_site_symmetry_multiplicity
 _atom_site_fract_x
 _atom_site_fract_y
 _atom_site_fract_z
 _atom_site_occupancy
  La  La0  1  0.979857  0.821622  0.902633  1
  La  La1  1  0.519407  0.322286  0.095737  1
  Nd  Nd2  1  0.023425  0.178316  0.403654  1
  Nd  Nd3  1  0.523883  0.323613  0.403138  1
  Nd  Nd4  1  0.021127  0.177742  0.097000  1
  Nd  Nd5  1  0.480302  0.677092  0.903724  1
  Nd  Nd6  1  0.976761  0.820584  0.597621  1
  Ho  Ho7  1  0.634237  0.158360  0.622255  1
  Ho  Ho8  1  0.138913  0.341123  0.876527  1
  Ho  Ho9  1  0.362564  0.840912  0.123900  1
  Ho  Ho10  1  0.866570  0.658354  0.378878  1
  Ho  Ho11  1  0.367272  0.841349  0.378737  1
  Ho  Ho12  1  0.862009  0.658932  0.123073  1
  Ho  Ho13  1  0.637035  0.157983  0.875058  1
  Ho  Ho14  1  0.134268  0.342410  0.620915  1
  Ho  Ho15  1  0.472100  0.675878  0.598193  1
  Ho  Ho16  1  0.801911  0.496077  0.748176  1
  Ho  Ho17  1  0.302284  0.004805  0.748622  1
  Ho  Ho18  1  0.198156  0.504716  0.251351  1
  Ho  Ho19  1  0.697914  0.994994  0.251084  1
  Pb  Pb20  1  0.706300  0.960900  0.457163  1
  Pb  Pb21  1  0.200412  0.543864  0.042701  1
  Pb  Pb22  1  0.299243  0.041884  0.957049  1
  Pb  Pb23  1  0.788291  0.464349  0.543997  1
  Pb  Pb24  1  0.295555  0.036927  0.543779  1
  Pb  Pb25  1  0.799710  0.456197  0.955786  1
  Pb  Pb26  1  0.701035  0.958852  0.043336  1
  Pb  Pb27  1  0.209274  0.543160  0.458728  1
  Pb  Pb28  1  0.440172  0.373818  0.749049  1
  Pb  Pb29  1  0.940051  0.128703  0.748597  1
  Pb  Pb30  1  0.560865  0.627661  0.251306  1
  Pb  Pb31  1  0.059914  0.871688  0.250848  1
  Pb  Pb32  1  0.661196  0.846243  0.747356  1
  Pb  Pb33  1  0.170667  0.648985  0.748495  1
  Pb  Pb34  1  0.332823  0.149745  0.251265  1
  Pb  Pb35  1  0.834494  0.349874  0.250274  1
