# generated using pymatgen
data_Lu12Th4Tl4Ir3Rh
_symmetry_space_group_name_H-M   'P 1'
_cell_length_a   9.66550170
_cell_length_b   9.66550064
_cell_length_c   9.66550132
_cell_angle_alpha   60.12784449
_cell_angle_beta   60.12784800
_cell_angle_gamma   60.12784096
_symmetry_Int_Tables_number   1
_chemical_formula_structural   Lu12Th4Tl4Ir3Rh
_chemical_formula_sum   'Lu12 Th4 Tl4 Ir3 Rh1'
_cell_volume   640.34516113
_cell_formula_units_Z   1
loop_
 _symmetry_equiv_pos_site_id
 _symmetry_equiv_pos_as_xyz
  1  'x, y, z'
loop_
 _atom_site_type_symbol
 _atom_site_label
 _atom_site_symmetry_multiplicity
 _atom_site_fract_x
 _atom_site_fract_y
 _atom_site_fract_z
 _atom_site_occupancy
  Lu  Lu0  1  0.813432  0.187182  0.187182  1
  Lu  Lu1  1  0.187919  0.812855  0.812855  1
  Lu  Lu2  1  0.187182  0.813432  0.187182  1
  Lu  Lu3  1  0.812855  0.187919  0.812855  1
  Lu  Lu4  1  0.187182  0.187182  0.813432  1
  Lu  Lu5  1  0.812855  0.812855  0.187919  1
  Lu  Lu6  1  0.934871  0.564445  0.564445  1
  Lu  Lu7  1  0.563291  0.938037  0.938037  1
  Lu  Lu8  1  0.564445  0.934871  0.564445  1
  Lu  Lu9  1  0.938037  0.563291  0.938037  1
  Lu  Lu10  1  0.564445  0.564445  0.934871  1
  Lu  Lu11  1  0.938037  0.938037  0.563291  1
  Th  Th12  1  0.348572  0.348572  0.348572  1
  Th  Th13  1  0.349915  0.349915  0.949343  1
  Th  Th14  1  0.349915  0.949343  0.349915  1
  Th  Th15  1  0.949343  0.349915  0.349915  1
  Tl  Tl16  1  0.589800  0.589800  0.589800  1
  Tl  Tl17  1  0.587724  0.587724  0.235434  1
  Tl  Tl18  1  0.587724  0.235434  0.587724  1
  Tl  Tl19  1  0.235434  0.587724  0.587724  1
  Ir  Ir20  1  0.140055  0.140055  0.575176  1
  Ir  Ir21  1  0.140055  0.575176  0.140055  1
  Ir  Ir22  1  0.575176  0.140055  0.140055  1
  Rh  Rh23  1  0.141733  0.141733  0.141733  1
