# generated using pymatgen
data_Sc4Al18(NiRh)3
_symmetry_space_group_name_H-M   'P 1'
_cell_length_a   7.37712421
_cell_length_b   7.37712331
_cell_length_c   9.15072589
_cell_angle_alpha   89.94282117
_cell_angle_beta   89.94282179
_cell_angle_gamma   119.21480636
_symmetry_Int_Tables_number   1
_chemical_formula_structural   Sc4Al18(NiRh)3
_chemical_formula_sum   'Sc4 Al18 Ni3 Rh3'
_cell_volume   434.65189284
_cell_formula_units_Z   1
loop_
 _symmetry_equiv_pos_site_id
 _symmetry_equiv_pos_as_xyz
  1  'x, y, z'
loop_
 _atom_site_type_symbol
 _atom_site_label
 _atom_site_symmetry_multiplicity
 _atom_site_fract_x
 _atom_site_fract_y
 _atom_site_fract_z
 _atom_site_occupancy
  Sc  Sc0  1  0.994536  0.674286  0.250050  1
  Sc  Sc1  1  0.002994  0.322894  0.750331  1
  Sc  Sc2  1  0.677106  0.997006  0.249669  1
  Sc  Sc3  1  0.325714  0.005464  0.749950  1
  Al  Al4  1  0.129491  0.129137  0.249611  1
  Al  Al5  1  0.870863  0.870509  0.750389  1
  Al  Al6  1  0.994294  0.338759  0.076142  1
  Al  Al7  1  0.006673  0.663339  0.923605  1
  Al  Al8  1  0.007693  0.662640  0.576978  1
  Al  Al9  1  0.337360  0.992307  0.423022  1
  Al  Al10  1  0.001374  0.338818  0.423264  1
  Al  Al11  1  0.661182  0.998626  0.576736  1
  Al  Al12  1  0.661241  0.005706  0.923858  1
  Al  Al13  1  0.336661  0.993327  0.076395  1
  Al  Al14  1  0.331432  0.332184  0.555083  1
  Al  Al15  1  0.667816  0.668568  0.444917  1
  Al  Al16  1  0.666777  0.668160  0.053372  1
  Al  Al17  1  0.331840  0.333223  0.946628  1
  Al  Al18  1  0.341454  0.563620  0.249410  1
  Al  Al19  1  0.658374  0.442188  0.753396  1
  Al  Al20  1  0.557812  0.341626  0.246604  1
  Al  Al21  1  0.436380  0.658546  0.750590  1
  Ni  Ni22  1  0.670634  0.329366  0.000000  1
  Ni  Ni23  1  0.327698  0.672302  0.000000  1
  Ni  Ni24  1  0.328848  0.671152  0.500000  1
  Rh  Rh25  1  0.673046  0.326954  0.500000  1
  Rh  Rh26  1  0.999511  0.000489  0.000000  1
  Rh  Rh27  1  0.001198  0.998802  0.500000  1
