# generated using pymatgen
data_TbSm5Nb4(MoN4)6
_symmetry_space_group_name_H-M   'P 1'
_cell_length_a   11.22921199
_cell_length_b   11.22915357
_cell_length_c   11.22901946
_cell_angle_alpha   109.50009003
_cell_angle_beta   109.50030607
_cell_angle_gamma   109.41387344
_symmetry_Int_Tables_number   1
_chemical_formula_structural   TbSm5Nb4(MoN4)6
_chemical_formula_sum   'Tb2 Sm10 Nb8 Mo12 N48'
_cell_volume   1089.96547717
_cell_formula_units_Z   2
loop_
 _symmetry_equiv_pos_site_id
 _symmetry_equiv_pos_as_xyz
  1  'x, y, z'
loop_
 _atom_site_type_symbol
 _atom_site_label
 _atom_site_symmetry_multiplicity
 _atom_site_fract_x
 _atom_site_fract_y
 _atom_site_fract_z
 _atom_site_occupancy
  Tb  Tb0  1  0.625283  0.250450  0.875098  1
  Tb  Tb1  1  0.749815  0.624648  0.875098  1
  Sm  Sm2  1  0.249885  0.374905  0.124952  1
  Sm  Sm3  1  0.375066  0.750047  0.124952  1
  Sm  Sm4  1  0.375118  0.125118  0.250235  1
  Sm  Sm5  1  0.874587  0.624587  0.249174  1
  Sm  Sm6  1  0.750050  0.125093  0.374983  1
  Sm  Sm7  1  0.124933  0.249891  0.374983  1
  Sm  Sm8  1  0.874747  0.749839  0.625154  1
  Sm  Sm9  1  0.250407  0.875315  0.625154  1
  Sm  Sm10  1  0.124953  0.374953  0.749906  1
  Sm  Sm11  1  0.625156  0.875156  0.750312  1
  Nb  Nb12  1  0.000277  0.000017  0.000037  1
  Nb  Nb13  1  0.499759  0.000020  0.000037  1
  Nb  Nb14  1  0.999687  0.500176  0.999669  1
  Nb  Nb15  1  0.499982  0.499493  0.999669  1
  Nb  Nb16  1  0.000295  0.000537  0.500053  1
  Nb  Nb17  1  0.500444  0.000575  0.500256  1
  Nb  Nb18  1  0.999759  0.499516  0.500053  1
  Nb  Nb19  1  0.499812  0.499681  0.500256  1
  Mo  Mo20  1  0.873856  0.250001  0.123889  1
  Mo  Mo21  1  0.750034  0.873888  0.123889  1
  Mo  Mo22  1  0.624871  0.374793  0.249396  1
  Mo  Mo23  1  0.124525  0.874603  0.249396  1
  Mo  Mo24  1  0.250002  0.625170  0.375200  1
  Mo  Mo25  1  0.625199  0.750030  0.375200  1
  Mo  Mo26  1  0.376475  0.250586  0.626427  1
  Mo  Mo27  1  0.749952  0.375841  0.626427  1
  Mo  Mo28  1  0.874573  0.125178  0.750017  1
  Mo  Mo29  1  0.375444  0.624839  0.750017  1
  Mo  Mo30  1  0.250604  0.125101  0.875050  1
  Mo  Mo31  1  0.124447  0.749949  0.875050  1
  N  N32  1  0.202976  0.117139  0.018607  1
  N  N33  1  0.315631  0.901467  0.018607  1
  N  N34  1  0.879904  0.400465  0.083553  1
  N  N35  1  0.703648  0.683088  0.083553  1
  N  N36  1  0.617577  0.412775  0.097169  1
  N  N37  1  0.979591  0.684393  0.097169  1
  N  N38  1  0.017882  0.202688  0.116985  1
  N  N39  1  0.599103  0.914297  0.116985  1
  N  N40  1  0.202423  0.585450  0.184098  1
  N  N41  1  0.481675  0.598648  0.184098  1
  N  N42  1  0.117567  0.018962  0.203314  1
  N  N43  1  0.585747  0.184352  0.203314  1
  N  N44  1  0.481495  0.382675  0.297221  1
  N  N45  1  0.315726  0.914546  0.297221  1
  N  N46  1  0.901108  0.018267  0.315083  1
  N  N47  1  0.913975  0.296816  0.315083  1
  N  N48  1  0.297089  0.481294  0.382859  1
  N  N49  1  0.585770  0.901565  0.382859  1
  N  N50  1  0.815210  0.518672  0.401030  1
  N  N51  1  0.085821  0.882359  0.401030  1
  N  N52  1  0.098663  0.617480  0.414247  1
  N  N53  1  0.815584  0.796767  0.414247  1
  N  N54  1  0.598975  0.185042  0.481771  1
  N  N55  1  0.382795  0.296728  0.481771  1
  N  N56  1  0.617460  0.703027  0.518833  1
  N  N57  1  0.401373  0.815806  0.518833  1
  N  N58  1  0.185079  0.203231  0.586089  1
  N  N59  1  0.901010  0.382858  0.586089  1
  N  N60  1  0.914223  0.117502  0.598615  1
  N  N61  1  0.184392  0.481113  0.598615  1
  N  N62  1  0.416463  0.099946  0.620398  1
  N  N63  1  0.703935  0.520452  0.620398  1
  N  N64  1  0.085552  0.703313  0.684584  1
  N  N65  1  0.099032  0.981271  0.684584  1
  N  N66  1  0.684610  0.087417  0.705003  1
  N  N67  1  0.520393  0.617586  0.705003  1
  N  N68  1  0.414367  0.815423  0.796744  1
  N  N69  1  0.882378  0.981321  0.796744  1
  N  N70  1  0.522133  0.401813  0.816669  1
  N  N71  1  0.794536  0.414856  0.816669  1
  N  N72  1  0.402713  0.087125  0.882281  1
  N  N73  1  0.979569  0.795157  0.882281  1
  N  N74  1  0.018585  0.315763  0.901191  1
  N  N75  1  0.382606  0.585428  0.901191  1
  N  N76  1  0.296989  0.315675  0.914197  1
  N  N77  1  0.117207  0.598522  0.914197  1
  N  N78  1  0.683309  0.099567  0.979466  1
  N  N79  1  0.796156  0.879899  0.979466  1
