# generated using pymatgen
data_YbPaAl16Pt9
_symmetry_space_group_name_H-M   'P 1'
_cell_length_a   11.16696135
_cell_length_b   11.16696148
_cell_length_c   11.16696147
_cell_angle_alpha   158.61809385
_cell_angle_beta   114.99386454
_cell_angle_gamma   69.28668378
_symmetry_Int_Tables_number   1
_chemical_formula_structural   YbPaAl16Pt9
_chemical_formula_sum   'Yb1 Pa1 Al16 Pt9'
_cell_volume   456.80807977
_cell_formula_units_Z   1
loop_
 _symmetry_equiv_pos_site_id
 _symmetry_equiv_pos_as_xyz
  1  'x, y, z'
loop_
 _atom_site_type_symbol
 _atom_site_label
 _atom_site_symmetry_multiplicity
 _atom_site_fract_x
 _atom_site_fract_y
 _atom_site_fract_z
 _atom_site_occupancy
  Yb  Yb0  1  0.227627  0.227627  0.000000  1
  Pa  Pa1  1  0.774125  0.774125  0.000000  1
  Al  Al2  1  0.269185  0.389764  0.879421  1
  Al  Al3  1  0.093131  0.920473  0.172657  1
  Al  Al4  1  0.509674  0.203673  0.306003  1
  Al  Al5  1  0.250270  0.079325  0.170944  1
  Al  Al6  1  0.914818  0.414818  0.500000  1
  Al  Al7  1  0.727450  0.609050  0.118401  1
  Al  Al8  1  0.897669  0.203673  0.693997  1
  Al  Al9  1  0.487099  0.795440  0.691658  1
  Al  Al10  1  0.387264  0.000220  0.387044  1
  Al  Al11  1  0.613176  0.000220  0.612956  1
  Al  Al12  1  0.490650  0.609050  0.881599  1
  Al  Al13  1  0.103782  0.795440  0.308342  1
  Al  Al14  1  0.908381  0.079325  0.829056  1
  Al  Al15  1  0.747816  0.920473  0.827343  1
  Al  Al16  1  0.510342  0.389764  0.120579  1
  Al  Al17  1  0.087710  0.587710  0.500000  1
  Pt  Pt18  1  0.745939  0.499421  0.246518  1
  Pt  Pt19  1  0.017875  0.338468  0.679407  1
  Pt  Pt20  1  0.629598  0.129598  0.500000  1
  Pt  Pt21  1  0.252903  0.499421  0.753482  1
  Pt  Pt22  1  0.374979  0.874979  0.500000  1
  Pt  Pt23  1  0.999372  0.999372  0.000000  1
  Pt  Pt24  1  0.659061  0.338468  0.320593  1
  Pt  Pt25  1  0.345944  0.660052  0.685892  1
  Pt  Pt26  1  0.974160  0.660052  0.314108  1
