# generated using pymatgen
data_TbDy3(Al3Rh)6
_symmetry_space_group_name_H-M   'P 1'
_cell_length_a   7.55995222
_cell_length_b   7.56043097
_cell_length_c   9.48449900
_cell_angle_alpha   90.00000000
_cell_angle_beta   90.00000000
_cell_angle_gamma   119.35801925
_symmetry_Int_Tables_number   1
_chemical_formula_structural   TbDy3(Al3Rh)6
_chemical_formula_sum   'Tb1 Dy3 Al18 Rh6'
_cell_volume   472.48050849
_cell_formula_units_Z   1
loop_
 _symmetry_equiv_pos_site_id
 _symmetry_equiv_pos_as_xyz
  1  'x, y, z'
loop_
 _atom_site_type_symbol
 _atom_site_label
 _atom_site_symmetry_multiplicity
 _atom_site_fract_x
 _atom_site_fract_y
 _atom_site_fract_z
 _atom_site_occupancy
  Tb  Tb0  1  0.994645  0.670784  0.750000  1
  Dy  Dy1  1  0.005409  0.329342  0.250000  1
  Dy  Dy2  1  0.670865  0.994681  0.750000  1
  Dy  Dy3  1  0.329372  0.005409  0.250000  1
  Al  Al4  1  0.127440  0.127606  0.750000  1
  Al  Al5  1  0.872436  0.872522  0.250000  1
  Al  Al6  1  0.001047  0.335053  0.574228  1
  Al  Al7  1  0.998829  0.664630  0.425480  1
  Al  Al8  1  0.998829  0.664630  0.074520  1
  Al  Al9  1  0.335451  0.001236  0.925719  1
  Al  Al10  1  0.001047  0.335053  0.925772  1
  Al  Al11  1  0.664627  0.998869  0.074207  1
  Al  Al12  1  0.664627  0.998869  0.425793  1
  Al  Al13  1  0.335451  0.001236  0.574281  1
  Al  Al14  1  0.333176  0.333168  0.050730  1
  Al  Al15  1  0.666729  0.666890  0.949677  1
  Al  Al16  1  0.666729  0.666890  0.550323  1
  Al  Al17  1  0.333176  0.333168  0.449270  1
  Al  Al18  1  0.339144  0.549270  0.750000  1
  Al  Al19  1  0.661065  0.451044  0.250000  1
  Al  Al20  1  0.549098  0.338628  0.750000  1
  Al  Al21  1  0.451148  0.661149  0.250000  1
  Rh  Rh22  1  0.671690  0.327776  0.499806  1
  Rh  Rh23  1  0.327922  0.671795  0.499868  1
  Rh  Rh24  1  0.327922  0.671795  0.000132  1
  Rh  Rh25  1  0.671690  0.327776  0.000194  1
  Rh  Rh26  1  0.000217  0.000364  0.499672  1
  Rh  Rh27  1  0.000217  0.000364  0.000328  1
