# generated using pymatgen
data_TmLu3Co3Si4Rh
_symmetry_space_group_name_H-M   'P 1'
_cell_length_a   4.13068700
_cell_length_b   6.71544358
_cell_length_c   7.08848653
_cell_angle_alpha   90.33052739
_cell_angle_beta   90.00000000
_cell_angle_gamma   90.00000000
_symmetry_Int_Tables_number   1
_chemical_formula_structural   TmLu3Co3Si4Rh
_chemical_formula_sum   'Tm1 Lu3 Co3 Si4 Rh1'
_cell_volume   196.62705954
_cell_formula_units_Z   1
loop_
 _symmetry_equiv_pos_site_id
 _symmetry_equiv_pos_as_xyz
  1  'x, y, z'
loop_
 _atom_site_type_symbol
 _atom_site_label
 _atom_site_symmetry_multiplicity
 _atom_site_fract_x
 _atom_site_fract_y
 _atom_site_fract_z
 _atom_site_occupancy
  Tm  Tm0  1  0.750000  0.004789  0.194201  1
  Lu  Lu1  1  0.250000  0.995699  0.801933  1
  Lu  Lu2  1  0.250000  0.486788  0.691042  1
  Lu  Lu3  1  0.750000  0.504452  0.311755  1
  Co  Co4  1  0.750000  0.847025  0.570292  1
  Co  Co5  1  0.250000  0.158286  0.434701  1
  Co  Co6  1  0.750000  0.348451  0.933380  1
  Si  Si7  1  0.250000  0.293639  0.101160  1
  Si  Si8  1  0.750000  0.699953  0.883721  1
  Si  Si9  1  0.250000  0.802580  0.408233  1
  Si  Si10  1  0.750000  0.199698  0.602322  1
  Rh  Rh11  1  0.250000  0.658639  0.067257  1
