# generated using pymatgen
data_Hf3Nb(FeP)4
_symmetry_space_group_name_H-M   'P 1'
_cell_length_a   3.69829900
_cell_length_b   6.22572632
_cell_length_c   7.01378299
_cell_angle_alpha   90.23695079
_cell_angle_beta   90.00000000
_cell_angle_gamma   90.00000000
_symmetry_Int_Tables_number   1
_chemical_formula_structural   Hf3Nb(FeP)4
_chemical_formula_sum   'Hf3 Nb1 Fe4 P4'
_cell_volume   161.48814863
_cell_formula_units_Z   1
loop_
 _symmetry_equiv_pos_site_id
 _symmetry_equiv_pos_as_xyz
  1  'x, y, z'
loop_
 _atom_site_type_symbol
 _atom_site_label
 _atom_site_symmetry_multiplicity
 _atom_site_fract_x
 _atom_site_fract_y
 _atom_site_fract_z
 _atom_site_occupancy
  Hf  Hf0  1  0.750000  0.483278  0.318810  1
  Hf  Hf1  1  0.250000  0.017089  0.814719  1
  Hf  Hf2  1  0.750000  0.981665  0.184902  1
  Nb  Nb3  1  0.250000  0.517073  0.679469  1
  Fe  Fe4  1  0.750000  0.854501  0.563549  1
  Fe  Fe5  1  0.250000  0.147721  0.438221  1
  Fe  Fe6  1  0.750000  0.353268  0.937821  1
  Fe  Fe7  1  0.250000  0.646759  0.059633  1
  P  P8  1  0.250000  0.280421  0.115070  1
  P  P9  1  0.750000  0.715736  0.882079  1
  P  P10  1  0.250000  0.779977  0.389765  1
  P  P11  1  0.750000  0.222511  0.615962  1
