# generated using pymatgen
data_KRbNp2(AgTe3)2
_symmetry_space_group_name_H-M   'P 1'
_cell_length_a   4.54177200
_cell_length_b   9.23404975
_cell_length_c   10.96039399
_cell_angle_alpha   70.37666080
_cell_angle_beta   90.00000000
_cell_angle_gamma   90.00000000
_symmetry_Int_Tables_number   1
_chemical_formula_structural   KRbNp2(AgTe3)2
_chemical_formula_sum   'K1 Rb1 Np2 Ag2 Te6'
_cell_volume   432.97025302
_cell_formula_units_Z   1
loop_
 _symmetry_equiv_pos_site_id
 _symmetry_equiv_pos_as_xyz
  1  'x, y, z'
loop_
 _atom_site_type_symbol
 _atom_site_label
 _atom_site_symmetry_multiplicity
 _atom_site_fract_x
 _atom_site_fract_y
 _atom_site_fract_z
 _atom_site_occupancy
  K  K0  1  0.750000  0.763191  0.283298  1
  Rb  Rb1  1  0.250000  0.240370  0.715688  1
  Np  Np2  1  0.250000  0.688588  0.841597  1
  Np  Np3  1  0.750000  0.311832  0.158715  1
  Ag  Ag4  1  0.250000  0.079705  0.403982  1
  Ag  Ag5  1  0.750000  0.918445  0.595604  1
  Te  Te6  1  0.250000  0.749309  0.553103  1
  Te  Te7  1  0.750000  0.905401  0.856291  1
  Te  Te8  1  0.750000  0.453503  0.859149  1
  Te  Te9  1  0.750000  0.248322  0.445462  1
  Te  Te10  1  0.250000  0.549309  0.142740  1
  Te  Te11  1  0.250000  0.092023  0.144368  1
