# generated using pymatgen
data_PrCo(SiRh)2
_symmetry_space_group_name_H-M   'P 1'
_cell_length_a   6.57092849
_cell_length_b   6.69137016
_cell_length_c   6.57092964
_cell_angle_alpha   130.98722796
_cell_angle_beta   114.46795939
_cell_angle_gamma   85.37581689
_symmetry_Int_Tables_number   1
_chemical_formula_structural   PrCo(SiRh)2
_chemical_formula_sum   'Pr2 Co2 Si4 Rh4'
_cell_volume   190.67478553
_cell_formula_units_Z   2
loop_
 _symmetry_equiv_pos_site_id
 _symmetry_equiv_pos_as_xyz
  1  'x, y, z'
loop_
 _atom_site_type_symbol
 _atom_site_label
 _atom_site_symmetry_multiplicity
 _atom_site_fract_x
 _atom_site_fract_y
 _atom_site_fract_z
 _atom_site_occupancy
  Pr  Pr0  1  0.754265  0.037759  0.283495  1
  Pr  Pr1  1  0.245735  0.962241  0.716505  1
  Co  Co2  1  0.219807  0.500000  0.719807  1
  Co  Co3  1  0.780193  0.500000  0.280193  1
  Si  Si4  1  0.574531  0.384307  0.809777  1
  Si  Si5  1  0.925567  0.711750  0.786182  1
  Si  Si6  1  0.425469  0.615693  0.190223  1
  Si  Si7  1  0.074433  0.288250  0.213818  1
  Rh  Rh8  1  0.500000  0.500000  0.500000  1
  Rh  Rh9  1  0.000000  0.500000  0.000000  1
  Rh  Rh10  1  0.718709  0.000000  0.718709  1
  Rh  Rh11  1  0.281291  0.000000  0.281291  1
