# generated using pymatgen
data_Nd10IrPt4Rh
_symmetry_space_group_name_H-M   'P 1'
_cell_length_a   11.41852800
_cell_length_b   11.41852800
_cell_length_c   6.57154900
_cell_angle_alpha   90.00000000
_cell_angle_beta   90.00000000
_cell_angle_gamma   90.00000000
_symmetry_Int_Tables_number   1
_chemical_formula_structural   Nd10IrPt4Rh
_chemical_formula_sum   'Nd20 Ir2 Pt8 Rh2'
_cell_volume   856.81683861
_cell_formula_units_Z   2
loop_
 _symmetry_equiv_pos_site_id
 _symmetry_equiv_pos_as_xyz
  1  'x, y, z'
loop_
 _atom_site_type_symbol
 _atom_site_label
 _atom_site_symmetry_multiplicity
 _atom_site_fract_x
 _atom_site_fract_y
 _atom_site_fract_z
 _atom_site_occupancy
  Nd  Nd0  1  0.089746  0.295189  0.123556  1
  Nd  Nd1  1  0.795189  0.410254  0.123556  1
  Nd  Nd2  1  0.204811  0.589746  0.123556  1
  Nd  Nd3  1  0.910254  0.704811  0.123556  1
  Nd  Nd4  1  0.410254  0.795189  0.376444  1
  Nd  Nd5  1  0.589746  0.204811  0.376444  1
  Nd  Nd6  1  0.295189  0.089746  0.376444  1
  Nd  Nd7  1  0.704811  0.910254  0.376444  1
  Nd  Nd8  1  0.410374  0.204828  0.874435  1
  Nd  Nd9  1  0.704828  0.089626  0.874435  1
  Nd  Nd10  1  0.295172  0.910374  0.874435  1
  Nd  Nd11  1  0.589626  0.795172  0.874435  1
  Nd  Nd12  1  0.089626  0.704828  0.625565  1
  Nd  Nd13  1  0.910374  0.295172  0.625565  1
  Nd  Nd14  1  0.204828  0.410374  0.625565  1
  Nd  Nd15  1  0.795172  0.589626  0.625565  1
  Nd  Nd16  1  0.000000  0.000000  0.999952  1
  Nd  Nd17  1  0.500000  0.500000  0.999952  1
  Nd  Nd18  1  0.500000  0.500000  0.500048  1
  Nd  Nd19  1  0.000000  0.000000  0.500048  1
  Ir  Ir20  1  0.500000  0.000000  0.616162  1
  Ir  Ir21  1  0.000000  0.500000  0.883838  1
  Pt  Pt22  1  0.154178  0.845822  0.250000  1
  Pt  Pt23  1  0.345822  0.345822  0.250000  1
  Pt  Pt24  1  0.654178  0.654178  0.250000  1
  Pt  Pt25  1  0.845822  0.154178  0.250000  1
  Pt  Pt26  1  0.346358  0.653642  0.750000  1
  Pt  Pt27  1  0.153642  0.153642  0.750000  1
  Pt  Pt28  1  0.846358  0.846358  0.750000  1
  Pt  Pt29  1  0.653642  0.346358  0.750000  1
  Rh  Rh30  1  0.000000  0.500000  0.386079  1
  Rh  Rh31  1  0.500000  0.000000  0.113921  1
