# generated using pymatgen
data_Yb5PrRu2
_symmetry_space_group_name_H-M   'P 1'
_cell_length_a   6.20183407
_cell_length_b   7.65010277
_cell_length_c   9.27392691
_cell_angle_alpha   89.92301364
_cell_angle_beta   90.17044825
_cell_angle_gamma   89.83839421
_symmetry_Int_Tables_number   1
_chemical_formula_structural   Yb5PrRu2
_chemical_formula_sum   'Yb10 Pr2 Ru4'
_cell_volume   439.99428382
_cell_formula_units_Z   2
loop_
 _symmetry_equiv_pos_site_id
 _symmetry_equiv_pos_as_xyz
  1  'x, y, z'
loop_
 _atom_site_type_symbol
 _atom_site_label
 _atom_site_symmetry_multiplicity
 _atom_site_fract_x
 _atom_site_fract_y
 _atom_site_fract_z
 _atom_site_occupancy
  Yb  Yb0  1  0.346676  0.667503  0.066624  1
  Yb  Yb1  1  0.153871  0.168715  0.435997  1
  Yb  Yb2  1  0.652360  0.333212  0.563268  1
  Yb  Yb3  1  0.846566  0.828253  0.934590  1
  Yb  Yb4  1  0.650652  0.332893  0.935212  1
  Yb  Yb5  1  0.851690  0.832571  0.565678  1
  Yb  Yb6  1  0.348749  0.668096  0.431938  1
  Yb  Yb7  1  0.871562  0.539308  0.250110  1
  Yb  Yb8  1  0.627067  0.035126  0.249942  1
  Yb  Yb9  1  0.127918  0.461533  0.749730  1
  Pr  Pr10  1  0.152253  0.167717  0.069764  1
  Pr  Pr11  1  0.379189  0.960046  0.749589  1
  Ru  Ru12  1  0.050624  0.879243  0.247801  1
  Ru  Ru13  1  0.448656  0.372163  0.250122  1
  Ru  Ru14  1  0.954736  0.122322  0.753747  1
  Ru  Ru15  1  0.537430  0.631299  0.745889  1
