# generated using pymatgen
data_CrFe3W2
_symmetry_space_group_name_H-M   'P 1'
_cell_length_a   4.76224700
_cell_length_b   4.76224649
_cell_length_c   7.60846700
_cell_angle_alpha   90.00000000
_cell_angle_beta   90.00000000
_cell_angle_gamma   120.00001051
_symmetry_Int_Tables_number   1
_chemical_formula_structural   CrFe3W2
_chemical_formula_sum   'Cr2 Fe6 W4'
_cell_volume   149.43472682
_cell_formula_units_Z   2
loop_
 _symmetry_equiv_pos_site_id
 _symmetry_equiv_pos_as_xyz
  1  'x, y, z'
loop_
 _atom_site_type_symbol
 _atom_site_label
 _atom_site_symmetry_multiplicity
 _atom_site_fract_x
 _atom_site_fract_y
 _atom_site_fract_z
 _atom_site_occupancy
  Cr  Cr0  1  0.000000  0.000000  0.000000  1
  Cr  Cr1  1  0.000000  0.000000  0.500000  1
  Fe  Fe2  1  0.827329  0.172671  0.750000  1
  Fe  Fe3  1  0.827329  0.654657  0.750000  1
  Fe  Fe4  1  0.345343  0.172671  0.750000  1
  Fe  Fe5  1  0.172671  0.827329  0.250000  1
  Fe  Fe6  1  0.172671  0.345343  0.250000  1
  Fe  Fe7  1  0.654657  0.827329  0.250000  1
  W  W8  1  0.333333  0.666667  0.932662  1
  W  W9  1  0.666667  0.333333  0.067338  1
  W  W10  1  0.666667  0.333333  0.432662  1
  W  W11  1  0.333333  0.666667  0.567338  1
