# generated using pymatgen
data_Ca4DyHo5(AgPb3)2
_symmetry_space_group_name_H-M   'P 1'
_cell_length_a   9.31875200
_cell_length_b   9.31875225
_cell_length_c   6.82410700
_cell_angle_alpha   90.00000000
_cell_angle_beta   90.00000000
_cell_angle_gamma   120.00296568
_symmetry_Int_Tables_number   1
_chemical_formula_structural   Ca4DyHo5(AgPb3)2
_chemical_formula_sum   'Ca4 Dy1 Ho5 Ag2 Pb6'
_cell_volume   513.19096267
_cell_formula_units_Z   1
loop_
 _symmetry_equiv_pos_site_id
 _symmetry_equiv_pos_as_xyz
  1  'x, y, z'
loop_
 _atom_site_type_symbol
 _atom_site_label
 _atom_site_symmetry_multiplicity
 _atom_site_fract_x
 _atom_site_fract_y
 _atom_site_fract_z
 _atom_site_occupancy
  Ca  Ca0  1  0.666648  0.333269  0.500030  1
  Ca  Ca1  1  0.333269  0.666648  0.500030  1
  Ca  Ca2  1  0.333269  0.666648  0.999970  1
  Ca  Ca3  1  0.666648  0.333269  0.999970  1
  Dy  Dy4  1  0.729367  0.729367  0.250000  1
  Ho  Ho5  1  0.270462  0.999993  0.250000  1
  Ho  Ho6  1  0.999993  0.270462  0.250000  1
  Ho  Ho7  1  0.270554  0.270554  0.750000  1
  Ho  Ho8  1  0.729541  0.000007  0.750000  1
  Ho  Ho9  1  0.000007  0.729541  0.750000  1
  Ag  Ag10  1  0.000183  0.000183  0.500133  1
  Ag  Ag11  1  0.000183  0.000183  0.999867  1
  Pb  Pb12  1  0.378769  0.378769  0.250000  1
  Pb  Pb13  1  0.620934  0.000184  0.250000  1
  Pb  Pb14  1  0.000184  0.620934  0.250000  1
  Pb  Pb15  1  0.620959  0.620959  0.750000  1
  Pb  Pb16  1  0.379028  0.000004  0.750000  1
  Pb  Pb17  1  0.000004  0.379028  0.750000  1
