# generated using pymatgen
data_Tm5Lu3(Si4Mo3)4
_symmetry_space_group_name_H-M   'P 1'
_cell_length_a   6.70456102
_cell_length_b   6.90760705
_cell_length_c   12.84535506
_cell_angle_alpha   89.98903168
_cell_angle_beta   90.00299384
_cell_angle_gamma   89.99201127
_symmetry_Int_Tables_number   1
_chemical_formula_structural   Tm5Lu3(Si4Mo3)4
_chemical_formula_sum   'Tm5 Lu3 Si16 Mo12'
_cell_volume   594.90014138
_cell_formula_units_Z   1
loop_
 _symmetry_equiv_pos_site_id
 _symmetry_equiv_pos_as_xyz
  1  'x, y, z'
loop_
 _atom_site_type_symbol
 _atom_site_label
 _atom_site_symmetry_multiplicity
 _atom_site_fract_x
 _atom_site_fract_y
 _atom_site_fract_z
 _atom_site_occupancy
  Tm  Tm0  1  0.497008  0.331911  0.093667  1
  Tm  Tm1  1  0.997040  0.168050  0.406447  1
  Tm  Tm2  1  0.502945  0.668035  0.593554  1
  Tm  Tm3  1  0.003002  0.832040  0.906486  1
  Tm  Tm4  1  0.503022  0.668045  0.906345  1
  Lu  Lu5  1  0.003288  0.831699  0.593741  1
  Lu  Lu6  1  0.496742  0.331690  0.406175  1
  Lu  Lu7  1  0.996652  0.168271  0.093880  1
  Si  Si8  1  0.660923  0.040260  0.546765  1
  Si  Si9  1  0.160299  0.459346  0.953296  1
  Si  Si10  1  0.338977  0.959967  0.046913  1
  Si  Si11  1  0.839113  0.540252  0.453189  1
  Si  Si12  1  0.339600  0.960108  0.453203  1
  Si  Si13  1  0.839811  0.539842  0.046932  1
  Si  Si14  1  0.660645  0.040443  0.953306  1
  Si  Si15  1  0.160378  0.460101  0.546740  1
  Si  Si16  1  0.534108  0.368600  0.750014  1
  Si  Si17  1  0.034063  0.131061  0.749816  1
  Si  Si18  1  0.466014  0.631071  0.250178  1
  Si  Si19  1  0.966016  0.868939  0.249884  1
  Si  Si20  1  0.801976  0.632216  0.749755  1
  Si  Si21  1  0.301253  0.868123  0.749756  1
  Si  Si22  1  0.198391  0.367698  0.249981  1
  Si  Si23  1  0.698455  0.132312  0.250072  1
  Mo  Mo24  1  0.829839  0.334379  0.624706  1
  Mo  Mo25  1  0.329844  0.165438  0.875171  1
  Mo  Mo26  1  0.170097  0.665609  0.124912  1
  Mo  Mo27  1  0.670116  0.834527  0.375209  1
  Mo  Mo28  1  0.170293  0.665458  0.375515  1
  Mo  Mo29  1  0.670384  0.834661  0.124686  1
  Mo  Mo30  1  0.830058  0.334342  0.875367  1
  Mo  Mo31  1  0.329755  0.165564  0.624434  1
  Mo  Mo32  1  0.666374  0.996899  0.749898  1
  Mo  Mo33  1  0.166164  0.502985  0.749911  1
  Mo  Mo34  1  0.333725  0.003311  0.250022  1
  Mo  Mo35  1  0.833628  0.496746  0.250075  1
