# generated using pymatgen
data_Li8SiSn3Pt4
_symmetry_space_group_name_H-M   'P 1'
_cell_length_a   6.16618904
_cell_length_b   6.16610500
_cell_length_c   6.16630400
_cell_angle_alpha   89.99896858
_cell_angle_beta   89.99352353
_cell_angle_gamma   90.00201626
_symmetry_Int_Tables_number   1
_chemical_formula_structural   Li8SiSn3Pt4
_chemical_formula_sum   'Li8 Si1 Sn3 Pt4'
_cell_volume   234.45131866
_cell_formula_units_Z   1
loop_
 _symmetry_equiv_pos_site_id
 _symmetry_equiv_pos_as_xyz
  1  'x, y, z'
loop_
 _atom_site_type_symbol
 _atom_site_label
 _atom_site_symmetry_multiplicity
 _atom_site_fract_x
 _atom_site_fract_y
 _atom_site_fract_z
 _atom_site_occupancy
  Li  Li0  1  0.264410  0.735538  0.264458  1
  Li  Li1  1  0.735533  0.264413  0.264477  1
  Li  Li2  1  0.264503  0.264488  0.735506  1
  Li  Li3  1  0.999982  0.999956  0.000043  1
  Li  Li4  1  0.000086  0.500035  0.499967  1
  Li  Li5  1  0.735539  0.735516  0.735573  1
  Li  Li6  1  0.500032  0.000039  0.499968  1
  Li  Li7  1  0.500035  0.500039  0.999967  1
  Si  Si8  1  0.500093  0.500063  0.499958  1
  Sn  Sn9  1  0.000023  0.000052  0.500124  1
  Sn  Sn10  1  0.000015  0.499854  0.999929  1
  Sn  Sn11  1  0.499870  0.999999  0.999985  1
  Pt  Pt12  1  0.269104  0.269125  0.269205  1
  Pt  Pt13  1  0.730771  0.269127  0.730884  1
  Pt  Pt14  1  0.730917  0.730946  0.269064  1
  Pt  Pt15  1  0.269087  0.730811  0.730890  1
