# generated using pymatgen
data_SmSi(AsRh2)3
_symmetry_space_group_name_H-M   'P 1'
_cell_length_a   7.20040000
_cell_length_b   7.20040059
_cell_length_c   3.85889000
_cell_angle_alpha   90.00000000
_cell_angle_beta   90.00000000
_cell_angle_gamma   119.99999728
_symmetry_Int_Tables_number   1
_chemical_formula_structural   SmSi(AsRh2)3
_chemical_formula_sum   'Sm1 Si1 As3 Rh6'
_cell_volume   173.26319740
_cell_formula_units_Z   1
loop_
 _symmetry_equiv_pos_site_id
 _symmetry_equiv_pos_as_xyz
  1  'x, y, z'
loop_
 _atom_site_type_symbol
 _atom_site_label
 _atom_site_symmetry_multiplicity
 _atom_site_fract_x
 _atom_site_fract_y
 _atom_site_fract_z
 _atom_site_occupancy
  Sm  Sm0  1  0.000000  0.000000  0.000000  1
  Si  Si1  1  0.333333  0.666667  0.000000  1
  As  As2  1  0.808516  0.617030  0.500000  1
  As  As3  1  0.382970  0.191484  0.500000  1
  As  As4  1  0.808516  0.191484  0.500000  1
  Rh  Rh5  1  0.531222  0.062445  0.000000  1
  Rh  Rh6  1  0.595377  0.797688  0.500000  1
  Rh  Rh7  1  0.202312  0.404623  0.500000  1
  Rh  Rh8  1  0.531222  0.468778  0.000000  1
  Rh  Rh9  1  0.202312  0.797688  0.500000  1
  Rh  Rh10  1  0.937555  0.468778  0.000000  1
