# generated using pymatgen
data_Dy3U(NiP)4
_symmetry_space_group_name_H-M   'P 1'
_cell_length_a   3.90079500
_cell_length_b   3.90079563
_cell_length_c   15.23469000
_cell_angle_alpha   90.00000000
_cell_angle_beta   90.00000000
_cell_angle_gamma   120.00000317
_symmetry_Int_Tables_number   1
_chemical_formula_structural   Dy3U(NiP)4
_chemical_formula_sum   'Dy3 U1 Ni4 P4'
_cell_volume   200.75693826
_cell_formula_units_Z   1
loop_
 _symmetry_equiv_pos_site_id
 _symmetry_equiv_pos_as_xyz
  1  'x, y, z'
loop_
 _atom_site_type_symbol
 _atom_site_label
 _atom_site_symmetry_multiplicity
 _atom_site_fract_x
 _atom_site_fract_y
 _atom_site_fract_z
 _atom_site_occupancy
  Dy  Dy0  1  0.000000  0.000000  0.000000  1
  Dy  Dy1  1  0.000000  0.000000  0.247941  1
  Dy  Dy2  1  0.000000  0.000000  0.752059  1
  U  U3  1  0.000000  0.000000  0.500000  1
  Ni  Ni4  1  0.333333  0.666667  0.378699  1
  Ni  Ni5  1  0.666667  0.333333  0.621301  1
  Ni  Ni6  1  0.666667  0.333333  0.870137  1
  Ni  Ni7  1  0.333333  0.666667  0.129863  1
  P  P8  1  0.333333  0.666667  0.877190  1
  P  P9  1  0.666667  0.333333  0.122810  1
  P  P10  1  0.666667  0.333333  0.377663  1
  P  P11  1  0.333333  0.666667  0.622337  1
