# generated using pymatgen
data_Na3Yb2WO6
_symmetry_space_group_name_H-M   'P 1'
_cell_length_a   10.89641923
_cell_length_b   10.35084087
_cell_length_c   5.77682400
_cell_angle_alpha   79.50677197
_cell_angle_beta   69.07428542
_cell_angle_gamma   31.41894862
_symmetry_Int_Tables_number   1
_chemical_formula_structural   Na3Yb2WO6
_chemical_formula_sum   'Na6 Yb4 W2 O12'
_cell_volume   307.01332638
_cell_formula_units_Z   2
loop_
 _symmetry_equiv_pos_site_id
 _symmetry_equiv_pos_as_xyz
  1  'x, y, z'
loop_
 _atom_site_type_symbol
 _atom_site_label
 _atom_site_symmetry_multiplicity
 _atom_site_fract_x
 _atom_site_fract_y
 _atom_site_fract_z
 _atom_site_occupancy
  Na  Na0  1  0.000000  0.000000  0.000000  1
  Na  Na1  1  0.087618  0.087618  0.412382  1
  Na  Na2  1  0.837618  0.837618  0.162382  1
  Na  Na3  1  0.162382  0.162382  0.837618  1
  Na  Na4  1  0.250000  0.250000  0.250000  1
  Na  Na5  1  0.412382  0.412382  0.087618  1
  Yb  Yb6  1  0.582224  0.582224  0.917776  1
  Yb  Yb7  1  0.917776  0.917776  0.582224  1
  Yb  Yb8  1  0.667776  0.667776  0.332224  1
  Yb  Yb9  1  0.332224  0.332224  0.667776  1
  W  W10  1  0.750000  0.750000  0.750000  1
  W  W11  1  0.500000  0.500000  0.500000  1
  O  O12  1  0.291535  0.708465  0.291535  1
  O  O13  1  0.708465  0.291535  0.708465  1
  O  O14  1  0.958465  0.541535  0.958465  1
  O  O15  1  0.541535  0.958465  0.541535  1
  O  O16  1  0.197872  0.650337  0.789912  1
  O  O17  1  0.361879  0.789912  0.650337  1
  O  O18  1  0.789912  0.361879  0.197872  1
  O  O19  1  0.650337  0.197872  0.361879  1
  O  O20  1  0.599663  0.052128  0.888121  1
  O  O21  1  0.888121  0.460088  0.599663  1
  O  O22  1  0.460088  0.888121  0.052128  1
  O  O23  1  0.052128  0.599663  0.460088  1
