# generated using pymatgen
data_HoLuMnTc3
_symmetry_space_group_name_H-M   'P 1'
_cell_length_a   5.27385610
_cell_length_b   5.27385586
_cell_length_c   8.88616100
_cell_angle_alpha   89.99908595
_cell_angle_beta   90.00091413
_cell_angle_gamma   119.99471936
_symmetry_Int_Tables_number   1
_chemical_formula_structural   HoLuMnTc3
_chemical_formula_sum   'Ho2 Lu2 Mn2 Tc6'
_cell_volume   214.05454214
_cell_formula_units_Z   2
loop_
 _symmetry_equiv_pos_site_id
 _symmetry_equiv_pos_as_xyz
  1  'x, y, z'
loop_
 _atom_site_type_symbol
 _atom_site_label
 _atom_site_symmetry_multiplicity
 _atom_site_fract_x
 _atom_site_fract_y
 _atom_site_fract_z
 _atom_site_occupancy
  Ho  Ho0  1  0.666556  0.333444  0.064716  1
  Ho  Ho1  1  0.333444  0.666556  0.935284  1
  Lu  Lu2  1  0.333439  0.666561  0.564385  1
  Lu  Lu3  1  0.666561  0.333439  0.435615  1
  Mn  Mn4  1  0.000000  0.000000  0.000000  1
  Mn  Mn5  1  0.000000  0.000000  0.500000  1
  Tc  Tc6  1  0.168496  0.337707  0.252089  1
  Tc  Tc7  1  0.168466  0.831534  0.252074  1
  Tc  Tc8  1  0.662293  0.831504  0.252089  1
  Tc  Tc9  1  0.831504  0.662293  0.747911  1
  Tc  Tc10  1  0.831534  0.168466  0.747926  1
  Tc  Tc11  1  0.337707  0.168496  0.747911  1
