# generated using pymatgen
data_TbY4(TcB3)2
_symmetry_space_group_name_H-M   'P 1'
_cell_length_a   5.54737277
_cell_length_b   5.54737147
_cell_length_c   8.50382245
_cell_angle_alpha   70.96356572
_cell_angle_beta   70.96356840
_cell_angle_gamma   59.99999777
_symmetry_Int_Tables_number   1
_chemical_formula_structural   TbY4(TcB3)2
_chemical_formula_sum   'Tb1 Y4 Tc2 B6'
_cell_volume   209.94298700
_cell_formula_units_Z   1
loop_
 _symmetry_equiv_pos_site_id
 _symmetry_equiv_pos_as_xyz
  1  'x, y, z'
loop_
 _atom_site_type_symbol
 _atom_site_label
 _atom_site_symmetry_multiplicity
 _atom_site_fract_x
 _atom_site_fract_y
 _atom_site_fract_z
 _atom_site_occupancy
  Tb  Tb0  1  0.000000  0.000000  0.000000  1
  Y  Y1  1  0.752083  0.752083  0.743752  1
  Y  Y2  1  0.247917  0.247917  0.256248  1
  Y  Y3  1  0.581360  0.581360  0.255923  1
  Y  Y4  1  0.418640  0.418640  0.744077  1
  Tc  Tc5  1  0.888944  0.888944  0.333166  1
  Tc  Tc6  1  0.111056  0.111056  0.666834  1
  B  B7  1  0.500000  0.170686  0.500000  1
  B  B8  1  0.829314  0.500000  0.500000  1
  B  B9  1  0.170686  0.829314  0.500000  1
  B  B10  1  0.170686  0.500000  0.500000  1
  B  B11  1  0.829314  0.170686  0.500000  1
  B  B12  1  0.500000  0.829314  0.500000  1
