# generated using pymatgen
data_Er8Nb5Si16W7
_symmetry_space_group_name_H-M   'P 1'
_cell_length_a   6.92575909
_cell_length_b   6.92941560
_cell_length_c   12.87076155
_cell_angle_alpha   89.87066432
_cell_angle_beta   89.98456717
_cell_angle_gamma   89.97895676
_symmetry_Int_Tables_number   1
_chemical_formula_structural   Er8Nb5Si16W7
_chemical_formula_sum   'Er8 Nb5 Si16 W7'
_cell_volume   617.68503995
_cell_formula_units_Z   1
loop_
 _symmetry_equiv_pos_site_id
 _symmetry_equiv_pos_as_xyz
  1  'x, y, z'
loop_
 _atom_site_type_symbol
 _atom_site_label
 _atom_site_symmetry_multiplicity
 _atom_site_fract_x
 _atom_site_fract_y
 _atom_site_fract_z
 _atom_site_occupancy
  Er  Er0  1  0.340214  0.999450  0.468439  1
  Er  Er1  1  0.500397  0.840331  0.719315  1
  Er  Er2  1  0.498805  0.159744  0.217896  1
  Er  Er3  1  0.838165  0.498358  0.281313  1
  Er  Er4  1  0.162108  0.500889  0.781139  1
  Er  Er5  1  0.660600  0.001144  0.968509  1
  Er  Er6  1  0.000763  0.338684  0.532368  1
  Er  Er7  1  0.999587  0.661851  0.030886  1
  Nb  Nb8  1  0.655948  0.498486  0.875325  1
  Nb  Nb9  1  0.344500  0.501231  0.375377  1
  Nb  Nb10  1  0.842061  0.992879  0.375247  1
  Nb  Nb11  1  0.003254  0.155219  0.124423  1
  Nb  Nb12  1  0.997674  0.844743  0.625472  1
  Si  Si13  1  0.205197  0.131753  0.683714  1
  Si  Si14  1  0.367901  0.705772  0.933264  1
  Si  Si15  1  0.632251  0.297906  0.435247  1
  Si  Si16  1  0.698070  0.372518  0.067449  1
  Si  Si17  1  0.301803  0.629081  0.567835  1
  Si  Si18  1  0.792702  0.866755  0.181598  1
  Si  Si19  1  0.131027  0.200512  0.316806  1
  Si  Si20  1  0.872525  0.801697  0.817844  1
  Si  Si21  1  0.293256  0.957765  0.063148  1
  Si  Si22  1  0.539123  0.791373  0.312911  1
  Si  Si23  1  0.457727  0.207687  0.814253  1
  Si  Si24  1  0.791427  0.539500  0.685113  1
  Si  Si25  1  0.207668  0.459899  0.184907  1
  Si  Si26  1  0.706175  0.044149  0.565835  1
  Si  Si27  1  0.961424  0.292118  0.934869  1
  Si  Si28  1  0.042571  0.704038  0.435510  1
  W  W29  1  0.330097  0.332378  0.999591  1
  W  W30  1  0.168096  0.828789  0.248896  1
  W  W31  1  0.831995  0.170534  0.750199  1
  W  W32  1  0.668986  0.667806  0.499974  1
  W  W33  1  0.159632  0.004489  0.875089  1
  W  W34  1  0.493639  0.659203  0.124069  1
  W  W35  1  0.502635  0.341267  0.626172  1
