# generated using pymatgen
data_Tb3Ce(Al3Co)6
_symmetry_space_group_name_H-M   'P 1'
_cell_length_a   7.39060603
_cell_length_b   7.38979644
_cell_length_c   9.29671800
_cell_angle_alpha   90.00000000
_cell_angle_beta   90.00000000
_cell_angle_gamma   119.21006531
_symmetry_Int_Tables_number   1
_chemical_formula_structural   Tb3Ce(Al3Co)6
_chemical_formula_sum   'Tb3 Ce1 Al18 Co6'
_cell_volume   443.17475594
_cell_formula_units_Z   1
loop_
 _symmetry_equiv_pos_site_id
 _symmetry_equiv_pos_as_xyz
  1  'x, y, z'
loop_
 _atom_site_type_symbol
 _atom_site_label
 _atom_site_symmetry_multiplicity
 _atom_site_fract_x
 _atom_site_fract_y
 _atom_site_fract_z
 _atom_site_occupancy
  Tb  Tb0  1  0.993703  0.672517  0.250000  1
  Tb  Tb1  1  0.006678  0.327299  0.750000  1
  Tb  Tb2  1  0.671559  0.993391  0.250000  1
  Ce  Ce3  1  0.327621  0.006225  0.750000  1
  Al  Al4  1  0.123959  0.124649  0.250000  1
  Al  Al5  1  0.871907  0.872572  0.750000  1
  Al  Al6  1  0.332402  0.334005  0.540042  1
  Al  Al7  1  0.667963  0.667965  0.042846  1
  Al  Al8  1  0.332402  0.334005  0.959958  1
  Al  Al9  1  0.667963  0.667965  0.457154  1
  Al  Al10  1  0.338913  0.553683  0.250000  1
  Al  Al11  1  0.661908  0.448815  0.750000  1
  Al  Al12  1  0.554639  0.339777  0.250000  1
  Al  Al13  1  0.447233  0.658941  0.750000  1
  Al  Al14  1  0.997760  0.335181  0.072079  1
  Al  Al15  1  0.000076  0.662715  0.570756  1
  Al  Al16  1  0.335565  0.998590  0.426397  1
  Al  Al17  1  0.666397  0.001801  0.929270  1
  Al  Al18  1  0.000076  0.662715  0.929244  1
  Al  Al19  1  0.997760  0.335181  0.427921  1
  Al  Al20  1  0.666397  0.001801  0.570730  1
  Al  Al21  1  0.335565  0.998590  0.073603  1
  Co  Co22  1  0.000903  0.000105  0.998873  1
  Co  Co23  1  0.000903  0.000105  0.501127  1
  Co  Co24  1  0.670474  0.328742  0.999466  1
  Co  Co25  1  0.329400  0.671961  0.500492  1
  Co  Co26  1  0.329400  0.671961  0.999508  1
  Co  Co27  1  0.670474  0.328742  0.500534  1
