# generated using pymatgen
data_Lu2Cr4P7Rh8
_symmetry_space_group_name_H-M   'P 1'
_cell_length_a   3.75890030
_cell_length_b   9.56727005
_cell_length_c   9.61516795
_cell_angle_alpha   119.84902551
_cell_angle_beta   90.05327521
_cell_angle_gamma   89.96181437
_symmetry_Int_Tables_number   1
_chemical_formula_structural   Lu2Cr4P7Rh8
_chemical_formula_sum   'Lu2 Cr4 P7 Rh8'
_cell_volume   299.91268712
_cell_formula_units_Z   1
loop_
 _symmetry_equiv_pos_site_id
 _symmetry_equiv_pos_as_xyz
  1  'x, y, z'
loop_
 _atom_site_type_symbol
 _atom_site_label
 _atom_site_symmetry_multiplicity
 _atom_site_fract_x
 _atom_site_fract_y
 _atom_site_fract_z
 _atom_site_occupancy
  Lu  Lu0  1  0.262009  0.665234  0.332107  1
  Lu  Lu1  1  0.761993  0.333171  0.666318  1
  Cr  Cr2  1  0.761821  0.109451  0.864708  1
  Cr  Cr3  1  0.761589  0.127840  0.230668  1
  Cr  Cr4  1  0.762021  0.763535  0.897144  1
  Cr  Cr5  1  0.262069  0.879194  0.159468  1
  P  P6  1  0.261630  0.993025  0.006854  1
  P  P7  1  0.761962  0.882625  0.593045  1
  P  P8  1  0.761909  0.406460  0.287436  1
  P  P9  1  0.761693  0.718445  0.124792  1
  P  P10  1  0.261895  0.112219  0.405546  1
  P  P11  1  0.262004  0.586872  0.703085  1
  P  P12  1  0.262021  0.296765  0.882413  1
  Rh  Rh13  1  0.262007  0.847709  0.732028  1
  Rh  Rh14  1  0.261765  0.267259  0.112823  1
  Rh  Rh15  1  0.761911  0.615604  0.555915  1
  Rh  Rh16  1  0.761878  0.447166  0.060979  1
  Rh  Rh17  1  0.761787  0.943369  0.386671  1
  Rh  Rh18  1  0.261749  0.368464  0.438117  1
  Rh  Rh19  1  0.262314  0.562891  0.928099  1
  Rh  Rh20  1  0.261972  0.072701  0.631785  1
