# generated using pymatgen
data_Rb8Li4ErTm3As8
_symmetry_space_group_name_H-M   'P 1'
_cell_length_a   10.55051825
_cell_length_b   10.55051848
_cell_length_c   6.80325702
_cell_angle_alpha   90.00636768
_cell_angle_beta   89.99363478
_cell_angle_gamma   99.70529101
_symmetry_Int_Tables_number   1
_chemical_formula_structural   Rb8Li4ErTm3As8
_chemical_formula_sum   'Rb8 Li4 Er1 Tm3 As8'
_cell_volume   746.45545654
_cell_formula_units_Z   1
loop_
 _symmetry_equiv_pos_site_id
 _symmetry_equiv_pos_as_xyz
  1  'x, y, z'
loop_
 _atom_site_type_symbol
 _atom_site_label
 _atom_site_symmetry_multiplicity
 _atom_site_fract_x
 _atom_site_fract_y
 _atom_site_fract_z
 _atom_site_occupancy
  Rb  Rb0  1  0.568222  0.931795  0.750051  1
  Rb  Rb1  1  0.931795  0.568222  0.249949  1
  Rb  Rb2  1  0.431788  0.068068  0.249927  1
  Rb  Rb3  1  0.068068  0.431788  0.750073  1
  Rb  Rb4  1  0.677737  0.322350  0.787538  1
  Rb  Rb5  1  0.822369  0.177630  0.287460  1
  Rb  Rb6  1  0.322350  0.677737  0.212462  1
  Rb  Rb7  1  0.177630  0.822369  0.712540  1
  Li  Li8  1  0.618516  0.618516  0.000000  1
  Li  Li9  1  0.881539  0.881539  0.500000  1
  Li  Li10  1  0.381546  0.381546  0.000000  1
  Li  Li11  1  0.118313  0.118313  0.500000  1
  Er  Er12  1  0.368437  0.368437  0.500000  1
  Tm  Tm13  1  0.868537  0.868537  0.000000  1
  Tm  Tm14  1  0.631696  0.631696  0.500000  1
  Tm  Tm15  1  0.131312  0.131312  0.000000  1
  As  As16  1  0.342300  0.157038  0.750763  1
  As  As17  1  0.157038  0.342300  0.249237  1
  As  As18  1  0.657691  0.842330  0.250008  1
  As  As19  1  0.842330  0.657691  0.749992  1
  As  As20  1  0.910031  0.089882  0.765987  1
  As  As21  1  0.590562  0.410309  0.265489  1
  As  As22  1  0.089882  0.910031  0.234013  1
  As  As23  1  0.410309  0.590562  0.734511  1
