# generated using pymatgen
data_Li4Pt5O12
_symmetry_space_group_name_H-M   'P 1'
_cell_length_a   6.12940626
_cell_length_b   6.12940600
_cell_length_c   13.67229600
_cell_angle_alpha   77.21990617
_cell_angle_beta   77.21990672
_cell_angle_gamma   89.79929996
_symmetry_Int_Tables_number   1
_chemical_formula_structural   Li4Pt5O12
_chemical_formula_sum   'Li8 Pt10 O24'
_cell_volume   487.96983330
_cell_formula_units_Z   2
loop_
 _symmetry_equiv_pos_site_id
 _symmetry_equiv_pos_as_xyz
  1  'x, y, z'
loop_
 _atom_site_type_symbol
 _atom_site_label
 _atom_site_symmetry_multiplicity
 _atom_site_fract_x
 _atom_site_fract_y
 _atom_site_fract_z
 _atom_site_occupancy
  Li  Li0  1  0.772525  0.536679  0.928889  1
  Li  Li1  1  0.536679  0.772525  0.428889  1
  Li  Li2  1  0.889803  0.110197  0.750000  1
  Li  Li3  1  0.110197  0.889803  0.250000  1
  Li  Li4  1  0.000000  0.000000  0.500000  1
  Li  Li5  1  0.227475  0.463321  0.071111  1
  Li  Li6  1  0.463321  0.227475  0.571111  1
  Li  Li7  1  0.000000  0.000000  0.000000  1
  Pt  Pt8  1  0.671665  0.667332  0.165460  1
  Pt  Pt9  1  0.164608  0.672352  0.664618  1
  Pt  Pt10  1  0.667332  0.671665  0.665460  1
  Pt  Pt11  1  0.500000  0.000000  0.000000  1
  Pt  Pt12  1  0.327648  0.835392  0.835382  1
  Pt  Pt13  1  0.328335  0.332668  0.834540  1
  Pt  Pt14  1  0.835392  0.327648  0.335382  1
  Pt  Pt15  1  0.672352  0.164608  0.164618  1
  Pt  Pt16  1  0.332668  0.328335  0.334540  1
  Pt  Pt17  1  0.000000  0.500000  0.500000  1
  O  O18  1  0.588027  0.559179  0.326302  1
  O  O19  1  0.223547  0.736266  0.510359  1
  O  O20  1  0.916043  0.890161  0.663512  1
  O  O21  1  0.078886  0.547774  0.343087  1
  O  O22  1  0.765229  0.737270  0.510622  1
  O  O23  1  0.559179  0.588027  0.826302  1
  O  O24  1  0.547774  0.078886  0.843087  1
  O  O25  1  0.262730  0.234771  0.989378  1
  O  O26  1  0.410543  0.886881  0.673801  1
  O  O27  1  0.263734  0.776453  0.989641  1
  O  O28  1  0.109839  0.083957  0.836488  1
  O  O29  1  0.113119  0.589457  0.826199  1
  O  O30  1  0.890161  0.916043  0.163512  1
  O  O31  1  0.886881  0.410543  0.173801  1
  O  O32  1  0.736266  0.223547  0.010359  1
  O  O33  1  0.589457  0.113119  0.326199  1
  O  O34  1  0.737270  0.765229  0.010622  1
  O  O35  1  0.452226  0.921114  0.156913  1
  O  O36  1  0.440821  0.411973  0.173698  1
  O  O37  1  0.234771  0.262730  0.489378  1
  O  O38  1  0.921114  0.452226  0.656913  1
  O  O39  1  0.083957  0.109839  0.336488  1
  O  O40  1  0.776453  0.263734  0.489641  1
  O  O41  1  0.411973  0.440821  0.673698  1
