# generated using pymatgen
data_ErSc3(SiMo)4
_symmetry_space_group_name_H-M   'P 1'
_cell_length_a   3.56353900
_cell_length_b   7.11802854
_cell_length_c   8.27061192
_cell_angle_alpha   89.90805761
_cell_angle_beta   90.00000000
_cell_angle_gamma   90.00000000
_symmetry_Int_Tables_number   1
_chemical_formula_structural   ErSc3(SiMo)4
_chemical_formula_sum   'Er1 Sc3 Si4 Mo4'
_cell_volume   209.78688057
_cell_formula_units_Z   1
loop_
 _symmetry_equiv_pos_site_id
 _symmetry_equiv_pos_as_xyz
  1  'x, y, z'
loop_
 _atom_site_type_symbol
 _atom_site_label
 _atom_site_symmetry_multiplicity
 _atom_site_fract_x
 _atom_site_fract_y
 _atom_site_fract_z
 _atom_site_occupancy
  Er  Er0  1  0.750000  0.457000  0.835492  1
  Sc  Sc1  1  0.250000  0.042386  0.333759  1
  Sc  Sc2  1  0.250000  0.543722  0.168876  1
  Sc  Sc3  1  0.750000  0.955713  0.665155  1
  Si  Si4  1  0.250000  0.253030  0.631194  1
  Si  Si5  1  0.250000  0.764925  0.863455  1
  Si  Si6  1  0.750000  0.742543  0.362689  1
  Si  Si7  1  0.750000  0.240375  0.140104  1
  Mo  Mo8  1  0.250000  0.123565  0.942918  1
  Mo  Mo9  1  0.250000  0.626844  0.556904  1
  Mo  Mo10  1  0.750000  0.875325  0.060694  1
  Mo  Mo11  1  0.750000  0.374573  0.438760  1
