# generated using pymatgen
data_Y20Cd5FeNiHg
_symmetry_space_group_name_H-M   'P 1'
_cell_length_a   9.67173400
_cell_length_b   9.67173541
_cell_length_c   9.78582800
_cell_angle_alpha   90.00000000
_cell_angle_beta   90.00000000
_cell_angle_gamma   119.89180200
_symmetry_Int_Tables_number   1
_chemical_formula_structural   Y20Cd5FeNiHg
_chemical_formula_sum   'Y20 Cd5 Fe1 Ni1 Hg1'
_cell_volume   793.61419874
_cell_formula_units_Z   1
loop_
 _symmetry_equiv_pos_site_id
 _symmetry_equiv_pos_as_xyz
  1  'x, y, z'
loop_
 _atom_site_type_symbol
 _atom_site_label
 _atom_site_symmetry_multiplicity
 _atom_site_fract_x
 _atom_site_fract_y
 _atom_site_fract_z
 _atom_site_occupancy
  Y  Y0  1  0.998164  0.001836  0.496017  1
  Y  Y1  1  0.998164  0.001836  0.003983  1
  Y  Y2  1  0.542498  0.457502  0.250000  1
  Y  Y3  1  0.544373  0.082684  0.250000  1
  Y  Y4  1  0.917316  0.455627  0.250000  1
  Y  Y5  1  0.456751  0.543249  0.750000  1
  Y  Y6  1  0.456295  0.912757  0.750000  1
  Y  Y7  1  0.087243  0.543705  0.750000  1
  Y  Y8  1  0.211786  0.788214  0.435633  1
  Y  Y9  1  0.212749  0.424091  0.435637  1
  Y  Y10  1  0.575909  0.787251  0.435637  1
  Y  Y11  1  0.789205  0.210795  0.563302  1
  Y  Y12  1  0.789555  0.578807  0.562549  1
  Y  Y13  1  0.421193  0.210445  0.562549  1
  Y  Y14  1  0.789205  0.210795  0.936698  1
  Y  Y15  1  0.789555  0.578807  0.937451  1
  Y  Y16  1  0.421193  0.210445  0.937451  1
  Y  Y17  1  0.211786  0.788214  0.064367  1
  Y  Y18  1  0.212749  0.424091  0.064363  1
  Y  Y19  1  0.575909  0.787251  0.064363  1
  Cd  Cd20  1  0.884183  0.766134  0.250000  1
  Cd  Cd21  1  0.233866  0.115817  0.250000  1
  Cd  Cd22  1  0.114232  0.885768  0.750000  1
  Cd  Cd23  1  0.114630  0.229970  0.750000  1
  Cd  Cd24  1  0.770030  0.885370  0.750000  1
  Fe  Fe25  1  0.333164  0.666836  0.250000  1
  Ni  Ni26  1  0.666373  0.333627  0.750000  1
  Hg  Hg27  1  0.881921  0.118079  0.250000  1
