# generated using pymatgen
data_RbTe24
_symmetry_space_group_name_H-M   'P 1'
_cell_length_a   8.65810700
_cell_length_b   8.65810472
_cell_length_c   17.56402000
_cell_angle_alpha   90.00000000
_cell_angle_beta   90.00000000
_cell_angle_gamma   119.99998196
_symmetry_Int_Tables_number   1
_chemical_formula_structural   RbTe24
_chemical_formula_sum   'Rb1 Te24'
_cell_volume   1140.25088146
_cell_formula_units_Z   1
loop_
 _symmetry_equiv_pos_site_id
 _symmetry_equiv_pos_as_xyz
  1  'x, y, z'
loop_
 _atom_site_type_symbol
 _atom_site_label
 _atom_site_symmetry_multiplicity
 _atom_site_fract_x
 _atom_site_fract_y
 _atom_site_fract_z
 _atom_site_occupancy
  Rb  Rb0  1  0.000000  0.000000  0.000000  1
  Te  Te1  1  0.501658  0.498342  0.735674  1
  Te  Te2  1  0.498342  0.501658  0.264326  1
  Te  Te3  1  0.501658  0.003315  0.735674  1
  Te  Te4  1  0.498342  0.996685  0.264326  1
  Te  Te5  1  0.996685  0.498342  0.735674  1
  Te  Te6  1  0.003315  0.501658  0.264326  1
  Te  Te7  1  0.000000  0.000000  0.737015  1
  Te  Te8  1  0.000000  0.000000  0.262985  1
  Te  Te9  1  0.833737  0.667478  0.163152  1
  Te  Te10  1  0.832062  0.664125  0.636404  1
  Te  Te11  1  0.833737  0.166263  0.163152  1
  Te  Te12  1  0.832062  0.167938  0.636404  1
  Te  Te13  1  0.333333  0.666667  0.163020  1
  Te  Te14  1  0.333333  0.666667  0.635963  1
  Te  Te15  1  0.332522  0.166263  0.163152  1
  Te  Te16  1  0.335875  0.167938  0.636404  1
  Te  Te17  1  0.667478  0.833737  0.836848  1
  Te  Te18  1  0.664125  0.832062  0.363596  1
  Te  Te19  1  0.666667  0.333333  0.836980  1
  Te  Te20  1  0.666667  0.333333  0.364037  1
  Te  Te21  1  0.166263  0.833737  0.836848  1
  Te  Te22  1  0.167938  0.832062  0.363596  1
  Te  Te23  1  0.166263  0.332522  0.836848  1
  Te  Te24  1  0.167938  0.335875  0.363596  1
