# generated using pymatgen
data_Hf8Ti4(Ga3Sb)3
_symmetry_space_group_name_H-M   'P 1'
_cell_length_a   5.53753600
_cell_length_b   8.63434699
_cell_length_c   9.21518250
_cell_angle_alpha   89.69699443
_cell_angle_beta   90.00000000
_cell_angle_gamma   90.00000000
_symmetry_Int_Tables_number   1
_chemical_formula_structural   Hf8Ti4(Ga3Sb)3
_chemical_formula_sum   'Hf8 Ti4 Ga9 Sb3'
_cell_volume   440.59942698
_cell_formula_units_Z   1
loop_
 _symmetry_equiv_pos_site_id
 _symmetry_equiv_pos_as_xyz
  1  'x, y, z'
loop_
 _atom_site_type_symbol
 _atom_site_label
 _atom_site_symmetry_multiplicity
 _atom_site_fract_x
 _atom_site_fract_y
 _atom_site_fract_z
 _atom_site_occupancy
  Hf  Hf0  1  0.750000  0.471195  0.613484  1
  Hf  Hf1  1  0.250000  0.528278  0.376618  1
  Hf  Hf2  1  0.750000  0.971124  0.389635  1
  Hf  Hf3  1  0.250000  0.028710  0.611833  1
  Hf  Hf4  1  0.750000  0.375768  0.197280  1
  Hf  Hf5  1  0.250000  0.620189  0.809063  1
  Hf  Hf6  1  0.750000  0.871527  0.803294  1
  Hf  Hf7  1  0.250000  0.136494  0.192199  1
  Ti  Ti8  1  0.003189  0.745599  0.115241  1
  Ti  Ti9  1  0.495719  0.253532  0.886964  1
  Ti  Ti10  1  0.004281  0.253532  0.886964  1
  Ti  Ti11  1  0.496811  0.745599  0.115241  1
  Ga  Ga12  1  0.003644  0.747545  0.569448  1
  Ga  Ga13  1  0.499864  0.250527  0.431052  1
  Ga  Ga14  1  0.000136  0.250527  0.431052  1
  Ga  Ga15  1  0.496356  0.747545  0.569448  1
  Ga  Ga16  1  0.250000  0.450611  0.079832  1
  Ga  Ga17  1  0.750000  0.143760  0.656560  1
  Ga  Ga18  1  0.250000  0.861551  0.343653  1
  Ga  Ga19  1  0.750000  0.643072  0.346126  1
  Ga  Ga20  1  0.250000  0.358594  0.652110  1
  Sb  Sb21  1  0.750000  0.050352  0.082803  1
  Sb  Sb22  1  0.250000  0.948804  0.917652  1
  Sb  Sb23  1  0.750000  0.545566  0.922445  1
