# generated using pymatgen
data_Hf3Zr3FeBiPb
_symmetry_space_group_name_H-M   'P 1'
_cell_length_a   3.59348000
_cell_length_b   7.96700772
_cell_length_c   7.96700800
_cell_angle_alpha   120.00000115
_cell_angle_beta   90.00000000
_cell_angle_gamma   90.00000000
_symmetry_Int_Tables_number   1
_chemical_formula_structural   Hf3Zr3FeBiPb
_chemical_formula_sum   'Hf3 Zr3 Fe1 Bi1 Pb1'
_cell_volume   197.53149476
_cell_formula_units_Z   1
loop_
 _symmetry_equiv_pos_site_id
 _symmetry_equiv_pos_as_xyz
  1  'x, y, z'
loop_
 _atom_site_type_symbol
 _atom_site_label
 _atom_site_symmetry_multiplicity
 _atom_site_fract_x
 _atom_site_fract_y
 _atom_site_fract_z
 _atom_site_occupancy
  Hf  Hf0  1  0.500000  0.767847  0.766741  1
  Hf  Hf1  1  0.500000  0.998894  0.232153  1
  Hf  Hf2  1  0.500000  0.233259  0.001106  1
  Zr  Zr3  1  0.000000  0.385954  0.387405  1
  Zr  Zr4  1  0.000000  0.001451  0.614046  1
  Zr  Zr5  1  0.000000  0.612595  0.998549  1
  Fe  Fe6  1  0.000000  0.000000  0.000000  1
  Bi  Bi7  1  0.500000  0.333333  0.666667  1
  Pb  Pb8  1  0.500000  0.666667  0.333333  1
