# generated using pymatgen
data_Tb4Lu2Si24OsRu7
_symmetry_space_group_name_H-M   'P 1'
_cell_length_a   10.09513905
_cell_length_b   10.09513895
_cell_length_c   8.14401003
_cell_angle_alpha   89.99429151
_cell_angle_beta   89.99429138
_cell_angle_gamma   132.46236992
_symmetry_Int_Tables_number   1
_chemical_formula_structural   Tb4Lu2Si24OsRu7
_chemical_formula_sum   'Tb4 Lu2 Si24 Os1 Ru7'
_cell_volume   612.28690415
_cell_formula_units_Z   1
loop_
 _symmetry_equiv_pos_site_id
 _symmetry_equiv_pos_as_xyz
  1  'x, y, z'
loop_
 _atom_site_type_symbol
 _atom_site_label
 _atom_site_symmetry_multiplicity
 _atom_site_fract_x
 _atom_site_fract_y
 _atom_site_fract_z
 _atom_site_occupancy
  Tb  Tb0  1  0.502282  0.002322  0.750282  1
  Tb  Tb1  1  0.997678  0.497718  0.249718  1
  Tb  Tb2  1  0.497687  0.997283  0.249635  1
  Tb  Tb3  1  0.002717  0.502313  0.750365  1
  Lu  Lu4  1  0.499974  0.500026  0.500000  1
  Lu  Lu5  1  0.000051  0.999949  0.000000  1
  Si  Si6  1  0.795200  0.204800  0.500000  1
  Si  Si7  1  0.294620  0.705380  0.000000  1
  Si  Si8  1  0.205324  0.794676  0.500000  1
  Si  Si9  1  0.705555  0.294445  0.000000  1
  Si  Si10  1  0.331488  0.331713  0.833416  1
  Si  Si11  1  0.668287  0.668512  0.166584  1
  Si  Si12  1  0.167635  0.167443  0.332305  1
  Si  Si13  1  0.832557  0.832365  0.667695  1
  Si  Si14  1  0.121420  0.887783  0.729226  1
  Si  Si15  1  0.112217  0.878580  0.270774  1
  Si  Si16  1  0.612224  0.378731  0.227300  1
  Si  Si17  1  0.621269  0.387776  0.772700  1
  Si  Si18  1  0.877628  0.110947  0.270192  1
  Si  Si19  1  0.889053  0.122372  0.729808  1
  Si  Si20  1  0.387282  0.621473  0.771660  1
  Si  Si21  1  0.378527  0.612718  0.228340  1
  Si  Si22  1  0.343850  0.111433  0.504680  1
  Si  Si23  1  0.888567  0.656150  0.495320  1
  Si  Si24  1  0.387032  0.154263  0.004319  1
  Si  Si25  1  0.845737  0.612968  0.995681  1
  Si  Si26  1  0.654170  0.887196  0.493872  1
  Si  Si27  1  0.112804  0.345830  0.506128  1
  Si  Si28  1  0.612725  0.845431  0.995933  1
  Si  Si29  1  0.154569  0.387275  0.004067  1
  Os  Os30  1  0.668195  0.331805  0.500000  1
  Ru  Ru31  1  0.168240  0.831760  0.000000  1
  Ru  Ru32  1  0.331807  0.668193  0.500000  1
  Ru  Ru33  1  0.831850  0.168150  0.000000  1
  Ru  Ru34  1  0.126912  0.126991  0.626723  1
  Ru  Ru35  1  0.873009  0.873088  0.373277  1
  Ru  Ru36  1  0.374485  0.374626  0.127646  1
  Ru  Ru37  1  0.625374  0.625515  0.872354  1
