# generated using pymatgen
data_MgInNi20SnB6
_symmetry_space_group_name_H-M   'P 1'
_cell_length_a   7.51788887
_cell_length_b   7.51788913
_cell_length_c   7.51788900
_cell_angle_alpha   60.00000499
_cell_angle_beta   60.00000385
_cell_angle_gamma   60.00000117
_symmetry_Int_Tables_number   1
_chemical_formula_structural   MgInNi20SnB6
_chemical_formula_sum   'Mg1 In1 Ni20 Sn1 B6'
_cell_volume   300.45038368
_cell_formula_units_Z   1
loop_
 _symmetry_equiv_pos_site_id
 _symmetry_equiv_pos_as_xyz
  1  'x, y, z'
loop_
 _atom_site_type_symbol
 _atom_site_label
 _atom_site_symmetry_multiplicity
 _atom_site_fract_x
 _atom_site_fract_y
 _atom_site_fract_z
 _atom_site_occupancy
  Mg  Mg0  1  0.000000  0.000000  0.000000  1
  In  In1  1  0.250000  0.250000  0.250000  1
  Ni  Ni2  1  0.387089  0.387089  0.838732  1
  Ni  Ni3  1  0.614880  0.614880  0.614880  1
  Ni  Ni4  1  0.000258  0.338804  0.000258  1
  Ni  Ni5  1  0.338804  0.000258  0.000258  1
  Ni  Ni6  1  0.000258  0.338804  0.660680  1
  Ni  Ni7  1  0.838732  0.387089  0.387089  1
  Ni  Ni8  1  0.338804  0.000258  0.660680  1
  Ni  Ni9  1  0.000258  0.000258  0.338804  1
  Ni  Ni10  1  0.660680  0.338804  0.000258  1
  Ni  Ni11  1  0.000258  0.660680  0.338804  1
  Ni  Ni12  1  0.000258  0.000258  0.660680  1
  Ni  Ni13  1  0.338804  0.660680  0.000258  1
  Ni  Ni14  1  0.660680  0.000258  0.000258  1
  Ni  Ni15  1  0.000258  0.660680  0.000258  1
  Ni  Ni16  1  0.387089  0.838732  0.387089  1
  Ni  Ni17  1  0.614880  0.614880  0.155361  1
  Ni  Ni18  1  0.614880  0.155361  0.614880  1
  Ni  Ni19  1  0.155361  0.614880  0.614880  1
  Ni  Ni20  1  0.387089  0.387089  0.387089  1
  Ni  Ni21  1  0.660680  0.000258  0.338804  1
  Sn  Sn22  1  0.750000  0.750000  0.750000  1
  B  B23  1  0.729357  0.270643  0.729357  1
  B  B24  1  0.270643  0.729357  0.270643  1
  B  B25  1  0.270643  0.729357  0.729357  1
  B  B26  1  0.270643  0.270643  0.729357  1
  B  B27  1  0.729357  0.729357  0.270643  1
  B  B28  1  0.729357  0.270643  0.270643  1
