# generated using pymatgen
data_Dy6CrB14Os
_symmetry_space_group_name_H-M   'P 1'
_cell_length_a   8.07525784
_cell_length_b   8.07525825
_cell_length_c   9.34089500
_cell_angle_alpha   90.00000000
_cell_angle_beta   90.00000000
_cell_angle_gamma   155.07009137
_symmetry_Int_Tables_number   1
_chemical_formula_structural   Dy6CrB14Os
_chemical_formula_sum   'Dy6 Cr1 B14 Os1'
_cell_volume   256.74878953
_cell_formula_units_Z   1
loop_
 _symmetry_equiv_pos_site_id
 _symmetry_equiv_pos_as_xyz
  1  'x, y, z'
loop_
 _atom_site_type_symbol
 _atom_site_label
 _atom_site_symmetry_multiplicity
 _atom_site_fract_x
 _atom_site_fract_y
 _atom_site_fract_z
 _atom_site_occupancy
  Dy  Dy0  1  0.894484  0.105516  0.440804  1
  Dy  Dy1  1  0.105481  0.894519  0.562030  1
  Dy  Dy2  1  0.894484  0.105516  0.059196  1
  Dy  Dy3  1  0.105481  0.894519  0.937970  1
  Dy  Dy4  1  0.243927  0.756073  0.250000  1
  Dy  Dy5  1  0.758096  0.241904  0.750000  1
  Cr  Cr6  1  0.947153  0.052847  0.750000  1
  B  B7  1  0.726809  0.273191  0.466193  1
  B  B8  1  0.272229  0.727771  0.533268  1
  B  B9  1  0.726809  0.273191  0.033807  1
  B  B10  1  0.272229  0.727771  0.966732  1
  B  B11  1  0.631812  0.368188  0.149981  1
  B  B12  1  0.368680  0.631320  0.848213  1
  B  B13  1  0.631812  0.368188  0.350019  1
  B  B14  1  0.368680  0.631320  0.651787  1
  B  B15  1  0.520876  0.479124  0.095507  1
  B  B16  1  0.478566  0.521434  0.903616  1
  B  B17  1  0.520876  0.479124  0.404493  1
  B  B18  1  0.478566  0.521434  0.596384  1
  B  B19  1  0.457766  0.542234  0.250000  1
  B  B20  1  0.540909  0.459091  0.750000  1
  Os  Os21  1  0.054276  0.945724  0.250000  1
