# generated using pymatgen
data_Dy16CdIn3IrRh3
_symmetry_space_group_name_H-M   'P 1'
_cell_length_a   9.66568304
_cell_length_b   9.67001531
_cell_length_c   9.67001400
_cell_angle_alpha   60.00000447
_cell_angle_beta   59.98517667
_cell_angle_gamma   59.98517282
_symmetry_Int_Tables_number   1
_chemical_formula_structural   Dy16CdIn3IrRh3
_chemical_formula_sum   'Dy16 Cd1 In3 Ir1 Rh3'
_cell_volume   638.96118412
_cell_formula_units_Z   1
loop_
 _symmetry_equiv_pos_site_id
 _symmetry_equiv_pos_as_xyz
  1  'x, y, z'
loop_
 _atom_site_type_symbol
 _atom_site_label
 _atom_site_symmetry_multiplicity
 _atom_site_fract_x
 _atom_site_fract_y
 _atom_site_fract_z
 _atom_site_occupancy
  Dy  Dy0  1  0.599964  0.599144  0.599144  1
  Dy  Dy1  1  0.599964  0.599144  0.201749  1
  Dy  Dy2  1  0.599964  0.201749  0.599144  1
  Dy  Dy3  1  0.201637  0.599455  0.599455  1
  Dy  Dy4  1  0.059389  0.440064  0.440064  1
  Dy  Dy5  1  0.439405  0.060907  0.060907  1
  Dy  Dy6  1  0.439405  0.060907  0.438780  1
  Dy  Dy7  1  0.059389  0.440064  0.060482  1
  Dy  Dy8  1  0.439405  0.438780  0.060907  1
  Dy  Dy9  1  0.059389  0.060482  0.440064  1
  Dy  Dy10  1  0.188715  0.812784  0.812784  1
  Dy  Dy11  1  0.813156  0.188049  0.188049  1
  Dy  Dy12  1  0.813156  0.188049  0.810747  1
  Dy  Dy13  1  0.188715  0.812784  0.185717  1
  Dy  Dy14  1  0.813156  0.810747  0.188049  1
  Dy  Dy15  1  0.188715  0.185717  0.812784  1
  Cd  Cd16  1  0.503161  0.832280  0.832280  1
  In  In17  1  0.831913  0.833262  0.833262  1
  In  In18  1  0.831913  0.833262  0.501565  1
  In  In19  1  0.831913  0.501565  0.833262  1
  Ir  Ir20  1  0.822873  0.392376  0.392376  1
  Rh  Rh21  1  0.391566  0.391649  0.391649  1
  Rh  Rh22  1  0.391566  0.391649  0.825135  1
  Rh  Rh23  1  0.391566  0.825135  0.391649  1
