# generated using pymatgen
data_Tb16Lu4Sn9Pb7
_symmetry_space_group_name_H-M   'P 1'
_cell_length_a   8.06949694
_cell_length_b   8.22077707
_cell_length_c   15.59080229
_cell_angle_alpha   90.06788986
_cell_angle_beta   89.93430775
_cell_angle_gamma   89.92784578
_symmetry_Int_Tables_number   1
_chemical_formula_structural   Tb16Lu4Sn9Pb7
_chemical_formula_sum   'Tb16 Lu4 Sn9 Pb7'
_cell_volume   1034.25317093
_cell_formula_units_Z   1
loop_
 _symmetry_equiv_pos_site_id
 _symmetry_equiv_pos_as_xyz
  1  'x, y, z'
loop_
 _atom_site_type_symbol
 _atom_site_label
 _atom_site_symmetry_multiplicity
 _atom_site_fract_x
 _atom_site_fract_y
 _atom_site_fract_z
 _atom_site_occupancy
  Tb  Tb0  1  0.366486  0.839362  0.875933  1
  Tb  Tb1  1  0.866897  0.660783  0.624016  1
  Tb  Tb2  1  0.632869  0.160746  0.375752  1
  Tb  Tb3  1  0.131398  0.338995  0.123558  1
  Tb  Tb4  1  0.634188  0.163625  0.123424  1
  Tb  Tb5  1  0.132359  0.339051  0.375882  1
  Tb  Tb6  1  0.367005  0.839583  0.624377  1
  Tb  Tb7  1  0.866266  0.659832  0.877154  1
  Tb  Tb8  1  0.524890  0.323340  0.901171  1
  Tb  Tb9  1  0.023362  0.178247  0.600499  1
  Tb  Tb10  1  0.476959  0.678344  0.399598  1
  Tb  Tb11  1  0.976569  0.818797  0.099515  1
  Tb  Tb12  1  0.480101  0.675812  0.099408  1
  Tb  Tb13  1  0.976643  0.821282  0.399523  1
  Tb  Tb14  1  0.522753  0.321415  0.600219  1
  Tb  Tb15  1  0.021316  0.180256  0.900705  1
  Lu  Lu16  1  0.197710  0.503146  0.750209  1
  Lu  Lu17  1  0.697755  0.997184  0.750071  1
  Lu  Lu18  1  0.801772  0.496935  0.248113  1
  Lu  Lu19  1  0.302503  0.002940  0.249845  1
  Sn  Sn20  1  0.792768  0.463512  0.042858  1
  Sn  Sn21  1  0.562213  0.618989  0.750105  1
  Sn  Sn22  1  0.061611  0.880865  0.750464  1
  Sn  Sn23  1  0.437037  0.381074  0.250047  1
  Sn  Sn24  1  0.938023  0.118115  0.249638  1
  Sn  Sn25  1  0.330865  0.151667  0.750714  1
  Sn  Sn26  1  0.830577  0.349379  0.750062  1
  Sn  Sn27  1  0.669286  0.849339  0.249545  1
  Sn  Sn28  1  0.169806  0.650698  0.249590  1
  Pb  Pb29  1  0.291570  0.036375  0.042774  1
  Pb  Pb30  1  0.790635  0.462899  0.457259  1
  Pb  Pb31  1  0.709235  0.962902  0.542437  1
  Pb  Pb32  1  0.209007  0.537150  0.957930  1
  Pb  Pb33  1  0.708084  0.963423  0.957667  1
  Pb  Pb34  1  0.208965  0.537271  0.542386  1
  Pb  Pb35  1  0.290518  0.036670  0.457553  1
