# generated using pymatgen
data_Tb3(SiRh)2
_symmetry_space_group_name_H-M   'P 1'
_cell_length_a   5.62115300
_cell_length_b   7.80591300
_cell_length_c   13.04405500
_cell_angle_alpha   90.00000000
_cell_angle_beta   90.00000000
_cell_angle_gamma   90.00000000
_symmetry_Int_Tables_number   1
_chemical_formula_structural   Tb3(SiRh)2
_chemical_formula_sum   'Tb12 Si8 Rh8'
_cell_volume   572.35006209
_cell_formula_units_Z   4
loop_
 _symmetry_equiv_pos_site_id
 _symmetry_equiv_pos_as_xyz
  1  'x, y, z'
loop_
 _atom_site_type_symbol
 _atom_site_label
 _atom_site_symmetry_multiplicity
 _atom_site_fract_x
 _atom_site_fract_y
 _atom_site_fract_z
 _atom_site_occupancy
  Tb  Tb0  1  0.634437  0.251869  0.250000  1
  Tb  Tb1  1  0.365563  0.748131  0.750000  1
  Tb  Tb2  1  0.365563  0.751869  0.250000  1
  Tb  Tb3  1  0.634437  0.248131  0.750000  1
  Tb  Tb4  1  0.139089  0.393892  0.101881  1
  Tb  Tb5  1  0.860911  0.606108  0.898119  1
  Tb  Tb6  1  0.860911  0.606108  0.601881  1
  Tb  Tb7  1  0.860911  0.893892  0.398119  1
  Tb  Tb8  1  0.139089  0.393892  0.398119  1
  Tb  Tb9  1  0.139089  0.106108  0.601881  1
  Tb  Tb10  1  0.139089  0.106108  0.898119  1
  Tb  Tb11  1  0.860911  0.893892  0.101881  1
  Si  Si12  1  0.140165  0.105336  0.250000  1
  Si  Si13  1  0.859835  0.894664  0.750000  1
  Si  Si14  1  0.859835  0.605336  0.250000  1
  Si  Si15  1  0.140165  0.394664  0.750000  1
  Si  Si16  1  0.636858  0.250000  0.000000  1
  Si  Si17  1  0.363142  0.750000  0.000000  1
  Si  Si18  1  0.363142  0.750000  0.500000  1
  Si  Si19  1  0.636858  0.250000  0.500000  1
  Rh  Rh20  1  0.371614  0.036800  0.092189  1
  Rh  Rh21  1  0.628386  0.963200  0.907811  1
  Rh  Rh22  1  0.628386  0.963200  0.592189  1
  Rh  Rh23  1  0.628386  0.536800  0.407811  1
  Rh  Rh24  1  0.371614  0.036800  0.407811  1
  Rh  Rh25  1  0.371614  0.463200  0.592189  1
  Rh  Rh26  1  0.371614  0.463200  0.907811  1
  Rh  Rh27  1  0.628386  0.536800  0.092189  1
