# generated using pymatgen
data_Ca20Zn11Bi
_symmetry_space_group_name_H-M   'P 1'
_cell_length_a   7.94613300
_cell_length_b   7.94613300
_cell_length_c   15.18526900
_cell_angle_alpha   90.00000000
_cell_angle_beta   90.00000000
_cell_angle_gamma   90.00000000
_symmetry_Int_Tables_number   1
_chemical_formula_structural   Ca20Zn11Bi
_chemical_formula_sum   'Ca20 Zn11 Bi1'
_cell_volume   958.81352023
_cell_formula_units_Z   1
loop_
 _symmetry_equiv_pos_site_id
 _symmetry_equiv_pos_as_xyz
  1  'x, y, z'
loop_
 _atom_site_type_symbol
 _atom_site_label
 _atom_site_symmetry_multiplicity
 _atom_site_fract_x
 _atom_site_fract_y
 _atom_site_fract_z
 _atom_site_occupancy
  Ca  Ca0  1  0.331364  0.674681  0.104228  1
  Ca  Ca1  1  0.174681  0.168636  0.104228  1
  Ca  Ca2  1  0.500000  0.000000  0.735453  1
  Ca  Ca3  1  0.332215  0.671419  0.398367  1
  Ca  Ca4  1  0.662461  0.681489  0.895735  1
  Ca  Ca5  1  0.171419  0.167785  0.398367  1
  Ca  Ca6  1  0.667785  0.328581  0.398367  1
  Ca  Ca7  1  0.163574  0.824738  0.601685  1
  Ca  Ca8  1  0.337539  0.318511  0.895735  1
  Ca  Ca9  1  0.181489  0.837539  0.895735  1
  Ca  Ca10  1  0.500000  0.000000  0.252844  1
  Ca  Ca11  1  0.836426  0.175262  0.601685  1
  Ca  Ca12  1  0.324738  0.336426  0.601685  1
  Ca  Ca13  1  0.828581  0.832215  0.398367  1
  Ca  Ca14  1  0.818511  0.162461  0.895735  1
  Ca  Ca15  1  0.825319  0.831364  0.104228  1
  Ca  Ca16  1  0.000000  0.500000  0.255097  1
  Ca  Ca17  1  0.000000  0.500000  0.756262  1
  Ca  Ca18  1  0.668636  0.325319  0.104228  1
  Ca  Ca19  1  0.675262  0.663574  0.601685  1
  Zn  Zn20  1  0.116492  0.117076  0.748319  1
  Zn  Zn21  1  0.382924  0.616492  0.748319  1
  Zn  Zn22  1  0.617616  0.615680  0.251536  1
  Zn  Zn23  1  0.500000  0.000000  0.005354  1
  Zn  Zn24  1  0.115680  0.882384  0.251536  1
  Zn  Zn25  1  0.617076  0.383508  0.748319  1
  Zn  Zn26  1  0.883508  0.882924  0.748319  1
  Zn  Zn27  1  0.382384  0.384320  0.251536  1
  Zn  Zn28  1  0.884320  0.117616  0.251536  1
  Zn  Zn29  1  0.500000  0.000000  0.503624  1
  Zn  Zn30  1  0.000000  0.500000  0.495011  1
  Bi  Bi31  1  0.000000  0.500000  0.996869  1
