# generated using pymatgen
data_TbEr7(Sc3Sn4)4
_symmetry_space_group_name_H-M   'P 1'
_cell_length_a   7.69301037
_cell_length_b   7.92124332
_cell_length_c   14.83527507
_cell_angle_alpha   89.99734287
_cell_angle_beta   89.93973544
_cell_angle_gamma   90.03251624
_symmetry_Int_Tables_number   1
_chemical_formula_structural   TbEr7(Sc3Sn4)4
_chemical_formula_sum   'Tb1 Er7 Sc12 Sn16'
_cell_volume   904.03441619
_cell_formula_units_Z   1
loop_
 _symmetry_equiv_pos_site_id
 _symmetry_equiv_pos_as_xyz
  1  'x, y, z'
loop_
 _atom_site_type_symbol
 _atom_site_label
 _atom_site_symmetry_multiplicity
 _atom_site_fract_x
 _atom_site_fract_y
 _atom_site_fract_z
 _atom_site_occupancy
  Tb  Tb0  1  0.990370  0.177102  0.093754  1
  Er  Er1  1  0.010157  0.821720  0.905635  1
  Er  Er2  1  0.511144  0.677267  0.905524  1
  Er  Er3  1  0.010911  0.822214  0.593836  1
  Er  Er4  1  0.489216  0.322591  0.093827  1
  Er  Er5  1  0.988509  0.178093  0.405876  1
  Er  Er6  1  0.489233  0.322291  0.406754  1
  Er  Er7  1  0.510648  0.678215  0.593861  1
  Sc  Sc8  1  0.174423  0.495307  0.749707  1
  Sc  Sc9  1  0.825729  0.504948  0.250375  1
  Sc  Sc10  1  0.325961  0.994749  0.250341  1
  Sc  Sc11  1  0.674037  0.004820  0.749695  1
  Sc  Sc12  1  0.345384  0.160875  0.627017  1
  Sc  Sc13  1  0.654221  0.839594  0.373121  1
  Sc  Sc14  1  0.154630  0.660661  0.373517  1
  Sc  Sc15  1  0.654995  0.838812  0.127508  1
  Sc  Sc16  1  0.845730  0.339305  0.626884  1
  Sc  Sc17  1  0.344785  0.160983  0.872827  1
  Sc  Sc18  1  0.844574  0.339709  0.873031  1
  Sc  Sc19  1  0.155022  0.660365  0.127016  1
  Sn  Sn20  1  0.037335  0.123704  0.749992  1
  Sn  Sn21  1  0.962630  0.875814  0.250263  1
  Sn  Sn22  1  0.462557  0.623242  0.250495  1
  Sn  Sn23  1  0.537886  0.376255  0.749692  1
  Sn  Sn24  1  0.315508  0.848704  0.749803  1
  Sn  Sn25  1  0.683215  0.151639  0.250499  1
  Sn  Sn26  1  0.185229  0.349248  0.250723  1
  Sn  Sn27  1  0.815681  0.651504  0.749607  1
  Sn  Sn28  1  0.187760  0.457249  0.542182  1
  Sn  Sn29  1  0.812303  0.543115  0.457808  1
  Sn  Sn30  1  0.311813  0.957756  0.457577  1
  Sn  Sn31  1  0.812593  0.543577  0.042239  1
  Sn  Sn32  1  0.687757  0.043041  0.542225  1
  Sn  Sn33  1  0.187494  0.457703  0.957456  1
  Sn  Sn34  1  0.685293  0.042221  0.957382  1
  Sn  Sn35  1  0.315265  0.955608  0.041952  1
