# generated using pymatgen
data_Nd7HoSc11Si16Mo
_symmetry_space_group_name_H-M   'P 1'
_cell_length_a   7.19298626
_cell_length_b   7.43236277
_cell_length_c   14.07424176
_cell_angle_alpha   90.11095049
_cell_angle_beta   89.81350296
_cell_angle_gamma   89.73497244
_symmetry_Int_Tables_number   1
_chemical_formula_structural   Nd7HoSc11Si16Mo
_chemical_formula_sum   'Nd7 Ho1 Sc11 Si16 Mo1'
_cell_volume   752.40792752
_cell_formula_units_Z   1
loop_
 _symmetry_equiv_pos_site_id
 _symmetry_equiv_pos_as_xyz
  1  'x, y, z'
loop_
 _atom_site_type_symbol
 _atom_site_label
 _atom_site_symmetry_multiplicity
 _atom_site_fract_x
 _atom_site_fract_y
 _atom_site_fract_z
 _atom_site_occupancy
  Nd  Nd0  1  0.011547  0.171388  0.097507  1
  Nd  Nd1  1  0.989489  0.827624  0.897332  1
  Nd  Nd2  1  0.486960  0.673838  0.898476  1
  Nd  Nd3  1  0.992382  0.830241  0.595820  1
  Nd  Nd4  1  0.513147  0.326942  0.097050  1
  Nd  Nd5  1  0.012203  0.173084  0.404123  1
  Nd  Nd6  1  0.507488  0.326787  0.410086  1
  Ho  Ho7  1  0.487573  0.676054  0.598488  1
  Sc  Sc8  1  0.164539  0.491340  0.743951  1
  Sc  Sc9  1  0.837807  0.500933  0.252111  1
  Sc  Sc10  1  0.337884  0.999107  0.251497  1
  Sc  Sc11  1  0.657107  0.004165  0.746919  1
  Sc  Sc12  1  0.663818  0.825467  0.379383  1
  Sc  Sc13  1  0.169816  0.676466  0.378683  1
  Sc  Sc14  1  0.669097  0.824347  0.124793  1
  Sc  Sc15  1  0.832465  0.325779  0.623537  1
  Sc  Sc16  1  0.333120  0.176905  0.874362  1
  Sc  Sc17  1  0.829546  0.323395  0.870280  1
  Sc  Sc18  1  0.169876  0.676153  0.125817  1
  Si  Si19  1  0.045065  0.125849  0.744049  1
  Si  Si20  1  0.962689  0.877269  0.252399  1
  Si  Si21  1  0.465305  0.625127  0.251437  1
  Si  Si22  1  0.530437  0.370664  0.743672  1
  Si  Si23  1  0.290776  0.888299  0.744694  1
  Si  Si24  1  0.709523  0.119022  0.251465  1
  Si  Si25  1  0.212993  0.380581  0.251207  1
  Si  Si26  1  0.783089  0.618118  0.744910  1
  Si  Si27  1  0.175563  0.452399  0.543684  1
  Si  Si28  1  0.845259  0.535070  0.460610  1
  Si  Si29  1  0.339817  0.965217  0.472608  1
  Si  Si30  1  0.848801  0.537544  0.038410  1
  Si  Si31  1  0.640450  0.034236  0.547282  1
  Si  Si32  1  0.149345  0.464107  0.958555  1
  Si  Si33  1  0.656338  0.037909  0.958007  1
  Si  Si34  1  0.346498  0.961673  0.038536  1
  Mo  Mo35  1  0.332189  0.176900  0.628260  1
