# generated using pymatgen
data_Tm8In4Ga7Cu
_symmetry_space_group_name_H-M   'P 1'
_cell_length_a   7.11874159
_cell_length_b   7.12705848
_cell_length_c   8.74300910
_cell_angle_alpha   89.97918623
_cell_angle_beta   90.05542774
_cell_angle_gamma   90.10728447
_symmetry_Int_Tables_number   1
_chemical_formula_structural   Tm8In4Ga7Cu
_chemical_formula_sum   'Tm8 In4 Ga7 Cu1'
_cell_volume   443.58156403
_cell_formula_units_Z   1
loop_
 _symmetry_equiv_pos_site_id
 _symmetry_equiv_pos_as_xyz
  1  'x, y, z'
loop_
 _atom_site_type_symbol
 _atom_site_label
 _atom_site_symmetry_multiplicity
 _atom_site_fract_x
 _atom_site_fract_y
 _atom_site_fract_z
 _atom_site_occupancy
  Tm  Tm0  1  0.830249  0.170031  0.498465  1
  Tm  Tm1  1  0.170031  0.830129  0.498487  1
  Tm  Tm2  1  0.328248  0.328178  0.001782  1
  Tm  Tm3  1  0.671917  0.671936  0.001634  1
  Tm  Tm4  1  0.671949  0.671919  0.498309  1
  Tm  Tm5  1  0.328245  0.328210  0.498211  1
  Tm  Tm6  1  0.170038  0.830142  0.001481  1
  Tm  Tm7  1  0.830173  0.169984  0.001472  1
  In  In8  1  0.492111  0.003601  0.250178  1
  In  In9  1  0.999849  0.500602  0.750231  1
  In  In10  1  0.500429  0.999836  0.750268  1
  In  In11  1  0.003229  0.492539  0.250080  1
  Ga  Ga12  1  0.627590  0.374522  0.249968  1
  Ga  Ga13  1  0.374516  0.627532  0.249970  1
  Ga  Ga14  1  0.126810  0.126839  0.749998  1
  Ga  Ga15  1  0.872630  0.872716  0.749962  1
  Ga  Ga16  1  0.372459  0.625971  0.749985  1
  Ga  Ga17  1  0.626036  0.372441  0.749986  1
  Ga  Ga18  1  0.877188  0.877188  0.249958  1
  Cu  Cu19  1  0.126303  0.125684  0.249572  1
