# generated using pymatgen
data_SmSb(SeO3)4
_symmetry_space_group_name_H-M   'P 1'
_cell_length_a   8.54893500
_cell_length_b   8.99614227
_cell_length_c   8.60018308
_cell_angle_alpha   91.36032879
_cell_angle_beta   90.00000000
_cell_angle_gamma   90.00000000
_symmetry_Int_Tables_number   1
_chemical_formula_structural   SmSb(SeO3)4
_chemical_formula_sum   'Sm2 Sb2 Se8 O24'
_cell_volume   661.23161612
_cell_formula_units_Z   2
loop_
 _symmetry_equiv_pos_site_id
 _symmetry_equiv_pos_as_xyz
  1  'x, y, z'
loop_
 _atom_site_type_symbol
 _atom_site_label
 _atom_site_symmetry_multiplicity
 _atom_site_fract_x
 _atom_site_fract_y
 _atom_site_fract_z
 _atom_site_occupancy
  Sm  Sm0  1  0.000000  0.500000  0.000000  1
  Sm  Sm1  1  0.500000  0.500000  0.500000  1
  Sb  Sb2  1  0.000000  0.000000  0.500000  1
  Sb  Sb3  1  0.500000  0.000000  0.000000  1
  Se  Se4  1  0.346602  0.700161  0.163308  1
  Se  Se5  1  0.846602  0.299839  0.336692  1
  Se  Se6  1  0.699451  0.848959  0.692304  1
  Se  Se7  1  0.199451  0.151041  0.807696  1
  Se  Se8  1  0.653398  0.299839  0.836692  1
  Se  Se9  1  0.153398  0.700161  0.663308  1
  Se  Se10  1  0.300549  0.151041  0.307696  1
  Se  Se11  1  0.800549  0.848959  0.192304  1
  O  O12  1  0.251151  0.580745  0.042097  1
  O  O13  1  0.751151  0.419255  0.457903  1
  O  O14  1  0.768925  0.981327  0.556778  1
  O  O15  1  0.268925  0.018673  0.943222  1
  O  O16  1  0.554508  0.972330  0.770923  1
  O  O17  1  0.479100  0.591934  0.252639  1
  O  O18  1  0.979100  0.408066  0.247361  1
  O  O19  1  0.054508  0.027670  0.729077  1
  O  O20  1  0.980235  0.218653  0.479151  1
  O  O21  1  0.588919  0.739065  0.578313  1
  O  O22  1  0.480235  0.781347  0.020849  1
  O  O23  1  0.088919  0.260935  0.921687  1
  O  O24  1  0.748849  0.419255  0.957903  1
  O  O25  1  0.248849  0.580745  0.542097  1
  O  O26  1  0.231075  0.018673  0.443222  1
  O  O27  1  0.731075  0.981327  0.056778  1
  O  O28  1  0.445492  0.027670  0.229077  1
  O  O29  1  0.520900  0.408066  0.747361  1
  O  O30  1  0.020900  0.591934  0.752639  1
  O  O31  1  0.945492  0.972330  0.270923  1
  O  O32  1  0.019765  0.781347  0.520849  1
  O  O33  1  0.411081  0.260935  0.421687  1
  O  O34  1  0.519765  0.218653  0.979151  1
  O  O35  1  0.911081  0.739065  0.078313  1
