# generated using pymatgen
data_Y8Hf11Si16Tc
_symmetry_space_group_name_H-M   'P 1'
_cell_length_a   7.25116143
_cell_length_b   7.25116238
_cell_length_c   13.28783200
_cell_angle_alpha   89.95336579
_cell_angle_beta   90.04663405
_cell_angle_gamma   90.03817830
_symmetry_Int_Tables_number   1
_chemical_formula_structural   Y8Hf11Si16Tc
_chemical_formula_sum   'Y8 Hf11 Si16 Tc1'
_cell_volume   698.66493752
_cell_formula_units_Z   1
loop_
 _symmetry_equiv_pos_site_id
 _symmetry_equiv_pos_as_xyz
  1  'x, y, z'
loop_
 _atom_site_type_symbol
 _atom_site_label
 _atom_site_symmetry_multiplicity
 _atom_site_fract_x
 _atom_site_fract_y
 _atom_site_fract_z
 _atom_site_occupancy
  Y  Y0  1  0.999015  0.342576  0.212279  1
  Y  Y1  1  0.004298  0.656109  0.716914  1
  Y  Y2  1  0.156545  0.495420  0.465492  1
  Y  Y3  1  0.501154  0.845558  0.033685  1
  Y  Y4  1  0.845558  0.501154  0.966315  1
  Y  Y5  1  0.495420  0.156545  0.534508  1
  Y  Y6  1  0.342576  0.999015  0.787721  1
  Y  Y7  1  0.656109  0.004298  0.283086  1
  Hf  Hf8  1  0.825282  0.825282  0.500000  1
  Hf  Hf9  1  0.324354  0.674441  0.248666  1
  Hf  Hf10  1  0.674441  0.324354  0.751334  1
  Hf  Hf11  1  0.148565  0.997072  0.373203  1
  Hf  Hf12  1  0.853175  0.005013  0.877521  1
  Hf  Hf13  1  0.503635  0.648178  0.625036  1
  Hf  Hf14  1  0.349762  0.493930  0.877154  1
  Hf  Hf15  1  0.493930  0.349762  0.122846  1
  Hf  Hf16  1  0.648178  0.503635  0.374964  1
  Hf  Hf17  1  0.997072  0.148565  0.626797  1
  Hf  Hf18  1  0.005013  0.853175  0.122479  1
  Si  Si19  1  0.362132  0.294964  0.316121  1
  Si  Si20  1  0.636998  0.705100  0.817997  1
  Si  Si21  1  0.205344  0.862560  0.567340  1
  Si  Si22  1  0.136699  0.795549  0.932543  1
  Si  Si23  1  0.795549  0.136699  0.067457  1
  Si  Si24  1  0.862560  0.205344  0.432660  1
  Si  Si25  1  0.294964  0.362132  0.683879  1
  Si  Si26  1  0.705100  0.636998  0.182003  1
  Si  Si27  1  0.293805  0.052371  0.182030  1
  Si  Si28  1  0.704175  0.951671  0.685802  1
  Si  Si29  1  0.450304  0.795977  0.435033  1
  Si  Si30  1  0.205176  0.547834  0.064493  1
  Si  Si31  1  0.547834  0.205176  0.935507  1
  Si  Si32  1  0.795977  0.450304  0.564967  1
  Si  Si33  1  0.052371  0.293805  0.817970  1
  Si  Si34  1  0.951671  0.704175  0.314198  1
  Tc  Tc35  1  0.175263  0.175263  0.000000  1
