# generated using pymatgen
data_Ca12Ho8Si15Pt
_symmetry_space_group_name_H-M   'P 1'
_cell_length_a   7.43561549
_cell_length_b   7.76431504
_cell_length_c   15.06860800
_cell_angle_alpha   90.19106709
_cell_angle_beta   89.34728416
_cell_angle_gamma   90.42040135
_symmetry_Int_Tables_number   1
_chemical_formula_structural   Ca12Ho8Si15Pt
_chemical_formula_sum   'Ca12 Ho8 Si15 Pt1'
_cell_volume   869.86336256
_cell_formula_units_Z   1
loop_
 _symmetry_equiv_pos_site_id
 _symmetry_equiv_pos_as_xyz
  1  'x, y, z'
loop_
 _atom_site_type_symbol
 _atom_site_label
 _atom_site_symmetry_multiplicity
 _atom_site_fract_x
 _atom_site_fract_y
 _atom_site_fract_z
 _atom_site_occupancy
  Ca  Ca0  1  0.649774  0.982325  0.249140  1
  Ca  Ca1  1  0.152451  0.518854  0.249110  1
  Ca  Ca2  1  0.845985  0.481145  0.753899  1
  Ca  Ca3  1  0.349543  0.018551  0.750561  1
  Ca  Ca4  1  0.979098  0.814742  0.094155  1
  Ca  Ca5  1  0.473348  0.682861  0.403851  1
  Ca  Ca6  1  0.518941  0.327839  0.904336  1
  Ca  Ca7  1  0.025505  0.184939  0.596862  1
  Ca  Ca8  1  0.024015  0.182559  0.904222  1
  Ca  Ca9  1  0.527139  0.317229  0.596450  1
  Ca  Ca10  1  0.476084  0.681010  0.094681  1
  Ca  Ca11  1  0.973706  0.817820  0.403698  1
  Ho  Ho12  1  0.676551  0.815161  0.879384  1
  Ho  Ho13  1  0.180416  0.677111  0.620943  1
  Ho  Ho14  1  0.824524  0.327369  0.120608  1
  Ho  Ho15  1  0.316704  0.176851  0.379022  1
  Ho  Ho16  1  0.320369  0.177996  0.122126  1
  Ho  Ho17  1  0.816741  0.322352  0.378752  1
  Ho  Ho18  1  0.181938  0.674612  0.880062  1
  Ho  Ho19  1  0.680642  0.823091  0.621100  1
  Si  Si20  1  0.756070  0.606233  0.248975  1
  Si  Si21  1  0.254690  0.895292  0.250210  1
  Si  Si22  1  0.744327  0.103753  0.749638  1
  Si  Si23  1  0.242237  0.394191  0.748796  1
  Si  Si24  1  0.026379  0.117345  0.249724  1
  Si  Si25  1  0.528668  0.382103  0.251879  1
  Si  Si26  1  0.469118  0.619464  0.746390  1
  Si  Si27  1  0.971224  0.881073  0.753214  1
  Si  Si28  1  0.357129  0.965979  0.538283  1
  Si  Si29  1  0.645210  0.036374  0.035499  1
  Si  Si30  1  0.140652  0.466684  0.461293  1
  Si  Si31  1  0.156490  0.462180  0.038006  1
  Si  Si32  1  0.640555  0.033799  0.461714  1
  Si  Si33  1  0.357704  0.967262  0.962482  1
  Si  Si34  1  0.857211  0.534103  0.538242  1
  Pt  Pt35  1  0.858861  0.529748  0.962690  1
