# generated using pymatgen
data_Ho6TmLu13Pb16
_symmetry_space_group_name_H-M   'P 1'
_cell_length_a   8.12670963
_cell_length_b   8.16883893
_cell_length_c   15.41834730
_cell_angle_alpha   90.00831012
_cell_angle_beta   90.13215673
_cell_angle_gamma   89.95341673
_symmetry_Int_Tables_number   1
_chemical_formula_structural   Ho6TmLu13Pb16
_chemical_formula_sum   'Ho6 Tm1 Lu13 Pb16'
_cell_volume   1023.55597112
_cell_formula_units_Z   1
loop_
 _symmetry_equiv_pos_site_id
 _symmetry_equiv_pos_as_xyz
  1  'x, y, z'
loop_
 _atom_site_type_symbol
 _atom_site_label
 _atom_site_symmetry_multiplicity
 _atom_site_fract_x
 _atom_site_fract_y
 _atom_site_fract_z
 _atom_site_occupancy
  Ho  Ho0  1  0.040929  0.176100  0.599515  1
  Ho  Ho1  1  0.458819  0.675789  0.400395  1
  Ho  Ho2  1  0.958053  0.824581  0.099694  1
  Ho  Ho3  1  0.458873  0.675272  0.099743  1
  Ho  Ho4  1  0.959154  0.824026  0.400549  1
  Ho  Ho5  1  0.540725  0.324062  0.599520  1
  Tm  Tm6  1  0.041544  0.175672  0.900462  1
  Lu  Lu7  1  0.377921  0.842936  0.878001  1
  Lu  Lu8  1  0.877741  0.656717  0.622144  1
  Lu  Lu9  1  0.622463  0.156783  0.377950  1
  Lu  Lu10  1  0.121863  0.342560  0.121961  1
  Lu  Lu11  1  0.621349  0.157234  0.121665  1
  Lu  Lu12  1  0.121993  0.343228  0.377843  1
  Lu  Lu13  1  0.377599  0.843683  0.622226  1
  Lu  Lu14  1  0.878550  0.656682  0.877886  1
  Lu  Lu15  1  0.543007  0.324931  0.899789  1
  Lu  Lu16  1  0.209621  0.505620  0.750213  1
  Lu  Lu17  1  0.708989  0.994544  0.750331  1
  Lu  Lu18  1  0.790351  0.494373  0.249712  1
  Lu  Lu19  1  0.290527  0.005373  0.249906  1
  Pb  Pb20  1  0.280057  0.032875  0.043016  1
  Pb  Pb21  1  0.781101  0.466164  0.457204  1
  Pb  Pb22  1  0.718744  0.966346  0.543317  1
  Pb  Pb23  1  0.220557  0.532239  0.956960  1
  Pb  Pb24  1  0.718842  0.966873  0.956862  1
  Pb  Pb25  1  0.218881  0.534581  0.543042  1
  Pb  Pb26  1  0.281133  0.034236  0.457161  1
  Pb  Pb27  1  0.781115  0.465965  0.042376  1
  Pb  Pb28  1  0.571595  0.626791  0.749979  1
  Pb  Pb29  1  0.071535  0.873416  0.749939  1
  Pb  Pb30  1  0.428254  0.372873  0.249870  1
  Pb  Pb31  1  0.928107  0.127249  0.249987  1
  Pb  Pb32  1  0.352868  0.157539  0.750661  1
  Pb  Pb33  1  0.852523  0.342839  0.750321  1
  Pb  Pb34  1  0.647483  0.843334  0.250010  1
  Pb  Pb35  1  0.147134  0.656518  0.249791  1
