# generated using pymatgen
data_Sr7Ac(Ge3Pd)4
_symmetry_space_group_name_H-M   'P 1'
_cell_length_a   8.70612900
_cell_length_b   8.70612885
_cell_length_c   9.01813400
_cell_angle_alpha   90.00000000
_cell_angle_beta   90.00000000
_cell_angle_gamma   119.99999676
_symmetry_Int_Tables_number   1
_chemical_formula_structural   Sr7Ac(Ge3Pd)4
_chemical_formula_sum   'Sr7 Ac1 Ge12 Pd4'
_cell_volume   591.96702906
_cell_formula_units_Z   1
loop_
 _symmetry_equiv_pos_site_id
 _symmetry_equiv_pos_as_xyz
  1  'x, y, z'
loop_
 _atom_site_type_symbol
 _atom_site_label
 _atom_site_symmetry_multiplicity
 _atom_site_fract_x
 _atom_site_fract_y
 _atom_site_fract_z
 _atom_site_occupancy
  Sr  Sr0  1  0.499556  0.500444  0.750000  1
  Sr  Sr1  1  0.500360  0.499640  0.250000  1
  Sr  Sr2  1  0.000888  0.500444  0.750000  1
  Sr  Sr3  1  0.999283  0.499640  0.250000  1
  Sr  Sr4  1  0.499556  0.999112  0.750000  1
  Sr  Sr5  1  0.500360  0.000717  0.250000  1
  Sr  Sr6  1  0.000000  0.000000  0.750000  1
  Ac  Ac7  1  0.000000  0.000000  0.250000  1
  Ge  Ge8  1  0.833000  0.167000  0.003959  1
  Ge  Ge9  1  0.166951  0.833049  0.004095  1
  Ge  Ge10  1  0.334002  0.167000  0.003959  1
  Ge  Ge11  1  0.166951  0.833049  0.495905  1
  Ge  Ge12  1  0.666100  0.833049  0.004095  1
  Ge  Ge13  1  0.833000  0.167000  0.496041  1
  Ge  Ge14  1  0.833000  0.665998  0.003959  1
  Ge  Ge15  1  0.666100  0.833049  0.495905  1
  Ge  Ge16  1  0.166951  0.333900  0.004095  1
  Ge  Ge17  1  0.334002  0.167000  0.496041  1
  Ge  Ge18  1  0.166951  0.333900  0.495905  1
  Ge  Ge19  1  0.833000  0.665998  0.496041  1
  Pd  Pd20  1  0.666667  0.333333  0.997877  1
  Pd  Pd21  1  0.333333  0.666667  0.000153  1
  Pd  Pd22  1  0.333333  0.666667  0.499847  1
  Pd  Pd23  1  0.666667  0.333333  0.502123  1
