# generated using pymatgen
data_La2TbDy3(RuO7)2
_symmetry_space_group_name_H-M   'P 1'
_cell_length_a   6.48347611
_cell_length_b   6.49092014
_cell_length_c   7.53926300
_cell_angle_alpha   90.00000000
_cell_angle_beta   90.00000000
_cell_angle_gamma   110.03937833
_symmetry_Int_Tables_number   1
_chemical_formula_structural   La2TbDy3(RuO7)2
_chemical_formula_sum   'La2 Tb1 Dy3 Ru2 O14'
_cell_volume   298.07128225
_cell_formula_units_Z   1
loop_
 _symmetry_equiv_pos_site_id
 _symmetry_equiv_pos_as_xyz
  1  'x, y, z'
loop_
 _atom_site_type_symbol
 _atom_site_label
 _atom_site_symmetry_multiplicity
 _atom_site_fract_x
 _atom_site_fract_y
 _atom_site_fract_z
 _atom_site_occupancy
  La  La0  1  0.000076  0.000057  0.499916  1
  La  La1  1  0.000076  0.000057  0.000084  1
  Tb  Tb2  1  0.479897  0.926595  0.750000  1
  Dy  Dy3  1  0.519517  0.072000  0.250000  1
  Dy  Dy4  1  0.927795  0.480512  0.750000  1
  Dy  Dy5  1  0.071984  0.519538  0.250000  1
  Ru  Ru6  1  0.500068  0.500047  0.499817  1
  Ru  Ru7  1  0.500068  0.500047  0.000183  1
  O  O8  1  0.589913  0.589040  0.750000  1
  O  O9  1  0.410115  0.410313  0.250000  1
  O  O10  1  0.837150  0.117501  0.750000  1
  O  O11  1  0.164358  0.883134  0.250000  1
  O  O12  1  0.114941  0.835804  0.750000  1
  O  O13  1  0.883061  0.164368  0.250000  1
  O  O14  1  0.443660  0.183707  0.962970  1
  O  O15  1  0.556598  0.816376  0.461480  1
  O  O16  1  0.183863  0.444422  0.962429  1
  O  O17  1  0.816370  0.555988  0.462318  1
  O  O18  1  0.443660  0.183707  0.537030  1
  O  O19  1  0.556598  0.816376  0.038520  1
  O  O20  1  0.816370  0.555988  0.037682  1
  O  O21  1  0.183863  0.444422  0.537571  1
