# generated using pymatgen
data_Ho11Er9Sn3Pb13
_symmetry_space_group_name_H-M   'P 1'
_cell_length_a   8.15598259
_cell_length_b   15.53829701
_cell_length_c   8.20233265
_cell_angle_alpha   90.00334010
_cell_angle_beta   89.88935221
_cell_angle_gamma   90.00115016
_symmetry_Int_Tables_number   1
_chemical_formula_structural   Ho11Er9Sn3Pb13
_chemical_formula_sum   'Ho11 Er9 Sn3 Pb13'
_cell_volume   1039.48033183
_cell_formula_units_Z   1
loop_
 _symmetry_equiv_pos_site_id
 _symmetry_equiv_pos_as_xyz
  1  'x, y, z'
loop_
 _atom_site_type_symbol
 _atom_site_label
 _atom_site_symmetry_multiplicity
 _atom_site_fract_x
 _atom_site_fract_y
 _atom_site_fract_z
 _atom_site_occupancy
  Ho  Ho0  1  0.876748  0.121198  0.659394  1
  Ho  Ho1  1  0.620702  0.876818  0.161480  1
  Ho  Ho2  1  0.121460  0.622968  0.338252  1
  Ho  Ho3  1  0.462698  0.601518  0.672661  1
  Ho  Ho4  1  0.963110  0.898438  0.827702  1
  Ho  Ho5  1  0.537071  0.100786  0.327386  1
  Ho  Ho6  1  0.036753  0.400133  0.175895  1
  Ho  Ho7  1  0.537104  0.399253  0.327413  1
  Ho  Ho8  1  0.036764  0.099834  0.175862  1
  Ho  Ho9  1  0.462696  0.898468  0.672606  1
  Ho  Ho10  1  0.963078  0.601538  0.827721  1
  Er  Er11  1  0.620747  0.623249  0.161467  1
  Er  Er12  1  0.121511  0.876965  0.338291  1
  Er  Er13  1  0.381104  0.122275  0.838110  1
  Er  Er14  1  0.876703  0.378811  0.659305  1
  Er  Er15  1  0.381140  0.377715  0.838091  1
  Er  Er16  1  0.788733  0.749993  0.492618  1
  Er  Er17  1  0.288485  0.750011  0.007341  1
  Er  Er18  1  0.212283  0.250019  0.505673  1
  Er  Er19  1  0.709095  0.250024  0.993332  1
  Sn  Sn20  1  0.425060  0.749980  0.376103  1
  Sn  Sn21  1  0.925259  0.750015  0.124554  1
  Sn  Sn22  1  0.575140  0.250038  0.623923  1
  Pb  Pb23  1  0.717888  0.458322  0.967884  1
  Pb  Pb24  1  0.218258  0.041635  0.532875  1
  Pb  Pb25  1  0.282489  0.957944  0.031907  1
  Pb  Pb26  1  0.781875  0.542342  0.466462  1
  Pb  Pb27  1  0.282727  0.542055  0.031783  1
  Pb  Pb28  1  0.782077  0.957556  0.466498  1
  Pb  Pb29  1  0.717853  0.041747  0.967936  1
  Pb  Pb30  1  0.218173  0.458254  0.533035  1
  Pb  Pb31  1  0.073364  0.250058  0.875341  1
  Pb  Pb32  1  0.652062  0.749965  0.847341  1
  Pb  Pb33  1  0.152258  0.750036  0.652846  1
  Pb  Pb34  1  0.349391  0.250002  0.153765  1
  Pb  Pb35  1  0.848147  0.250038  0.347147  1
