# generated using pymatgen
data_RbGeH3
_symmetry_space_group_name_H-M   'P 1'
_cell_length_a   5.68775000
_cell_length_b   7.28467100
_cell_length_c   9.31302500
_cell_angle_alpha   90.00000000
_cell_angle_beta   90.00000000
_cell_angle_gamma   90.00000000
_symmetry_Int_Tables_number   1
_chemical_formula_structural   RbGeH3
_chemical_formula_sum   'Rb4 Ge4 H12'
_cell_volume   385.87017344
_cell_formula_units_Z   4
loop_
 _symmetry_equiv_pos_site_id
 _symmetry_equiv_pos_as_xyz
  1  'x, y, z'
loop_
 _atom_site_type_symbol
 _atom_site_label
 _atom_site_symmetry_multiplicity
 _atom_site_fract_x
 _atom_site_fract_y
 _atom_site_fract_z
 _atom_site_occupancy
  Rb  Rb0  1  0.250000  0.344622  0.684506  1
  Rb  Rb1  1  0.750000  0.655378  0.315494  1
  Rb  Rb2  1  0.750000  0.844622  0.815494  1
  Rb  Rb3  1  0.250000  0.155378  0.184506  1
  Ge  Ge4  1  0.250000  0.851489  0.549678  1
  Ge  Ge5  1  0.750000  0.148511  0.450322  1
  Ge  Ge6  1  0.750000  0.351489  0.950322  1
  Ge  Ge7  1  0.250000  0.648511  0.049678  1
  H  H8  1  0.954390  0.300045  0.419882  1
  H  H9  1  0.454390  0.699955  0.580118  1
  H  H10  1  0.045610  0.800045  0.080118  1
  H  H11  1  0.545610  0.199955  0.919882  1
  H  H12  1  0.045610  0.699955  0.580118  1
  H  H13  1  0.545610  0.300045  0.419882  1
  H  H14  1  0.954390  0.199955  0.919882  1
  H  H15  1  0.454390  0.800045  0.080118  1
  H  H16  1  0.250000  0.694242  0.880000  1
  H  H17  1  0.750000  0.305758  0.120000  1
  H  H18  1  0.750000  0.194242  0.620000  1
  H  H19  1  0.250000  0.805758  0.380000  1
