# generated using pymatgen
data_LuPa(Al3Rh)3
_symmetry_space_group_name_H-M   'P 1'
_cell_length_a   7.58615092
_cell_length_b   7.58797536
_cell_length_c   9.36092700
_cell_angle_alpha   90.00000000
_cell_angle_beta   90.00000000
_cell_angle_gamma   119.67324108
_symmetry_Int_Tables_number   1
_chemical_formula_structural   LuPa(Al3Rh)3
_chemical_formula_sum   'Lu2 Pa2 Al18 Rh6'
_cell_volume   468.18496130
_cell_formula_units_Z   2
loop_
 _symmetry_equiv_pos_site_id
 _symmetry_equiv_pos_as_xyz
  1  'x, y, z'
loop_
 _atom_site_type_symbol
 _atom_site_label
 _atom_site_symmetry_multiplicity
 _atom_site_fract_x
 _atom_site_fract_y
 _atom_site_fract_z
 _atom_site_occupancy
  Lu  Lu0  1  0.669816  0.993874  0.250000  1
  Lu  Lu1  1  0.330184  0.006126  0.750000  1
  Pa  Pa2  1  0.996504  0.670191  0.250000  1
  Pa  Pa3  1  0.003496  0.329809  0.750000  1
  Al  Al4  1  0.129016  0.125694  0.250000  1
  Al  Al5  1  0.870984  0.874306  0.750000  1
  Al  Al6  1  0.999301  0.331082  0.078421  1
  Al  Al7  1  0.000699  0.668918  0.921579  1
  Al  Al8  1  0.000699  0.668918  0.578421  1
  Al  Al9  1  0.338287  0.002404  0.424892  1
  Al  Al10  1  0.999301  0.331082  0.421579  1
  Al  Al11  1  0.661713  0.997596  0.575108  1
  Al  Al12  1  0.661713  0.997596  0.924892  1
  Al  Al13  1  0.338287  0.002404  0.075108  1
  Al  Al14  1  0.334783  0.332351  0.554017  1
  Al  Al15  1  0.665217  0.667649  0.445983  1
  Al  Al16  1  0.665217  0.667649  0.054017  1
  Al  Al17  1  0.334783  0.332351  0.945983  1
  Al  Al18  1  0.340636  0.549895  0.250000  1
  Al  Al19  1  0.659364  0.450105  0.750000  1
  Al  Al20  1  0.549036  0.340503  0.250000  1
  Al  Al21  1  0.450964  0.659497  0.750000  1
  Rh  Rh22  1  0.674534  0.328530  0.999722  1
  Rh  Rh23  1  0.325466  0.671470  0.000278  1
  Rh  Rh24  1  0.325466  0.671470  0.499722  1
  Rh  Rh25  1  0.674534  0.328530  0.500278  1
  Rh  Rh26  1  0.000000  0.000000  0.000000  1
  Rh  Rh27  1  0.000000  0.000000  0.500000  1
