# generated using pymatgen
data_YbTmSiN3
_symmetry_space_group_name_H-M   'P 1'
_cell_length_a   5.77286299
_cell_length_b   5.77286137
_cell_length_c   11.16376200
_cell_angle_alpha   90.00000000
_cell_angle_beta   90.00000000
_cell_angle_gamma   125.29802065
_symmetry_Int_Tables_number   1
_chemical_formula_structural   YbTmSiN3
_chemical_formula_sum   'Yb4 Tm4 Si4 N12'
_cell_volume   303.64557143
_cell_formula_units_Z   4
loop_
 _symmetry_equiv_pos_site_id
 _symmetry_equiv_pos_as_xyz
  1  'x, y, z'
loop_
 _atom_site_type_symbol
 _atom_site_label
 _atom_site_symmetry_multiplicity
 _atom_site_fract_x
 _atom_site_fract_y
 _atom_site_fract_z
 _atom_site_occupancy
  Yb  Yb0  1  0.043910  0.956090  0.854799  1
  Yb  Yb1  1  0.956090  0.043910  0.145201  1
  Yb  Yb2  1  0.456090  0.543910  0.354799  1
  Yb  Yb3  1  0.543910  0.456090  0.645201  1
  Tm  Tm4  1  0.641318  0.358682  0.077859  1
  Tm  Tm5  1  0.358682  0.641318  0.922141  1
  Tm  Tm6  1  0.858682  0.141318  0.577859  1
  Tm  Tm7  1  0.141318  0.858682  0.422141  1
  Si  Si8  1  0.738184  0.261816  0.839228  1
  Si  Si9  1  0.261816  0.738184  0.160772  1
  Si  Si10  1  0.761816  0.238184  0.339228  1
  Si  Si11  1  0.238184  0.761816  0.660772  1
  N  N12  1  0.571515  0.428485  0.872017  1
  N  N13  1  0.428485  0.571515  0.127983  1
  N  N14  1  0.928485  0.071515  0.372017  1
  N  N15  1  0.071515  0.928485  0.627983  1
  N  N16  1  0.534460  0.965540  0.750000  1
  N  N17  1  0.965540  0.534460  0.250000  1
  N  N18  1  0.465540  0.034460  0.250000  1
  N  N19  1  0.034460  0.465540  0.750000  1
  N  N20  1  0.838522  0.161478  0.964438  1
  N  N21  1  0.161478  0.838522  0.035562  1
  N  N22  1  0.661478  0.338522  0.464438  1
  N  N23  1  0.338522  0.661478  0.535562  1
