# generated using pymatgen
data_Y4Ta3Co8(P4Ru3)3
_symmetry_space_group_name_H-M   'P 1'
_cell_length_a   3.72552900
_cell_length_b   10.76173152
_cell_length_c   12.38006040
_cell_angle_alpha   89.80083913
_cell_angle_beta   90.00000000
_cell_angle_gamma   90.00000000
_symmetry_Int_Tables_number   1
_chemical_formula_structural   Y4Ta3Co8(P4Ru3)3
_chemical_formula_sum   'Y4 Ta3 Co8 P12 Ru9'
_cell_volume   496.35253145
_cell_formula_units_Z   1
loop_
 _symmetry_equiv_pos_site_id
 _symmetry_equiv_pos_as_xyz
  1  'x, y, z'
loop_
 _atom_site_type_symbol
 _atom_site_label
 _atom_site_symmetry_multiplicity
 _atom_site_fract_x
 _atom_site_fract_y
 _atom_site_fract_z
 _atom_site_occupancy
  Y  Y0  1  0.250000  0.919484  0.209485  1
  Y  Y1  1  0.750000  0.079946  0.790632  1
  Y  Y2  1  0.750000  0.418779  0.290898  1
  Y  Y3  1  0.250000  0.581442  0.709840  1
  Ta  Ta4  1  0.250000  0.799992  0.488400  1
  Ta  Ta5  1  0.750000  0.199615  0.512125  1
  Ta  Ta6  1  0.750000  0.298680  0.011028  1
  Co  Co7  1  0.250000  0.612645  0.191325  1
  Co  Co8  1  0.750000  0.388942  0.808516  1
  Co  Co9  1  0.750000  0.113569  0.306995  1
  Co  Co10  1  0.250000  0.882699  0.694484  1
  Co  Co11  1  0.250000  0.036287  0.437271  1
  Co  Co12  1  0.750000  0.962689  0.564659  1
  Co  Co13  1  0.750000  0.538288  0.063276  1
  Co  Co14  1  0.250000  0.465283  0.937549  1
  P  P15  1  0.250000  0.071351  0.616805  1
  P  P16  1  0.750000  0.927388  0.384851  1
  P  P17  1  0.750000  0.575717  0.888313  1
  P  P18  1  0.250000  0.428278  0.114938  1
  P  P19  1  0.250000  0.229177  0.365148  1
  P  P20  1  0.750000  0.769866  0.635931  1
  P  P21  1  0.750000  0.729664  0.128755  1
  P  P22  1  0.250000  0.272083  0.864588  1
  P  P23  1  0.250000  0.897322  0.889403  1
  P  P24  1  0.750000  0.092354  0.116780  1
  P  P25  1  0.750000  0.407988  0.616528  1
  P  P26  1  0.250000  0.596004  0.380118  1
  Ru  Ru27  1  0.250000  0.702574  0.986988  1
  Ru  Ru28  1  0.250000  0.096199  0.985790  1
  Ru  Ru29  1  0.750000  0.902278  0.014840  1
  Ru  Ru30  1  0.750000  0.598244  0.513011  1
  Ru  Ru31  1  0.250000  0.403452  0.483650  1
  Ru  Ru32  1  0.250000  0.279545  0.677891  1
  Ru  Ru33  1  0.750000  0.722187  0.317421  1
  Ru  Ru34  1  0.750000  0.776166  0.823647  1
  Ru  Ru35  1  0.250000  0.223823  0.178121  1
