# generated using pymatgen
data_Ba2GeAs3Ir4
_symmetry_space_group_name_H-M   'P 1'
_cell_length_a   7.11118052
_cell_length_b   7.11118043
_cell_length_c   5.83565700
_cell_angle_alpha   90.00000000
_cell_angle_beta   90.00000000
_cell_angle_gamma   131.58039522
_symmetry_Int_Tables_number   1
_chemical_formula_structural   Ba2GeAs3Ir4
_chemical_formula_sum   'Ba2 Ge1 As3 Ir4'
_cell_volume   220.74425051
_cell_formula_units_Z   1
loop_
 _symmetry_equiv_pos_site_id
 _symmetry_equiv_pos_as_xyz
  1  'x, y, z'
loop_
 _atom_site_type_symbol
 _atom_site_label
 _atom_site_symmetry_multiplicity
 _atom_site_fract_x
 _atom_site_fract_y
 _atom_site_fract_z
 _atom_site_occupancy
  Ba  Ba0  1  0.500184  0.499816  0.500000  1
  Ba  Ba1  1  0.994836  0.005164  0.000000  1
  Ge  Ge2  1  0.140251  0.859749  0.500000  1
  As  As3  1  0.642829  0.357171  0.000000  1
  As  As4  1  0.357552  0.642448  0.000000  1
  As  As5  1  0.852910  0.147090  0.500000  1
  Ir  Ir6  1  0.497645  0.998975  0.248928  1
  Ir  Ir7  1  0.001025  0.502355  0.751072  1
  Ir  Ir8  1  0.001025  0.502355  0.248928  1
  Ir  Ir9  1  0.497645  0.998975  0.751072  1
