# generated using pymatgen
data_LiZr2Mn(NiAs)4
_symmetry_space_group_name_H-M   'P 1'
_cell_length_a   3.87368300
_cell_length_b   6.32015034
_cell_length_c   7.23652372
_cell_angle_alpha   88.95830434
_cell_angle_beta   90.00000000
_cell_angle_gamma   90.00000000
_symmetry_Int_Tables_number   1
_chemical_formula_structural   LiZr2Mn(NiAs)4
_chemical_formula_sum   'Li1 Zr2 Mn1 Ni4 As4'
_cell_volume   177.13716721
_cell_formula_units_Z   1
loop_
 _symmetry_equiv_pos_site_id
 _symmetry_equiv_pos_as_xyz
  1  'x, y, z'
loop_
 _atom_site_type_symbol
 _atom_site_label
 _atom_site_symmetry_multiplicity
 _atom_site_fract_x
 _atom_site_fract_y
 _atom_site_fract_z
 _atom_site_occupancy
  Li  Li0  1  0.250000  0.479513  0.182476  1
  Zr  Zr1  1  0.750000  0.025282  0.689978  1
  Zr  Zr2  1  0.250000  0.973478  0.310792  1
  Mn  Mn3  1  0.750000  0.522265  0.823554  1
  Ni  Ni4  1  0.250000  0.856066  0.938037  1
  Ni  Ni5  1  0.750000  0.147713  0.060804  1
  Ni  Ni6  1  0.750000  0.643384  0.438125  1
  Ni  Ni7  1  0.250000  0.355270  0.560242  1
  As  As8  1  0.250000  0.723207  0.627106  1
  As  As9  1  0.750000  0.272829  0.373068  1
  As  As10  1  0.750000  0.753465  0.110219  1
  As  As11  1  0.250000  0.247527  0.885600  1
