# generated using pymatgen
data_Tb2Pa(ZnPd)3
_symmetry_space_group_name_H-M   'P 1'
_cell_length_a   7.39277122
_cell_length_b   7.44439632
_cell_length_c   3.78766900
_cell_angle_alpha   90.00000000
_cell_angle_beta   90.00000000
_cell_angle_gamma   120.23125759
_symmetry_Int_Tables_number   1
_chemical_formula_structural   Tb2Pa(ZnPd)3
_chemical_formula_sum   'Tb2 Pa1 Zn3 Pd3'
_cell_volume   180.10370257
_cell_formula_units_Z   1
loop_
 _symmetry_equiv_pos_site_id
 _symmetry_equiv_pos_as_xyz
  1  'x, y, z'
loop_
 _atom_site_type_symbol
 _atom_site_label
 _atom_site_symmetry_multiplicity
 _atom_site_fract_x
 _atom_site_fract_y
 _atom_site_fract_z
 _atom_site_occupancy
  Tb  Tb0  1  0.600696  0.597165  0.000000  1
  Tb  Tb1  1  0.399304  0.996469  0.000000  1
  Pa  Pa2  1  0.000000  0.405470  0.000000  1
  Zn  Zn3  1  0.000000  0.752298  0.500000  1
  Zn  Zn4  1  0.262160  0.256650  0.500000  1
  Zn  Zn5  1  0.737840  0.994490  0.500000  1
  Pd  Pd6  1  0.000000  0.010008  0.000000  1
  Pd  Pd7  1  0.317375  0.652412  0.500000  1
  Pd  Pd8  1  0.682625  0.335037  0.500000  1
