# generated using pymatgen
data_Th3Al2GaIrPd2
_symmetry_space_group_name_H-M   'P 1'
_cell_length_a   7.29953239
_cell_length_b   7.35024819
_cell_length_c   4.14624400
_cell_angle_alpha   90.00000000
_cell_angle_beta   90.00000000
_cell_angle_gamma   120.12223811
_symmetry_Int_Tables_number   1
_chemical_formula_structural   Th3Al2GaIrPd2
_chemical_formula_sum   'Th3 Al2 Ga1 Ir1 Pd2'
_cell_volume   192.41825388
_cell_formula_units_Z   1
loop_
 _symmetry_equiv_pos_site_id
 _symmetry_equiv_pos_as_xyz
  1  'x, y, z'
loop_
 _atom_site_type_symbol
 _atom_site_label
 _atom_site_symmetry_multiplicity
 _atom_site_fract_x
 _atom_site_fract_y
 _atom_site_fract_z
 _atom_site_occupancy
  Th  Th0  1  0.413689  0.421461  0.500000  1
  Th  Th1  1  0.579658  0.994616  0.500000  1
  Th  Th2  1  0.006564  0.580285  0.500000  1
  Al  Al3  1  0.763699  0.764593  0.000000  1
  Al  Al4  1  0.233617  0.995975  0.000000  1
  Ga  Ga5  1  0.000520  0.239765  0.000000  1
  Ir  Ir6  1  0.339783  0.675525  0.000000  1
  Pd  Pd7  1  0.662167  0.335043  0.000000  1
  Pd  Pd8  1  0.000302  0.992737  0.500000  1
