# generated using pymatgen
data_Nd16Cd3In(CoIr)2
_symmetry_space_group_name_H-M   'P 1'
_cell_length_a   9.89395487
_cell_length_b   9.89395529
_cell_length_c   9.85952362
_cell_angle_alpha   60.07061216
_cell_angle_beta   60.07060951
_cell_angle_gamma   60.24107728
_symmetry_Int_Tables_number   1
_chemical_formula_structural   Nd16Cd3In(CoIr)2
_chemical_formula_sum   'Nd16 Cd3 In1 Co2 Ir2'
_cell_volume   684.43183687
_cell_formula_units_Z   1
loop_
 _symmetry_equiv_pos_site_id
 _symmetry_equiv_pos_as_xyz
  1  'x, y, z'
loop_
 _atom_site_type_symbol
 _atom_site_label
 _atom_site_symmetry_multiplicity
 _atom_site_fract_x
 _atom_site_fract_y
 _atom_site_fract_z
 _atom_site_occupancy
  Nd  Nd0  1  0.344597  0.344597  0.352308  1
  Nd  Nd1  1  0.346420  0.346420  0.954492  1
  Nd  Nd2  1  0.343387  0.957184  0.350844  1
  Nd  Nd3  1  0.957184  0.343387  0.350844  1
  Nd  Nd4  1  0.815056  0.190492  0.188066  1
  Nd  Nd5  1  0.190774  0.813316  0.803721  1
  Nd  Nd6  1  0.190492  0.815056  0.188066  1
  Nd  Nd7  1  0.813316  0.190774  0.803721  1
  Nd  Nd8  1  0.189116  0.189116  0.809563  1
  Nd  Nd9  1  0.807866  0.807866  0.190139  1
  Nd  Nd10  1  0.941160  0.563098  0.559796  1
  Nd  Nd11  1  0.561679  0.939280  0.939771  1
  Nd  Nd12  1  0.563098  0.941160  0.559796  1
  Nd  Nd13  1  0.939280  0.561679  0.939771  1
  Nd  Nd14  1  0.559644  0.559644  0.943428  1
  Nd  Nd15  1  0.937445  0.937445  0.562197  1
  Cd  Cd16  1  0.579479  0.579479  0.260548  1
  Cd  Cd17  1  0.579886  0.259865  0.579340  1
  Cd  Cd18  1  0.259865  0.579886  0.579340  1
  In  In19  1  0.580527  0.580527  0.579765  1
  Co  Co20  1  0.140153  0.140153  0.142048  1
  Co  Co21  1  0.141448  0.141448  0.577541  1
  Ir  Ir22  1  0.142235  0.575889  0.142447  1
  Ir  Ir23  1  0.575889  0.142235  0.142447  1
