# generated using pymatgen
data_Ho3AlIn2Au3
_symmetry_space_group_name_H-M   'P 1'
_cell_length_a   7.68503138
_cell_length_b   7.68503112
_cell_length_c   3.94798700
_cell_angle_alpha   90.00000000
_cell_angle_beta   90.00000000
_cell_angle_gamma   120.63063284
_symmetry_Int_Tables_number   1
_chemical_formula_structural   Ho3AlIn2Au3
_chemical_formula_sum   'Ho3 Al1 In2 Au3'
_cell_volume   200.63310557
_cell_formula_units_Z   1
loop_
 _symmetry_equiv_pos_site_id
 _symmetry_equiv_pos_as_xyz
  1  'x, y, z'
loop_
 _atom_site_type_symbol
 _atom_site_label
 _atom_site_symmetry_multiplicity
 _atom_site_fract_x
 _atom_site_fract_y
 _atom_site_fract_z
 _atom_site_occupancy
  Ho  Ho0  1  0.408616  0.408616  0.500000  1
  Ho  Ho1  1  0.596000  0.998318  0.500000  1
  Ho  Ho2  1  0.998318  0.596000  0.500000  1
  Al  Al3  1  0.744278  0.744278  0.000000  1
  In  In4  1  0.258620  0.999433  0.000000  1
  In  In5  1  0.999433  0.258620  0.000000  1
  Au  Au6  1  0.669424  0.347869  0.000000  1
  Au  Au7  1  0.347869  0.669424  0.000000  1
  Au  Au8  1  0.977442  0.977442  0.500000  1
