# generated using pymatgen
data_Lu3In4RuRh
_symmetry_space_group_name_H-M   'P 1'
_cell_length_a   7.95237100
_cell_length_b   7.95236912
_cell_length_c   3.61725400
_cell_angle_alpha   90.00000000
_cell_angle_beta   90.00000000
_cell_angle_gamma   119.99999535
_symmetry_Int_Tables_number   1
_chemical_formula_structural   Lu3In4RuRh
_chemical_formula_sum   'Lu3 In4 Ru1 Rh1'
_cell_volume   198.10836816
_cell_formula_units_Z   1
loop_
 _symmetry_equiv_pos_site_id
 _symmetry_equiv_pos_as_xyz
  1  'x, y, z'
loop_
 _atom_site_type_symbol
 _atom_site_label
 _atom_site_symmetry_multiplicity
 _atom_site_fract_x
 _atom_site_fract_y
 _atom_site_fract_z
 _atom_site_occupancy
  Lu  Lu0  1  0.373516  0.415017  0.000000  1
  Lu  Lu1  1  0.041501  0.626483  0.000000  1
  Lu  Lu2  1  0.584983  0.958500  0.000000  1
  In  In3  1  0.999504  0.263595  0.500000  1
  In  In4  1  0.666666  0.333334  0.500000  1
  In  In5  1  0.736406  0.735909  0.500000  1
  In  In6  1  0.264091  0.000497  0.500000  1
  Ru  Ru7  1  0.333333  0.666666  0.500000  1
  Rh  Rh8  1  0.000000  0.000000  0.000000  1
