# generated using pymatgen
data_Tb3Al12(FePt)2
_symmetry_space_group_name_H-M   'P 1'
_cell_length_a   8.78769453
_cell_length_b   8.78769425
_cell_length_c   9.42458943
_cell_angle_alpha   90.05317266
_cell_angle_beta   89.94682603
_cell_angle_gamma   119.94190684
_symmetry_Int_Tables_number   1
_chemical_formula_structural   Tb3Al12(FePt)2
_chemical_formula_sum   'Tb6 Al24 Fe4 Pt4'
_cell_volume   630.66197137
_cell_formula_units_Z   2
loop_
 _symmetry_equiv_pos_site_id
 _symmetry_equiv_pos_as_xyz
  1  'x, y, z'
loop_
 _atom_site_type_symbol
 _atom_site_label
 _atom_site_symmetry_multiplicity
 _atom_site_fract_x
 _atom_site_fract_y
 _atom_site_fract_z
 _atom_site_occupancy
  Tb  Tb0  1  0.190354  0.383981  0.252907  1
  Tb  Tb1  1  0.809646  0.616019  0.747093  1
  Tb  Tb2  1  0.616019  0.809646  0.252907  1
  Tb  Tb3  1  0.383981  0.190354  0.747093  1
  Tb  Tb4  1  0.191995  0.808005  0.250922  1
  Tb  Tb5  1  0.808005  0.191995  0.749078  1
  Al  Al6  1  0.333255  0.666745  0.028699  1
  Al  Al7  1  0.666745  0.333255  0.971301  1
  Al  Al8  1  0.672335  0.327665  0.525075  1
  Al  Al9  1  0.327665  0.672335  0.474925  1
  Al  Al10  1  0.153122  0.321565  0.573770  1
  Al  Al11  1  0.846878  0.678435  0.426230  1
  Al  Al12  1  0.678435  0.846878  0.573770  1
  Al  Al13  1  0.841878  0.683560  0.078909  1
  Al  Al14  1  0.321565  0.153122  0.426230  1
  Al  Al15  1  0.158122  0.316440  0.921091  1
  Al  Al16  1  0.161989  0.838011  0.573878  1
  Al  Al17  1  0.316440  0.158122  0.078909  1
  Al  Al18  1  0.838011  0.161989  0.426122  1
  Al  Al19  1  0.683560  0.841878  0.921091  1
  Al  Al20  1  0.841018  0.158982  0.079669  1
  Al  Al21  1  0.158982  0.841018  0.920331  1
  Al  Al22  1  0.561531  0.122761  0.258835  1
  Al  Al23  1  0.438469  0.877239  0.741165  1
  Al  Al24  1  0.877239  0.438469  0.258835  1
  Al  Al25  1  0.122761  0.561531  0.741165  1
  Al  Al26  1  0.564788  0.435212  0.250243  1
  Al  Al27  1  0.435212  0.564788  0.749757  1
  Al  Al28  1  0.999341  0.000659  0.250996  1
  Al  Al29  1  0.000659  0.999341  0.749004  1
  Fe  Fe30  1  0.500000  0.000000  0.500000  1
  Fe  Fe31  1  0.000000  0.500000  0.500000  1
  Fe  Fe32  1  0.000000  0.000000  0.000000  1
  Fe  Fe33  1  0.000000  0.000000  0.500000  1
  Pt  Pt34  1  0.500000  0.000000  0.000000  1
  Pt  Pt35  1  0.000000  0.500000  0.000000  1
  Pt  Pt36  1  0.500000  0.500000  0.000000  1
  Pt  Pt37  1  0.500000  0.500000  0.500000  1
