# generated using pymatgen
data_Dy6Ho10Cd4NiIr3
_symmetry_space_group_name_H-M   'P 1'
_cell_length_a   9.56912864
_cell_length_b   9.56912865
_cell_length_c   9.56912887
_cell_angle_alpha   60.12002904
_cell_angle_beta   60.12003307
_cell_angle_gamma   60.12002592
_symmetry_Int_Tables_number   1
_chemical_formula_structural   Dy6Ho10Cd4NiIr3
_chemical_formula_sum   'Dy6 Ho10 Cd4 Ni1 Ir3'
_cell_volume   621.27169247
_cell_formula_units_Z   1
loop_
 _symmetry_equiv_pos_site_id
 _symmetry_equiv_pos_as_xyz
  1  'x, y, z'
loop_
 _atom_site_type_symbol
 _atom_site_label
 _atom_site_symmetry_multiplicity
 _atom_site_fract_x
 _atom_site_fract_y
 _atom_site_fract_z
 _atom_site_occupancy
  Dy  Dy0  1  0.189127  0.811551  0.811551  1
  Dy  Dy1  1  0.813377  0.187656  0.187656  1
  Dy  Dy2  1  0.811551  0.189127  0.811551  1
  Dy  Dy3  1  0.187656  0.813377  0.187656  1
  Dy  Dy4  1  0.811551  0.811551  0.189127  1
  Dy  Dy5  1  0.187656  0.187656  0.813377  1
  Ho  Ho6  1  0.598667  0.598667  0.598667  1
  Ho  Ho7  1  0.598418  0.598418  0.203188  1
  Ho  Ho8  1  0.598418  0.203188  0.598418  1
  Ho  Ho9  1  0.203188  0.598418  0.598418  1
  Ho  Ho10  1  0.061488  0.439799  0.439799  1
  Ho  Ho11  1  0.437778  0.060333  0.060333  1
  Ho  Ho12  1  0.439799  0.061488  0.439799  1
  Ho  Ho13  1  0.060333  0.437778  0.060333  1
  Ho  Ho14  1  0.439799  0.439799  0.061488  1
  Ho  Ho15  1  0.060333  0.060333  0.437778  1
  Cd  Cd16  1  0.830327  0.830327  0.830327  1
  Cd  Cd17  1  0.831459  0.831459  0.506318  1
  Cd  Cd18  1  0.831459  0.506318  0.831459  1
  Cd  Cd19  1  0.506318  0.831459  0.831459  1
  Ni  Ni20  1  0.392075  0.392075  0.392075  1
  Ir  Ir21  1  0.392090  0.392090  0.825040  1
  Ir  Ir22  1  0.392090  0.825040  0.392090  1
  Ir  Ir23  1  0.825040  0.392090  0.392090  1
