# generated using pymatgen
data_Ti8VReBi4
_symmetry_space_group_name_H-M   'P 1'
_cell_length_a   7.95535283
_cell_length_b   7.95535417
_cell_length_c   7.95535227
_cell_angle_alpha   96.03503130
_cell_angle_beta   96.03504238
_cell_angle_gamma   142.15998219
_symmetry_Int_Tables_number   1
_chemical_formula_structural   Ti8VReBi4
_chemical_formula_sum   'Ti8 V1 Re1 Bi4'
_cell_volume   292.17439081
_cell_formula_units_Z   1
loop_
 _symmetry_equiv_pos_site_id
 _symmetry_equiv_pos_as_xyz
  1  'x, y, z'
loop_
 _atom_site_type_symbol
 _atom_site_label
 _atom_site_symmetry_multiplicity
 _atom_site_fract_x
 _atom_site_fract_y
 _atom_site_fract_z
 _atom_site_occupancy
  Ti  Ti0  1  0.585603  0.701695  0.279856  1
  Ti  Ti1  1  0.914397  0.194253  0.116092  1
  Ti  Ti2  1  0.305747  0.585603  0.883908  1
  Ti  Ti3  1  0.798305  0.914397  0.720144  1
  Ti  Ti4  1  0.701695  0.421839  0.116092  1
  Ti  Ti5  1  0.078161  0.798305  0.883908  1
  Ti  Ti6  1  0.421839  0.305747  0.720144  1
  Ti  Ti7  1  0.194253  0.078161  0.279856  1
  V  V8  1  0.750000  0.750000  0.000000  1
  Re  Re9  1  0.250000  0.250000  0.000000  1
  Bi  Bi10  1  0.359880  0.859880  0.219760  1
  Bi  Bi11  1  0.140120  0.359880  0.500000  1
  Bi  Bi12  1  0.640120  0.140120  0.780240  1
  Bi  Bi13  1  0.859880  0.640120  0.500000  1
