# generated using pymatgen
data_Er8Sc3Si16Mo9
_symmetry_space_group_name_H-M   'P 1'
_cell_length_a   6.96042575
_cell_length_b   6.96042538
_cell_length_c   12.83685102
_cell_angle_alpha   90.00948863
_cell_angle_beta   89.99050732
_cell_angle_gamma   89.84983886
_symmetry_Int_Tables_number   1
_chemical_formula_structural   Er8Sc3Si16Mo9
_chemical_formula_sum   'Er8 Sc3 Si16 Mo9'
_cell_volume   621.91149543
_cell_formula_units_Z   1
loop_
 _symmetry_equiv_pos_site_id
 _symmetry_equiv_pos_as_xyz
  1  'x, y, z'
loop_
 _atom_site_type_symbol
 _atom_site_label
 _atom_site_symmetry_multiplicity
 _atom_site_fract_x
 _atom_site_fract_y
 _atom_site_fract_z
 _atom_site_occupancy
  Er  Er0  1  0.338250  0.003774  0.468421  1
  Er  Er1  1  0.495381  0.839599  0.719768  1
  Er  Er2  1  0.500654  0.161794  0.215718  1
  Er  Er3  1  0.839599  0.495381  0.280232  1
  Er  Er4  1  0.161794  0.500654  0.784282  1
  Er  Er5  1  0.657763  0.000507  0.969288  1
  Er  Er6  1  0.003774  0.338250  0.531579  1
  Er  Er7  1  0.000507  0.657763  0.030712  1
  Sc  Sc8  1  0.170418  0.830281  0.247882  1
  Sc  Sc9  1  0.830281  0.170418  0.752118  1
  Sc  Sc10  1  0.668122  0.668122  0.500000  1
  Si  Si11  1  0.204566  0.128760  0.682884  1
  Si  Si12  1  0.374589  0.699046  0.933503  1
  Si  Si13  1  0.628156  0.293699  0.431408  1
  Si  Si14  1  0.699046  0.374589  0.066497  1
  Si  Si15  1  0.293699  0.628156  0.568592  1
  Si  Si16  1  0.794830  0.871814  0.182224  1
  Si  Si17  1  0.128760  0.204566  0.317116  1
  Si  Si18  1  0.871814  0.794830  0.817776  1
  Si  Si19  1  0.287810  0.966687  0.058864  1
  Si  Si20  1  0.542714  0.790159  0.310610  1
  Si  Si21  1  0.453937  0.213077  0.816419  1
  Si  Si22  1  0.790159  0.542714  0.689390  1
  Si  Si23  1  0.213077  0.453937  0.183581  1
  Si  Si24  1  0.708721  0.043470  0.561431  1
  Si  Si25  1  0.966687  0.287810  0.941136  1
  Si  Si26  1  0.043470  0.708721  0.438569  1
  Mo  Mo27  1  0.332757  0.332757  0.000000  1
  Mo  Mo28  1  0.158673  0.000344  0.872854  1
  Mo  Mo29  1  0.496242  0.665146  0.122173  1
  Mo  Mo30  1  0.501380  0.340290  0.624463  1
  Mo  Mo31  1  0.665146  0.496242  0.877827  1
  Mo  Mo32  1  0.340290  0.501380  0.375537  1
  Mo  Mo33  1  0.841570  0.995022  0.373917  1
  Mo  Mo34  1  0.000344  0.158673  0.127146  1
  Mo  Mo35  1  0.995022  0.841570  0.626083  1
