# generated using pymatgen
data_Na(ZrTe2)4
_symmetry_space_group_name_H-M   'P 1'
_cell_length_a   9.32033376
_cell_length_b   9.32033329
_cell_length_c   9.32033273
_cell_angle_alpha   50.28703441
_cell_angle_beta   50.28703342
_cell_angle_gamma   50.28702908
_symmetry_Int_Tables_number   1
_chemical_formula_structural   Na(ZrTe2)4
_chemical_formula_sum   'Na1 Zr4 Te8'
_cell_volume   441.20168324
_cell_formula_units_Z   1
loop_
 _symmetry_equiv_pos_site_id
 _symmetry_equiv_pos_as_xyz
  1  'x, y, z'
loop_
 _atom_site_type_symbol
 _atom_site_label
 _atom_site_symmetry_multiplicity
 _atom_site_fract_x
 _atom_site_fract_y
 _atom_site_fract_z
 _atom_site_occupancy
  Na  Na0  1  0.500000  0.500000  0.500000  1
  Zr  Zr1  1  0.000000  0.500000  0.500000  1
  Zr  Zr2  1  0.500000  0.000000  0.500000  1
  Zr  Zr3  1  0.500000  0.500000  0.000000  1
  Zr  Zr4  1  0.000000  0.000000  0.000000  1
  Te  Te5  1  0.255689  0.759943  0.759943  1
  Te  Te6  1  0.240057  0.240057  0.744311  1
  Te  Te7  1  0.744311  0.240057  0.240057  1
  Te  Te8  1  0.240057  0.744311  0.240057  1
  Te  Te9  1  0.258561  0.258561  0.258561  1
  Te  Te10  1  0.741439  0.741439  0.741439  1
  Te  Te11  1  0.759943  0.255689  0.759943  1
  Te  Te12  1  0.759943  0.759943  0.255689  1
