# generated using pymatgen
data_Ho2Lu2TcB12Rh
_symmetry_space_group_name_H-M   'P 1'
_cell_length_a   3.63635500
_cell_length_b   9.06764253
_cell_length_c   11.46281819
_cell_angle_alpha   90.31293763
_cell_angle_beta   90.00000000
_cell_angle_gamma   90.00000000
_symmetry_Int_Tables_number   1
_chemical_formula_structural   Ho2Lu2TcB12Rh
_chemical_formula_sum   'Ho4 Lu4 Tc2 B24 Rh2'
_cell_volume   377.95978385
_cell_formula_units_Z   2
loop_
 _symmetry_equiv_pos_site_id
 _symmetry_equiv_pos_as_xyz
  1  'x, y, z'
loop_
 _atom_site_type_symbol
 _atom_site_label
 _atom_site_symmetry_multiplicity
 _atom_site_fract_x
 _atom_site_fract_y
 _atom_site_fract_z
 _atom_site_occupancy
  Ho  Ho0  1  0.500000  0.318166  0.411339  1
  Ho  Ho1  1  0.500000  0.681834  0.588661  1
  Ho  Ho2  1  0.500000  0.174338  0.916977  1
  Ho  Ho3  1  0.500000  0.825662  0.083023  1
  Lu  Lu4  1  0.500000  0.441906  0.126642  1
  Lu  Lu5  1  0.500000  0.558094  0.873358  1
  Lu  Lu6  1  0.500000  0.053541  0.628338  1
  Lu  Lu7  1  0.500000  0.946459  0.371662  1
  Tc  Tc8  1  0.500000  0.139725  0.180542  1
  Tc  Tc9  1  0.500000  0.860275  0.819458  1
  B  B10  1  0.000000  0.104525  0.472097  1
  B  B11  1  0.000000  0.895475  0.527903  1
  B  B12  1  0.000000  0.396640  0.971318  1
  B  B13  1  0.000000  0.603360  0.028682  1
  B  B14  1  0.000000  0.131562  0.315764  1
  B  B15  1  0.000000  0.868438  0.684236  1
  B  B16  1  0.000000  0.368377  0.817327  1
  B  B17  1  0.000000  0.631623  0.182673  1
  B  B18  1  0.000000  0.053477  0.067484  1
  B  B19  1  0.000000  0.946523  0.932516  1
  B  B20  1  0.000000  0.445107  0.565914  1
  B  B21  1  0.000000  0.554893  0.434086  1
  B  B22  1  0.000000  0.483147  0.287187  1
  B  B23  1  0.000000  0.516853  0.712813  1
  B  B24  1  0.000000  0.017290  0.786401  1
  B  B25  1  0.000000  0.982710  0.213599  1
  B  B26  1  0.000000  0.249842  0.081294  1
  B  B27  1  0.000000  0.750158  0.918706  1
  B  B28  1  0.000000  0.249225  0.579087  1
  B  B29  1  0.000000  0.750775  0.420913  1
  B  B30  1  0.000000  0.293754  0.235114  1
  B  B31  1  0.000000  0.706246  0.764886  1
  B  B32  1  0.000000  0.207651  0.735175  1
  B  B33  1  0.000000  0.792349  0.264825  1
  Rh  Rh34  1  0.500000  0.361173  0.679457  1
  Rh  Rh35  1  0.500000  0.638827  0.320543  1
