# generated using pymatgen
data_Ca2Tb2Sn5SbRh7
_symmetry_space_group_name_H-M   'P 1'
_cell_length_a   7.63480889
_cell_length_b   7.63480979
_cell_length_c   7.64533720
_cell_angle_alpha   109.44600613
_cell_angle_beta   109.44600561
_cell_angle_gamma   109.46584928
_symmetry_Int_Tables_number   1
_chemical_formula_structural   Ca2Tb2Sn5SbRh7
_chemical_formula_sum   'Ca2 Tb2 Sn5 Sb1 Rh7'
_cell_volume   343.29687795
_cell_formula_units_Z   1
loop_
 _symmetry_equiv_pos_site_id
 _symmetry_equiv_pos_as_xyz
  1  'x, y, z'
loop_
 _atom_site_type_symbol
 _atom_site_label
 _atom_site_symmetry_multiplicity
 _atom_site_fract_x
 _atom_site_fract_y
 _atom_site_fract_z
 _atom_site_occupancy
  Ca  Ca0  1  0.495846  0.999556  0.000000  1
  Ca  Ca1  1  0.999556  0.495846  0.000000  1
  Tb  Tb2  1  0.999055  0.999055  0.503730  1
  Tb  Tb3  1  0.495325  0.495325  0.496270  1
  Sn  Sn4  1  0.994092  0.315097  0.315556  1
  Sn  Sn5  1  0.678536  0.999541  0.684444  1
  Sn  Sn6  1  0.690636  0.690636  0.000000  1
  Sn  Sn7  1  0.999541  0.678536  0.684444  1
  Sn  Sn8  1  0.315097  0.994092  0.315556  1
  Sb  Sb9  1  0.322684  0.322684  0.000000  1
  Rh  Rh10  1  0.007309  0.007309  0.000000  1
  Rh  Rh11  1  0.505885  0.750539  0.252601  1
  Rh  Rh12  1  0.750539  0.505885  0.252601  1
  Rh  Rh13  1  0.247339  0.747339  0.500000  1
  Rh  Rh14  1  0.253285  0.497939  0.747399  1
  Rh  Rh15  1  0.497939  0.253285  0.747399  1
  Rh  Rh16  1  0.747339  0.247339  0.500000  1
