# generated using pymatgen
data_Li2YbThGe2
_symmetry_space_group_name_H-M   'P 1'
_cell_length_a   4.48047200
_cell_length_b   4.48047324
_cell_length_c   7.48395200
_cell_angle_alpha   90.00000000
_cell_angle_beta   90.00000000
_cell_angle_gamma   119.99999088
_symmetry_Int_Tables_number   1
_chemical_formula_structural   Li2YbThGe2
_chemical_formula_sum   'Li2 Yb1 Th1 Ge2'
_cell_volume   130.10959351
_cell_formula_units_Z   1
loop_
 _symmetry_equiv_pos_site_id
 _symmetry_equiv_pos_as_xyz
  1  'x, y, z'
loop_
 _atom_site_type_symbol
 _atom_site_label
 _atom_site_symmetry_multiplicity
 _atom_site_fract_x
 _atom_site_fract_y
 _atom_site_fract_z
 _atom_site_occupancy
  Li  Li0  1  0.666667  0.333333  0.261690  1
  Li  Li1  1  0.333333  0.666667  0.717455  1
  Yb  Yb2  1  0.000000  0.000000  0.494329  1
  Th  Th3  1  0.000000  0.000000  0.994598  1
  Ge  Ge4  1  0.666667  0.333333  0.768556  1
  Ge  Ge5  1  0.333333  0.666667  0.237571  1
