# generated using pymatgen
data_Tb6Lu2Ti11Si16Ag
_symmetry_space_group_name_H-M   'P 1'
_cell_length_a   7.07167627
_cell_length_b   7.07293138
_cell_length_c   12.91864130
_cell_angle_alpha   90.10368161
_cell_angle_beta   89.98724582
_cell_angle_gamma   89.61281319
_symmetry_Int_Tables_number   1
_chemical_formula_structural   Tb6Lu2Ti11Si16Ag
_chemical_formula_sum   'Tb6 Lu2 Ti11 Si16 Ag1'
_cell_volume   646.14206571
_cell_formula_units_Z   1
loop_
 _symmetry_equiv_pos_site_id
 _symmetry_equiv_pos_as_xyz
  1  'x, y, z'
loop_
 _atom_site_type_symbol
 _atom_site_label
 _atom_site_symmetry_multiplicity
 _atom_site_fract_x
 _atom_site_fract_y
 _atom_site_fract_z
 _atom_site_occupancy
  Tb  Tb0  1  0.501366  0.158617  0.214862  1
  Tb  Tb1  1  0.839757  0.496922  0.283798  1
  Tb  Tb2  1  0.159118  0.501639  0.784884  1
  Tb  Tb3  1  0.656390  0.000272  0.967890  1
  Tb  Tb4  1  0.003252  0.339983  0.533545  1
  Tb  Tb5  1  0.000538  0.656687  0.031491  1
  Lu  Lu6  1  0.341299  0.000771  0.466883  1
  Lu  Lu7  1  0.498609  0.840946  0.716429  1
  Ti  Ti8  1  0.174100  0.826687  0.250508  1
  Ti  Ti9  1  0.826120  0.173220  0.749465  1
  Ti  Ti10  1  0.671824  0.673696  0.500495  1
  Ti  Ti11  1  0.149044  0.007779  0.876549  1
  Ti  Ti12  1  0.494966  0.651364  0.123832  1
  Ti  Ti13  1  0.507110  0.350427  0.625336  1
  Ti  Ti14  1  0.650204  0.494865  0.875577  1
  Ti  Ti15  1  0.349668  0.508720  0.375250  1
  Ti  Ti16  1  0.849279  0.991851  0.375342  1
  Ti  Ti17  1  0.009087  0.148771  0.122815  1
  Ti  Ti18  1  0.991977  0.849685  0.625098  1
  Si  Si19  1  0.203911  0.129399  0.683928  1
  Si  Si20  1  0.374313  0.719357  0.928634  1
  Si  Si21  1  0.628353  0.293060  0.433584  1
  Si  Si22  1  0.718113  0.374268  0.069620  1
  Si  Si23  1  0.296636  0.634174  0.567636  1
  Si  Si24  1  0.798051  0.868920  0.183691  1
  Si  Si25  1  0.132895  0.200036  0.316508  1
  Si  Si26  1  0.866687  0.798542  0.815852  1
  Si  Si27  1  0.286139  0.938078  0.066247  1
  Si  Si28  1  0.545299  0.791921  0.315464  1
  Si  Si29  1  0.455979  0.205519  0.807962  1
  Si  Si30  1  0.789427  0.547968  0.685381  1
  Si  Si31  1  0.208289  0.455557  0.191658  1
  Si  Si32  1  0.706117  0.045442  0.564606  1
  Si  Si33  1  0.938384  0.285805  0.933262  1
  Si  Si34  1  0.049138  0.710700  0.435945  1
  Ag  Ag35  1  0.328560  0.328353  0.999974  1
