# generated using pymatgen
data_TiNb8AlSe16
_symmetry_space_group_name_H-M   'P 1'
_cell_length_a   7.00630100
_cell_length_b   7.00630155
_cell_length_c   12.92236900
_cell_angle_alpha   90.00000000
_cell_angle_beta   90.00000000
_cell_angle_gamma   120.00000212
_symmetry_Int_Tables_number   1
_chemical_formula_structural   TiNb8AlSe16
_chemical_formula_sum   'Ti1 Nb8 Al1 Se16'
_cell_volume   549.35157918
_cell_formula_units_Z   1
loop_
 _symmetry_equiv_pos_site_id
 _symmetry_equiv_pos_as_xyz
  1  'x, y, z'
loop_
 _atom_site_type_symbol
 _atom_site_label
 _atom_site_symmetry_multiplicity
 _atom_site_fract_x
 _atom_site_fract_y
 _atom_site_fract_z
 _atom_site_occupancy
  Ti  Ti0  1  0.000000  0.000000  0.000000  1
  Nb  Nb1  1  0.000000  0.000000  0.248500  1
  Nb  Nb2  1  0.000000  0.000000  0.751500  1
  Nb  Nb3  1  0.506865  0.013730  0.250308  1
  Nb  Nb4  1  0.493135  0.986270  0.749692  1
  Nb  Nb5  1  0.986270  0.493135  0.250308  1
  Nb  Nb6  1  0.013730  0.506865  0.749692  1
  Nb  Nb7  1  0.506865  0.493135  0.250308  1
  Nb  Nb8  1  0.493135  0.506865  0.749692  1
  Al  Al9  1  0.000000  0.000000  0.500000  1
  Se  Se10  1  0.333333  0.666667  0.616889  1
  Se  Se11  1  0.666667  0.333333  0.383111  1
  Se  Se12  1  0.666667  0.333333  0.117221  1
  Se  Se13  1  0.333333  0.666667  0.882779  1
  Se  Se14  1  0.168445  0.336890  0.120556  1
  Se  Se15  1  0.831555  0.663110  0.879444  1
  Se  Se16  1  0.663110  0.831555  0.120556  1
  Se  Se17  1  0.831865  0.663731  0.620058  1
  Se  Se18  1  0.336890  0.168445  0.879444  1
  Se  Se19  1  0.168135  0.336269  0.379942  1
  Se  Se20  1  0.168445  0.831555  0.120556  1
  Se  Se21  1  0.336269  0.168135  0.620058  1
  Se  Se22  1  0.831555  0.168445  0.879444  1
  Se  Se23  1  0.663731  0.831865  0.379942  1
  Se  Se24  1  0.831865  0.168135  0.620058  1
  Se  Se25  1  0.168135  0.831865  0.379942  1
