# generated using pymatgen
data_YPa(FeB)8
_symmetry_space_group_name_H-M   'P 1'
_cell_length_a   6.95661800
_cell_length_b   6.95661800
_cell_length_c   3.81347900
_cell_angle_alpha   90.00000000
_cell_angle_beta   90.00000000
_cell_angle_gamma   90.00000000
_symmetry_Int_Tables_number   1
_chemical_formula_structural   YPa(FeB)8
_chemical_formula_sum   'Y1 Pa1 Fe8 B8'
_cell_volume   184.55153912
_cell_formula_units_Z   1
loop_
 _symmetry_equiv_pos_site_id
 _symmetry_equiv_pos_as_xyz
  1  'x, y, z'
loop_
 _atom_site_type_symbol
 _atom_site_label
 _atom_site_symmetry_multiplicity
 _atom_site_fract_x
 _atom_site_fract_y
 _atom_site_fract_z
 _atom_site_occupancy
  Y  Y0  1  0.500000  0.500000  0.500000  1
  Pa  Pa1  1  0.000000  0.000000  0.000000  1
  Fe  Fe2  1  0.130217  0.382895  0.897335  1
  Fe  Fe3  1  0.869783  0.617105  0.897335  1
  Fe  Fe4  1  0.887309  0.366338  0.393398  1
  Fe  Fe5  1  0.112691  0.633662  0.393398  1
  Fe  Fe6  1  0.366338  0.112691  0.606602  1
  Fe  Fe7  1  0.633662  0.887309  0.606602  1
  Fe  Fe8  1  0.617105  0.130217  0.102665  1
  Fe  Fe9  1  0.382895  0.869783  0.102665  1
  B  B10  1  0.663950  0.797500  0.106972  1
  B  B11  1  0.336050  0.202500  0.106972  1
  B  B12  1  0.295105  0.834460  0.601555  1
  B  B13  1  0.704895  0.165540  0.601555  1
  B  B14  1  0.834460  0.704895  0.398445  1
  B  B15  1  0.165540  0.295105  0.398445  1
  B  B16  1  0.202500  0.663950  0.893028  1
  B  B17  1  0.797500  0.336050  0.893028  1
