# generated using pymatgen
data_La3In2HgPt2Rh
_symmetry_space_group_name_H-M   'P 1'
_cell_length_a   7.86590850
_cell_length_b   7.96808694
_cell_length_c   4.02692100
_cell_angle_alpha   90.00000000
_cell_angle_beta   90.00000000
_cell_angle_gamma   120.43063725
_symmetry_Int_Tables_number   1
_chemical_formula_structural   La3In2HgPt2Rh
_chemical_formula_sum   'La3 In2 Hg1 Pt2 Rh1'
_cell_volume   217.62346494
_cell_formula_units_Z   1
loop_
 _symmetry_equiv_pos_site_id
 _symmetry_equiv_pos_as_xyz
  1  'x, y, z'
loop_
 _atom_site_type_symbol
 _atom_site_label
 _atom_site_symmetry_multiplicity
 _atom_site_fract_x
 _atom_site_fract_y
 _atom_site_fract_z
 _atom_site_occupancy
  La  La0  1  0.000000  0.588902  0.500000  1
  La  La1  1  0.596309  0.004232  0.500000  1
  La  La2  1  0.403691  0.407923  0.500000  1
  In  In3  1  0.247300  0.998858  0.000000  1
  In  In4  1  0.752700  0.751558  0.000000  1
  Hg  Hg5  1  0.000000  0.249219  0.000000  1
  Pt  Pt6  1  0.656801  0.337556  0.000000  1
  Pt  Pt7  1  0.343199  0.680756  0.000000  1
  Rh  Rh8  1  0.000000  0.980997  0.500000  1
