# generated using pymatgen
data_Th6Nb4Al12Os7
_symmetry_space_group_name_H-M   'P 1'
_cell_length_a   9.20276811
_cell_length_b   9.20276824
_cell_length_c   9.20276900
_cell_angle_alpha   60.00000085
_cell_angle_beta   60.00000039
_cell_angle_gamma   60.00000279
_symmetry_Int_Tables_number   1
_chemical_formula_structural   Th6Nb4Al12Os7
_chemical_formula_sum   'Th6 Nb4 Al12 Os7'
_cell_volume   551.11280265
_cell_formula_units_Z   1
loop_
 _symmetry_equiv_pos_site_id
 _symmetry_equiv_pos_as_xyz
  1  'x, y, z'
loop_
 _atom_site_type_symbol
 _atom_site_label
 _atom_site_symmetry_multiplicity
 _atom_site_fract_x
 _atom_site_fract_y
 _atom_site_fract_z
 _atom_site_occupancy
  Th  Th0  1  0.697594  0.697594  0.302406  1
  Th  Th1  1  0.302406  0.697594  0.302406  1
  Th  Th2  1  0.697594  0.302406  0.302406  1
  Th  Th3  1  0.302406  0.302406  0.697594  1
  Th  Th4  1  0.697594  0.302406  0.697594  1
  Th  Th5  1  0.302406  0.697594  0.697594  1
  Nb  Nb6  1  0.880124  0.880124  0.359627  1
  Nb  Nb7  1  0.880124  0.359627  0.880124  1
  Nb  Nb8  1  0.359627  0.880124  0.880124  1
  Nb  Nb9  1  0.880124  0.880124  0.880124  1
  Al  Al10  1  0.120156  0.120156  0.639531  1
  Al  Al11  1  0.120156  0.639531  0.120156  1
  Al  Al12  1  0.639531  0.120156  0.120156  1
  Al  Al13  1  0.120156  0.120156  0.120156  1
  Al  Al14  1  0.669279  0.669279  0.992163  1
  Al  Al15  1  0.669279  0.992163  0.669279  1
  Al  Al16  1  0.992163  0.669279  0.669279  1
  Al  Al17  1  0.669279  0.669279  0.669279  1
  Al  Al18  1  0.328848  0.328848  0.013454  1
  Al  Al19  1  0.328848  0.013454  0.328848  1
  Al  Al20  1  0.013454  0.328848  0.328848  1
  Al  Al21  1  0.328848  0.328848  0.328848  1
  Os  Os22  1  0.000000  0.000000  0.000000  1
  Os  Os23  1  0.997139  0.997139  0.502861  1
  Os  Os24  1  0.502861  0.997139  0.502861  1
  Os  Os25  1  0.997139  0.502861  0.502861  1
  Os  Os26  1  0.502861  0.502861  0.997139  1
  Os  Os27  1  0.997139  0.502861  0.997139  1
  Os  Os28  1  0.502861  0.997139  0.997139  1
