# generated using pymatgen
data_Dy4Sc4Re3B24Ir
_symmetry_space_group_name_H-M   'P 1'
_cell_length_a   3.58591400
_cell_length_b   8.99394774
_cell_length_c   11.38692173
_cell_angle_alpha   90.04966865
_cell_angle_beta   90.00000000
_cell_angle_gamma   90.00000000
_symmetry_Int_Tables_number   1
_chemical_formula_structural   Dy4Sc4Re3B24Ir
_chemical_formula_sum   'Dy4 Sc4 Re3 B24 Ir1'
_cell_volume   367.24543120
_cell_formula_units_Z   1
loop_
 _symmetry_equiv_pos_site_id
 _symmetry_equiv_pos_as_xyz
  1  'x, y, z'
loop_
 _atom_site_type_symbol
 _atom_site_label
 _atom_site_symmetry_multiplicity
 _atom_site_fract_x
 _atom_site_fract_y
 _atom_site_fract_z
 _atom_site_occupancy
  Dy  Dy0  1  0.500000  0.317004  0.415440  1
  Dy  Dy1  1  0.500000  0.680125  0.589923  1
  Dy  Dy2  1  0.500000  0.178858  0.912386  1
  Dy  Dy3  1  0.500000  0.823969  0.082273  1
  Sc  Sc4  1  0.500000  0.441060  0.126693  1
  Sc  Sc5  1  0.500000  0.556036  0.871326  1
  Sc  Sc6  1  0.500000  0.055133  0.628239  1
  Sc  Sc7  1  0.500000  0.947137  0.372016  1
  Re  Re8  1  0.500000  0.140356  0.182430  1
  Re  Re9  1  0.500000  0.859952  0.818613  1
  Re  Re10  1  0.500000  0.360113  0.680488  1
  B  B11  1  0.000000  0.096283  0.473439  1
  B  B12  1  0.000000  0.901326  0.526210  1
  B  B13  1  0.000000  0.403298  0.974017  1
  B  B14  1  0.000000  0.597508  0.027033  1
  B  B15  1  0.000000  0.128752  0.317291  1
  B  B16  1  0.000000  0.870945  0.683312  1
  B  B17  1  0.000000  0.371744  0.816403  1
  B  B18  1  0.000000  0.628851  0.182228  1
  B  B19  1  0.000000  0.054117  0.067165  1
  B  B20  1  0.000000  0.946185  0.932296  1
  B  B21  1  0.000000  0.445841  0.567251  1
  B  B22  1  0.000000  0.555040  0.433399  1
  B  B23  1  0.000000  0.481579  0.285919  1
  B  B24  1  0.000000  0.519308  0.714139  1
  B  B25  1  0.000000  0.019015  0.785311  1
  B  B26  1  0.000000  0.981023  0.213975  1
  B  B27  1  0.000000  0.253667  0.081597  1
  B  B28  1  0.000000  0.746656  0.918514  1
  B  B29  1  0.000000  0.246024  0.581739  1
  B  B30  1  0.000000  0.753888  0.419451  1
  B  B31  1  0.000000  0.294620  0.235598  1
  B  B32  1  0.000000  0.705521  0.765488  1
  B  B33  1  0.000000  0.205756  0.734590  1
  B  B34  1  0.000000  0.793715  0.265066  1
  Ir  Ir35  1  0.500000  0.639596  0.318742  1
