# generated using pymatgen
data_LiSc4Si4Tc3
_symmetry_space_group_name_H-M   'P 1'
_cell_length_a   3.49324200
_cell_length_b   6.94729508
_cell_length_c   8.07908639
_cell_angle_alpha   89.59161516
_cell_angle_beta   90.00000000
_cell_angle_gamma   90.00000000
_symmetry_Int_Tables_number   1
_chemical_formula_structural   LiSc4Si4Tc3
_chemical_formula_sum   'Li1 Sc4 Si4 Tc3'
_cell_volume   196.06299789
_cell_formula_units_Z   1
loop_
 _symmetry_equiv_pos_site_id
 _symmetry_equiv_pos_as_xyz
  1  'x, y, z'
loop_
 _atom_site_type_symbol
 _atom_site_label
 _atom_site_symmetry_multiplicity
 _atom_site_fract_x
 _atom_site_fract_y
 _atom_site_fract_z
 _atom_site_occupancy
  Li  Li0  1  0.750000  0.872138  0.566041  1
  Sc  Sc1  1  0.750000  0.964732  0.173885  1
  Sc  Sc2  1  0.250000  0.043989  0.833577  1
  Sc  Sc3  1  0.750000  0.457494  0.328311  1
  Sc  Sc4  1  0.250000  0.536666  0.670291  1
  Si  Si5  1  0.250000  0.273627  0.130041  1
  Si  Si6  1  0.750000  0.727710  0.880685  1
  Si  Si7  1  0.250000  0.764767  0.367639  1
  Si  Si8  1  0.750000  0.235373  0.622426  1
  Tc  Tc9  1  0.250000  0.636938  0.072452  1
  Tc  Tc10  1  0.750000  0.355199  0.924385  1
  Tc  Tc11  1  0.250000  0.131367  0.430269  1
