# generated using pymatgen
data_Ho4Er2C2I7
_symmetry_space_group_name_H-M   'P 1'
_cell_length_a   10.85612148
_cell_length_b   10.85612078
_cell_length_c   12.68616500
_cell_angle_alpha   58.25568447
_cell_angle_beta   58.25568674
_cell_angle_gamma   20.71603713
_symmetry_Int_Tables_number   1
_chemical_formula_structural   Ho4Er2C2I7
_chemical_formula_sum   'Ho4 Er2 C2 I7'
_cell_volume   446.87975662
_cell_formula_units_Z   1
loop_
 _symmetry_equiv_pos_site_id
 _symmetry_equiv_pos_as_xyz
  1  'x, y, z'
loop_
 _atom_site_type_symbol
 _atom_site_label
 _atom_site_symmetry_multiplicity
 _atom_site_fract_x
 _atom_site_fract_y
 _atom_site_fract_z
 _atom_site_occupancy
  Ho  Ho0  1  0.135669  0.135669  0.446829  1
  Ho  Ho1  1  0.864086  0.864086  0.553451  1
  Ho  Ho2  1  0.692090  0.692090  0.624230  1
  Ho  Ho3  1  0.762515  0.762515  0.193426  1
  Er  Er4  1  0.237521  0.237521  0.806127  1
  Er  Er5  1  0.307671  0.307671  0.376608  1
  C  C6  1  0.280754  0.280754  0.594664  1
  C  C7  1  0.719496  0.719496  0.405530  1
  I  I8  1  0.158778  0.158778  0.178156  1
  I  I9  1  0.841131  0.841131  0.821446  1
  I  I10  1  0.057439  0.057439  0.722523  1
  I  I11  1  0.942618  0.942618  0.277559  1
  I  I12  1  0.500038  0.500038  0.499938  1
  I  I13  1  0.387561  0.387561  0.071831  1
  I  I14  1  0.612633  0.612633  0.927678  1
