# generated using pymatgen
data_TbHf12Pa7Si15Ge
_symmetry_space_group_name_H-M   'P 1'
_cell_length_a   7.26896986
_cell_length_b   7.27640373
_cell_length_c   13.37064494
_cell_angle_alpha   90.01477083
_cell_angle_beta   90.00254557
_cell_angle_gamma   89.95836831
_symmetry_Int_Tables_number   1
_chemical_formula_structural   TbHf12Pa7Si15Ge
_chemical_formula_sum   'Tb1 Hf12 Pa7 Si15 Ge1'
_cell_volume   707.19939905
_cell_formula_units_Z   1
loop_
 _symmetry_equiv_pos_site_id
 _symmetry_equiv_pos_as_xyz
  1  'x, y, z'
loop_
 _atom_site_type_symbol
 _atom_site_label
 _atom_site_symmetry_multiplicity
 _atom_site_fract_x
 _atom_site_fract_y
 _atom_site_fract_z
 _atom_site_occupancy
  Tb  Tb0  1  0.657129  0.001193  0.282999  1
  Hf  Hf1  1  0.172455  0.172194  0.999767  1
  Hf  Hf2  1  0.829068  0.825221  0.501392  1
  Hf  Hf3  1  0.323288  0.671505  0.249212  1
  Hf  Hf4  1  0.672058  0.327681  0.750153  1
  Hf  Hf5  1  0.151137  0.999006  0.375561  1
  Hf  Hf6  1  0.849049  0.999221  0.874720  1
  Hf  Hf7  1  0.499211  0.652289  0.625379  1
  Hf  Hf8  1  0.348248  0.500814  0.874989  1
  Hf  Hf9  1  0.500210  0.350586  0.123050  1
  Hf  Hf10  1  0.655144  0.501705  0.375578  1
  Hf  Hf11  1  0.000698  0.151446  0.624889  1
  Hf  Hf12  1  0.000008  0.845746  0.123490  1
  Pa  Pa13  1  0.998310  0.345552  0.214303  1
  Pa  Pa14  1  0.003983  0.658825  0.716792  1
  Pa  Pa15  1  0.155368  0.498684  0.467870  1
  Pa  Pa16  1  0.503947  0.841423  0.033540  1
  Pa  Pa17  1  0.841924  0.503683  0.965658  1
  Pa  Pa18  1  0.495517  0.157617  0.536848  1
  Pa  Pa19  1  0.342305  0.997399  0.783921  1
  Si  Si20  1  0.635870  0.705011  0.817988  1
  Si  Si21  1  0.204542  0.864021  0.568324  1
  Si  Si22  1  0.136819  0.795557  0.931504  1
  Si  Si23  1  0.796374  0.136461  0.066985  1
  Si  Si24  1  0.862609  0.204186  0.431992  1
  Si  Si25  1  0.294126  0.365268  0.682492  1
  Si  Si26  1  0.705287  0.635876  0.182188  1
  Si  Si27  1  0.293424  0.043781  0.183774  1
  Si  Si28  1  0.705814  0.953706  0.685477  1
  Si  Si29  1  0.453372  0.795091  0.434920  1
  Si  Si30  1  0.205093  0.545364  0.064241  1
  Si  Si31  1  0.545823  0.204786  0.934811  1
  Si  Si32  1  0.794468  0.453071  0.565645  1
  Si  Si33  1  0.045918  0.294868  0.814874  1
  Si  Si34  1  0.955888  0.704288  0.314997  1
  Ge  Ge35  1  0.365515  0.296876  0.319679  1
