# generated using pymatgen
data_Cs2RbAs7S12
_symmetry_space_group_name_H-M   'P 1'
_cell_length_a   9.51550100
_cell_length_b   9.51550247
_cell_length_c   8.31303700
_cell_angle_alpha   90.00000000
_cell_angle_beta   90.00000000
_cell_angle_gamma   119.99999838
_symmetry_Int_Tables_number   1
_chemical_formula_structural   Cs2RbAs7S12
_chemical_formula_sum   'Cs2 Rb1 As7 S12'
_cell_volume   651.85910745
_cell_formula_units_Z   1
loop_
 _symmetry_equiv_pos_site_id
 _symmetry_equiv_pos_as_xyz
  1  'x, y, z'
loop_
 _atom_site_type_symbol
 _atom_site_label
 _atom_site_symmetry_multiplicity
 _atom_site_fract_x
 _atom_site_fract_y
 _atom_site_fract_z
 _atom_site_occupancy
  Cs  Cs0  1  0.333333  0.666667  0.866295  1
  Cs  Cs1  1  0.666667  0.333333  0.133705  1
  Rb  Rb2  1  0.000000  0.000000  0.000000  1
  As  As3  1  0.000000  0.000000  0.500000  1
  As  As4  1  0.279219  0.832455  0.402426  1
  As  As5  1  0.167545  0.446766  0.402426  1
  As  As6  1  0.553234  0.720781  0.402426  1
  As  As7  1  0.720781  0.167545  0.597574  1
  As  As8  1  0.832455  0.553234  0.597574  1
  As  As9  1  0.446766  0.279219  0.597574  1
  S  S10  1  0.235452  0.028046  0.312872  1
  S  S11  1  0.971954  0.207407  0.312872  1
  S  S12  1  0.792593  0.764548  0.312872  1
  S  S13  1  0.764548  0.971954  0.687128  1
  S  S14  1  0.028046  0.792593  0.687128  1
  S  S15  1  0.207407  0.235452  0.687128  1
  S  S16  1  0.515599  0.907027  0.252487  1
  S  S17  1  0.092973  0.608571  0.252487  1
  S  S18  1  0.391429  0.484401  0.252487  1
  S  S19  1  0.484401  0.092973  0.747513  1
  S  S20  1  0.907027  0.391429  0.747513  1
  S  S21  1  0.608571  0.515599  0.747513  1
