# generated using pymatgen
data_HoEr19Co3Bi8Os
_symmetry_space_group_name_H-M   'P 1'
_cell_length_a   7.91209210
_cell_length_b   8.87321800
_cell_length_c   12.32717607
_cell_angle_alpha   90.00000000
_cell_angle_beta   89.76130183
_cell_angle_gamma   90.00000000
_symmetry_Int_Tables_number   1
_chemical_formula_structural   HoEr19Co3Bi8Os
_chemical_formula_sum   'Ho1 Er19 Co3 Bi8 Os1'
_cell_volume   865.43073700
_cell_formula_units_Z   1
loop_
 _symmetry_equiv_pos_site_id
 _symmetry_equiv_pos_as_xyz
  1  'x, y, z'
loop_
 _atom_site_type_symbol
 _atom_site_label
 _atom_site_symmetry_multiplicity
 _atom_site_fract_x
 _atom_site_fract_y
 _atom_site_fract_z
 _atom_site_occupancy
  Ho  Ho0  1  0.555084  0.250000  0.002638  1
  Er  Er1  1  0.346009  0.750000  0.700395  1
  Er  Er2  1  0.653327  0.250000  0.301072  1
  Er  Er3  1  0.847131  0.250000  0.799943  1
  Er  Er4  1  0.155328  0.750000  0.206119  1
  Er  Er5  1  0.881249  0.750000  0.805773  1
  Er  Er6  1  0.114165  0.250000  0.189065  1
  Er  Er7  1  0.385535  0.250000  0.687868  1
  Er  Er8  1  0.614320  0.750000  0.313052  1
  Er  Er9  1  0.674428  0.537315  0.562928  1
  Er  Er10  1  0.325000  0.461278  0.437081  1
  Er  Er11  1  0.175672  0.457332  0.935695  1
  Er  Er12  1  0.325000  0.038722  0.437081  1
  Er  Er13  1  0.825085  0.537502  0.063602  1
  Er  Er14  1  0.674428  0.962685  0.562928  1
  Er  Er15  1  0.825085  0.962498  0.063602  1
  Er  Er16  1  0.175672  0.042668  0.935695  1
  Er  Er17  1  0.053257  0.750000  0.498042  1
  Er  Er18  1  0.946598  0.250000  0.502380  1
  Er  Er19  1  0.444039  0.750000  0.996927  1
  Co  Co20  1  0.931006  0.250000  0.008864  1
  Co  Co21  1  0.565178  0.250000  0.507865  1
  Co  Co22  1  0.433691  0.750000  0.492407  1
  Bi  Bi23  1  0.571518  0.508968  0.826237  1
  Bi  Bi24  1  0.429604  0.490770  0.173455  1
  Bi  Bi25  1  0.071629  0.490250  0.672297  1
  Bi  Bi26  1  0.429604  0.009230  0.173455  1
  Bi  Bi27  1  0.928151  0.509008  0.327401  1
  Bi  Bi28  1  0.571518  0.991032  0.826237  1
  Bi  Bi29  1  0.928151  0.990992  0.327401  1
  Bi  Bi30  1  0.071629  0.009750  0.672297  1
  Os  Os31  1  0.071905  0.750000  0.990196  1
