# generated using pymatgen
data_Tm2NpFe2Si7
_symmetry_space_group_name_H-M   'P 1'
_cell_length_a   12.28025355
_cell_length_b   12.28025378
_cell_length_c   4.02535800
_cell_angle_alpha   90.00000000
_cell_angle_beta   90.00000000
_cell_angle_gamma   160.84734364
_symmetry_Int_Tables_number   1
_chemical_formula_structural   Tm2NpFe2Si7
_chemical_formula_sum   'Tm2 Np1 Fe2 Si7'
_cell_volume   199.16230417
_cell_formula_units_Z   1
loop_
 _symmetry_equiv_pos_site_id
 _symmetry_equiv_pos_as_xyz
  1  'x, y, z'
loop_
 _atom_site_type_symbol
 _atom_site_label
 _atom_site_symmetry_multiplicity
 _atom_site_fract_x
 _atom_site_fract_y
 _atom_site_fract_z
 _atom_site_occupancy
  Tm  Tm0  1  0.098531  0.901469  0.500000  1
  Tm  Tm1  1  0.467557  0.532443  0.500000  1
  Np  Np2  1  0.783018  0.216982  0.000000  1
  Fe  Fe3  1  0.656928  0.343072  0.000000  1
  Fe  Fe4  1  0.909330  0.090670  0.000000  1
  Si  Si5  1  0.369295  0.630705  0.000000  1
  Si  Si6  1  0.561488  0.438512  0.000000  1
  Si  Si7  1  0.868890  0.131110  0.500000  1
  Si  Si8  1  0.004555  0.995445  0.000000  1
  Si  Si9  1  0.196819  0.803181  0.000000  1
  Si  Si10  1  0.283074  0.716926  0.500000  1
  Si  Si11  1  0.697216  0.302784  0.500000  1
