# generated using pymatgen
data_Tb8Nd8Cd3InIr4
_symmetry_space_group_name_H-M   'P 1'
_cell_length_a   9.79755289
_cell_length_b   9.79755405
_cell_length_c   9.82437575
_cell_angle_alpha   60.01358448
_cell_angle_beta   60.01358062
_cell_angle_gamma   60.21425109
_symmetry_Int_Tables_number   1
_chemical_formula_structural   Tb8Nd8Cd3InIr4
_chemical_formula_sum   'Tb8 Nd8 Cd3 In1 Ir4'
_cell_volume   668.05612632
_cell_formula_units_Z   1
loop_
 _symmetry_equiv_pos_site_id
 _symmetry_equiv_pos_as_xyz
  1  'x, y, z'
loop_
 _atom_site_type_symbol
 _atom_site_label
 _atom_site_symmetry_multiplicity
 _atom_site_fract_x
 _atom_site_fract_y
 _atom_site_fract_z
 _atom_site_occupancy
  Tb  Tb0  1  0.347423  0.347423  0.345335  1
  Tb  Tb1  1  0.349120  0.349120  0.956632  1
  Tb  Tb2  1  0.347352  0.956697  0.349388  1
  Tb  Tb3  1  0.956697  0.347352  0.349388  1
  Tb  Tb4  1  0.809837  0.189004  0.189384  1
  Tb  Tb5  1  0.189462  0.808496  0.808438  1
  Tb  Tb6  1  0.189004  0.809837  0.189384  1
  Tb  Tb7  1  0.808496  0.189462  0.808438  1
  Nd  Nd8  1  0.187258  0.187258  0.812129  1
  Nd  Nd9  1  0.809978  0.809978  0.187620  1
  Nd  Nd10  1  0.942965  0.560326  0.559775  1
  Nd  Nd11  1  0.559109  0.940448  0.941111  1
  Nd  Nd12  1  0.560326  0.942965  0.559775  1
  Nd  Nd13  1  0.940448  0.559109  0.941111  1
  Nd  Nd14  1  0.559605  0.559605  0.942695  1
  Nd  Nd15  1  0.941585  0.941585  0.557888  1
  Cd  Cd16  1  0.578390  0.578390  0.260595  1
  Cd  Cd17  1  0.580119  0.260884  0.578426  1
  Cd  Cd18  1  0.260884  0.580119  0.578426  1
  In  In19  1  0.579513  0.579513  0.581871  1
  Ir  Ir20  1  0.140831  0.140831  0.145344  1
  Ir  Ir21  1  0.140597  0.140597  0.574906  1
  Ir  Ir22  1  0.146460  0.574538  0.140969  1
  Ir  Ir23  1  0.574538  0.146460  0.140969  1
