# generated using pymatgen
data_HoIn3BiB4Ir9
_symmetry_space_group_name_H-M   'P 1'
_cell_length_a   5.63398600
_cell_length_b   5.63398513
_cell_length_c   10.50256900
_cell_angle_alpha   90.00000000
_cell_angle_beta   90.00000000
_cell_angle_gamma   120.00000509
_symmetry_Int_Tables_number   1
_chemical_formula_structural   HoIn3BiB4Ir9
_chemical_formula_sum   'Ho1 In3 Bi1 B4 Ir9'
_cell_volume   288.70719883
_cell_formula_units_Z   1
loop_
 _symmetry_equiv_pos_site_id
 _symmetry_equiv_pos_as_xyz
  1  'x, y, z'
loop_
 _atom_site_type_symbol
 _atom_site_label
 _atom_site_symmetry_multiplicity
 _atom_site_fract_x
 _atom_site_fract_y
 _atom_site_fract_z
 _atom_site_occupancy
  Ho  Ho0  1  0.000000  0.000000  0.916444  1
  In  In1  1  0.666667  0.333333  0.506703  1
  In  In2  1  0.000000  0.000000  0.315808  1
  In  In3  1  0.333333  0.666667  0.506703  1
  Bi  Bi4  1  0.000000  0.000000  0.620894  1
  B  B5  1  0.666667  0.333333  0.155606  1
  B  B6  1  0.333333  0.666667  0.866440  1
  B  B7  1  0.666667  0.333333  0.866440  1
  B  B8  1  0.333333  0.666667  0.155606  1
  Ir  Ir9  1  0.000000  0.498455  0.282583  1
  Ir  Ir10  1  0.460610  0.000000  0.735191  1
  Ir  Ir11  1  0.498455  0.000000  0.282583  1
  Ir  Ir12  1  0.000000  0.494025  0.012011  1
  Ir  Ir13  1  0.539390  0.539390  0.735191  1
  Ir  Ir14  1  0.000000  0.460610  0.735191  1
  Ir  Ir15  1  0.505975  0.505975  0.012011  1
  Ir  Ir16  1  0.494025  0.000000  0.012011  1
  Ir  Ir17  1  0.501545  0.501545  0.282583  1
