# generated using pymatgen
data_Nd6In8HgBr
_symmetry_space_group_name_H-M   'P 1'
_cell_length_a   8.54172093
_cell_length_b   8.54174730
_cell_length_c   8.54173148
_cell_angle_alpha   119.50051534
_cell_angle_beta   119.50046191
_cell_angle_gamma   90.86768725
_symmetry_Int_Tables_number   1
_chemical_formula_structural   Nd6In8HgBr
_chemical_formula_sum   'Nd6 In8 Hg1 Br1'
_cell_volume   443.95056154
_cell_formula_units_Z   1
loop_
 _symmetry_equiv_pos_site_id
 _symmetry_equiv_pos_as_xyz
  1  'x, y, z'
loop_
 _atom_site_type_symbol
 _atom_site_label
 _atom_site_symmetry_multiplicity
 _atom_site_fract_x
 _atom_site_fract_y
 _atom_site_fract_z
 _atom_site_occupancy
  Nd  Nd0  1  0.758978  0.758978  0.000001  1
  Nd  Nd1  1  0.241022  0.241022  0.999999  1
  Nd  Nd2  1  0.663582  0.155438  0.819021  1
  Nd  Nd3  1  0.336418  0.844562  0.180979  1
  Nd  Nd4  1  0.155439  0.336417  0.491857  1
  Nd  Nd5  1  0.844561  0.663583  0.508143  1
  In  In6  1  0.336197  0.818343  0.790076  1
  In  In7  1  0.663803  0.181657  0.209924  1
  In  In8  1  0.028267  0.546122  0.209924  1
  In  In9  1  0.818344  0.028267  0.482147  1
  In  In10  1  0.453881  0.663803  0.482147  1
  In  In11  1  0.971733  0.453878  0.790076  1
  In  In12  1  0.181656  0.971733  0.517853  1
  In  In13  1  0.546119  0.336197  0.517853  1
  Hg  Hg14  1  0.500000  0.500000  0.000000  1
  Br  Br15  1  0.000000  0.000000  0.000000  1
