# generated using pymatgen
data_La3CoCl3
_symmetry_space_group_name_H-M   'P 1'
_cell_length_a   10.24933117
_cell_length_b   10.24933136
_cell_length_c   10.24933100
_cell_angle_alpha   109.47122191
_cell_angle_beta   109.47122227
_cell_angle_gamma   109.47121863
_symmetry_Int_Tables_number   1
_chemical_formula_structural   La3CoCl3
_chemical_formula_sum   'La12 Co4 Cl12'
_cell_volume   828.82851310
_cell_formula_units_Z   4
loop_
 _symmetry_equiv_pos_site_id
 _symmetry_equiv_pos_as_xyz
  1  'x, y, z'
loop_
 _atom_site_type_symbol
 _atom_site_label
 _atom_site_symmetry_multiplicity
 _atom_site_fract_x
 _atom_site_fract_y
 _atom_site_fract_z
 _atom_site_occupancy
  La  La0  1  0.469872  0.484936  0.234936  1
  La  La1  1  0.750000  0.234936  0.265064  1
  La  La2  1  0.750000  0.015064  0.484936  1
  La  La3  1  0.234936  0.469872  0.484936  1
  La  La4  1  0.265064  0.750000  0.234936  1
  La  La5  1  0.030128  0.265064  0.015064  1
  La  La6  1  0.015064  0.030128  0.265064  1
  La  La7  1  0.484936  0.750000  0.015064  1
  La  La8  1  0.484936  0.234936  0.469872  1
  La  La9  1  0.015064  0.484936  0.750000  1
  La  La10  1  0.265064  0.015064  0.030128  1
  La  La11  1  0.234936  0.265064  0.750000  1
  Co  Co12  1  0.250000  0.250000  0.250000  1
  Co  Co13  1  0.500000  0.000000  0.250000  1
  Co  Co14  1  0.000000  0.250000  0.500000  1
  Co  Co15  1  0.250000  0.500000  0.000000  1
  Cl  Cl16  1  0.250000  0.751063  0.748937  1
  Cl  Cl17  1  0.502125  0.501063  0.751063  1
  Cl  Cl18  1  0.997875  0.748937  0.998937  1
  Cl  Cl19  1  0.748937  0.250000  0.751063  1
  Cl  Cl20  1  0.998937  0.997875  0.748937  1
  Cl  Cl21  1  0.250000  0.998937  0.501063  1
  Cl  Cl22  1  0.751063  0.502125  0.501063  1
  Cl  Cl23  1  0.501063  0.250000  0.998937  1
  Cl  Cl24  1  0.751063  0.748937  0.250000  1
  Cl  Cl25  1  0.748937  0.998937  0.997875  1
  Cl  Cl26  1  0.998937  0.501063  0.250000  1
  Cl  Cl27  1  0.501063  0.751063  0.502125  1
