# generated using pymatgen
data_Li4Dy3HoPt4
_symmetry_space_group_name_H-M   'P 1'
_cell_length_a   3.98121600
_cell_length_b   7.06886013
_cell_length_c   8.43275800
_cell_angle_alpha   90.11456959
_cell_angle_beta   90.00000000
_cell_angle_gamma   90.00000000
_symmetry_Int_Tables_number   1
_chemical_formula_structural   Li4Dy3HoPt4
_chemical_formula_sum   'Li4 Dy3 Ho1 Pt4'
_cell_volume   237.31975887
_cell_formula_units_Z   1
loop_
 _symmetry_equiv_pos_site_id
 _symmetry_equiv_pos_as_xyz
  1  'x, y, z'
loop_
 _atom_site_type_symbol
 _atom_site_label
 _atom_site_symmetry_multiplicity
 _atom_site_fract_x
 _atom_site_fract_y
 _atom_site_fract_z
 _atom_site_occupancy
  Li  Li0  1  0.250000  0.626365  0.559795  1
  Li  Li1  1  0.250000  0.127146  0.940208  1
  Li  Li2  1  0.750000  0.373673  0.440834  1
  Li  Li3  1  0.750000  0.872320  0.059019  1
  Dy  Dy4  1  0.250000  0.045953  0.319116  1
  Dy  Dy5  1  0.250000  0.545254  0.180585  1
  Dy  Dy6  1  0.750000  0.955020  0.681969  1
  Ho  Ho7  1  0.750000  0.454452  0.818960  1
  Pt  Pt8  1  0.250000  0.248662  0.624668  1
  Pt  Pt9  1  0.250000  0.745718  0.875954  1
  Pt  Pt10  1  0.750000  0.753051  0.376709  1
  Pt  Pt11  1  0.750000  0.252384  0.122182  1
