# generated using pymatgen
data_Ca7Pr(DyPt2)2
_symmetry_space_group_name_H-M   'P 1'
_cell_length_a   6.78521453
_cell_length_b   7.65122768
_cell_length_c   8.86777400
_cell_angle_alpha   97.35109697
_cell_angle_beta   111.74222968
_cell_angle_gamma   89.67069566
_symmetry_Int_Tables_number   1
_chemical_formula_structural   Ca7Pr(DyPt2)2
_chemical_formula_sum   'Ca7 Pr1 Dy2 Pt4'
_cell_volume   423.67306940
_cell_formula_units_Z   1
loop_
 _symmetry_equiv_pos_site_id
 _symmetry_equiv_pos_as_xyz
  1  'x, y, z'
loop_
 _atom_site_type_symbol
 _atom_site_label
 _atom_site_symmetry_multiplicity
 _atom_site_fract_x
 _atom_site_fract_y
 _atom_site_fract_z
 _atom_site_occupancy
  Ca  Ca0  1  0.982408  0.422711  0.181067  1
  Ca  Ca1  1  0.200795  0.918646  0.182293  1
  Ca  Ca2  1  0.016884  0.581070  0.823323  1
  Ca  Ca3  1  0.207042  0.180944  0.569180  1
  Ca  Ca4  1  0.639895  0.315755  0.434324  1
  Ca  Ca5  1  0.794851  0.821583  0.431773  1
  Ca  Ca6  1  0.366178  0.683690  0.567399  1
  Pr  Pr7  1  0.805405  0.081053  0.827521  1
  Dy  Dy8  1  0.428916  0.251511  0.998952  1
  Dy  Dy9  1  0.562818  0.749110  0.998744  1
  Pt  Pt10  1  0.597645  0.420823  0.795417  1
  Pt  Pt11  1  0.795980  0.072525  0.185276  1
  Pt  Pt12  1  0.406811  0.574881  0.206528  1
  Pt  Pt13  1  0.194372  0.925700  0.798203  1
