# generated using pymatgen
data_Zr12MnAlCu2(Ir2N)4
_symmetry_space_group_name_H-M   'P 1'
_cell_length_a   8.55138480
_cell_length_b   8.55138559
_cell_length_c   8.55138500
_cell_angle_alpha   60.26651882
_cell_angle_beta   60.26651578
_cell_angle_gamma   60.26651674
_symmetry_Int_Tables_number   1
_chemical_formula_structural   Zr12MnAlCu2(Ir2N)4
_chemical_formula_sum   'Zr12 Mn1 Al1 Cu2 Ir8 N4'
_cell_volume   444.84258651
_cell_formula_units_Z   1
loop_
 _symmetry_equiv_pos_site_id
 _symmetry_equiv_pos_as_xyz
  1  'x, y, z'
loop_
 _atom_site_type_symbol
 _atom_site_label
 _atom_site_symmetry_multiplicity
 _atom_site_fract_x
 _atom_site_fract_y
 _atom_site_fract_z
 _atom_site_occupancy
  Zr  Zr0  1  0.808410  0.807361  0.190970  1
  Zr  Zr1  1  0.195407  0.192491  0.805865  1
  Zr  Zr2  1  0.808410  0.190970  0.807361  1
  Zr  Zr3  1  0.195407  0.805865  0.192491  1
  Zr  Zr4  1  0.192509  0.807751  0.807751  1
  Zr  Zr5  1  0.806832  0.193780  0.193780  1
  Zr  Zr6  1  0.441590  0.442639  0.059030  1
  Zr  Zr7  1  0.054593  0.057509  0.444135  1
  Zr  Zr8  1  0.441590  0.059030  0.442639  1
  Zr  Zr9  1  0.054593  0.444135  0.057509  1
  Zr  Zr10  1  0.057491  0.442249  0.442249  1
  Zr  Zr11  1  0.443168  0.056220  0.056220  1
  Mn  Mn12  1  0.125000  0.625000  0.625000  1
  Al  Al13  1  0.625000  0.625000  0.625000  1
  Cu  Cu14  1  0.625000  0.125000  0.625000  1
  Cu  Cu15  1  0.625000  0.625000  0.125000  1
  Ir  Ir16  1  0.749537  0.417652  0.417652  1
  Ir  Ir17  1  0.414819  0.751453  0.417769  1
  Ir  Ir18  1  0.414819  0.417769  0.751453  1
  Ir  Ir19  1  0.414083  0.417499  0.417499  1
  Ir  Ir20  1  0.500463  0.832348  0.832348  1
  Ir  Ir21  1  0.835181  0.498547  0.832231  1
  Ir  Ir22  1  0.835181  0.832231  0.498547  1
  Ir  Ir23  1  0.835917  0.832501  0.832501  1
  N  N24  1  0.625000  0.125000  0.125000  1
  N  N25  1  0.125000  0.625000  0.125000  1
  N  N26  1  0.125000  0.125000  0.625000  1
  N  N27  1  0.125000  0.125000  0.125000  1
