# generated using pymatgen
data_Nd3Dy7(SnSb)4
_symmetry_space_group_name_H-M   'P 1'
_cell_length_a   9.18666069
_cell_length_b   8.45746453
_cell_length_c   8.27959500
_cell_angle_alpha   89.68954653
_cell_angle_beta   90.03478912
_cell_angle_gamma   124.48850288
_symmetry_Int_Tables_number   1
_chemical_formula_structural   Nd3Dy7(SnSb)4
_chemical_formula_sum   'Nd3 Dy7 Sn4 Sb4'
_cell_volume   530.21528134
_cell_formula_units_Z   1
loop_
 _symmetry_equiv_pos_site_id
 _symmetry_equiv_pos_as_xyz
  1  'x, y, z'
loop_
 _atom_site_type_symbol
 _atom_site_label
 _atom_site_symmetry_multiplicity
 _atom_site_fract_x
 _atom_site_fract_y
 _atom_site_fract_z
 _atom_site_occupancy
  Nd  Nd0  1  0.053798  0.351838  0.322627  1
  Nd  Nd1  1  0.947516  0.654420  0.677001  1
  Nd  Nd2  1  0.445576  0.151395  0.824750  1
  Dy  Dy3  1  0.772282  0.515193  0.160238  1
  Dy  Dy4  1  0.552457  0.836264  0.170646  1
  Dy  Dy5  1  0.226630  0.484449  0.838620  1
  Dy  Dy6  1  0.728686  0.988749  0.659243  1
  Dy  Dy7  1  0.272958  0.014651  0.340686  1
  Dy  Dy8  1  0.000194  0.999186  0.999980  1
  Dy  Dy9  1  0.500516  0.501852  0.499414  1
  Sn  Sn10  1  0.365613  0.368324  0.134733  1
  Sn  Sn11  1  0.634027  0.633364  0.865476  1
  Sn  Sn12  1  0.134134  0.132587  0.634252  1
  Sn  Sn13  1  0.863299  0.870526  0.361557  1
  Sb  Sb14  1  0.816204  0.225385  0.971262  1
  Sb  Sb15  1  0.181417  0.764163  0.038381  1
  Sb  Sb16  1  0.679792  0.272012  0.469371  1
  Sb  Sb17  1  0.324899  0.735643  0.531763  1
