# generated using pymatgen
data_Zn4Bi(PN2)6
_symmetry_space_group_name_H-M   'P 1'
_cell_length_a   7.29296329
_cell_length_b   7.29296343
_cell_length_c   7.29296300
_cell_angle_alpha   109.47121388
_cell_angle_beta   109.47121427
_cell_angle_gamma   109.47122660
_symmetry_Int_Tables_number   1
_chemical_formula_structural   Zn4Bi(PN2)6
_chemical_formula_sum   'Zn4 Bi1 P6 N12'
_cell_volume   298.60028737
_cell_formula_units_Z   1
loop_
 _symmetry_equiv_pos_site_id
 _symmetry_equiv_pos_as_xyz
  1  'x, y, z'
loop_
 _atom_site_type_symbol
 _atom_site_label
 _atom_site_symmetry_multiplicity
 _atom_site_fract_x
 _atom_site_fract_y
 _atom_site_fract_z
 _atom_site_occupancy
  Zn  Zn0  1  0.000000  0.370216  0.000000  1
  Zn  Zn1  1  0.629784  0.629784  0.629784  1
  Zn  Zn2  1  0.370216  0.000000  0.000000  1
  Zn  Zn3  1  0.000000  0.000000  0.370216  1
  Bi  Bi4  1  0.000000  0.000000  0.000000  1
  P  P5  1  0.750000  0.250000  0.500000  1
  P  P6  1  0.250000  0.750000  0.500000  1
  P  P7  1  0.500000  0.750000  0.250000  1
  P  P8  1  0.500000  0.250000  0.750000  1
  P  P9  1  0.750000  0.500000  0.250000  1
  P  P10  1  0.250000  0.500000  0.750000  1
  N  N11  1  0.563730  0.277430  0.000000  1
  N  N12  1  0.436270  0.436270  0.713701  1
  N  N13  1  0.000000  0.277430  0.563730  1
  N  N14  1  0.277430  0.000000  0.563730  1
  N  N15  1  0.713701  0.436270  0.436270  1
  N  N16  1  0.000000  0.563730  0.277430  1
  N  N17  1  0.563730  0.000000  0.277430  1
  N  N18  1  0.436270  0.713701  0.436270  1
  N  N19  1  0.277430  0.563730  0.000000  1
  N  N20  1  0.722570  0.286299  0.722570  1
  N  N21  1  0.722570  0.722570  0.286299  1
  N  N22  1  0.286299  0.722570  0.722570  1
