# generated using pymatgen
data_PrNd2(ZnPt)4
_symmetry_space_group_name_H-M   'P 1'
_cell_length_a   8.38174144
_cell_length_b   8.38174338
_cell_length_c   8.38174136
_cell_angle_alpha   151.44097037
_cell_angle_beta   126.78305608
_cell_angle_gamma   61.50306265
_symmetry_Int_Tables_number   1
_chemical_formula_structural   PrNd2(ZnPt)4
_chemical_formula_sum   'Pr1 Nd2 Zn4 Pt4'
_cell_volume   223.62109331
_cell_formula_units_Z   1
loop_
 _symmetry_equiv_pos_site_id
 _symmetry_equiv_pos_as_xyz
  1  'x, y, z'
loop_
 _atom_site_type_symbol
 _atom_site_label
 _atom_site_symmetry_multiplicity
 _atom_site_fract_x
 _atom_site_fract_y
 _atom_site_fract_z
 _atom_site_occupancy
  Pr  Pr0  1  0.500000  0.000000  0.500000  1
  Nd  Nd1  1  0.873233  0.873233  0.000000  1
  Nd  Nd2  1  0.126767  0.126767  0.000000  1
  Zn  Zn3  1  0.478407  0.673449  0.804958  1
  Zn  Zn4  1  0.868491  0.673449  0.195042  1
  Zn  Zn5  1  0.131509  0.326551  0.804958  1
  Zn  Zn6  1  0.521593  0.326551  0.195042  1
  Pt  Pt7  1  0.280686  0.780686  0.500000  1
  Pt  Pt8  1  0.719314  0.219314  0.500000  1
  Pt  Pt9  1  0.803752  0.500000  0.303752  1
  Pt  Pt10  1  0.196248  0.500000  0.696248  1
