# generated using pymatgen
data_Pr8Ho12Si15Se
_symmetry_space_group_name_H-M   'P 1'
_cell_length_a   7.59170618
_cell_length_b   7.75301661
_cell_length_c   14.77628900
_cell_angle_alpha   89.84035087
_cell_angle_beta   86.99409154
_cell_angle_gamma   90.24583164
_symmetry_Int_Tables_number   1
_chemical_formula_structural   Pr8Ho12Si15Se
_chemical_formula_sum   'Pr8 Ho12 Si15 Se1'
_cell_volume   868.50348893
_cell_formula_units_Z   1
loop_
 _symmetry_equiv_pos_site_id
 _symmetry_equiv_pos_as_xyz
  1  'x, y, z'
loop_
 _atom_site_type_symbol
 _atom_site_label
 _atom_site_symmetry_multiplicity
 _atom_site_fract_x
 _atom_site_fract_y
 _atom_site_fract_z
 _atom_site_occupancy
  Pr  Pr0  1  0.999654  0.824519  0.100411  1
  Pr  Pr1  1  0.475726  0.680551  0.399275  1
  Pr  Pr2  1  0.496782  0.315904  0.900366  1
  Pr  Pr3  1  0.023536  0.179507  0.600637  1
  Pr  Pr4  1  0.003681  0.178372  0.901497  1
  Pr  Pr5  1  0.523256  0.318593  0.599914  1
  Pr  Pr6  1  0.494862  0.685335  0.100732  1
  Pr  Pr7  1  0.975881  0.818056  0.399688  1
  Ho  Ho8  1  0.666961  0.994926  0.246345  1
  Ho  Ho9  1  0.165219  0.505222  0.245184  1
  Ho  Ho10  1  0.835132  0.493628  0.748398  1
  Ho  Ho11  1  0.331949  0.005840  0.752790  1
  Ho  Ho12  1  0.647504  0.837201  0.878031  1
  Ho  Ho13  1  0.175583  0.676936  0.623426  1
  Ho  Ho14  1  0.850313  0.332960  0.119889  1
  Ho  Ho15  1  0.324049  0.176897  0.377257  1
  Ho  Ho16  1  0.350297  0.167566  0.121360  1
  Ho  Ho17  1  0.825268  0.322180  0.377225  1
  Ho  Ho18  1  0.155429  0.666822  0.881401  1
  Ho  Ho19  1  0.676161  0.822384  0.623446  1
  Si  Si20  1  0.782909  0.621413  0.251014  1
  Si  Si21  1  0.282571  0.877652  0.251717  1
  Si  Si22  1  0.715923  0.123922  0.749113  1
  Si  Si23  1  0.215698  0.377467  0.749576  1
  Si  Si24  1  0.041175  0.115812  0.251344  1
  Si  Si25  1  0.542839  0.385310  0.251114  1
  Si  Si26  1  0.458928  0.613512  0.750413  1
  Si  Si27  1  0.958414  0.882703  0.750647  1
  Si  Si28  1  0.357957  0.968457  0.541440  1
  Si  Si29  1  0.693095  0.039344  0.042245  1
  Si  Si30  1  0.143709  0.468511  0.459379  1
  Si  Si31  1  0.200406  0.462152  0.044706  1
  Si  Si32  1  0.643287  0.029626  0.458663  1
  Si  Si33  1  0.309195  0.962623  0.955997  1
  Si  Si34  1  0.857746  0.529347  0.541659  1
  Se  Se35  1  0.798905  0.538747  0.953696  1
