# generated using pymatgen
data_HoLuMnB6
_symmetry_space_group_name_H-M   'P 1'
_cell_length_a   3.51244300
_cell_length_b   9.03331700
_cell_length_c   11.41647100
_cell_angle_alpha   90.00000000
_cell_angle_beta   90.00000000
_cell_angle_gamma   90.00000000
_symmetry_Int_Tables_number   1
_chemical_formula_structural   HoLuMnB6
_chemical_formula_sum   'Ho4 Lu4 Mn4 B24'
_cell_volume   362.23333466
_cell_formula_units_Z   4
loop_
 _symmetry_equiv_pos_site_id
 _symmetry_equiv_pos_as_xyz
  1  'x, y, z'
loop_
 _atom_site_type_symbol
 _atom_site_label
 _atom_site_symmetry_multiplicity
 _atom_site_fract_x
 _atom_site_fract_y
 _atom_site_fract_z
 _atom_site_occupancy
  Ho  Ho0  1  0.000000  0.823646  0.085269  1
  Ho  Ho1  1  0.000000  0.176354  0.914731  1
  Ho  Ho2  1  0.000000  0.323646  0.414731  1
  Ho  Ho3  1  0.000000  0.676354  0.585269  1
  Lu  Lu4  1  0.000000  0.442730  0.131155  1
  Lu  Lu5  1  0.000000  0.557270  0.868845  1
  Lu  Lu6  1  0.000000  0.942730  0.368845  1
  Lu  Lu7  1  0.000000  0.057270  0.631155  1
  Mn  Mn8  1  0.000000  0.139542  0.180465  1
  Mn  Mn9  1  0.000000  0.860458  0.819535  1
  Mn  Mn10  1  0.000000  0.639542  0.319535  1
  Mn  Mn11  1  0.000000  0.360458  0.680465  1
  B  B12  1  0.500000  0.054376  0.068201  1
  B  B13  1  0.500000  0.945624  0.931799  1
  B  B14  1  0.500000  0.554376  0.431799  1
  B  B15  1  0.500000  0.445624  0.568201  1
  B  B16  1  0.500000  0.248480  0.082395  1
  B  B17  1  0.500000  0.751520  0.917605  1
  B  B18  1  0.500000  0.748480  0.417605  1
  B  B19  1  0.500000  0.251520  0.582395  1
  B  B20  1  0.500000  0.291275  0.234638  1
  B  B21  1  0.500000  0.708725  0.765362  1
  B  B22  1  0.500000  0.791275  0.265362  1
  B  B23  1  0.500000  0.208725  0.734638  1
  B  B24  1  0.500000  0.130950  0.314278  1
  B  B25  1  0.500000  0.869050  0.685722  1
  B  B26  1  0.500000  0.630950  0.185722  1
  B  B27  1  0.500000  0.369050  0.814278  1
  B  B28  1  0.500000  0.484301  0.288089  1
  B  B29  1  0.500000  0.515699  0.711911  1
  B  B30  1  0.500000  0.984301  0.211911  1
  B  B31  1  0.500000  0.015699  0.788089  1
  B  B32  1  0.500000  0.100589  0.472282  1
  B  B33  1  0.500000  0.899411  0.527718  1
  B  B34  1  0.500000  0.600589  0.027718  1
  B  B35  1  0.500000  0.399411  0.972282  1
