# generated using pymatgen
data_Yb2Y2Pt3RhO14
_symmetry_space_group_name_H-M   'P 1'
_cell_length_a   7.27003171
_cell_length_b   7.25375302
_cell_length_c   7.27003065
_cell_angle_alpha   59.98282745
_cell_angle_beta   59.95513335
_cell_angle_gamma   59.98284012
_symmetry_Int_Tables_number   1
_chemical_formula_structural   Yb2Y2Pt3RhO14
_chemical_formula_sum   'Yb2 Y2 Pt3 Rh1 O14'
_cell_volume   270.93192303
_cell_formula_units_Z   1
loop_
 _symmetry_equiv_pos_site_id
 _symmetry_equiv_pos_as_xyz
  1  'x, y, z'
loop_
 _atom_site_type_symbol
 _atom_site_label
 _atom_site_symmetry_multiplicity
 _atom_site_fract_x
 _atom_site_fract_y
 _atom_site_fract_z
 _atom_site_occupancy
  Yb  Yb0  1  0.125000  0.125000  0.625000  1
  Yb  Yb1  1  0.625000  0.125000  0.125000  1
  Y  Y2  1  0.125000  0.625000  0.125000  1
  Y  Y3  1  0.125000  0.125000  0.125000  1
  Pt  Pt4  1  0.125000  0.625000  0.625000  1
  Pt  Pt5  1  0.625000  0.625000  0.125000  1
  Pt  Pt6  1  0.625000  0.125000  0.625000  1
  Rh  Rh7  1  0.625000  0.625000  0.625000  1
  O  O8  1  0.292832  0.703120  0.711204  1
  O  O9  1  0.535535  0.960610  0.961357  1
  O  O10  1  0.711204  0.703120  0.292832  1
  O  O11  1  0.288643  0.289390  0.714465  1
  O  O12  1  0.004188  0.995414  0.004188  1
  O  O13  1  0.287469  0.712435  0.287469  1
  O  O14  1  0.705141  0.295691  0.705141  1
  O  O15  1  0.962531  0.537565  0.962531  1
  O  O16  1  0.538796  0.546880  0.957168  1
  O  O17  1  0.961357  0.960610  0.535535  1
  O  O18  1  0.245812  0.254586  0.245812  1
  O  O19  1  0.544859  0.954309  0.544859  1
  O  O20  1  0.714465  0.289390  0.288643  1
  O  O21  1  0.957168  0.546880  0.538796  1
