# generated using pymatgen
data_Lu2TaB6Mo
_symmetry_space_group_name_H-M   'P 1'
_cell_length_a   5.43061732
_cell_length_b   3.13918500
_cell_length_c   6.86171291
_cell_angle_alpha   90.00000000
_cell_angle_beta   100.64456843
_cell_angle_gamma   90.00000000
_symmetry_Int_Tables_number   1
_chemical_formula_structural   Lu2TaB6Mo
_chemical_formula_sum   'Lu2 Ta1 B6 Mo1'
_cell_volume   114.96357239
_cell_formula_units_Z   1
loop_
 _symmetry_equiv_pos_site_id
 _symmetry_equiv_pos_as_xyz
  1  'x, y, z'
loop_
 _atom_site_type_symbol
 _atom_site_label
 _atom_site_symmetry_multiplicity
 _atom_site_fract_x
 _atom_site_fract_y
 _atom_site_fract_z
 _atom_site_occupancy
  Lu  Lu0  1  0.314665  0.750001  0.285708  1
  Lu  Lu1  1  0.679840  0.250000  0.710152  1
  Ta  Ta2  1  0.805187  0.250000  0.224598  1
  B  B3  1  0.085920  0.250000  0.004754  1
  B  B4  1  0.414496  0.250000  0.005233  1
  B  B5  1  0.927965  0.750001  0.482672  1
  B  B6  1  0.085849  0.250000  0.527020  1
  B  B7  1  0.580690  0.750001  0.990487  1
  B  B8  1  0.912497  0.750001  0.990949  1
  Mo  Mo9  1  0.192888  0.750001  0.778427  1
