# generated using pymatgen
data_Yb3Dy3(Si3Ru)8
_symmetry_space_group_name_H-M   'P 1'
_cell_length_a   10.14598395
_cell_length_b   10.14598431
_cell_length_c   8.13110603
_cell_angle_alpha   89.99045852
_cell_angle_beta   89.99045139
_cell_angle_gamma   132.73162112
_symmetry_Int_Tables_number   1
_chemical_formula_structural   Yb3Dy3(Si3Ru)8
_chemical_formula_sum   'Yb3 Dy3 Si24 Ru8'
_cell_volume   614.82783331
_cell_formula_units_Z   1
loop_
 _symmetry_equiv_pos_site_id
 _symmetry_equiv_pos_as_xyz
  1  'x, y, z'
loop_
 _atom_site_type_symbol
 _atom_site_label
 _atom_site_symmetry_multiplicity
 _atom_site_fract_x
 _atom_site_fract_y
 _atom_site_fract_z
 _atom_site_occupancy
  Yb  Yb0  1  0.498666  0.998798  0.250218  1
  Yb  Yb1  1  0.001202  0.501334  0.749782  1
  Yb  Yb2  1  0.500004  0.499996  0.500000  1
  Dy  Dy3  1  0.501593  0.001510  0.749823  1
  Dy  Dy4  1  0.998490  0.498407  0.250177  1
  Dy  Dy5  1  0.000012  0.999988  0.000000  1
  Si  Si6  1  0.389267  0.155125  0.004574  1
  Si  Si7  1  0.653404  0.886806  0.494201  1
  Si  Si8  1  0.113194  0.346596  0.505799  1
  Si  Si9  1  0.844875  0.610733  0.995426  1
  Si  Si10  1  0.610974  0.844683  0.994065  1
  Si  Si11  1  0.346311  0.113548  0.506764  1
  Si  Si12  1  0.886452  0.653689  0.493236  1
  Si  Si13  1  0.155317  0.389026  0.005935  1
  Si  Si14  1  0.609829  0.376650  0.229890  1
  Si  Si15  1  0.876141  0.109994  0.271626  1
  Si  Si16  1  0.890006  0.123859  0.728374  1
  Si  Si17  1  0.623350  0.390171  0.770110  1
  Si  Si18  1  0.390492  0.623456  0.770411  1
  Si  Si19  1  0.124280  0.890403  0.728153  1
  Si  Si20  1  0.705565  0.294435  0.000000  1
  Si  Si21  1  0.794601  0.205399  0.500000  1
  Si  Si22  1  0.294856  0.705144  0.000000  1
  Si  Si23  1  0.204956  0.795044  0.500000  1
  Si  Si24  1  0.164859  0.171310  0.334491  1
  Si  Si25  1  0.668648  0.662104  0.168314  1
  Si  Si26  1  0.337896  0.331352  0.831686  1
  Si  Si27  1  0.828690  0.835141  0.665509  1
  Si  Si28  1  0.376544  0.609508  0.229589  1
  Si  Si29  1  0.109597  0.875720  0.271847  1
  Ru  Ru30  1  0.626683  0.627987  0.874847  1
  Ru  Ru31  1  0.125780  0.124594  0.627007  1
  Ru  Ru32  1  0.875406  0.874220  0.372993  1
  Ru  Ru33  1  0.372013  0.373317  0.125153  1
  Ru  Ru34  1  0.329120  0.670880  0.500000  1
  Ru  Ru35  1  0.170153  0.829847  0.000000  1
  Ru  Ru36  1  0.670158  0.329842  0.500000  1
  Ru  Ru37  1  0.830612  0.169388  0.000000  1
