# generated using pymatgen
data_Sm9Lu(Sn3Cl)2
_symmetry_space_group_name_H-M   'P 1'
_cell_length_a   9.29487300
_cell_length_b   9.29487349
_cell_length_c   6.63814800
_cell_angle_alpha   90.00000000
_cell_angle_beta   90.00000000
_cell_angle_gamma   119.99999469
_symmetry_Int_Tables_number   1
_chemical_formula_structural   Sm9Lu(Sn3Cl)2
_chemical_formula_sum   'Sm9 Lu1 Sn6 Cl2'
_cell_volume   496.66611265
_cell_formula_units_Z   1
loop_
 _symmetry_equiv_pos_site_id
 _symmetry_equiv_pos_as_xyz
  1  'x, y, z'
loop_
 _atom_site_type_symbol
 _atom_site_label
 _atom_site_symmetry_multiplicity
 _atom_site_fract_x
 _atom_site_fract_y
 _atom_site_fract_z
 _atom_site_occupancy
  Sm  Sm0  1  0.333333  0.666667  0.500000  1
  Sm  Sm1  1  0.666667  0.333333  0.500000  1
  Sm  Sm2  1  0.333333  0.666667  0.000000  1
  Sm  Sm3  1  0.738828  0.000064  0.750855  1
  Sm  Sm4  1  0.738828  0.738764  0.249145  1
  Sm  Sm5  1  0.999936  0.261172  0.249145  1
  Sm  Sm6  1  0.999936  0.738764  0.750855  1
  Sm  Sm7  1  0.261236  0.261172  0.750855  1
  Sm  Sm8  1  0.261236  0.000064  0.249145  1
  Lu  Lu9  1  0.666667  0.333333  0.000000  1
  Sn  Sn10  1  0.611782  0.608479  0.753197  1
  Sn  Sn11  1  0.996697  0.608479  0.246803  1
  Sn  Sn12  1  0.611782  0.003303  0.246803  1
  Sn  Sn13  1  0.391521  0.003303  0.753197  1
  Sn  Sn14  1  0.996697  0.388218  0.753197  1
  Sn  Sn15  1  0.391521  0.388218  0.246803  1
  Cl  Cl16  1  0.000000  0.000000  0.500000  1
  Cl  Cl17  1  0.000000  0.000000  0.000000  1
