# generated using pymatgen
data_Be4VPt5
_symmetry_space_group_name_H-M   'P 1'
_cell_length_a   2.82781400
_cell_length_b   2.82781400
_cell_length_c   15.32976500
_cell_angle_alpha   90.00000000
_cell_angle_beta   90.00000000
_cell_angle_gamma   90.00000000
_symmetry_Int_Tables_number   1
_chemical_formula_structural   Be4VPt5
_chemical_formula_sum   'Be4 V1 Pt5'
_cell_volume   122.58495666
_cell_formula_units_Z   1
loop_
 _symmetry_equiv_pos_site_id
 _symmetry_equiv_pos_as_xyz
  1  'x, y, z'
loop_
 _atom_site_type_symbol
 _atom_site_label
 _atom_site_symmetry_multiplicity
 _atom_site_fract_x
 _atom_site_fract_y
 _atom_site_fract_z
 _atom_site_occupancy
  Be  Be0  1  0.000000  0.000000  0.216163  1
  Be  Be1  1  0.000000  0.000000  0.405882  1
  Be  Be2  1  0.000000  0.000000  0.594118  1
  Be  Be3  1  0.000000  0.000000  0.783837  1
  V  V4  1  0.000000  0.000000  0.000000  1
  Pt  Pt5  1  0.500000  0.500000  0.123945  1
  Pt  Pt6  1  0.500000  0.500000  0.313457  1
  Pt  Pt7  1  0.500000  0.500000  0.500000  1
  Pt  Pt8  1  0.500000  0.500000  0.686543  1
  Pt  Pt9  1  0.500000  0.500000  0.876055  1
