# generated using pymatgen
data_Sr12Ta3SbO22
_symmetry_space_group_name_H-M   'P 1'
_cell_length_a   6.04187802
_cell_length_b   6.02425263
_cell_length_c   23.95827248
_cell_angle_alpha   58.52026112
_cell_angle_beta   59.04667971
_cell_angle_gamma   59.99685799
_symmetry_Int_Tables_number   1
_chemical_formula_structural   Sr12Ta3SbO22
_chemical_formula_sum   'Sr12 Ta3 Sb1 O22'
_cell_volume   604.99523867
_cell_formula_units_Z   1
loop_
 _symmetry_equiv_pos_site_id
 _symmetry_equiv_pos_as_xyz
  1  'x, y, z'
loop_
 _atom_site_type_symbol
 _atom_site_label
 _atom_site_symmetry_multiplicity
 _atom_site_fract_x
 _atom_site_fract_y
 _atom_site_fract_z
 _atom_site_occupancy
  Sr  Sr0  1  0.114651  0.333731  0.077220  1
  Sr  Sr1  1  0.440244  0.613755  0.108883  1
  Sr  Sr2  1  0.181420  0.356453  0.291165  1
  Sr  Sr3  1  0.367433  0.544512  0.387435  1
  Sr  Sr4  1  0.631143  0.801432  0.204363  1
  Sr  Sr5  1  0.225094  0.246317  0.577278  1
  Sr  Sr6  1  0.505188  0.512824  0.609385  1
  Sr  Sr7  1  0.224107  0.291506  0.792753  1
  Sr  Sr8  1  0.647563  0.861023  0.420010  1
  Sr  Sr9  1  0.456679  0.476388  0.888132  1
  Sr  Sr10  1  0.683878  0.745803  0.705468  1
  Sr  Sr11  1  0.722971  0.758279  0.919116  1
  Ta  Ta12  1  0.000199  0.046341  0.998467  1
  Ta  Ta13  1  0.906388  0.080276  0.248602  1
  Ta  Ta14  1  0.936829  0.968574  0.498245  1
  Sb  Sb15  1  0.964429  0.013371  0.748390  1
  O  O16  1  0.087315  0.379411  0.183734  1
  O  O17  1  0.209298  0.847272  0.191386  1
  O  O18  1  0.811321  0.373965  0.026951  1
  O  O19  1  0.784300  0.830817  0.079090  1
  O  O20  1  0.687634  0.230795  0.187857  1
  O  O21  1  0.608425  0.330433  0.300886  1
  O  O22  1  0.147028  0.190429  0.417726  1
  O  O23  1  0.113084  0.928946  0.312439  1
  O  O24  1  0.734090  0.774236  0.314223  1
  O  O25  1  0.609680  0.163243  0.468805  1
  O  O26  1  0.728008  0.067074  0.578663  1
  O  O27  1  0.144802  0.792455  0.685337  1
  O  O28  1  0.264135  0.712727  0.527788  1
  O  O29  1  0.328877  0.045260  0.998702  1
  O  O30  1  0.936079  0.639030  0.498635  1
  O  O31  1  0.759029  0.329171  0.683490  1
  O  O32  1  0.261015  0.186781  0.693938  1
  O  O33  1  0.782934  0.225602  0.811939  1
  O  O34  1  0.254682  0.721035  0.968768  1
  O  O35  1  0.184943  0.702618  0.811352  1
  O  O36  1  0.656218  0.849356  0.805149  1
  O  O37  1  0.894395  0.260254  0.918453  1
