# generated using pymatgen
data_DyLu11(CoTc)2
_symmetry_space_group_name_H-M   'P 1'
_cell_length_a   6.14878827
_cell_length_b   7.08921987
_cell_length_c   8.95146400
_cell_angle_alpha   90.00000000
_cell_angle_beta   90.00000000
_cell_angle_gamma   90.00837292
_symmetry_Int_Tables_number   1
_chemical_formula_structural   DyLu11(CoTc)2
_chemical_formula_sum   'Dy1 Lu11 Co2 Tc2'
_cell_volume   390.19531399
_cell_formula_units_Z   1
loop_
 _symmetry_equiv_pos_site_id
 _symmetry_equiv_pos_as_xyz
  1  'x, y, z'
loop_
 _atom_site_type_symbol
 _atom_site_label
 _atom_site_symmetry_multiplicity
 _atom_site_fract_x
 _atom_site_fract_y
 _atom_site_fract_z
 _atom_site_occupancy
  Dy  Dy0  1  0.626325  0.047113  0.250000  1
  Lu  Lu1  1  0.127673  0.452892  0.750000  1
  Lu  Lu2  1  0.676746  0.320124  0.934367  1
  Lu  Lu3  1  0.358149  0.960832  0.750000  1
  Lu  Lu4  1  0.859034  0.539069  0.250000  1
  Lu  Lu5  1  0.175063  0.181310  0.435868  1
  Lu  Lu6  1  0.832494  0.826326  0.563546  1
  Lu  Lu7  1  0.175063  0.181310  0.064132  1
  Lu  Lu8  1  0.832494  0.826326  0.936454  1
  Lu  Lu9  1  0.676746  0.320124  0.565633  1
  Lu  Lu10  1  0.331255  0.671671  0.062378  1
  Lu  Lu11  1  0.331255  0.671671  0.437622  1
  Co  Co12  1  0.961435  0.114900  0.750000  1
  Co  Co13  1  0.459831  0.386823  0.250000  1
  Tc  Tc14  1  0.536960  0.610402  0.750000  1
  Tc  Tc15  1  0.039477  0.889105  0.250000  1
