# generated using pymatgen
data_Tb15DyIn2(AgRh2)2
_symmetry_space_group_name_H-M   'P 1'
_cell_length_a   9.64601183
_cell_length_b   9.64601175
_cell_length_c   9.65043000
_cell_angle_alpha   59.98485390
_cell_angle_beta   59.98485416
_cell_angle_gamma   60.08090445
_symmetry_Int_Tables_number   1
_chemical_formula_structural   Tb15DyIn2(AgRh2)2
_chemical_formula_sum   'Tb15 Dy1 In2 Ag2 Rh4'
_cell_volume   635.17368922
_cell_formula_units_Z   1
loop_
 _symmetry_equiv_pos_site_id
 _symmetry_equiv_pos_as_xyz
  1  'x, y, z'
loop_
 _atom_site_type_symbol
 _atom_site_label
 _atom_site_symmetry_multiplicity
 _atom_site_fract_x
 _atom_site_fract_y
 _atom_site_fract_z
 _atom_site_occupancy
  Tb  Tb0  1  0.810766  0.189611  0.809578  1
  Tb  Tb1  1  0.188303  0.188303  0.811697  1
  Tb  Tb2  1  0.648873  0.052140  0.649493  1
  Tb  Tb3  1  0.063831  0.063831  0.436169  1
  Tb  Tb4  1  0.438411  0.438411  0.061589  1
  Tb  Tb5  1  0.649790  0.649790  0.649604  1
  Tb  Tb6  1  0.810766  0.189611  0.190043  1
  Tb  Tb7  1  0.189611  0.810766  0.809578  1
  Tb  Tb8  1  0.052140  0.648873  0.649493  1
  Tb  Tb9  1  0.437709  0.066613  0.059884  1
  Tb  Tb10  1  0.437709  0.066613  0.435794  1
  Tb  Tb11  1  0.066613  0.437709  0.059884  1
  Tb  Tb12  1  0.649790  0.649790  0.050817  1
  Tb  Tb13  1  0.189611  0.810766  0.190043  1
  Tb  Tb14  1  0.066613  0.437709  0.435794  1
  Dy  Dy15  1  0.808301  0.808301  0.191699  1
  In  In16  1  0.416989  0.742173  0.420419  1
  In  In17  1  0.742173  0.416989  0.420419  1
  Ag  Ag18  1  0.416630  0.416630  0.417886  1
  Ag  Ag19  1  0.416630  0.416630  0.748853  1
  Rh  Rh20  1  0.857184  0.427463  0.857677  1
  Rh  Rh21  1  0.857045  0.857045  0.859163  1
  Rh  Rh22  1  0.857045  0.857045  0.426747  1
  Rh  Rh23  1  0.427463  0.857184  0.857677  1
