# generated using pymatgen
data_Dy4Tm8ZnGaCo4
_symmetry_space_group_name_H-M   'P 1'
_cell_length_a   8.21869183
_cell_length_b   8.21869037
_cell_length_c   8.21869037
_cell_angle_alpha   112.16010651
_cell_angle_beta   109.42696307
_cell_angle_gamma   106.86986757
_symmetry_Int_Tables_number   1
_chemical_formula_structural   Dy4Tm8ZnGaCo4
_chemical_formula_sum   'Dy4 Tm8 Zn1 Ga1 Co4'
_cell_volume   426.44047341
_cell_formula_units_Z   1
loop_
 _symmetry_equiv_pos_site_id
 _symmetry_equiv_pos_as_xyz
  1  'x, y, z'
loop_
 _atom_site_type_symbol
 _atom_site_label
 _atom_site_symmetry_multiplicity
 _atom_site_fract_x
 _atom_site_fract_y
 _atom_site_fract_z
 _atom_site_occupancy
  Dy  Dy0  1  0.433793  0.235894  0.197899  1
  Dy  Dy1  1  0.566207  0.764106  0.802101  1
  Dy  Dy2  1  0.037996  0.235894  0.802101  1
  Dy  Dy3  1  0.962004  0.764106  0.197899  1
  Tm  Tm4  1  0.179818  0.282037  0.461855  1
  Tm  Tm5  1  0.820182  0.717963  0.538145  1
  Tm  Tm6  1  0.179818  0.717963  0.897779  1
  Tm  Tm7  1  0.820182  0.282037  0.102221  1
  Tm  Tm8  1  0.326804  0.636906  0.310100  1
  Tm  Tm9  1  0.673196  0.363094  0.689900  1
  Tm  Tm10  1  0.326804  0.016703  0.689900  1
  Tm  Tm11  1  0.673196  0.983297  0.310100  1
  Zn  Zn12  1  0.000000  0.000000  0.000000  1
  Ga  Ga13  1  0.500000  0.500000  0.000000  1
  Co  Co14  1  0.342429  0.000000  0.342429  1
  Co  Co15  1  0.657571  0.000000  0.657571  1
  Co  Co16  1  0.115505  0.615505  0.500000  1
  Co  Co17  1  0.884495  0.384495  0.500000  1
