# generated using pymatgen
data_Gd3In3AgAu2
_symmetry_space_group_name_H-M   'P 1'
_cell_length_a   7.96269100
_cell_length_b   7.96269189
_cell_length_c   3.96194100
_cell_angle_alpha   90.00000000
_cell_angle_beta   90.00000000
_cell_angle_gamma   119.99999217
_symmetry_Int_Tables_number   1
_chemical_formula_structural   Gd3In3AgAu2
_chemical_formula_sum   'Gd3 In3 Ag1 Au2'
_cell_volume   217.54967750
_cell_formula_units_Z   1
loop_
 _symmetry_equiv_pos_site_id
 _symmetry_equiv_pos_as_xyz
  1  'x, y, z'
loop_
 _atom_site_type_symbol
 _atom_site_label
 _atom_site_symmetry_multiplicity
 _atom_site_fract_x
 _atom_site_fract_y
 _atom_site_fract_z
 _atom_site_occupancy
  Gd  Gd0  1  0.406321  0.000000  0.500000  1
  Gd  Gd1  1  0.000000  0.406321  0.500000  1
  Gd  Gd2  1  0.593679  0.593679  0.500000  1
  In  In3  1  0.740212  0.000000  0.000000  1
  In  In4  1  0.000000  0.740212  0.000000  1
  In  In5  1  0.259788  0.259788  0.000000  1
  Ag  Ag6  1  0.000000  0.000000  0.500000  1
  Au  Au7  1  0.333333  0.666667  0.000000  1
  Au  Au8  1  0.666667  0.333333  0.000000  1
