# generated using pymatgen
data_Tm3CuHg4Ir
_symmetry_space_group_name_H-M   'P 1'
_cell_length_a   7.91407900
_cell_length_b   7.91407885
_cell_length_c   3.69250400
_cell_angle_alpha   90.00000000
_cell_angle_beta   90.00000000
_cell_angle_gamma   120.00000481
_symmetry_Int_Tables_number   1
_chemical_formula_structural   Tm3CuHg4Ir
_chemical_formula_sum   'Tm3 Cu1 Hg4 Ir1'
_cell_volume   200.28680525
_cell_formula_units_Z   1
loop_
 _symmetry_equiv_pos_site_id
 _symmetry_equiv_pos_as_xyz
  1  'x, y, z'
loop_
 _atom_site_type_symbol
 _atom_site_label
 _atom_site_symmetry_multiplicity
 _atom_site_fract_x
 _atom_site_fract_y
 _atom_site_fract_z
 _atom_site_occupancy
  Tm  Tm0  1  0.293735  0.247973  0.500000  1
  Tm  Tm1  1  0.752027  0.045763  0.500000  1
  Tm  Tm2  1  0.954237  0.706265  0.500000  1
  Cu  Cu3  1  0.333333  0.666667  0.500000  1
  Hg  Hg4  1  0.073297  0.410562  0.000000  1
  Hg  Hg5  1  0.589438  0.662735  0.000000  1
  Hg  Hg6  1  0.337265  0.926703  0.000000  1
  Hg  Hg7  1  0.666667  0.333333  0.000000  1
  Ir  Ir8  1  0.000000  0.000000  0.000000  1
