# generated using pymatgen
data_Pa3(GeRu)2
_symmetry_space_group_name_H-M   'P 1'
_cell_length_a   5.53291200
_cell_length_b   7.91310100
_cell_length_c   12.97289200
_cell_angle_alpha   90.00000000
_cell_angle_beta   90.00000000
_cell_angle_gamma   90.00000000
_symmetry_Int_Tables_number   1
_chemical_formula_structural   Pa3(GeRu)2
_chemical_formula_sum   'Pa12 Ge8 Ru8'
_cell_volume   567.98553346
_cell_formula_units_Z   4
loop_
 _symmetry_equiv_pos_site_id
 _symmetry_equiv_pos_as_xyz
  1  'x, y, z'
loop_
 _atom_site_type_symbol
 _atom_site_label
 _atom_site_symmetry_multiplicity
 _atom_site_fract_x
 _atom_site_fract_y
 _atom_site_fract_z
 _atom_site_occupancy
  Pa  Pa0  1  0.166988  0.401124  0.599203  1
  Pa  Pa1  1  0.833012  0.598876  0.099203  1
  Pa  Pa2  1  0.166988  0.098876  0.400797  1
  Pa  Pa3  1  0.833012  0.901124  0.900797  1
  Pa  Pa4  1  0.833012  0.598876  0.400797  1
  Pa  Pa5  1  0.166988  0.401124  0.900797  1
  Pa  Pa6  1  0.833012  0.901124  0.599203  1
  Pa  Pa7  1  0.166988  0.098876  0.099203  1
  Pa  Pa8  1  0.616311  0.278281  0.750000  1
  Pa  Pa9  1  0.383689  0.721719  0.250000  1
  Pa  Pa10  1  0.616311  0.221719  0.250000  1
  Pa  Pa11  1  0.383689  0.778281  0.750000  1
  Ge  Ge12  1  0.102908  0.116635  0.750000  1
  Ge  Ge13  1  0.897092  0.883365  0.250000  1
  Ge  Ge14  1  0.102908  0.383365  0.250000  1
  Ge  Ge15  1  0.897092  0.616635  0.750000  1
  Ge  Ge16  1  0.697217  0.250000  0.500000  1
  Ge  Ge17  1  0.302783  0.750000  0.000000  1
  Ge  Ge18  1  0.302783  0.750000  0.500000  1
  Ge  Ge19  1  0.697217  0.250000  0.000000  1
  Ru  Ru20  1  0.371551  0.046097  0.593347  1
  Ru  Ru21  1  0.628449  0.953903  0.093347  1
  Ru  Ru22  1  0.371551  0.453903  0.406653  1
  Ru  Ru23  1  0.628449  0.546097  0.906653  1
  Ru  Ru24  1  0.628449  0.953903  0.406653  1
  Ru  Ru25  1  0.371551  0.046097  0.906653  1
  Ru  Ru26  1  0.628449  0.546097  0.593347  1
  Ru  Ru27  1  0.371551  0.453903  0.093347  1
