# generated using pymatgen
data_HoTh3ScIr3
_symmetry_space_group_name_H-M   'P 1'
_cell_length_a   6.37622600
_cell_length_b   8.32842739
_cell_length_c   8.32865600
_cell_angle_alpha   119.99791129
_cell_angle_beta   90.00076265
_cell_angle_gamma   89.99978683
_symmetry_Int_Tables_number   1
_chemical_formula_structural   HoTh3ScIr3
_chemical_formula_sum   'Ho2 Th6 Sc2 Ir6'
_cell_volume   383.03759541
_cell_formula_units_Z   2
loop_
 _symmetry_equiv_pos_site_id
 _symmetry_equiv_pos_as_xyz
  1  'x, y, z'
loop_
 _atom_site_type_symbol
 _atom_site_label
 _atom_site_symmetry_multiplicity
 _atom_site_fract_x
 _atom_site_fract_y
 _atom_site_fract_z
 _atom_site_occupancy
  Ho  Ho0  1  0.000005  0.666662  0.333324  1
  Ho  Ho1  1  0.000007  0.333335  0.666674  1
  Th  Th2  1  0.746157  0.258453  0.000001  1
  Th  Th3  1  0.746195  0.741563  0.741575  1
  Th  Th4  1  0.746188  0.999992  0.258427  1
  Th  Th5  1  0.253821  0.741546  0.000001  1
  Th  Th6  1  0.253792  0.258431  0.258417  1
  Th  Th7  1  0.253802  0.000016  0.741584  1
  Sc  Sc8  1  0.500031  0.333287  0.666564  1
  Sc  Sc9  1  0.500033  0.666718  0.333436  1
  Ir  Ir10  1  0.731570  0.613296  0.999998  1
  Ir  Ir11  1  0.731600  0.386687  0.386685  1
  Ir  Ir12  1  0.731593  0.999998  0.613313  1
  Ir  Ir13  1  0.268418  0.386698  0.000000  1
  Ir  Ir14  1  0.268391  0.613313  0.613308  1
  Ir  Ir15  1  0.268396  0.000004  0.386693  1
