# generated using pymatgen
data_Er3Se4
_symmetry_space_group_name_H-M   'P 1'
_cell_length_a   6.93871286
_cell_length_b   6.93871383
_cell_length_c   4.03588700
_cell_angle_alpha   90.00000000
_cell_angle_beta   90.00000000
_cell_angle_gamma   108.58212541
_symmetry_Int_Tables_number   1
_chemical_formula_structural   Er3Se4
_chemical_formula_sum   'Er3 Se4'
_cell_volume   184.18094305
_cell_formula_units_Z   1
loop_
 _symmetry_equiv_pos_site_id
 _symmetry_equiv_pos_as_xyz
  1  'x, y, z'
loop_
 _atom_site_type_symbol
 _atom_site_label
 _atom_site_symmetry_multiplicity
 _atom_site_fract_x
 _atom_site_fract_y
 _atom_site_fract_z
 _atom_site_occupancy
  Er  Er0  1  0.000000  0.500000  0.000000  1
  Er  Er1  1  0.000000  0.000000  0.500000  1
  Er  Er2  1  0.500000  0.000000  0.000000  1
  Se  Se3  1  0.745144  0.254856  0.500000  1
  Se  Se4  1  0.752832  0.752832  0.000000  1
  Se  Se5  1  0.254856  0.745144  0.500000  1
  Se  Se6  1  0.247168  0.247168  0.000000  1
