# generated using pymatgen
data_Ca6Nd2Cu(Si4Pd)3
_symmetry_space_group_name_H-M   'P 1'
_cell_length_a   8.23436600
_cell_length_b   8.23436761
_cell_length_c   8.45785800
_cell_angle_alpha   90.00000000
_cell_angle_beta   90.00000000
_cell_angle_gamma   119.99999353
_symmetry_Int_Tables_number   1
_chemical_formula_structural   Ca6Nd2Cu(Si4Pd)3
_chemical_formula_sum   'Ca6 Nd2 Cu1 Si12 Pd3'
_cell_volume   496.65117528
_cell_formula_units_Z   1
loop_
 _symmetry_equiv_pos_site_id
 _symmetry_equiv_pos_as_xyz
  1  'x, y, z'
loop_
 _atom_site_type_symbol
 _atom_site_label
 _atom_site_symmetry_multiplicity
 _atom_site_fract_x
 _atom_site_fract_y
 _atom_site_fract_z
 _atom_site_occupancy
  Ca  Ca0  1  0.498654  0.501346  0.747761  1
  Ca  Ca1  1  0.500328  0.499672  0.252313  1
  Ca  Ca2  1  0.002692  0.501346  0.747761  1
  Ca  Ca3  1  0.999345  0.499672  0.252313  1
  Ca  Ca4  1  0.498654  0.997308  0.747761  1
  Ca  Ca5  1  0.500328  0.000655  0.252313  1
  Nd  Nd6  1  0.000000  0.000000  0.749853  1
  Nd  Nd7  1  0.000000  0.000000  0.250308  1
  Cu  Cu8  1  0.666667  0.333333  0.996800  1
  Si  Si9  1  0.833558  0.166442  0.999526  1
  Si  Si10  1  0.166147  0.833853  0.000478  1
  Si  Si11  1  0.332885  0.166442  0.999526  1
  Si  Si12  1  0.165289  0.834711  0.499456  1
  Si  Si13  1  0.667706  0.833853  0.000478  1
  Si  Si14  1  0.834602  0.165398  0.500702  1
  Si  Si15  1  0.833558  0.667115  0.999526  1
  Si  Si16  1  0.669421  0.834711  0.499456  1
  Si  Si17  1  0.166147  0.332294  0.000478  1
  Si  Si18  1  0.330797  0.165398  0.500702  1
  Si  Si19  1  0.165289  0.330579  0.499456  1
  Si  Si20  1  0.834602  0.669203  0.500702  1
  Pd  Pd21  1  0.333333  0.666667  0.002030  1
  Pd  Pd22  1  0.333333  0.666667  0.498093  1
  Pd  Pd23  1  0.666667  0.333333  0.502209  1
