# generated using pymatgen
data_Dy3Ho3Pb5
_symmetry_space_group_name_H-M   'P 1'
_cell_length_a   11.74217553
_cell_length_b   11.74057369
_cell_length_c   11.74113343
_cell_angle_alpha   146.88585217
_cell_angle_beta   132.78077475
_cell_angle_gamma   58.87791739
_symmetry_Int_Tables_number   1
_chemical_formula_structural   Dy3Ho3Pb5
_chemical_formula_sum   'Dy6 Ho6 Pb10'
_cell_volume   643.53363968
_cell_formula_units_Z   2
loop_
 _symmetry_equiv_pos_site_id
 _symmetry_equiv_pos_as_xyz
  1  'x, y, z'
loop_
 _atom_site_type_symbol
 _atom_site_label
 _atom_site_symmetry_multiplicity
 _atom_site_fract_x
 _atom_site_fract_y
 _atom_site_fract_z
 _atom_site_occupancy
  Dy  Dy0  1  0.696232  0.946319  0.249997  1
  Dy  Dy1  1  0.250436  0.637775  0.612625  1
  Dy  Dy2  1  0.680519  0.941095  0.739432  1
  Dy  Dy3  1  0.025242  0.137809  0.887468  1
  Dy  Dy4  1  0.974891  0.862213  0.112640  1
  Dy  Dy5  1  0.798263  0.558816  0.239390  1
  Ho  Ho6  1  0.201746  0.441115  0.760621  1
  Ho  Ho7  1  0.303747  0.053783  0.749999  1
  Ho  Ho8  1  0.319397  0.058858  0.260618  1
  Ho  Ho9  1  0.303734  0.553743  0.249949  1
  Ho  Ho10  1  0.749702  0.362282  0.387464  1
  Ho  Ho11  1  0.696229  0.446220  0.749915  1
  Pb  Pb12  1  0.479980  0.574111  0.905580  1
  Pb  Pb13  1  0.598529  0.794181  0.804029  1
  Pb  Pb14  1  0.668322  0.074472  0.594149  1
  Pb  Pb15  1  0.000154  0.749935  0.750122  1
  Pb  Pb16  1  0.990154  0.294625  0.695836  1
  Pb  Pb17  1  0.519755  0.425562  0.094161  1
  Pb  Pb18  1  0.010089  0.705604  0.304248  1
  Pb  Pb19  1  0.401260  0.205732  0.195764  1
  Pb  Pb20  1  0.331481  0.925730  0.405780  1
  Pb  Pb21  1  0.000136  0.250021  0.250214  1
