# generated using pymatgen
data_Tb6Al24AgOs5PdPt
_symmetry_space_group_name_H-M   'P 1'
_cell_length_a   8.82299852
_cell_length_b   8.84167610
_cell_length_c   9.56351100
_cell_angle_alpha   90.06524261
_cell_angle_beta   89.80230543
_cell_angle_gamma   119.48307949
_symmetry_Int_Tables_number   1
_chemical_formula_structural   Tb6Al24AgOs5PdPt
_chemical_formula_sum   'Tb6 Al24 Ag1 Os5 Pd1 Pt1'
_cell_volume   649.43368121
_cell_formula_units_Z   1
loop_
 _symmetry_equiv_pos_site_id
 _symmetry_equiv_pos_as_xyz
  1  'x, y, z'
loop_
 _atom_site_type_symbol
 _atom_site_label
 _atom_site_symmetry_multiplicity
 _atom_site_fract_x
 _atom_site_fract_y
 _atom_site_fract_z
 _atom_site_occupancy
  Tb  Tb0  1  0.188637  0.382506  0.249149  1
  Tb  Tb1  1  0.811363  0.617494  0.750851  1
  Tb  Tb2  1  0.614831  0.813249  0.253753  1
  Tb  Tb3  1  0.385169  0.186751  0.746247  1
  Tb  Tb4  1  0.194783  0.810161  0.249790  1
  Tb  Tb5  1  0.805217  0.189839  0.750210  1
  Al  Al6  1  0.340864  0.673301  0.031724  1
  Al  Al7  1  0.659136  0.326699  0.968276  1
  Al  Al8  1  0.669524  0.331568  0.528865  1
  Al  Al9  1  0.330476  0.668432  0.471135  1
  Al  Al10  1  0.157619  0.324981  0.574166  1
  Al  Al11  1  0.842381  0.675019  0.425834  1
  Al  Al12  1  0.673730  0.841160  0.576063  1
  Al  Al13  1  0.832483  0.677950  0.079732  1
  Al  Al14  1  0.326270  0.158840  0.423937  1
  Al  Al15  1  0.167517  0.322050  0.920268  1
  Al  Al16  1  0.163927  0.835181  0.575079  1
  Al  Al17  1  0.326006  0.158856  0.076538  1
  Al  Al18  1  0.836073  0.164819  0.424921  1
  Al  Al19  1  0.673994  0.841144  0.923462  1
  Al  Al20  1  0.828338  0.153541  0.080255  1
  Al  Al21  1  0.171662  0.846459  0.919745  1
  Al  Al22  1  0.560631  0.124794  0.249802  1
  Al  Al23  1  0.439369  0.875206  0.750198  1
  Al  Al24  1  0.871362  0.435960  0.256619  1
  Al  Al25  1  0.128638  0.564040  0.743381  1
  Al  Al26  1  0.561744  0.437120  0.250232  1
  Al  Al27  1  0.438256  0.562880  0.749768  1
  Al  Al28  1  0.999146  0.003529  0.250409  1
  Al  Al29  1  0.000854  0.996471  0.749591  1
  Ag  Ag30  1  0.000000  0.500000  0.000000  1
  Os  Os31  1  0.500000  0.000000  0.000000  1
  Os  Os32  1  0.500000  0.000000  0.500000  1
  Os  Os33  1  0.000000  0.500000  0.500000  1
  Os  Os34  1  0.000000  0.000000  0.000000  1
  Os  Os35  1  0.000000  0.000000  0.500000  1
  Pd  Pd36  1  0.500000  0.500000  0.500000  1
  Pt  Pt37  1  0.500000  0.500000  0.000000  1
