# generated using pymatgen
data_Er4Si4RuRh
_symmetry_space_group_name_H-M   'P 1'
_cell_length_a   5.64843624
_cell_length_b   5.64843673
_cell_length_c   10.01418144
_cell_angle_alpha   63.35300664
_cell_angle_beta   63.35300569
_cell_angle_gamma   43.66243755
_symmetry_Int_Tables_number   1
_chemical_formula_structural   Er4Si4RuRh
_chemical_formula_sum   'Er4 Si4 Ru1 Rh1'
_cell_volume   193.13235935
_cell_formula_units_Z   1
loop_
 _symmetry_equiv_pos_site_id
 _symmetry_equiv_pos_as_xyz
  1  'x, y, z'
loop_
 _atom_site_type_symbol
 _atom_site_label
 _atom_site_symmetry_multiplicity
 _atom_site_fract_x
 _atom_site_fract_y
 _atom_site_fract_z
 _atom_site_occupancy
  Er  Er0  1  0.815409  0.815409  0.109110  1
  Er  Er1  1  0.185610  0.185610  0.893142  1
  Er  Er2  1  0.003047  0.003047  0.324273  1
  Er  Er3  1  0.996944  0.996944  0.676301  1
  Si  Si4  1  0.511436  0.511436  0.121481  1
  Si  Si5  1  0.493905  0.493905  0.876968  1
  Si  Si6  1  0.639628  0.639628  0.436160  1
  Si  Si7  1  0.354482  0.354482  0.566143  1
  Ru  Ru8  1  0.727837  0.727837  0.623089  1
  Rh  Rh9  1  0.271703  0.271703  0.373332  1
