# generated using pymatgen
data_YbY3Co4(CuO5)4
_symmetry_space_group_name_H-M   'P 1'
_cell_length_a   5.60758200
_cell_length_b   7.48290205
_cell_length_c   8.35904172
_cell_angle_alpha   90.14553203
_cell_angle_beta   90.00000000
_cell_angle_gamma   90.00000000
_symmetry_Int_Tables_number   1
_chemical_formula_structural   YbY3Co4(CuO5)4
_chemical_formula_sum   'Yb1 Y3 Co4 Cu4 O20'
_cell_volume   350.75250834
_cell_formula_units_Z   1
loop_
 _symmetry_equiv_pos_site_id
 _symmetry_equiv_pos_as_xyz
  1  'x, y, z'
loop_
 _atom_site_type_symbol
 _atom_site_label
 _atom_site_symmetry_multiplicity
 _atom_site_fract_x
 _atom_site_fract_y
 _atom_site_fract_z
 _atom_site_occupancy
  Yb  Yb0  1  0.500000  0.350395  0.326998  1
  Y  Y1  1  0.500000  0.645981  0.671384  1
  Y  Y2  1  0.500000  0.150332  0.826214  1
  Y  Y3  1  0.500000  0.849779  0.173459  1
  Co  Co4  1  0.242481  0.001260  0.499214  1
  Co  Co5  1  0.757519  0.001260  0.499214  1
  Co  Co6  1  0.757413  0.500198  0.002451  1
  Co  Co7  1  0.242587  0.500198  0.002451  1
  Cu  Cu8  1  0.000000  0.069892  0.154693  1
  Cu  Cu9  1  0.000000  0.928996  0.846739  1
  Cu  Cu10  1  0.000000  0.431969  0.653319  1
  Cu  Cu11  1  0.000000  0.568314  0.345950  1
  O  O12  1  0.228086  0.000709  0.999678  1
  O  O13  1  0.771914  0.000709  0.999678  1
  O  O14  1  0.775121  0.502162  0.501260  1
  O  O15  1  0.224879  0.502162  0.501260  1
  O  O16  1  0.000000  0.351572  0.062321  1
  O  O17  1  0.000000  0.645532  0.938999  1
  O  O18  1  0.000000  0.147799  0.560938  1
  O  O19  1  0.000000  0.853478  0.439238  1
  O  O20  1  0.257695  0.088950  0.291441  1
  O  O21  1  0.742323  0.906695  0.708760  1
  O  O22  1  0.257677  0.906695  0.708760  1
  O  O23  1  0.742160  0.406736  0.790692  1
  O  O24  1  0.742305  0.088950  0.291441  1
  O  O25  1  0.255037  0.595819  0.207411  1
  O  O26  1  0.744963  0.595819  0.207411  1
  O  O27  1  0.257840  0.406736  0.790692  1
  O  O28  1  0.500000  0.341646  0.048425  1
  O  O29  1  0.500000  0.661634  0.948250  1
  O  O30  1  0.500000  0.158770  0.552195  1
  O  O31  1  0.500000  0.838849  0.449068  1
