# generated using pymatgen
data_CaCePa(SnIr)3
_symmetry_space_group_name_H-M   'P 1'
_cell_length_a   7.46228813
_cell_length_b   7.50764624
_cell_length_c   4.02400000
_cell_angle_alpha   90.00000000
_cell_angle_beta   90.00000000
_cell_angle_gamma   119.08877938
_symmetry_Int_Tables_number   1
_chemical_formula_structural   CaCePa(SnIr)3
_chemical_formula_sum   'Ca1 Ce1 Pa1 Sn3 Ir3'
_cell_volume   197.00595275
_cell_formula_units_Z   1
loop_
 _symmetry_equiv_pos_site_id
 _symmetry_equiv_pos_as_xyz
  1  'x, y, z'
loop_
 _atom_site_type_symbol
 _atom_site_label
 _atom_site_symmetry_multiplicity
 _atom_site_fract_x
 _atom_site_fract_y
 _atom_site_fract_z
 _atom_site_occupancy
  Ca  Ca0  1  0.592708  0.998565  0.000000  1
  Ce  Ce1  1  0.999602  0.588021  0.000000  1
  Pa  Pa2  1  0.413547  0.413856  0.000000  1
  Sn  Sn3  1  0.983920  0.247108  0.500000  1
  Sn  Sn4  1  0.753459  0.761897  0.500000  1
  Sn  Sn5  1  0.262870  0.993132  0.500000  1
  Ir  Ir6  1  0.022624  0.014777  0.000000  1
  Ir  Ir7  1  0.648615  0.352081  0.500000  1
  Ir  Ir8  1  0.322654  0.630562  0.500000  1
