# generated using pymatgen
data_Ta4Be3Nb2P
_symmetry_space_group_name_H-M   'P 1'
_cell_length_a   6.53129535
_cell_length_b   6.53129628
_cell_length_c   3.38677500
_cell_angle_alpha   90.00000000
_cell_angle_beta   90.00000000
_cell_angle_gamma   89.95733933
_symmetry_Int_Tables_number   1
_chemical_formula_structural   Ta4Be3Nb2P
_chemical_formula_sum   'Ta4 Be3 Nb2 P1'
_cell_volume   144.47241521
_cell_formula_units_Z   1
loop_
 _symmetry_equiv_pos_site_id
 _symmetry_equiv_pos_as_xyz
  1  'x, y, z'
loop_
 _atom_site_type_symbol
 _atom_site_label
 _atom_site_symmetry_multiplicity
 _atom_site_fract_x
 _atom_site_fract_y
 _atom_site_fract_z
 _atom_site_occupancy
  Ta  Ta0  1  0.502955  0.498659  0.000000  1
  Ta  Ta1  1  0.998659  0.002955  0.000000  1
  Ta  Ta2  1  0.677991  0.177991  0.500000  1
  Ta  Ta3  1  0.325507  0.825507  0.500000  1
  Be  Be4  1  0.880314  0.380314  0.000000  1
  Be  Be5  1  0.614942  0.885681  0.000000  1
  Be  Be6  1  0.385681  0.114942  0.000000  1
  Nb  Nb7  1  0.177915  0.319733  0.500000  1
  Nb  Nb8  1  0.819733  0.677915  0.500000  1
  P  P9  1  0.116302  0.616302  0.000000  1
