# generated using pymatgen
data_Pr17Sm3(Bi5Pb3)2
_symmetry_space_group_name_H-M   'P 1'
_cell_length_a   8.48164200
_cell_length_b   8.55769634
_cell_length_c   16.17649500
_cell_angle_alpha   90.00000000
_cell_angle_beta   90.00000000
_cell_angle_gamma   90.41208851
_symmetry_Int_Tables_number   1
_chemical_formula_structural   Pr17Sm3(Bi5Pb3)2
_chemical_formula_sum   'Pr17 Sm3 Bi10 Pb6'
_cell_volume   1174.11329113
_cell_formula_units_Z   1
loop_
 _symmetry_equiv_pos_site_id
 _symmetry_equiv_pos_as_xyz
  1  'x, y, z'
loop_
 _atom_site_type_symbol
 _atom_site_label
 _atom_site_symmetry_multiplicity
 _atom_site_fract_x
 _atom_site_fract_y
 _atom_site_fract_z
 _atom_site_occupancy
  Pr  Pr0  1  0.371166  0.843690  0.880462  1
  Pr  Pr1  1  0.878560  0.657491  0.621254  1
  Pr  Pr2  1  0.629786  0.155785  0.380240  1
  Pr  Pr3  1  0.120902  0.342094  0.121989  1
  Pr  Pr4  1  0.629786  0.155785  0.119760  1
  Pr  Pr5  1  0.120902  0.342094  0.378011  1
  Pr  Pr6  1  0.371166  0.843690  0.619538  1
  Pr  Pr7  1  0.878560  0.657491  0.878746  1
  Pr  Pr8  1  0.538173  0.321678  0.897308  1
  Pr  Pr9  1  0.037581  0.176451  0.600753  1
  Pr  Pr10  1  0.460363  0.677563  0.396107  1
  Pr  Pr11  1  0.963065  0.824028  0.100153  1
  Pr  Pr12  1  0.460363  0.677563  0.103893  1
  Pr  Pr13  1  0.963065  0.824028  0.399847  1
  Pr  Pr14  1  0.538173  0.321678  0.602692  1
  Pr  Pr15  1  0.037581  0.176451  0.899247  1
  Pr  Pr16  1  0.205246  0.496028  0.750000  1
  Sm  Sm17  1  0.704516  0.003809  0.750000  1
  Sm  Sm18  1  0.794284  0.504085  0.250000  1
  Sm  Sm19  1  0.295888  0.995684  0.250000  1
  Bi  Bi20  1  0.279780  0.031446  0.047384  1
  Bi  Bi21  1  0.775226  0.473601  0.453709  1
  Bi  Bi22  1  0.721115  0.969654  0.547775  1
  Bi  Bi23  1  0.224297  0.527561  0.955627  1
  Bi  Bi24  1  0.721115  0.969654  0.952225  1
  Bi  Bi25  1  0.224297  0.527561  0.544373  1
  Bi  Bi26  1  0.279780  0.031446  0.452616  1
  Bi  Bi27  1  0.775226  0.473601  0.046291  1
  Bi  Bi28  1  0.572551  0.626339  0.750000  1
  Bi  Bi29  1  0.429533  0.374031  0.250000  1
  Pb  Pb30  1  0.069641  0.879270  0.750000  1
  Pb  Pb31  1  0.930538  0.120663  0.250000  1
  Pb  Pb32  1  0.344773  0.145756  0.750000  1
  Pb  Pb33  1  0.848835  0.346262  0.750000  1
  Pb  Pb34  1  0.656957  0.851731  0.250000  1
  Pb  Pb35  1  0.147218  0.654259  0.250000  1
