# generated using pymatgen
data_Tm11Sc9GaBi11
_symmetry_space_group_name_H-M   'P 1'
_cell_length_a   7.92654543
_cell_length_b   9.18420006
_cell_length_c   11.71631874
_cell_angle_alpha   89.99622699
_cell_angle_beta   89.75220607
_cell_angle_gamma   89.98764728
_symmetry_Int_Tables_number   1
_chemical_formula_structural   Tm11Sc9GaBi11
_chemical_formula_sum   'Tm11 Sc9 Ga1 Bi11'
_cell_volume   852.92804345
_cell_formula_units_Z   1
loop_
 _symmetry_equiv_pos_site_id
 _symmetry_equiv_pos_as_xyz
  1  'x, y, z'
loop_
 _atom_site_type_symbol
 _atom_site_label
 _atom_site_symmetry_multiplicity
 _atom_site_fract_x
 _atom_site_fract_y
 _atom_site_fract_z
 _atom_site_occupancy
  Tm  Tm0  1  0.353764  0.247449  0.293986  1
  Tm  Tm1  1  0.652759  0.750288  0.718332  1
  Tm  Tm2  1  0.149190  0.751205  0.781957  1
  Tm  Tm3  1  0.850973  0.247480  0.215962  1
  Tm  Tm4  1  0.192344  0.248086  0.774962  1
  Tm  Tm5  1  0.812300  0.750805  0.218849  1
  Tm  Tm6  1  0.314726  0.751055  0.279287  1
  Tm  Tm7  1  0.672840  0.248308  0.711274  1
  Tm  Tm8  1  0.192778  0.434324  0.059522  1
  Tm  Tm9  1  0.686206  0.428334  0.445738  1
  Tm  Tm10  1  0.308832  0.550574  0.558141  1
  Sc  Sc11  1  0.034352  0.247007  0.510710  1
  Sc  Sc12  1  0.981951  0.752208  0.490993  1
  Sc  Sc13  1  0.480083  0.750653  0.010076  1
  Sc  Sc14  1  0.522998  0.248080  0.988749  1
  Sc  Sc15  1  0.194663  0.067641  0.059563  1
  Sc  Sc16  1  0.804504  0.933239  0.941595  1
  Sc  Sc17  1  0.307424  0.948768  0.558289  1
  Sc  Sc18  1  0.805465  0.567161  0.942086  1
  Sc  Sc19  1  0.685668  0.074458  0.446347  1
  Ga  Ga20  1  0.404459  0.242886  0.539406  1
  Bi  Bi21  1  0.596312  0.758191  0.459124  1
  Bi  Bi22  1  0.093889  0.755957  0.039907  1
  Bi  Bi23  1  0.902689  0.247711  0.954171  1
  Bi  Bi24  1  0.061859  0.002964  0.329749  1
  Bi  Bi25  1  0.936524  0.997440  0.670161  1
  Bi  Bi26  1  0.436971  0.994991  0.830035  1
  Bi  Bi27  1  0.935080  0.502309  0.672381  1
  Bi  Bi28  1  0.562614  0.004335  0.169163  1
  Bi  Bi29  1  0.062076  0.496880  0.329435  1
  Bi  Bi30  1  0.565312  0.495130  0.169383  1
  Bi  Bi31  1  0.438397  0.504082  0.830664  1
