# generated using pymatgen
data_Yb2Sb2O7
_symmetry_space_group_name_H-M   'P 1'
_cell_length_a   7.34172387
_cell_length_b   7.34172384
_cell_length_c   7.34382752
_cell_angle_alpha   91.36957860
_cell_angle_beta   118.69401457
_cell_angle_gamma   119.72398788
_symmetry_Int_Tables_number   1
_chemical_formula_structural   Yb2Sb2O7
_chemical_formula_sum   'Yb4 Sb4 O14'
_cell_volume   283.15146729
_cell_formula_units_Z   2
loop_
 _symmetry_equiv_pos_site_id
 _symmetry_equiv_pos_as_xyz
  1  'x, y, z'
loop_
 _atom_site_type_symbol
 _atom_site_label
 _atom_site_symmetry_multiplicity
 _atom_site_fract_x
 _atom_site_fract_y
 _atom_site_fract_z
 _atom_site_occupancy
  Yb  Yb0  1  0.000000  0.000000  0.000000  1
  Yb  Yb1  1  0.499999  0.499998  0.499999  1
  Yb  Yb2  1  0.000000  0.000000  0.499999  1
  Yb  Yb3  1  0.000000  0.500000  0.499999  1
  Sb  Sb4  1  0.499999  0.000000  0.000000  1
  Sb  Sb5  1  0.500001  0.500001  0.000000  1
  Sb  Sb6  1  0.000000  0.500001  0.000000  1
  Sb  Sb7  1  0.499999  0.000000  0.499999  1
  O  O8  1  0.849902  0.250142  0.100044  1
  O  O9  1  0.269412  0.095796  0.365209  1
  O  O10  1  0.227484  0.404531  0.058802  1
  O  O11  1  0.654269  0.831316  0.058802  1
  O  O12  1  0.730276  0.595784  0.326060  1
  O  O13  1  0.654677  0.094283  0.323192  1
  O  O14  1  0.228910  0.668514  0.323192  1
  O  O15  1  0.269724  0.404216  0.673940  1
  O  O16  1  0.771091  0.331485  0.676809  1
  O  O17  1  0.345323  0.905717  0.676809  1
  O  O18  1  0.730587  0.904203  0.634791  1
  O  O19  1  0.345729  0.168684  0.941198  1
  O  O20  1  0.772514  0.595468  0.941198  1
  O  O21  1  0.150097  0.749858  0.899954  1
