# generated using pymatgen
data_Ba20Ge3Bi8As
_symmetry_space_group_name_H-M   'P 1'
_cell_length_a   9.16810512
_cell_length_b   10.60585200
_cell_length_c   14.33738600
_cell_angle_alpha   90.00000000
_cell_angle_beta   89.66456414
_cell_angle_gamma   90.00000000
_symmetry_Int_Tables_number   1
_chemical_formula_structural   Ba20Ge3Bi8As
_chemical_formula_sum   'Ba20 Ge3 Bi8 As1'
_cell_volume   1394.07995130
_cell_formula_units_Z   1
loop_
 _symmetry_equiv_pos_site_id
 _symmetry_equiv_pos_as_xyz
  1  'x, y, z'
loop_
 _atom_site_type_symbol
 _atom_site_label
 _atom_site_symmetry_multiplicity
 _atom_site_fract_x
 _atom_site_fract_y
 _atom_site_fract_z
 _atom_site_occupancy
  Ba  Ba0  1  0.055888  0.750000  0.499071  1
  Ba  Ba1  1  0.942499  0.250000  0.499742  1
  Ba  Ba2  1  0.556040  0.250000  0.000586  1
  Ba  Ba3  1  0.444252  0.750000  0.000378  1
  Ba  Ba4  1  0.855373  0.750000  0.800085  1
  Ba  Ba5  1  0.145022  0.250000  0.198773  1
  Ba  Ba6  1  0.354028  0.250000  0.699986  1
  Ba  Ba7  1  0.645340  0.750000  0.300421  1
  Ba  Ba8  1  0.681256  0.528256  0.576413  1
  Ba  Ba9  1  0.319709  0.470860  0.424731  1
  Ba  Ba10  1  0.180602  0.470660  0.924834  1
  Ba  Ba11  1  0.319709  0.029140  0.424731  1
  Ba  Ba12  1  0.819100  0.528870  0.073514  1
  Ba  Ba13  1  0.681256  0.971744  0.576413  1
  Ba  Ba14  1  0.819100  0.971130  0.073514  1
  Ba  Ba15  1  0.180602  0.029340  0.924834  1
  Ba  Ba16  1  0.327663  0.750000  0.715970  1
  Ba  Ba17  1  0.672454  0.250000  0.285182  1
  Ba  Ba18  1  0.830467  0.250000  0.786209  1
  Ba  Ba19  1  0.166411  0.750000  0.211103  1
  Ge  Ge20  1  0.064454  0.750000  0.986361  1
  Ge  Ge21  1  0.936234  0.250000  0.012833  1
  Ge  Ge22  1  0.560610  0.250000  0.512086  1
  Bi  Bi23  1  0.560972  0.507106  0.829804  1
  Bi  Bi24  1  0.439346  0.494808  0.171977  1
  Bi  Bi25  1  0.062729  0.494083  0.667204  1
  Bi  Bi26  1  0.439346  0.005192  0.171977  1
  Bi  Bi27  1  0.938042  0.508382  0.332342  1
  Bi  Bi28  1  0.560972  0.992894  0.829804  1
  Bi  Bi29  1  0.938042  0.991618  0.332342  1
  Bi  Bi30  1  0.062729  0.005917  0.667204  1
  As  As31  1  0.439752  0.750000  0.489575  1
