# generated using pymatgen
data_Lu11Zr5(AlCo)4
_symmetry_space_group_name_H-M   'P 1'
_cell_length_a   9.03000293
_cell_length_b   9.03000139
_cell_length_c   9.02460200
_cell_angle_alpha   60.01978503
_cell_angle_beta   60.01979064
_cell_angle_gamma   59.95193831
_symmetry_Int_Tables_number   1
_chemical_formula_structural   Lu11Zr5(AlCo)4
_chemical_formula_sum   'Lu11 Zr5 Al4 Co4'
_cell_volume   520.30800623
_cell_formula_units_Z   1
loop_
 _symmetry_equiv_pos_site_id
 _symmetry_equiv_pos_as_xyz
  1  'x, y, z'
loop_
 _atom_site_type_symbol
 _atom_site_label
 _atom_site_symmetry_multiplicity
 _atom_site_fract_x
 _atom_site_fract_y
 _atom_site_fract_z
 _atom_site_occupancy
  Lu  Lu0  1  0.808421  0.190939  0.195080  1
  Lu  Lu1  1  0.190939  0.808421  0.805558  1
  Lu  Lu2  1  0.190939  0.808421  0.195080  1
  Lu  Lu3  1  0.808421  0.190939  0.805558  1
  Lu  Lu4  1  0.192560  0.192560  0.807440  1
  Lu  Lu5  1  0.807736  0.807736  0.192264  1
  Lu  Lu6  1  0.942713  0.560891  0.558944  1
  Lu  Lu7  1  0.560891  0.942713  0.937451  1
  Lu  Lu8  1  0.560891  0.942713  0.558944  1
  Lu  Lu9  1  0.942713  0.560891  0.937451  1
  Lu  Lu10  1  0.559338  0.559338  0.940662  1
  Zr  Zr11  1  0.938568  0.938568  0.561432  1
  Zr  Zr12  1  0.348212  0.348212  0.347524  1
  Zr  Zr13  1  0.348212  0.348212  0.956052  1
  Zr  Zr14  1  0.343054  0.955865  0.350541  1
  Zr  Zr15  1  0.955865  0.343054  0.350541  1
  Al  Al16  1  0.577589  0.577589  0.577100  1
  Al  Al17  1  0.577589  0.577589  0.267721  1
  Al  Al18  1  0.582242  0.263882  0.576938  1
  Al  Al19  1  0.263882  0.582242  0.576938  1
  Co  Co20  1  0.145889  0.145889  0.144343  1
  Co  Co21  1  0.145889  0.145889  0.563877  1
  Co  Co22  1  0.143923  0.563520  0.146278  1
  Co  Co23  1  0.563520  0.143923  0.146278  1
