# generated using pymatgen
data_TbDy3ReTcC4
_symmetry_space_group_name_H-M   'P 1'
_cell_length_a   5.11301400
_cell_length_b   6.58693200
_cell_length_c   9.89483300
_cell_angle_alpha   90.00000000
_cell_angle_beta   90.00000000
_cell_angle_gamma   90.00000000
_symmetry_Int_Tables_number   1
_chemical_formula_structural   TbDy3ReTcC4
_chemical_formula_sum   'Tb2 Dy6 Re2 Tc2 C8'
_cell_volume   333.24882799
_cell_formula_units_Z   2
loop_
 _symmetry_equiv_pos_site_id
 _symmetry_equiv_pos_as_xyz
  1  'x, y, z'
loop_
 _atom_site_type_symbol
 _atom_site_label
 _atom_site_symmetry_multiplicity
 _atom_site_fract_x
 _atom_site_fract_y
 _atom_site_fract_z
 _atom_site_occupancy
  Tb  Tb0  1  0.750000  0.968582  0.715409  1
  Tb  Tb1  1  0.250000  0.531418  0.215409  1
  Dy  Dy2  1  0.750000  0.821779  0.056156  1
  Dy  Dy3  1  0.250000  0.678221  0.556156  1
  Dy  Dy4  1  0.750000  0.320399  0.442668  1
  Dy  Dy5  1  0.250000  0.179601  0.942668  1
  Dy  Dy6  1  0.750000  0.467765  0.783591  1
  Dy  Dy7  1  0.250000  0.032235  0.283591  1
  Re  Re8  1  0.750000  0.778925  0.365250  1
  Re  Re9  1  0.250000  0.721075  0.865250  1
  Tc  Tc10  1  0.750000  0.278558  0.134606  1
  Tc  Tc11  1  0.250000  0.221442  0.634606  1
  C  C12  1  0.750000  0.178545  0.952326  1
  C  C13  1  0.250000  0.822166  0.048566  1
  C  C14  1  0.750000  0.677834  0.548566  1
  C  C15  1  0.250000  0.321455  0.452326  1
  C  C16  1  0.750000  0.044512  0.259619  1
  C  C17  1  0.250000  0.455488  0.759619  1
  C  C18  1  0.750000  0.546330  0.241809  1
  C  C19  1  0.250000  0.953670  0.741809  1
