# generated using pymatgen
data_ScTiCo5SnB2
_symmetry_space_group_name_H-M   'P 1'
_cell_length_a   8.70713300
_cell_length_b   8.70971900
_cell_length_c   3.08842200
_cell_angle_alpha   90.00000000
_cell_angle_beta   90.00000000
_cell_angle_gamma   90.00000000
_symmetry_Int_Tables_number   1
_chemical_formula_structural   ScTiCo5SnB2
_chemical_formula_sum   'Sc2 Ti2 Co10 Sn2 B4'
_cell_volume   234.21567625
_cell_formula_units_Z   2
loop_
 _symmetry_equiv_pos_site_id
 _symmetry_equiv_pos_as_xyz
  1  'x, y, z'
loop_
 _atom_site_type_symbol
 _atom_site_label
 _atom_site_symmetry_multiplicity
 _atom_site_fract_x
 _atom_site_fract_y
 _atom_site_fract_z
 _atom_site_occupancy
  Sc  Sc0  1  0.823850  0.325498  0.000000  1
  Sc  Sc1  1  0.323850  0.174502  0.000000  1
  Ti  Ti2  1  0.674613  0.824320  0.000000  1
  Ti  Ti3  1  0.174613  0.675680  0.000000  1
  Co  Co4  1  0.501787  0.989919  0.500000  1
  Co  Co5  1  0.001787  0.510081  0.500000  1
  Co  Co6  1  0.070705  0.236050  0.500000  1
  Co  Co7  1  0.227463  0.917125  0.500000  1
  Co  Co8  1  0.768783  0.058915  0.500000  1
  Co  Co9  1  0.929636  0.776964  0.500000  1
  Co  Co10  1  0.429636  0.723036  0.500000  1
  Co  Co11  1  0.570705  0.263950  0.500000  1
  Co  Co12  1  0.727463  0.582875  0.500000  1
  Co  Co13  1  0.268783  0.441085  0.500000  1
  Sn  Sn14  1  0.002459  0.004133  0.000000  1
  Sn  Sn15  1  0.502459  0.495867  0.000000  1
  B  B16  1  0.618879  0.110938  0.000000  1
  B  B17  1  0.118879  0.389062  0.000000  1
  B  B18  1  0.881824  0.626568  0.000000  1
  B  B19  1  0.381824  0.873432  0.000000  1
