# generated using pymatgen
data_Zr24Si3Se5
_symmetry_space_group_name_H-M   'P 1'
_cell_length_a   11.00386891
_cell_length_b   11.03662092
_cell_length_c   5.47976977
_cell_angle_alpha   89.93314296
_cell_angle_beta   89.81856429
_cell_angle_gamma   90.01100555
_symmetry_Int_Tables_number   1
_chemical_formula_structural   Zr24Si3Se5
_chemical_formula_sum   'Zr24 Si3 Se5'
_cell_volume   665.48974102
_cell_formula_units_Z   1
loop_
 _symmetry_equiv_pos_site_id
 _symmetry_equiv_pos_as_xyz
  1  'x, y, z'
loop_
 _atom_site_type_symbol
 _atom_site_label
 _atom_site_symmetry_multiplicity
 _atom_site_fract_x
 _atom_site_fract_y
 _atom_site_fract_z
 _atom_site_occupancy
  Zr  Zr0  1  0.917544  0.607058  0.545285  1
  Zr  Zr1  1  0.084282  0.394544  0.538715  1
  Zr  Zr2  1  0.896205  0.413826  0.032216  1
  Zr  Zr3  1  0.105912  0.583994  0.039560  1
  Zr  Zr4  1  0.583693  0.896823  0.960047  1
  Zr  Zr5  1  0.416207  0.103281  0.961841  1
  Zr  Zr6  1  0.604316  0.083453  0.461978  1
  Zr  Zr7  1  0.396224  0.916350  0.460885  1
  Zr  Zr8  1  0.863097  0.973511  0.719957  1
  Zr  Zr9  1  0.136521  0.026357  0.719057  1
  Zr  Zr10  1  0.526267  0.362303  0.215893  1
  Zr  Zr11  1  0.472414  0.637374  0.219501  1
  Zr  Zr12  1  0.638572  0.526200  0.782916  1
  Zr  Zr13  1  0.359331  0.473299  0.781334  1
  Zr  Zr14  1  0.972046  0.141184  0.280087  1
  Zr  Zr15  1  0.026034  0.859048  0.282237  1
  Zr  Zr16  1  0.819002  0.715315  0.009779  1
  Zr  Zr17  1  0.180182  0.286896  0.010733  1
  Zr  Zr18  1  0.787162  0.319557  0.515757  1
  Zr  Zr19  1  0.213184  0.680012  0.510399  1
  Zr  Zr20  1  0.682382  0.785375  0.490130  1
  Zr  Zr21  1  0.318480  0.215977  0.486544  1
  Zr  Zr22  1  0.715941  0.181614  0.986358  1
  Zr  Zr23  1  0.283254  0.818579  0.986623  1
  Si  Si24  1  0.294509  0.459177  0.287540  1
  Si  Si25  1  0.960053  0.205500  0.787463  1
  Si  Si26  1  0.040617  0.794564  0.789227  1
  Se  Se27  1  0.793503  0.960439  0.212262  1
  Se  Se28  1  0.206191  0.039667  0.212873  1
  Se  Se29  1  0.538355  0.292465  0.711490  1
  Se  Se30  1  0.459510  0.707243  0.712548  1
  Se  Se31  1  0.709010  0.539015  0.288764  1
