# generated using pymatgen
data_YLu5Al19Si5Os8
_symmetry_space_group_name_H-M   'P 1'
_cell_length_a   8.67104802
_cell_length_b   8.65576478
_cell_length_c   9.54889300
_cell_angle_alpha   90.00000000
_cell_angle_beta   90.00000000
_cell_angle_gamma   120.01686651
_symmetry_Int_Tables_number   1
_chemical_formula_structural   YLu5Al19Si5Os8
_chemical_formula_sum   'Y1 Lu5 Al19 Si5 Os8'
_cell_volume   620.56440129
_cell_formula_units_Z   1
loop_
 _symmetry_equiv_pos_site_id
 _symmetry_equiv_pos_as_xyz
  1  'x, y, z'
loop_
 _atom_site_type_symbol
 _atom_site_label
 _atom_site_symmetry_multiplicity
 _atom_site_fract_x
 _atom_site_fract_y
 _atom_site_fract_z
 _atom_site_occupancy
  Y  Y0  1  0.803232  0.192754  0.750000  1
  Lu  Lu1  1  0.196216  0.392996  0.250000  1
  Lu  Lu2  1  0.802769  0.606063  0.750000  1
  Lu  Lu3  1  0.606278  0.803006  0.250000  1
  Lu  Lu4  1  0.396065  0.195835  0.750000  1
  Lu  Lu5  1  0.196169  0.803015  0.250000  1
  Al  Al6  1  0.165830  0.330661  0.578283  1
  Al  Al7  1  0.835492  0.671462  0.420704  1
  Al  Al8  1  0.670814  0.834071  0.578089  1
  Al  Al9  1  0.835492  0.671462  0.079296  1
  Al  Al10  1  0.329244  0.164359  0.421881  1
  Al  Al11  1  0.165830  0.330661  0.921717  1
  Al  Al12  1  0.163282  0.834994  0.578446  1
  Al  Al13  1  0.329244  0.164359  0.078119  1
  Al  Al14  1  0.834507  0.164491  0.420758  1
  Al  Al15  1  0.670814  0.834071  0.921911  1
  Al  Al16  1  0.834507  0.164491  0.079242  1
  Al  Al17  1  0.163282  0.834994  0.921554  1
  Al  Al18  1  0.562059  0.125096  0.250000  1
  Al  Al19  1  0.872842  0.436392  0.250000  1
  Al  Al20  1  0.126980  0.566888  0.750000  1
  Al  Al21  1  0.562659  0.436194  0.250000  1
  Al  Al22  1  0.439670  0.565689  0.750000  1
  Al  Al23  1  0.999573  0.999488  0.250000  1
  Al  Al24  1  0.002609  0.997551  0.750000  1
  Si  Si25  1  0.332630  0.665801  0.040384  1
  Si  Si26  1  0.667204  0.335069  0.962159  1
  Si  Si27  1  0.667204  0.335069  0.537841  1
  Si  Si28  1  0.332630  0.665801  0.459616  1
  Si  Si29  1  0.435392  0.872667  0.750000  1
  Os  Os30  1  0.498420  0.998249  0.994495  1
  Os  Os31  1  0.001410  0.501833  0.000368  1
  Os  Os32  1  0.498420  0.998249  0.505505  1
  Os  Os33  1  0.499881  0.501056  0.999704  1
  Os  Os34  1  0.001410  0.501833  0.499632  1
  Os  Os35  1  0.499881  0.501056  0.500296  1
  Os  Os36  1  0.000029  0.001138  0.000015  1
  Os  Os37  1  0.000029  0.001138  0.499985  1
