# generated using pymatgen
data_Er12Co6Bi
_symmetry_space_group_name_H-M   'P 1'
_cell_length_a   8.32234933
_cell_length_b   8.32234884
_cell_length_c   8.32235000
_cell_angle_alpha   109.47122590
_cell_angle_beta   109.47122470
_cell_angle_gamma   109.47121777
_symmetry_Int_Tables_number   1
_chemical_formula_structural   Er12Co6Bi
_chemical_formula_sum   'Er12 Co6 Bi1'
_cell_volume   443.72705349
_cell_formula_units_Z   1
loop_
 _symmetry_equiv_pos_site_id
 _symmetry_equiv_pos_as_xyz
  1  'x, y, z'
loop_
 _atom_site_type_symbol
 _atom_site_label
 _atom_site_symmetry_multiplicity
 _atom_site_fract_x
 _atom_site_fract_y
 _atom_site_fract_z
 _atom_site_occupancy
  Er  Er0  1  0.804041  0.694394  0.498435  1
  Er  Er1  1  0.195959  0.305606  0.501565  1
  Er  Er2  1  0.195959  0.694394  0.890355  1
  Er  Er3  1  0.804041  0.305606  0.109645  1
  Er  Er4  1  0.694394  0.498435  0.804041  1
  Er  Er5  1  0.305606  0.501565  0.195959  1
  Er  Er6  1  0.694394  0.890355  0.195959  1
  Er  Er7  1  0.305606  0.109645  0.804041  1
  Er  Er8  1  0.498435  0.804041  0.694394  1
  Er  Er9  1  0.501565  0.195959  0.305606  1
  Er  Er10  1  0.109645  0.804041  0.305606  1
  Er  Er11  1  0.890355  0.195959  0.694394  1
  Co  Co12  1  0.886697  0.386697  0.500000  1
  Co  Co13  1  0.113303  0.613303  0.500000  1
  Co  Co14  1  0.386697  0.500000  0.886697  1
  Co  Co15  1  0.613303  0.500000  0.113303  1
  Co  Co16  1  0.500000  0.886697  0.386697  1
  Co  Co17  1  0.500000  0.113303  0.613303  1
  Bi  Bi18  1  0.000000  0.000000  0.000000  1
