# generated using pymatgen
data_Lu12ZnCdFe3
_symmetry_space_group_name_H-M   'P 1'
_cell_length_a   8.11631760
_cell_length_b   8.11619912
_cell_length_c   8.11631919
_cell_angle_alpha   107.86539801
_cell_angle_beta   108.87139560
_cell_angle_gamma   111.70223751
_symmetry_Int_Tables_number   1
_chemical_formula_structural   Lu12ZnCdFe3
_chemical_formula_sum   'Lu12 Zn1 Cd1 Fe3'
_cell_volume   411.07150820
_cell_formula_units_Z   1
loop_
 _symmetry_equiv_pos_site_id
 _symmetry_equiv_pos_as_xyz
  1  'x, y, z'
loop_
 _atom_site_type_symbol
 _atom_site_label
 _atom_site_symmetry_multiplicity
 _atom_site_fract_x
 _atom_site_fract_y
 _atom_site_fract_z
 _atom_site_occupancy
  Lu  Lu0  1  0.309474  0.308222  0.617693  1
  Lu  Lu1  1  0.690526  0.691778  0.382307  1
  Lu  Lu2  1  0.690530  0.308222  0.998749  1
  Lu  Lu3  1  0.309470  0.691778  0.001251  1
  Lu  Lu4  1  0.187999  0.418717  0.230718  1
  Lu  Lu5  1  0.812001  0.581283  0.769282  1
  Lu  Lu6  1  0.187983  0.957257  0.769276  1
  Lu  Lu7  1  0.942165  0.189023  0.753151  1
  Lu  Lu8  1  0.812017  0.042743  0.230724  1
  Lu  Lu9  1  0.057835  0.810977  0.246849  1
  Lu  Lu10  1  0.435872  0.189023  0.246857  1
  Lu  Lu11  1  0.564128  0.810977  0.753143  1
  Zn  Zn12  1  0.500000  0.000000  0.500000  1
  Cd  Cd13  1  0.000000  0.500000  0.500000  1
  Fe  Fe14  1  0.380882  0.380889  0.000006  1
  Fe  Fe15  1  0.619118  0.619111  0.999994  1
  Fe  Fe16  1  0.000000  0.000000  0.000000  1
