# generated using pymatgen
data_Th2Zn4GeAu
_symmetry_space_group_name_H-M   'P 1'
_cell_length_a   8.35718235
_cell_length_b   8.35718171
_cell_length_c   8.91776600
_cell_angle_alpha   90.50712872
_cell_angle_beta   89.49287132
_cell_angle_gamma   149.33765373
_symmetry_Int_Tables_number   1
_chemical_formula_structural   Th2Zn4GeAu
_chemical_formula_sum   'Th4 Zn8 Ge2 Au2'
_cell_volume   317.62063974
_cell_formula_units_Z   2
loop_
 _symmetry_equiv_pos_site_id
 _symmetry_equiv_pos_as_xyz
  1  'x, y, z'
loop_
 _atom_site_type_symbol
 _atom_site_label
 _atom_site_symmetry_multiplicity
 _atom_site_fract_x
 _atom_site_fract_y
 _atom_site_fract_z
 _atom_site_occupancy
  Th  Th0  1  0.203211  0.796789  0.252227  1
  Th  Th1  1  0.796789  0.203211  0.747773  1
  Th  Th2  1  0.000000  0.000000  0.500000  1
  Th  Th3  1  0.000000  0.000000  0.000000  1
  Zn  Zn4  1  0.809783  0.190217  0.088292  1
  Zn  Zn5  1  0.190217  0.809783  0.911708  1
  Zn  Zn6  1  0.656954  0.343046  0.478280  1
  Zn  Zn7  1  0.343046  0.656954  0.521720  1
  Zn  Zn8  1  0.647844  0.352156  0.022379  1
  Zn  Zn9  1  0.352156  0.647844  0.977621  1
  Zn  Zn10  1  0.404631  0.595369  0.245340  1
  Zn  Zn11  1  0.595369  0.404631  0.754660  1
  Ge  Ge12  1  0.558457  0.441543  0.254614  1
  Ge  Ge13  1  0.441543  0.558457  0.745386  1
  Au  Au14  1  0.824863  0.175137  0.375621  1
  Au  Au15  1  0.175137  0.824863  0.624379  1
