# generated using pymatgen
data_Cs2NaV3F12
_symmetry_space_group_name_H-M   'P 1'
_cell_length_a   7.65141102
_cell_length_b   7.65141114
_cell_length_c   7.65141016
_cell_angle_alpha   59.77740972
_cell_angle_beta   59.77740633
_cell_angle_gamma   59.77740873
_symmetry_Int_Tables_number   1
_chemical_formula_structural   Cs2NaV3F12
_chemical_formula_sum   'Cs2 Na1 V3 F12'
_cell_volume   315.14410221
_cell_formula_units_Z   1
loop_
 _symmetry_equiv_pos_site_id
 _symmetry_equiv_pos_as_xyz
  1  'x, y, z'
loop_
 _atom_site_type_symbol
 _atom_site_label
 _atom_site_symmetry_multiplicity
 _atom_site_fract_x
 _atom_site_fract_y
 _atom_site_fract_z
 _atom_site_occupancy
  Cs  Cs0  1  0.628440  0.628440  0.628440  1
  Cs  Cs1  1  0.371560  0.371560  0.371560  1
  Na  Na2  1  0.000000  0.000000  0.000000  1
  V  V3  1  0.500000  0.000000  0.000000  1
  V  V4  1  0.000000  0.500000  0.000000  1
  V  V5  1  0.000000  0.000000  0.500000  1
  F  F6  1  0.920159  0.304392  0.304392  1
  F  F7  1  0.085772  0.085772  0.633405  1
  F  F8  1  0.085772  0.633405  0.085772  1
  F  F9  1  0.914228  0.366595  0.914228  1
  F  F10  1  0.914228  0.914228  0.366595  1
  F  F11  1  0.633405  0.085772  0.085772  1
  F  F12  1  0.304392  0.304392  0.920159  1
  F  F13  1  0.304392  0.920159  0.304392  1
  F  F14  1  0.695608  0.079841  0.695608  1
  F  F15  1  0.079841  0.695608  0.695608  1
  F  F16  1  0.695608  0.695608  0.079841  1
  F  F17  1  0.366595  0.914228  0.914228  1
