# generated using pymatgen
data_Mn8Tc3Mo
_symmetry_space_group_name_H-M   'P 1'
_cell_length_a   4.67591900
_cell_length_b   4.67591733
_cell_length_c   7.66404200
_cell_angle_alpha   90.00000000
_cell_angle_beta   90.00000000
_cell_angle_gamma   120.00000474
_symmetry_Int_Tables_number   1
_chemical_formula_structural   Mn8Tc3Mo
_chemical_formula_sum   'Mn8 Tc3 Mo1'
_cell_volume   145.11833623
_cell_formula_units_Z   1
loop_
 _symmetry_equiv_pos_site_id
 _symmetry_equiv_pos_as_xyz
  1  'x, y, z'
loop_
 _atom_site_type_symbol
 _atom_site_label
 _atom_site_symmetry_multiplicity
 _atom_site_fract_x
 _atom_site_fract_y
 _atom_site_fract_z
 _atom_site_occupancy
  Mn  Mn0  1  0.173096  0.346191  0.749325  1
  Mn  Mn1  1  0.826414  0.173586  0.251552  1
  Mn  Mn2  1  0.347173  0.173586  0.251552  1
  Mn  Mn3  1  0.653809  0.826904  0.749325  1
  Mn  Mn4  1  0.000000  0.000000  0.001665  1
  Mn  Mn5  1  0.000000  0.000000  0.499993  1
  Mn  Mn6  1  0.826414  0.652827  0.251552  1
  Mn  Mn7  1  0.173096  0.826904  0.749325  1
  Tc  Tc8  1  0.333333  0.666667  0.433395  1
  Tc  Tc9  1  0.666667  0.333333  0.930024  1
  Tc  Tc10  1  0.666667  0.333333  0.567809  1
  Mo  Mo11  1  0.333333  0.666667  0.064480  1
