# generated using pymatgen
data_LiCu(BrO3)4
_symmetry_space_group_name_H-M   'P 1'
_cell_length_a   4.84624304
_cell_length_b   6.42145836
_cell_length_c   8.39507105
_cell_angle_alpha   83.07798293
_cell_angle_beta   88.02971574
_cell_angle_gamma   88.87742476
_symmetry_Int_Tables_number   1
_chemical_formula_structural   LiCu(BrO3)4
_chemical_formula_sum   'Li1 Cu1 Br4 O12'
_cell_volume   259.16516816
_cell_formula_units_Z   1
loop_
 _symmetry_equiv_pos_site_id
 _symmetry_equiv_pos_as_xyz
  1  'x, y, z'
loop_
 _atom_site_type_symbol
 _atom_site_label
 _atom_site_symmetry_multiplicity
 _atom_site_fract_x
 _atom_site_fract_y
 _atom_site_fract_z
 _atom_site_occupancy
  Li  Li0  1  0.500000  0.000000  0.500000  1
  Cu  Cu1  1  0.500000  0.500000  0.500000  1
  Br  Br2  1  0.562757  0.800586  0.159611  1
  Br  Br3  1  0.025660  0.294280  0.271548  1
  Br  Br4  1  0.974340  0.705720  0.728452  1
  Br  Br5  1  0.437243  0.199414  0.840389  1
  O  O6  1  0.753281  0.622439  0.076054  1
  O  O7  1  0.717599  0.030545  0.112804  1
  O  O8  1  0.225878  0.492609  0.322626  1
  O  O9  1  0.196721  0.073995  0.327891  1
  O  O10  1  0.645037  0.755035  0.367224  1
  O  O11  1  0.749813  0.278599  0.409807  1
  O  O12  1  0.250187  0.721401  0.590193  1
  O  O13  1  0.354963  0.244965  0.632776  1
  O  O14  1  0.803279  0.926005  0.672109  1
  O  O15  1  0.774122  0.507391  0.677374  1
  O  O16  1  0.282401  0.969455  0.887196  1
  O  O17  1  0.246719  0.377561  0.923946  1
