# generated using pymatgen
data_Tb3Y7In8(PdAu)2
_symmetry_space_group_name_H-M   'P 1'
_cell_length_a   3.66331800
_cell_length_b   8.20415339
_cell_length_c   18.41620194
_cell_angle_alpha   89.94682658
_cell_angle_beta   90.00000000
_cell_angle_gamma   90.00000000
_symmetry_Int_Tables_number   1
_chemical_formula_structural   Tb3Y7In8(PdAu)2
_chemical_formula_sum   'Tb3 Y7 In8 Pd2 Au2'
_cell_volume   553.48808062
_cell_formula_units_Z   1
loop_
 _symmetry_equiv_pos_site_id
 _symmetry_equiv_pos_as_xyz
  1  'x, y, z'
loop_
 _atom_site_type_symbol
 _atom_site_label
 _atom_site_symmetry_multiplicity
 _atom_site_fract_x
 _atom_site_fract_y
 _atom_site_fract_z
 _atom_site_occupancy
  Tb  Tb0  1  0.500000  0.246751  0.783710  1
  Tb  Tb1  1  0.500000  0.753182  0.216286  1
  Tb  Tb2  1  0.500000  0.266930  0.280285  1
  Y  Y3  1  0.500000  0.733259  0.719561  1
  Y  Y4  1  0.500000  0.120692  0.580154  1
  Y  Y5  1  0.500000  0.879445  0.419931  1
  Y  Y6  1  0.500000  0.383214  0.082417  1
  Y  Y7  1  0.500000  0.616743  0.917473  1
  Y  Y8  1  0.500000  0.999908  0.999987  1
  Y  Y9  1  0.500000  0.500080  0.499961  1
  In  In10  1  0.000000  0.082253  0.148083  1
  In  In11  1  0.000000  0.917672  0.851875  1
  In  In12  1  0.000000  0.422339  0.649430  1
  In  In13  1  0.000000  0.577814  0.350608  1
  In  In14  1  0.000000  0.210362  0.432369  1
  In  In15  1  0.000000  0.789716  0.567829  1
  In  In16  1  0.000000  0.291985  0.932898  1
  In  In17  1  0.000000  0.708058  0.067065  1
  Pd  Pd18  1  0.000000  0.473779  0.196207  1
  Pd  Pd19  1  0.000000  0.525893  0.803868  1
  Au  Au20  1  0.000000  0.028107  0.697460  1
  Au  Au21  1  0.000000  0.971819  0.302545  1
