# generated using pymatgen
data_Pr8Lu12Ga15Ge
_symmetry_space_group_name_H-M   'P 1'
_cell_length_a   7.64315100
_cell_length_b   7.87720275
_cell_length_c   15.10430500
_cell_angle_alpha   90.00000000
_cell_angle_beta   90.00000000
_cell_angle_gamma   90.05593415
_symmetry_Int_Tables_number   1
_chemical_formula_structural   Pr8Lu12Ga15Ge
_chemical_formula_sum   'Pr8 Lu12 Ga15 Ge1'
_cell_volume   909.37917286
_cell_formula_units_Z   1
loop_
 _symmetry_equiv_pos_site_id
 _symmetry_equiv_pos_as_xyz
  1  'x, y, z'
loop_
 _atom_site_type_symbol
 _atom_site_label
 _atom_site_symmetry_multiplicity
 _atom_site_fract_x
 _atom_site_fract_y
 _atom_site_fract_z
 _atom_site_occupancy
  Pr  Pr0  1  0.013975  0.176861  0.095586  1
  Pr  Pr1  1  0.985952  0.821965  0.904069  1
  Pr  Pr2  1  0.485314  0.677014  0.904291  1
  Pr  Pr3  1  0.985952  0.821965  0.595931  1
  Pr  Pr4  1  0.513803  0.322429  0.095045  1
  Pr  Pr5  1  0.013975  0.176861  0.404414  1
  Pr  Pr6  1  0.513803  0.322429  0.404955  1
  Pr  Pr7  1  0.485314  0.677014  0.595709  1
  Lu  Lu8  1  0.161726  0.503036  0.750000  1
  Lu  Lu9  1  0.836276  0.495596  0.250000  1
  Lu  Lu10  1  0.336823  0.003934  0.250000  1
  Lu  Lu11  1  0.663403  0.995020  0.750000  1
  Lu  Lu12  1  0.330622  0.173350  0.622677  1
  Lu  Lu13  1  0.670555  0.827376  0.376533  1
  Lu  Lu14  1  0.170612  0.673176  0.376246  1
  Lu  Lu15  1  0.670555  0.827376  0.123467  1
  Lu  Lu16  1  0.828394  0.328638  0.622868  1
  Lu  Lu17  1  0.330622  0.173350  0.877323  1
  Lu  Lu18  1  0.828394  0.328638  0.877132  1
  Lu  Lu19  1  0.170612  0.673176  0.123754  1
  Ga  Ga20  1  0.033409  0.118797  0.750000  1
  Ga  Ga21  1  0.966538  0.883014  0.250000  1
  Ga  Ga22  1  0.466447  0.617208  0.250000  1
  Ga  Ga23  1  0.532145  0.384671  0.750000  1
  Ga  Ga24  1  0.284350  0.878363  0.750000  1
  Ga  Ga25  1  0.717097  0.123114  0.250000  1
  Ga  Ga26  1  0.217238  0.377032  0.250000  1
  Ga  Ga27  1  0.155843  0.464568  0.540139  1
  Ga  Ga28  1  0.843769  0.535634  0.460116  1
  Ga  Ga29  1  0.343570  0.962997  0.460671  1
  Ga  Ga30  1  0.843769  0.535634  0.039884  1
  Ga  Ga31  1  0.657446  0.035146  0.540394  1
  Ga  Ga32  1  0.155843  0.464568  0.959861  1
  Ga  Ga33  1  0.657446  0.035146  0.959606  1
  Ga  Ga34  1  0.343570  0.962997  0.039329  1
  Ge  Ge35  1  0.784844  0.621908  0.750000  1
