# generated using pymatgen
data_Y7Sc3(In2Rh)4
_symmetry_space_group_name_H-M   'P 1'
_cell_length_a   3.60042800
_cell_length_b   7.96962374
_cell_length_c   17.98479726
_cell_angle_alpha   90.26207365
_cell_angle_beta   90.00000000
_cell_angle_gamma   90.00000000
_symmetry_Int_Tables_number   1
_chemical_formula_structural   Y7Sc3(In2Rh)4
_chemical_formula_sum   'Y7 Sc3 In8 Rh4'
_cell_volume   516.05138979
_cell_formula_units_Z   1
loop_
 _symmetry_equiv_pos_site_id
 _symmetry_equiv_pos_as_xyz
  1  'x, y, z'
loop_
 _atom_site_type_symbol
 _atom_site_label
 _atom_site_symmetry_multiplicity
 _atom_site_fract_x
 _atom_site_fract_y
 _atom_site_fract_z
 _atom_site_occupancy
  Y  Y0  1  0.000000  0.999325  0.000572  1
  Y  Y1  1  0.000000  0.499939  0.497949  1
  Y  Y2  1  0.000000  0.753051  0.786337  1
  Y  Y3  1  0.000000  0.246937  0.214099  1
  Y  Y4  1  0.000000  0.249272  0.720110  1
  Y  Y5  1  0.000000  0.748508  0.281360  1
  Y  Y6  1  0.000000  0.877347  0.587713  1
  Sc  Sc7  1  0.000000  0.121332  0.406795  1
  Sc  Sc8  1  0.000000  0.380768  0.909411  1
  Sc  Sc9  1  0.000000  0.618950  0.091308  1
  In  In10  1  0.500000  0.808792  0.432649  1
  In  In11  1  0.500000  0.201010  0.563459  1
  In  In12  1  0.500000  0.312299  0.059876  1
  In  In13  1  0.500000  0.686345  0.940951  1
  In  In14  1  0.500000  0.917170  0.150304  1
  In  In15  1  0.500000  0.082376  0.852113  1
  In  In16  1  0.500000  0.419269  0.346710  1
  In  In17  1  0.500000  0.570217  0.653169  1
  Rh  Rh18  1  0.500000  0.970102  0.696816  1
  Rh  Rh19  1  0.500000  0.037085  0.307663  1
  Rh  Rh20  1  0.500000  0.466569  0.810758  1
  Rh  Rh21  1  0.500000  0.533337  0.189877  1
