# generated using pymatgen
data_CaU3(ReB6)2
_symmetry_space_group_name_H-M   'P 1'
_cell_length_a   3.64362200
_cell_length_b   9.29459384
_cell_length_c   11.40371300
_cell_angle_alpha   89.88192716
_cell_angle_beta   90.00000000
_cell_angle_gamma   90.00000000
_symmetry_Int_Tables_number   1
_chemical_formula_structural   CaU3(ReB6)2
_chemical_formula_sum   'Ca2 U6 Re4 B24'
_cell_volume   386.19717137
_cell_formula_units_Z   2
loop_
 _symmetry_equiv_pos_site_id
 _symmetry_equiv_pos_as_xyz
  1  'x, y, z'
loop_
 _atom_site_type_symbol
 _atom_site_label
 _atom_site_symmetry_multiplicity
 _atom_site_fract_x
 _atom_site_fract_y
 _atom_site_fract_z
 _atom_site_occupancy
  Ca  Ca0  1  0.000000  0.337802  0.408947  1
  Ca  Ca1  1  0.000000  0.662198  0.591053  1
  U  U2  1  0.000000  0.836252  0.092898  1
  U  U3  1  0.000000  0.163748  0.907102  1
  U  U4  1  0.000000  0.956097  0.396735  1
  U  U5  1  0.000000  0.043903  0.603265  1
  U  U6  1  0.000000  0.457397  0.104079  1
  U  U7  1  0.000000  0.542603  0.895921  1
  Re  Re8  1  0.000000  0.649215  0.313786  1
  Re  Re9  1  0.000000  0.350785  0.686214  1
  Re  Re10  1  0.000000  0.142539  0.176498  1
  Re  Re11  1  0.000000  0.857461  0.823502  1
  B  B12  1  0.500000  0.552752  0.430155  1
  B  B13  1  0.500000  0.447248  0.569845  1
  B  B14  1  0.500000  0.049873  0.067410  1
  B  B15  1  0.500000  0.950127  0.932590  1
  B  B16  1  0.500000  0.742929  0.422323  1
  B  B17  1  0.500000  0.257071  0.577677  1
  B  B18  1  0.500000  0.242681  0.076351  1
  B  B19  1  0.500000  0.757319  0.923649  1
  B  B20  1  0.500000  0.803828  0.273253  1
  B  B21  1  0.500000  0.196172  0.726747  1
  B  B22  1  0.500000  0.301351  0.224651  1
  B  B23  1  0.500000  0.698649  0.775349  1
  B  B24  1  0.500000  0.645445  0.187482  1
  B  B25  1  0.500000  0.354555  0.812518  1
  B  B26  1  0.500000  0.143655  0.311001  1
  B  B27  1  0.500000  0.856345  0.688999  1
  B  B28  1  0.500000  0.987389  0.218944  1
  B  B29  1  0.500000  0.012611  0.781056  1
  B  B30  1  0.500000  0.489494  0.280805  1
  B  B31  1  0.500000  0.510506  0.719195  1
  B  B32  1  0.500000  0.643170  0.039088  1
  B  B33  1  0.500000  0.356830  0.960912  1
  B  B34  1  0.500000  0.137750  0.461457  1
  B  B35  1  0.500000  0.862250  0.538543  1
