# generated using pymatgen
data_Li8Tb7HoSn7Bi
_symmetry_space_group_name_H-M   'P 1'
_cell_length_a   9.43513600
_cell_length_b   9.43481802
_cell_length_c   7.31259801
_cell_angle_alpha   90.09690338
_cell_angle_beta   89.99984768
_cell_angle_gamma   119.99607242
_symmetry_Int_Tables_number   1
_chemical_formula_structural   Li8Tb7HoSn7Bi
_chemical_formula_sum   'Li8 Tb7 Ho1 Sn7 Bi1'
_cell_volume   563.76795153
_cell_formula_units_Z   1
loop_
 _symmetry_equiv_pos_site_id
 _symmetry_equiv_pos_as_xyz
  1  'x, y, z'
loop_
 _atom_site_type_symbol
 _atom_site_label
 _atom_site_symmetry_multiplicity
 _atom_site_fract_x
 _atom_site_fract_y
 _atom_site_fract_z
 _atom_site_occupancy
  Li  Li0  1  0.166544  0.333171  0.284572  1
  Li  Li1  1  0.168000  0.833677  0.288344  1
  Li  Li2  1  0.665615  0.833716  0.288291  1
  Li  Li3  1  0.833508  0.666884  0.786985  1
  Li  Li4  1  0.829254  0.164739  0.791338  1
  Li  Li5  1  0.335532  0.164701  0.791283  1
  Li  Li6  1  0.335309  0.670627  0.669766  1
  Li  Li7  1  0.666009  0.332057  0.171887  1
  Tb  Tb8  1  0.512523  0.024949  0.493815  1
  Tb  Tb9  1  0.516965  0.490825  0.491104  1
  Tb  Tb10  1  0.973951  0.490822  0.491020  1
  Tb  Tb11  1  0.487517  0.975103  0.994701  1
  Tb  Tb12  1  0.493425  0.514346  0.996502  1
  Tb  Tb13  1  0.020823  0.514316  0.996441  1
  Tb  Tb14  1  0.997347  0.994729  0.497074  1
  Ho  Ho15  1  0.997722  0.995423  0.002400  1
  Sn  Sn16  1  0.166520  0.833069  0.730520  1
  Sn  Sn17  1  0.666586  0.833071  0.730387  1
  Sn  Sn18  1  0.833388  0.666847  0.230738  1
  Sn  Sn19  1  0.834100  0.167227  0.229752  1
  Sn  Sn20  1  0.333075  0.167184  0.229767  1
  Sn  Sn21  1  0.332652  0.665335  0.260977  1
  Sn  Sn22  1  0.667012  0.334004  0.761493  1
  Bi  Bi23  1  0.166626  0.333180  0.732811  1
