# generated using pymatgen
data_Mg2Bi2PtRh3O14
_symmetry_space_group_name_H-M   'P 1'
_cell_length_a   7.16966897
_cell_length_b   7.26050934
_cell_length_c   7.16966915
_cell_angle_alpha   59.15007833
_cell_angle_beta   58.80123140
_cell_angle_gamma   59.15008051
_symmetry_Int_Tables_number   1
_chemical_formula_structural   Mg2Bi2PtRh3O14
_chemical_formula_sum   'Mg2 Bi2 Pt1 Rh3 O14'
_cell_volume   258.08484769
_cell_formula_units_Z   1
loop_
 _symmetry_equiv_pos_site_id
 _symmetry_equiv_pos_as_xyz
  1  'x, y, z'
loop_
 _atom_site_type_symbol
 _atom_site_label
 _atom_site_symmetry_multiplicity
 _atom_site_fract_x
 _atom_site_fract_y
 _atom_site_fract_z
 _atom_site_occupancy
  Mg  Mg0  1  0.125000  0.125000  0.625000  1
  Mg  Mg1  1  0.625000  0.125000  0.125000  1
  Bi  Bi2  1  0.125000  0.625000  0.125000  1
  Bi  Bi3  1  0.125000  0.125000  0.125000  1
  Pt  Pt4  1  0.625000  0.125000  0.625000  1
  Rh  Rh5  1  0.625000  0.625000  0.125000  1
  Rh  Rh6  1  0.125000  0.625000  0.625000  1
  Rh  Rh7  1  0.625000  0.625000  0.625000  1
  O  O8  1  0.260725  0.237186  0.260725  1
  O  O9  1  0.989275  0.012814  0.989275  1
  O  O10  1  0.542165  0.956153  0.542165  1
  O  O11  1  0.287189  0.713981  0.287189  1
  O  O12  1  0.538175  0.536587  0.964450  1
  O  O13  1  0.964450  0.536587  0.538175  1
  O  O14  1  0.540047  0.964691  0.966810  1
  O  O15  1  0.966810  0.964691  0.540047  1
  O  O16  1  0.962811  0.536019  0.962811  1
  O  O17  1  0.709953  0.285309  0.283190  1
  O  O18  1  0.285550  0.713413  0.711825  1
  O  O19  1  0.707835  0.293847  0.707835  1
  O  O20  1  0.283190  0.285309  0.709953  1
  O  O21  1  0.711825  0.713413  0.285550  1
