# generated using pymatgen
data_Y3Tm(Co2O5)4
_symmetry_space_group_name_H-M   'P 1'
_cell_length_a   5.68736400
_cell_length_b   7.22190425
_cell_length_c   8.37394905
_cell_angle_alpha   90.25060664
_cell_angle_beta   90.00000000
_cell_angle_gamma   90.00000000
_symmetry_Int_Tables_number   1
_chemical_formula_structural   Y3Tm(Co2O5)4
_chemical_formula_sum   'Y3 Tm1 Co8 O20'
_cell_volume   343.94492890
_cell_formula_units_Z   1
loop_
 _symmetry_equiv_pos_site_id
 _symmetry_equiv_pos_as_xyz
  1  'x, y, z'
loop_
 _atom_site_type_symbol
 _atom_site_label
 _atom_site_symmetry_multiplicity
 _atom_site_fract_x
 _atom_site_fract_y
 _atom_site_fract_z
 _atom_site_occupancy
  Y  Y0  1  0.500000  0.362385  0.327257  1
  Y  Y1  1  0.500000  0.638428  0.671733  1
  Y  Y2  1  0.500000  0.137984  0.828864  1
  Tm  Tm3  1  0.500000  0.860510  0.172892  1
  Co  Co4  1  0.000000  0.085459  0.150745  1
  Co  Co5  1  0.000000  0.906894  0.850790  1
  Co  Co6  1  0.000000  0.408555  0.650387  1
  Co  Co7  1  0.000000  0.593161  0.348557  1
  Co  Co8  1  0.244690  0.999479  0.500177  1
  Co  Co9  1  0.755310  0.999479  0.500177  1
  Co  Co10  1  0.755646  0.501148  0.999882  1
  Co  Co11  1  0.244354  0.501148  0.999882  1
  O  O12  1  0.226456  0.997454  0.001826  1
  O  O13  1  0.773544  0.997454  0.001826  1
  O  O14  1  0.775355  0.499976  0.499268  1
  O  O15  1  0.224645  0.499976  0.499268  1
  O  O16  1  0.000000  0.351778  0.067692  1
  O  O17  1  0.000000  0.654026  0.930713  1
  O  O18  1  0.000000  0.153094  0.567940  1
  O  O19  1  0.000000  0.848001  0.432445  1
  O  O20  1  0.500000  0.337408  0.054572  1
  O  O21  1  0.500000  0.663170  0.947974  1
  O  O22  1  0.500000  0.162017  0.553552  1
  O  O23  1  0.500000  0.836739  0.443177  1
  O  O24  1  0.255798  0.099868  0.292257  1
  O  O25  1  0.744617  0.896897  0.706834  1
  O  O26  1  0.255383  0.896897  0.706834  1
  O  O27  1  0.744129  0.397078  0.793209  1
  O  O28  1  0.744202  0.099868  0.292257  1
  O  O29  1  0.256845  0.608293  0.206901  1
  O  O30  1  0.743155  0.608293  0.206901  1
  O  O31  1  0.255871  0.397078  0.793209  1
