# generated using pymatgen
data_TbScTa3P7Rh9
_symmetry_space_group_name_H-M   'P 1'
_cell_length_a   3.90328800
_cell_length_b   9.61791539
_cell_length_c   9.61776000
_cell_angle_alpha   120.00043556
_cell_angle_beta   89.99968994
_cell_angle_gamma   90.00032543
_symmetry_Int_Tables_number   1
_chemical_formula_structural   TbScTa3P7Rh9
_chemical_formula_sum   'Tb1 Sc1 Ta3 P7 Rh9'
_cell_volume   312.69015656
_cell_formula_units_Z   1
loop_
 _symmetry_equiv_pos_site_id
 _symmetry_equiv_pos_as_xyz
  1  'x, y, z'
loop_
 _atom_site_type_symbol
 _atom_site_label
 _atom_site_symmetry_multiplicity
 _atom_site_fract_x
 _atom_site_fract_y
 _atom_site_fract_z
 _atom_site_occupancy
  Tb  Tb0  1  0.261458  0.666672  0.333341  1
  Sc  Sc1  1  0.762265  0.333342  0.666663  1
  Ta  Ta2  1  0.761941  0.095544  0.872817  1
  Ta  Ta3  1  0.761946  0.127181  0.222731  1
  Ta  Ta4  1  0.761953  0.777255  0.904448  1
  P  P5  1  0.262152  0.999989  0.000001  1
  P  P6  1  0.761686  0.877008  0.588814  1
  P  P7  1  0.761667  0.411189  0.288173  1
  P  P8  1  0.761691  0.711820  0.123012  1
  P  P9  1  0.261998  0.119605  0.418741  1
  P  P10  1  0.261996  0.581255  0.700865  1
  P  P11  1  0.261979  0.299140  0.880407  1
  Rh  Rh12  1  0.261864  0.884831  0.161498  1
  Rh  Rh13  1  0.261866  0.838503  0.723346  1
  Rh  Rh14  1  0.261845  0.276651  0.115161  1
  Rh  Rh15  1  0.761917  0.610793  0.558377  1
  Rh  Rh16  1  0.761909  0.441605  0.052395  1
  Rh  Rh17  1  0.761926  0.947623  0.389212  1
  Rh  Rh18  1  0.261972  0.366913  0.441588  1
  Rh  Rh19  1  0.261979  0.558404  0.925329  1
  Rh  Rh20  1  0.261992  0.074677  0.633081  1
