# generated using pymatgen
data_Hf18CrRe7PtS
_symmetry_space_group_name_H-M   'P 1'
_cell_length_a   8.62312100
_cell_length_b   8.62312088
_cell_length_c   8.49761600
_cell_angle_alpha   90.00000000
_cell_angle_beta   90.00000000
_cell_angle_gamma   119.99999661
_symmetry_Int_Tables_number   1
_chemical_formula_structural   Hf18CrRe7PtS
_chemical_formula_sum   'Hf18 Cr1 Re7 Pt1 S1'
_cell_volume   547.21337367
_cell_formula_units_Z   1
loop_
 _symmetry_equiv_pos_site_id
 _symmetry_equiv_pos_as_xyz
  1  'x, y, z'
loop_
 _atom_site_type_symbol
 _atom_site_label
 _atom_site_symmetry_multiplicity
 _atom_site_fract_x
 _atom_site_fract_y
 _atom_site_fract_z
 _atom_site_occupancy
  Hf  Hf0  1  0.191577  0.808423  0.446814  1
  Hf  Hf1  1  0.191577  0.383154  0.446814  1
  Hf  Hf2  1  0.616846  0.808423  0.446814  1
  Hf  Hf3  1  0.805489  0.194511  0.551422  1
  Hf  Hf4  1  0.805489  0.610977  0.551422  1
  Hf  Hf5  1  0.389023  0.194511  0.551422  1
  Hf  Hf6  1  0.804697  0.195303  0.948274  1
  Hf  Hf7  1  0.804697  0.609395  0.948274  1
  Hf  Hf8  1  0.390605  0.195303  0.948274  1
  Hf  Hf9  1  0.193092  0.806908  0.053371  1
  Hf  Hf10  1  0.193092  0.386182  0.053371  1
  Hf  Hf11  1  0.613818  0.806908  0.053371  1
  Hf  Hf12  1  0.542446  0.457554  0.249873  1
  Hf  Hf13  1  0.542446  0.084891  0.249873  1
  Hf  Hf14  1  0.915109  0.457554  0.249873  1
  Hf  Hf15  1  0.455129  0.544871  0.749836  1
  Hf  Hf16  1  0.455129  0.910258  0.749836  1
  Hf  Hf17  1  0.089742  0.544871  0.749836  1
  Cr  Cr18  1  0.000000  0.000000  0.498872  1
  Re  Re19  1  0.890065  0.109935  0.254541  1
  Re  Re20  1  0.890065  0.780130  0.254541  1
  Re  Re21  1  0.219870  0.109935  0.254541  1
  Re  Re22  1  0.108867  0.891133  0.746082  1
  Re  Re23  1  0.108867  0.217733  0.746082  1
  Re  Re24  1  0.782267  0.891133  0.746082  1
  Re  Re25  1  0.000000  0.000000  0.001308  1
  Pt  Pt26  1  0.333333  0.666667  0.249552  1
  S  S27  1  0.666667  0.333333  0.749631  1
