# generated using pymatgen
data_Dy4CoHg
_symmetry_space_group_name_H-M   'P 1'
_cell_length_a   9.44168160
_cell_length_b   9.44168199
_cell_length_c   9.44168200
_cell_angle_alpha   59.99999998
_cell_angle_beta   59.99999858
_cell_angle_gamma   59.99999843
_symmetry_Int_Tables_number   1
_chemical_formula_structural   Dy4CoHg
_chemical_formula_sum   'Dy16 Co4 Hg4'
_cell_volume   595.15910323
_cell_formula_units_Z   4
loop_
 _symmetry_equiv_pos_site_id
 _symmetry_equiv_pos_as_xyz
  1  'x, y, z'
loop_
 _atom_site_type_symbol
 _atom_site_label
 _atom_site_symmetry_multiplicity
 _atom_site_fract_x
 _atom_site_fract_y
 _atom_site_fract_z
 _atom_site_occupancy
  Dy  Dy0  1  0.598186  0.598186  0.598186  1
  Dy  Dy1  1  0.598186  0.598186  0.205442  1
  Dy  Dy2  1  0.598186  0.205442  0.598186  1
  Dy  Dy3  1  0.205442  0.598186  0.598186  1
  Dy  Dy4  1  0.061400  0.438600  0.438600  1
  Dy  Dy5  1  0.438600  0.061400  0.061400  1
  Dy  Dy6  1  0.438600  0.061400  0.438600  1
  Dy  Dy7  1  0.061400  0.438600  0.061400  1
  Dy  Dy8  1  0.438600  0.438600  0.061400  1
  Dy  Dy9  1  0.061400  0.061400  0.438600  1
  Dy  Dy10  1  0.188418  0.811582  0.811582  1
  Dy  Dy11  1  0.811582  0.188418  0.188418  1
  Dy  Dy12  1  0.811582  0.188418  0.811582  1
  Dy  Dy13  1  0.188418  0.811582  0.188418  1
  Dy  Dy14  1  0.811582  0.811582  0.188418  1
  Dy  Dy15  1  0.188418  0.188418  0.811582  1
  Co  Co16  1  0.391442  0.391442  0.391442  1
  Co  Co17  1  0.391442  0.391442  0.825674  1
  Co  Co18  1  0.391442  0.825674  0.391442  1
  Co  Co19  1  0.825674  0.391442  0.391442  1
  Hg  Hg20  1  0.833694  0.833694  0.833694  1
  Hg  Hg21  1  0.833694  0.833694  0.498919  1
  Hg  Hg22  1  0.833694  0.498919  0.833694  1
  Hg  Hg23  1  0.498919  0.833694  0.833694  1
