# generated using pymatgen
data_Ta16AlCo3Te16
_symmetry_space_group_name_H-M   'P 1'
_cell_length_a   4.83190700
_cell_length_b   10.99033786
_cell_length_c   19.19235746
_cell_angle_alpha   89.95490459
_cell_angle_beta   90.00000000
_cell_angle_gamma   90.00000000
_symmetry_Int_Tables_number   1
_chemical_formula_structural   Ta16AlCo3Te16
_chemical_formula_sum   'Ta16 Al1 Co3 Te16'
_cell_volume   1019.19620963
_cell_formula_units_Z   1
loop_
 _symmetry_equiv_pos_site_id
 _symmetry_equiv_pos_as_xyz
  1  'x, y, z'
loop_
 _atom_site_type_symbol
 _atom_site_label
 _atom_site_symmetry_multiplicity
 _atom_site_fract_x
 _atom_site_fract_y
 _atom_site_fract_z
 _atom_site_occupancy
  Ta  Ta0  1  0.499953  0.564055  0.383758  1
  Ta  Ta1  1  0.499953  0.435945  0.616242  1
  Ta  Ta2  1  0.500429  0.063148  0.114474  1
  Ta  Ta3  1  0.500429  0.936852  0.885526  1
  Ta  Ta4  1  0.496687  0.703953  0.536374  1
  Ta  Ta5  1  0.496687  0.296047  0.463626  1
  Ta  Ta6  1  0.499944  0.200866  0.963999  1
  Ta  Ta7  1  0.499944  0.799134  0.036001  1
  Ta  Ta8  1  0.002634  0.689461  0.443332  1
  Ta  Ta9  1  0.002634  0.310539  0.556668  1
  Ta  Ta10  1  0.000091  0.186701  0.055596  1
  Ta  Ta11  1  0.000091  0.813299  0.944404  1
  Ta  Ta12  1  0.000666  0.400979  0.392107  1
  Ta  Ta13  1  0.000666  0.599021  0.607893  1
  Ta  Ta14  1  0.999462  0.902477  0.106402  1
  Ta  Ta15  1  0.999462  0.097523  0.893598  1
  Al  Al16  1  0.249816  0.500000  0.500000  1
  Co  Co17  1  0.750060  0.000000  0.000000  1
  Co  Co18  1  0.749831  0.500000  0.500000  1
  Co  Co19  1  0.249954  0.000000  0.000000  1
  Te  Te20  1  0.990912  0.846527  0.562226  1
  Te  Te21  1  0.990912  0.153473  0.437774  1
  Te  Te22  1  0.999946  0.346706  0.937417  1
  Te  Te23  1  0.999946  0.653294  0.062583  1
  Te  Te24  1  0.507424  0.332757  0.316231  1
  Te  Te25  1  0.507424  0.667243  0.683769  1
  Te  Te26  1  0.499865  0.832584  0.183885  1
  Te  Te27  1  0.499865  0.167416  0.816115  1
  Te  Te28  1  0.509037  0.821949  0.403478  1
  Te  Te29  1  0.509037  0.178051  0.596522  1
  Te  Te30  1  0.499985  0.322229  0.096100  1
  Te  Te31  1  0.499985  0.677771  0.903900  1
  Te  Te32  1  0.993097  0.607984  0.301976  1
  Te  Te33  1  0.993097  0.392016  0.698024  1
  Te  Te34  1  0.000035  0.108350  0.197835  1
  Te  Te35  1  0.000035  0.891650  0.802165  1
