# generated using pymatgen
data_CaYb3(SbPd3)6
_symmetry_space_group_name_H-M   'P 1'
_cell_length_a   8.07677901
_cell_length_b   8.06042529
_cell_length_c   9.33088000
_cell_angle_alpha   90.00000000
_cell_angle_beta   90.00000000
_cell_angle_gamma   120.27524712
_symmetry_Int_Tables_number   1
_chemical_formula_structural   CaYb3(SbPd3)6
_chemical_formula_sum   'Ca1 Yb3 Sb6 Pd18'
_cell_volume   524.61191728
_cell_formula_units_Z   1
loop_
 _symmetry_equiv_pos_site_id
 _symmetry_equiv_pos_as_xyz
  1  'x, y, z'
loop_
 _atom_site_type_symbol
 _atom_site_label
 _atom_site_symmetry_multiplicity
 _atom_site_fract_x
 _atom_site_fract_y
 _atom_site_fract_z
 _atom_site_occupancy
  Ca  Ca0  1  0.326630  0.015473  0.750000  1
  Yb  Yb1  1  0.671753  0.983914  0.250000  1
  Yb  Yb2  1  0.016170  0.328773  0.750000  1
  Yb  Yb3  1  0.983604  0.671332  0.250000  1
  Sb  Sb4  1  0.999915  0.999970  0.499808  1
  Sb  Sb5  1  0.676698  0.322263  0.999855  1
  Sb  Sb6  1  0.322523  0.677556  0.500046  1
  Sb  Sb7  1  0.322523  0.677556  0.999954  1
  Sb  Sb8  1  0.999915  0.999970  0.000192  1
  Sb  Sb9  1  0.676698  0.322263  0.500145  1
  Pd  Pd10  1  0.330963  0.332972  0.965549  1
  Pd  Pd11  1  0.444659  0.642550  0.750000  1
  Pd  Pd12  1  0.555483  0.357551  0.250000  1
  Pd  Pd13  1  0.645998  0.448862  0.750000  1
  Pd  Pd14  1  0.998654  0.338479  0.081993  1
  Pd  Pd15  1  0.998747  0.658524  0.580171  1
  Pd  Pd16  1  0.339271  0.998474  0.414420  1
  Pd  Pd17  1  0.664196  0.001201  0.920273  1
  Pd  Pd18  1  0.998747  0.658524  0.919829  1
  Pd  Pd19  1  0.998654  0.338479  0.418007  1
  Pd  Pd20  1  0.664196  0.001201  0.579727  1
  Pd  Pd21  1  0.858279  0.858580  0.750000  1
  Pd  Pd22  1  0.330963  0.332972  0.534451  1
  Pd  Pd23  1  0.669112  0.669026  0.037021  1
  Pd  Pd24  1  0.339271  0.998474  0.085580  1
  Pd  Pd25  1  0.669112  0.669026  0.462979  1
  Pd  Pd26  1  0.140681  0.141016  0.250000  1
  Pd  Pd27  1  0.356586  0.555019  0.250000  1
