# generated using pymatgen
data_Tb12Si11Hg
_symmetry_space_group_name_H-M   'P 1'
_cell_length_a   3.91512900
_cell_length_b   5.76786759
_cell_length_c   24.12839533
_cell_angle_alpha   82.42397590
_cell_angle_beta   90.00000000
_cell_angle_gamma   90.00000000
_symmetry_Int_Tables_number   1
_chemical_formula_structural   Tb12Si11Hg
_chemical_formula_sum   'Tb12 Si11 Hg1'
_cell_volume   540.10986613
_cell_formula_units_Z   1
loop_
 _symmetry_equiv_pos_site_id
 _symmetry_equiv_pos_as_xyz
  1  'x, y, z'
loop_
 _atom_site_type_symbol
 _atom_site_label
 _atom_site_symmetry_multiplicity
 _atom_site_fract_x
 _atom_site_fract_y
 _atom_site_fract_z
 _atom_site_occupancy
  Tb  Tb0  1  0.750000  0.355285  0.053904  1
  Tb  Tb1  1  0.250000  0.660104  0.938013  1
  Tb  Tb2  1  0.750000  0.531150  0.231506  1
  Tb  Tb3  1  0.250000  0.470487  0.772580  1
  Tb  Tb4  1  0.750000  0.167575  0.395198  1
  Tb  Tb5  1  0.250000  0.825827  0.606734  1
  Tb  Tb6  1  0.750000  0.349507  0.560225  1
  Tb  Tb7  1  0.250000  0.643429  0.441502  1
  Tb  Tb8  1  0.750000  0.994953  0.726353  1
  Tb  Tb9  1  0.250000  0.997930  0.275627  1
  Tb  Tb10  1  0.750000  0.168148  0.891692  1
  Tb  Tb11  1  0.250000  0.845660  0.104894  1
  Si  Si12  1  0.750000  0.871946  0.010266  1
  Si  Si13  1  0.250000  0.142779  0.984960  1
  Si  Si14  1  0.750000  0.022084  0.182187  1
  Si  Si15  1  0.250000  0.955225  0.820204  1
  Si  Si16  1  0.750000  0.704742  0.348042  1
  Si  Si17  1  0.250000  0.289987  0.654030  1
  Si  Si18  1  0.750000  0.863116  0.513032  1
  Si  Si19  1  0.250000  0.131146  0.488435  1
  Si  Si20  1  0.750000  0.531620  0.678768  1
  Si  Si21  1  0.250000  0.460719  0.324246  1
  Si  Si22  1  0.750000  0.683994  0.844598  1
  Hg  Hg23  1  0.250000  0.332586  0.153003  1
