# generated using pymatgen
data_Er3Tm3Th2(CdIr)2
_symmetry_space_group_name_H-M   'P 1'
_cell_length_a   9.67577393
_cell_length_b   9.67577439
_cell_length_c   9.67577500
_cell_angle_alpha   60.00000135
_cell_angle_beta   59.99999975
_cell_angle_gamma   60.00000341
_symmetry_Int_Tables_number   1
_chemical_formula_structural   Er3Tm3Th2(CdIr)2
_chemical_formula_sum   'Er6 Tm6 Th4 Cd4 Ir4'
_cell_volume   640.53405377
_cell_formula_units_Z   2
loop_
 _symmetry_equiv_pos_site_id
 _symmetry_equiv_pos_as_xyz
  1  'x, y, z'
loop_
 _atom_site_type_symbol
 _atom_site_label
 _atom_site_symmetry_multiplicity
 _atom_site_fract_x
 _atom_site_fract_y
 _atom_site_fract_z
 _atom_site_occupancy
  Er  Er0  1  0.185016  0.814984  0.814984  1
  Er  Er1  1  0.814984  0.185016  0.185016  1
  Er  Er2  1  0.814984  0.185016  0.814984  1
  Er  Er3  1  0.185016  0.814984  0.185016  1
  Er  Er4  1  0.814984  0.814984  0.185016  1
  Er  Er5  1  0.185016  0.185016  0.814984  1
  Tm  Tm6  1  0.062920  0.437080  0.437080  1
  Tm  Tm7  1  0.437080  0.062920  0.062920  1
  Tm  Tm8  1  0.437080  0.062920  0.437080  1
  Tm  Tm9  1  0.062920  0.437080  0.062920  1
  Tm  Tm10  1  0.437080  0.437080  0.062920  1
  Tm  Tm11  1  0.062920  0.062920  0.437080  1
  Th  Th12  1  0.600703  0.600703  0.600703  1
  Th  Th13  1  0.600703  0.600703  0.197892  1
  Th  Th14  1  0.600703  0.197892  0.600703  1
  Th  Th15  1  0.197892  0.600703  0.600703  1
  Cd  Cd16  1  0.833146  0.833146  0.833146  1
  Cd  Cd17  1  0.833146  0.833146  0.500563  1
  Cd  Cd18  1  0.833146  0.500563  0.833146  1
  Cd  Cd19  1  0.500563  0.833146  0.833146  1
  Ir  Ir20  1  0.392532  0.392532  0.392532  1
  Ir  Ir21  1  0.392532  0.392532  0.822401  1
  Ir  Ir22  1  0.392532  0.822401  0.392532  1
  Ir  Ir23  1  0.822401  0.392532  0.392532  1
