# generated using pymatgen
data_Zr5TaSi6(Ru2W)2
_symmetry_space_group_name_H-M   'P 1'
_cell_length_a   7.68663385
_cell_length_b   7.69415985
_cell_length_c   7.68663383
_cell_angle_alpha   126.75122826
_cell_angle_beta   124.46895023
_cell_angle_gamma   80.51868464
_symmetry_Int_Tables_number   1
_chemical_formula_structural   Zr5TaSi6(Ru2W)2
_chemical_formula_sum   'Zr5 Ta1 Si6 Ru4 W2'
_cell_volume   289.70354438
_cell_formula_units_Z   1
loop_
 _symmetry_equiv_pos_site_id
 _symmetry_equiv_pos_as_xyz
  1  'x, y, z'
loop_
 _atom_site_type_symbol
 _atom_site_label
 _atom_site_symmetry_multiplicity
 _atom_site_fract_x
 _atom_site_fract_y
 _atom_site_fract_z
 _atom_site_occupancy
  Zr  Zr0  1  0.945173  0.905054  0.459882  1
  Zr  Zr1  1  0.052770  0.507422  0.954653  1
  Zr  Zr2  1  0.538336  0.514622  0.476285  1
  Zr  Zr3  1  0.462084  0.933957  0.971873  1
  Zr  Zr4  1  0.746859  0.089182  0.842323  1
  Ta  Ta5  1  0.252121  0.085087  0.332966  1
  Si  Si6  1  0.728458  0.469028  0.240569  1
  Si  Si7  1  0.271408  0.500558  0.729150  1
  Si  Si8  1  0.668433  0.175874  0.510574  1
  Si  Si9  1  0.323052  0.841371  0.498270  1
  Si  Si10  1  0.165300  0.175874  0.007442  1
  Si  Si11  1  0.843101  0.841371  0.018319  1
  Ru  Ru12  1  0.902838  0.253275  0.404399  1
  Ru  Ru13  1  0.098580  0.503295  0.351867  1
  Ru  Ru14  1  0.348876  0.253275  0.850435  1
  Ru  Ru15  1  0.651428  0.503295  0.904716  1
  W  W16  1  0.492690  0.752630  0.244136  1
  W  W17  1  0.008494  0.752630  0.759941  1
