# generated using pymatgen
data_Ho3Er(Os3Ru)2
_symmetry_space_group_name_H-M   'P 1'
_cell_length_a   5.27470900
_cell_length_b   5.27470876
_cell_length_c   8.96838400
_cell_angle_alpha   90.00000000
_cell_angle_beta   90.00000000
_cell_angle_gamma   119.99999525
_symmetry_Int_Tables_number   1
_chemical_formula_structural   Ho3Er(Os3Ru)2
_chemical_formula_sum   'Ho3 Er1 Os6 Ru2'
_cell_volume   216.09356676
_cell_formula_units_Z   1
loop_
 _symmetry_equiv_pos_site_id
 _symmetry_equiv_pos_as_xyz
  1  'x, y, z'
loop_
 _atom_site_type_symbol
 _atom_site_label
 _atom_site_symmetry_multiplicity
 _atom_site_fract_x
 _atom_site_fract_y
 _atom_site_fract_z
 _atom_site_occupancy
  Ho  Ho0  1  0.333333  0.666667  0.433895  1
  Ho  Ho1  1  0.666667  0.333333  0.565993  1
  Ho  Ho2  1  0.666667  0.333333  0.934079  1
  Er  Er3  1  0.333333  0.666667  0.066118  1
  Os  Os4  1  0.170722  0.341446  0.750156  1
  Os  Os5  1  0.170722  0.829278  0.750156  1
  Os  Os6  1  0.341351  0.170675  0.249770  1
  Os  Os7  1  0.829325  0.658649  0.249770  1
  Os  Os8  1  0.658554  0.829278  0.750156  1
  Os  Os9  1  0.829325  0.170675  0.249770  1
  Ru  Ru10  1  0.000000  0.000000  0.000128  1
  Ru  Ru11  1  0.000000  0.000000  0.500009  1
