# generated using pymatgen
data_Y7Tm13Pb16
_symmetry_space_group_name_H-M   'P 1'
_cell_length_a   8.16075874
_cell_length_b   8.22304506
_cell_length_c   15.50671215
_cell_angle_alpha   90.01793995
_cell_angle_beta   90.17865419
_cell_angle_gamma   89.97466255
_symmetry_Int_Tables_number   1
_chemical_formula_structural   Y7Tm13Pb16
_chemical_formula_sum   'Y7 Tm13 Pb16'
_cell_volume   1040.59266215
_cell_formula_units_Z   1
loop_
 _symmetry_equiv_pos_site_id
 _symmetry_equiv_pos_as_xyz
  1  'x, y, z'
loop_
 _atom_site_type_symbol
 _atom_site_label
 _atom_site_symmetry_multiplicity
 _atom_site_fract_x
 _atom_site_fract_y
 _atom_site_fract_z
 _atom_site_occupancy
  Y  Y0  1  0.966224  0.822791  0.900550  1
  Y  Y1  1  0.533504  0.322907  0.098818  1
  Y  Y2  1  0.034504  0.176822  0.400943  1
  Y  Y3  1  0.534265  0.323549  0.401071  1
  Y  Y4  1  0.033606  0.177195  0.098854  1
  Y  Y5  1  0.466721  0.676788  0.901238  1
  Y  Y6  1  0.965660  0.822912  0.599147  1
  Tm  Tm7  1  0.624932  0.158510  0.621608  1
  Tm  Tm8  1  0.125671  0.341607  0.878204  1
  Tm  Tm9  1  0.374925  0.841632  0.121644  1
  Tm  Tm10  1  0.875812  0.658766  0.378612  1
  Tm  Tm11  1  0.375982  0.840979  0.378921  1
  Tm  Tm12  1  0.874571  0.658544  0.121542  1
  Tm  Tm13  1  0.625170  0.158069  0.877900  1
  Tm  Tm14  1  0.124587  0.341516  0.621565  1
  Tm  Tm15  1  0.463872  0.676047  0.599897  1
  Tm  Tm16  1  0.793029  0.495309  0.749630  1
  Tm  Tm17  1  0.293414  0.004958  0.749659  1
  Tm  Tm18  1  0.207006  0.504938  0.250311  1
  Tm  Tm19  1  0.707050  0.994943  0.250137  1
  Pb  Pb20  1  0.716126  0.965210  0.457016  1
  Pb  Pb21  1  0.215200  0.536202  0.042877  1
  Pb  Pb22  1  0.284826  0.035564  0.957181  1
  Pb  Pb23  1  0.781756  0.466625  0.542911  1
  Pb  Pb24  1  0.284977  0.034355  0.542915  1
  Pb  Pb25  1  0.785031  0.463446  0.957325  1
  Pb  Pb26  1  0.715235  0.964209  0.042682  1
  Pb  Pb27  1  0.216431  0.536284  0.458055  1
  Pb  Pb28  1  0.430636  0.373493  0.749932  1
  Pb  Pb29  1  0.930662  0.127082  0.749953  1
  Pb  Pb30  1  0.569681  0.627099  0.250024  1
  Pb  Pb31  1  0.069727  0.872634  0.249961  1
  Pb  Pb32  1  0.653010  0.845330  0.749136  1
  Pb  Pb33  1  0.155063  0.653492  0.749818  1
  Pb  Pb34  1  0.345712  0.153262  0.250019  1
  Pb  Pb35  1  0.845421  0.346933  0.249945  1
