# generated using pymatgen
data_Tb8Yb12Si15Ge
_symmetry_space_group_name_H-M   'P 1'
_cell_length_a   7.41799647
_cell_length_b   7.83280850
_cell_length_c   15.19467700
_cell_angle_alpha   90.00000000
_cell_angle_beta   90.00000000
_cell_angle_gamma   89.95915540
_symmetry_Int_Tables_number   1
_chemical_formula_structural   Tb8Yb12Si15Ge
_chemical_formula_sum   'Tb8 Yb12 Si15 Ge1'
_cell_volume   882.86742551
_cell_formula_units_Z   1
loop_
 _symmetry_equiv_pos_site_id
 _symmetry_equiv_pos_as_xyz
  1  'x, y, z'
loop_
 _atom_site_type_symbol
 _atom_site_label
 _atom_site_symmetry_multiplicity
 _atom_site_fract_x
 _atom_site_fract_y
 _atom_site_fract_z
 _atom_site_occupancy
  Tb  Tb0  1  0.316109  0.176826  0.121257  1
  Tb  Tb1  1  0.816325  0.322080  0.378730  1
  Tb  Tb2  1  0.183390  0.677006  0.878525  1
  Tb  Tb3  1  0.683427  0.822691  0.621513  1
  Tb  Tb4  1  0.316109  0.176826  0.378743  1
  Tb  Tb5  1  0.816325  0.322080  0.121270  1
  Tb  Tb6  1  0.183390  0.677006  0.621475  1
  Tb  Tb7  1  0.683427  0.822691  0.878487  1
  Yb  Yb8  1  0.977033  0.815920  0.404672  1
  Yb  Yb9  1  0.476721  0.684431  0.095703  1
  Yb  Yb10  1  0.523421  0.315413  0.595695  1
  Yb  Yb11  1  0.023407  0.184620  0.904265  1
  Yb  Yb12  1  0.023407  0.184620  0.595735  1
  Yb  Yb13  1  0.523421  0.315413  0.904305  1
  Yb  Yb14  1  0.476721  0.684431  0.404297  1
  Yb  Yb15  1  0.977033  0.815920  0.095328  1
  Yb  Yb16  1  0.348988  0.020886  0.750000  1
  Yb  Yb17  1  0.849050  0.479065  0.750000  1
  Yb  Yb18  1  0.151393  0.520577  0.250000  1
  Yb  Yb19  1  0.650479  0.979831  0.250000  1
  Si  Si20  1  0.856436  0.533392  0.537858  1
  Si  Si21  1  0.356469  0.966324  0.961977  1
  Si  Si22  1  0.643307  0.033215  0.462232  1
  Si  Si23  1  0.143148  0.466497  0.037960  1
  Si  Si24  1  0.143148  0.466497  0.462040  1
  Si  Si25  1  0.643307  0.033215  0.037768  1
  Si  Si26  1  0.356469  0.966324  0.538023  1
  Si  Si27  1  0.856436  0.533392  0.962142  1
  Si  Si28  1  0.974192  0.885476  0.750000  1
  Si  Si29  1  0.474149  0.614499  0.750000  1
  Si  Si30  1  0.524773  0.382612  0.250000  1
  Si  Si31  1  0.025573  0.114382  0.250000  1
  Si  Si32  1  0.245388  0.393430  0.750000  1
  Si  Si33  1  0.745283  0.106601  0.750000  1
  Si  Si34  1  0.254584  0.893265  0.250000  1
  Ge  Ge35  1  0.757761  0.612545  0.250000  1
