# generated using pymatgen
data_Tm6P13PtRh19
_symmetry_space_group_name_H-M   'P 1'
_cell_length_a   13.31618800
_cell_length_b   13.31618706
_cell_length_c   3.90447800
_cell_angle_alpha   90.00000000
_cell_angle_beta   90.00000000
_cell_angle_gamma   120.00000234
_symmetry_Int_Tables_number   1
_chemical_formula_structural   Tm6P13PtRh19
_chemical_formula_sum   'Tm6 P13 Pt1 Rh19'
_cell_volume   599.58865482
_cell_formula_units_Z   1
loop_
 _symmetry_equiv_pos_site_id
 _symmetry_equiv_pos_as_xyz
  1  'x, y, z'
loop_
 _atom_site_type_symbol
 _atom_site_label
 _atom_site_symmetry_multiplicity
 _atom_site_fract_x
 _atom_site_fract_y
 _atom_site_fract_z
 _atom_site_occupancy
  Tm  Tm0  1  0.528916  0.717417  0.247695  1
  Tm  Tm1  1  0.282583  0.811499  0.247695  1
  Tm  Tm2  1  0.188501  0.471084  0.247695  1
  Tm  Tm3  1  0.472244  0.282488  0.752290  1
  Tm  Tm4  1  0.717512  0.189757  0.752290  1
  Tm  Tm5  1  0.810243  0.527756  0.752290  1
  P  P6  1  0.527303  0.140282  0.250852  1
  P  P7  1  0.859718  0.387022  0.250852  1
  P  P8  1  0.612978  0.472697  0.250852  1
  P  P9  1  0.944120  0.713691  0.255090  1
  P  P10  1  0.286309  0.230428  0.255090  1
  P  P11  1  0.769572  0.055880  0.255090  1
  P  P12  1  0.388231  0.525625  0.749536  1
  P  P13  1  0.474375  0.862604  0.749536  1
  P  P14  1  0.137396  0.611769  0.749536  1
  P  P15  1  0.714196  0.769528  0.745684  1
  P  P16  1  0.230472  0.944668  0.745684  1
  P  P17  1  0.055332  0.285804  0.745684  1
  P  P18  1  0.000000  0.000000  0.995110  1
  Pt  Pt19  1  0.333333  0.666667  0.749783  1
  Rh  Rh20  1  0.920019  0.250101  0.255450  1
  Rh  Rh21  1  0.749899  0.669919  0.255450  1
  Rh  Rh22  1  0.330081  0.079981  0.255450  1
  Rh  Rh23  1  0.436068  0.019939  0.752627  1
  Rh  Rh24  1  0.980061  0.416129  0.752627  1
  Rh  Rh25  1  0.583871  0.563932  0.752627  1
  Rh  Rh26  1  0.666667  0.333333  0.247997  1
  Rh  Rh27  1  0.094200  0.187038  0.246583  1
  Rh  Rh28  1  0.812962  0.907162  0.246583  1
  Rh  Rh29  1  0.092838  0.905800  0.246583  1
  Rh  Rh30  1  0.019387  0.583396  0.248068  1
  Rh  Rh31  1  0.416604  0.435990  0.248068  1
  Rh  Rh32  1  0.564010  0.980613  0.248068  1
  Rh  Rh33  1  0.669522  0.919054  0.744740  1
  Rh  Rh34  1  0.080946  0.750468  0.744740  1
  Rh  Rh35  1  0.249532  0.330478  0.744740  1
  Rh  Rh36  1  0.905625  0.811707  0.753755  1
  Rh  Rh37  1  0.188293  0.093919  0.753755  1
  Rh  Rh38  1  0.906081  0.094375  0.753755  1
