# generated using pymatgen
data_Dy5(GaSb)2
_symmetry_space_group_name_H-M   'P 1'
_cell_length_a   8.65351890
_cell_length_b   8.65351801
_cell_length_c   7.93689600
_cell_angle_alpha   90.00000000
_cell_angle_beta   90.00000000
_cell_angle_gamma   125.38818857
_symmetry_Int_Tables_number   1
_chemical_formula_structural   Dy5(GaSb)2
_chemical_formula_sum   'Dy10 Ga4 Sb4'
_cell_volume   484.53533323
_cell_formula_units_Z   2
loop_
 _symmetry_equiv_pos_site_id
 _symmetry_equiv_pos_as_xyz
  1  'x, y, z'
loop_
 _atom_site_type_symbol
 _atom_site_label
 _atom_site_symmetry_multiplicity
 _atom_site_fract_x
 _atom_site_fract_y
 _atom_site_fract_z
 _atom_site_occupancy
  Dy  Dy0  1  0.038482  0.299584  0.332850  1
  Dy  Dy1  1  0.961518  0.700416  0.667150  1
  Dy  Dy2  1  0.461518  0.200416  0.832850  1
  Dy  Dy3  1  0.799584  0.538482  0.167150  1
  Dy  Dy4  1  0.538482  0.799584  0.167150  1
  Dy  Dy5  1  0.200416  0.461518  0.832850  1
  Dy  Dy6  1  0.700416  0.961518  0.667150  1
  Dy  Dy7  1  0.299584  0.038482  0.332850  1
  Dy  Dy8  1  0.000000  0.000000  0.000000  1
  Dy  Dy9  1  0.500000  0.500000  0.500000  1
  Ga  Ga10  1  0.374475  0.374475  0.124952  1
  Ga  Ga11  1  0.625525  0.625525  0.875048  1
  Ga  Ga12  1  0.125525  0.125525  0.624952  1
  Ga  Ga13  1  0.874475  0.874475  0.375048  1
  Sb  Sb14  1  0.794877  0.205123  0.000000  1
  Sb  Sb15  1  0.205123  0.794877  0.000000  1
  Sb  Sb16  1  0.705123  0.294877  0.500000  1
  Sb  Sb17  1  0.294877  0.705123  0.500000  1
