# generated using pymatgen
data_Yb3Ce(B4Ru)4
_symmetry_space_group_name_H-M   'P 1'
_cell_length_a   3.56305600
_cell_length_b   5.96400756
_cell_length_c   11.54615895
_cell_angle_alpha   90.10610166
_cell_angle_beta   90.00000000
_cell_angle_gamma   90.00000000
_symmetry_Int_Tables_number   1
_chemical_formula_structural   Yb3Ce(B4Ru)4
_chemical_formula_sum   'Yb3 Ce1 B16 Ru4'
_cell_volume   245.35652971
_cell_formula_units_Z   1
loop_
 _symmetry_equiv_pos_site_id
 _symmetry_equiv_pos_as_xyz
  1  'x, y, z'
loop_
 _atom_site_type_symbol
 _atom_site_label
 _atom_site_symmetry_multiplicity
 _atom_site_fract_x
 _atom_site_fract_y
 _atom_site_fract_z
 _atom_site_occupancy
  Yb  Yb0  1  0.500000  0.369152  0.848425  1
  Yb  Yb1  1  0.500000  0.128863  0.351586  1
  Yb  Yb2  1  0.500000  0.871153  0.650684  1
  Ce  Ce3  1  0.500000  0.628915  0.150393  1
  B  B4  1  0.000000  0.976082  0.191370  1
  B  B5  1  0.000000  0.024254  0.807762  1
  B  B6  1  0.000000  0.477067  0.309886  1
  B  B7  1  0.000000  0.523542  0.691604  1
  B  B8  1  0.000000  0.787026  0.316225  1
  B  B9  1  0.000000  0.213206  0.684462  1
  B  B10  1  0.000000  0.286695  0.184933  1
  B  B11  1  0.000000  0.713949  0.813572  1
  B  B12  1  0.000000  0.864322  0.469342  1
  B  B13  1  0.000000  0.135764  0.530988  1
  B  B14  1  0.000000  0.363054  0.030556  1
  B  B15  1  0.000000  0.636983  0.968068  1
  B  B16  1  0.000000  0.890326  0.045785  1
  B  B17  1  0.000000  0.113097  0.951669  1
  B  B18  1  0.000000  0.386262  0.453698  1
  B  B19  1  0.000000  0.612414  0.546825  1
  Ru  Ru20  1  0.500000  0.635497  0.411045  1
  Ru  Ru21  1  0.500000  0.363689  0.588649  1
  Ru  Ru22  1  0.500000  0.138524  0.092193  1
  Ru  Ru23  1  0.500000  0.860161  0.910279  1
