# generated using pymatgen
data_Ce2Dy4Al24Os7Ru
_symmetry_space_group_name_H-M   'P 1'
_cell_length_a   8.85427564
_cell_length_b   8.84497831
_cell_length_c   9.58542102
_cell_angle_alpha   89.99999746
_cell_angle_beta   90.00617804
_cell_angle_gamma   119.96526908
_symmetry_Int_Tables_number   1
_chemical_formula_structural   Ce2Dy4Al24Os7Ru
_chemical_formula_sum   'Ce2 Dy4 Al24 Os7 Ru1'
_cell_volume   650.34456588
_cell_formula_units_Z   1
loop_
 _symmetry_equiv_pos_site_id
 _symmetry_equiv_pos_as_xyz
  1  'x, y, z'
loop_
 _atom_site_type_symbol
 _atom_site_label
 _atom_site_symmetry_multiplicity
 _atom_site_fract_x
 _atom_site_fract_y
 _atom_site_fract_z
 _atom_site_occupancy
  Ce  Ce0  1  0.192840  0.803244  0.249936  1
  Ce  Ce1  1  0.192840  0.389596  0.249936  1
  Dy  Dy2  1  0.610511  0.805256  0.249743  1
  Dy  Dy3  1  0.807229  0.192121  0.750125  1
  Dy  Dy4  1  0.807229  0.615107  0.750125  1
  Dy  Dy5  1  0.387358  0.193679  0.750184  1
  Al  Al6  1  0.562901  0.439021  0.250024  1
  Al  Al7  1  0.562901  0.123882  0.250024  1
  Al  Al8  1  0.872015  0.436008  0.249958  1
  Al  Al9  1  0.439670  0.559729  0.750008  1
  Al  Al10  1  0.439670  0.879941  0.750008  1
  Al  Al11  1  0.119280  0.559640  0.749998  1
  Al  Al12  1  0.325613  0.162806  0.424103  1
  Al  Al13  1  0.835907  0.161622  0.424634  1
  Al  Al14  1  0.835907  0.674284  0.424634  1
  Al  Al15  1  0.675442  0.837721  0.576013  1
  Al  Al16  1  0.161998  0.837405  0.577990  1
  Al  Al17  1  0.161998  0.324593  0.577990  1
  Al  Al18  1  0.675714  0.837857  0.923693  1
  Al  Al19  1  0.162020  0.837562  0.921994  1
  Al  Al20  1  0.162020  0.324458  0.921994  1
  Al  Al21  1  0.325407  0.162704  0.076176  1
  Al  Al22  1  0.836045  0.161597  0.075515  1
  Al  Al23  1  0.836045  0.674448  0.075515  1
  Al  Al24  1  0.667799  0.333899  0.516255  1
  Al  Al25  1  0.335871  0.667936  0.487011  1
  Al  Al26  1  0.335836  0.667919  0.012605  1
  Al  Al27  1  0.667915  0.333957  0.983887  1
  Al  Al28  1  0.998200  0.999100  0.248187  1
  Al  Al29  1  0.001583  0.000792  0.751732  1
  Os  Os30  1  0.999405  0.999702  0.500169  1
  Os  Os31  1  0.500478  0.499855  0.500464  1
  Os  Os32  1  0.500478  0.000624  0.500464  1
  Os  Os33  1  0.001695  0.500847  0.497779  1
  Os  Os34  1  0.500563  0.499919  0.999607  1
  Os  Os35  1  0.500563  0.000644  0.999607  1
  Os  Os36  1  0.001741  0.500871  0.002210  1
  Ru  Ru37  1  0.999309  0.999655  0.999704  1
