# generated using pymatgen
data_Dy8Ti11Si16Au
_symmetry_space_group_name_H-M   'P 1'
_cell_length_a   7.06734815
_cell_length_b   7.06734815
_cell_length_c   12.89356999
_cell_angle_alpha   89.86151302
_cell_angle_beta   90.13848698
_cell_angle_gamma   89.60037002
_symmetry_Int_Tables_number   1
_chemical_formula_structural   Dy8Ti11Si16Au
_chemical_formula_sum   'Dy8 Ti11 Si16 Au1'
_cell_volume   643.98097136
_cell_formula_units_Z   1
loop_
 _symmetry_equiv_pos_site_id
 _symmetry_equiv_pos_as_xyz
  1  'x, y, z'
loop_
 _atom_site_type_symbol
 _atom_site_label
 _atom_site_symmetry_multiplicity
 _atom_site_fract_x
 _atom_site_fract_y
 _atom_site_fract_z
 _atom_site_occupancy
  Dy  Dy0  1  0.997238  0.659322  0.033142  1
  Dy  Dy1  1  0.999511  0.343741  0.531482  1
  Dy  Dy2  1  0.659322  0.997238  0.966858  1
  Dy  Dy3  1  0.160027  0.502629  0.783099  1
  Dy  Dy4  1  0.841953  0.499363  0.285723  1
  Dy  Dy5  1  0.502629  0.160027  0.216901  1
  Dy  Dy6  1  0.499363  0.841953  0.714277  1
  Dy  Dy7  1  0.343741  0.999511  0.468518  1
  Ti  Ti8  1  0.348715  0.505783  0.376285  1
  Ti  Ti9  1  0.851643  0.992349  0.377349  1
  Ti  Ti10  1  0.008118  0.150460  0.125196  1
  Ti  Ti11  1  0.992349  0.851643  0.622651  1
  Ti  Ti12  1  0.505783  0.348715  0.623715  1
  Ti  Ti13  1  0.150460  0.008118  0.874804  1
  Ti  Ti14  1  0.825262  0.173511  0.749594  1
  Ti  Ti15  1  0.173511  0.825262  0.250406  1
  Ti  Ti16  1  0.327044  0.327044  0.000000  1
  Ti  Ti17  1  0.491970  0.649352  0.125889  1
  Ti  Ti18  1  0.649352  0.491970  0.874111  1
  Si  Si19  1  0.062667  0.714417  0.433860  1
  Si  Si20  1  0.951970  0.290945  0.935161  1
  Si  Si21  1  0.714417  0.062667  0.566140  1
  Si  Si22  1  0.208410  0.453257  0.185233  1
  Si  Si23  1  0.792529  0.544956  0.690507  1
  Si  Si24  1  0.453257  0.208410  0.814767  1
  Si  Si25  1  0.544956  0.792529  0.309493  1
  Si  Si26  1  0.290945  0.951970  0.064839  1
  Si  Si27  1  0.798256  0.868386  0.184885  1
  Si  Si28  1  0.281224  0.625617  0.570340  1
  Si  Si29  1  0.705389  0.369331  0.066756  1
  Si  Si30  1  0.625617  0.281224  0.429660  1
  Si  Si31  1  0.369331  0.705389  0.933244  1
  Si  Si32  1  0.131792  0.202007  0.316608  1
  Si  Si33  1  0.202007  0.131792  0.683392  1
  Si  Si34  1  0.868386  0.798256  0.815115  1
  Au  Au35  1  0.670857  0.670857  0.500000  1
