# generated using pymatgen
data_Yb5Ho5(Pb3Cl)2
_symmetry_space_group_name_H-M   'P 1'
_cell_length_a   9.14444367
_cell_length_b   9.14444293
_cell_length_c   6.87678600
_cell_angle_alpha   90.00000000
_cell_angle_beta   90.00000000
_cell_angle_gamma   119.70319406
_symmetry_Int_Tables_number   1
_chemical_formula_structural   Yb5Ho5(Pb3Cl)2
_chemical_formula_sum   'Yb5 Ho5 Pb6 Cl2'
_cell_volume   499.48427959
_cell_formula_units_Z   1
loop_
 _symmetry_equiv_pos_site_id
 _symmetry_equiv_pos_as_xyz
  1  'x, y, z'
loop_
 _atom_site_type_symbol
 _atom_site_label
 _atom_site_symmetry_multiplicity
 _atom_site_fract_x
 _atom_site_fract_y
 _atom_site_fract_z
 _atom_site_occupancy
  Yb  Yb0  1  0.251435  0.000770  0.750000  1
  Yb  Yb1  1  0.746833  0.999399  0.250000  1
  Yb  Yb2  1  0.000770  0.251435  0.750000  1
  Yb  Yb3  1  0.999399  0.746833  0.250000  1
  Yb  Yb4  1  0.746902  0.746902  0.750000  1
  Ho  Ho5  1  0.257653  0.257653  0.250000  1
  Ho  Ho6  1  0.333810  0.666976  0.501149  1
  Ho  Ho7  1  0.666976  0.333810  0.501149  1
  Ho  Ho8  1  0.666976  0.333810  0.998851  1
  Ho  Ho9  1  0.333810  0.666976  0.998851  1
  Pb  Pb10  1  0.600709  0.000212  0.750000  1
  Pb  Pb11  1  0.396841  0.002777  0.250000  1
  Pb  Pb12  1  0.000212  0.600709  0.750000  1
  Pb  Pb13  1  0.002777  0.396841  0.250000  1
  Pb  Pb14  1  0.396255  0.396255  0.750000  1
  Pb  Pb15  1  0.600015  0.600015  0.250000  1
  Cl  Cl16  1  0.999314  0.999314  0.498228  1
  Cl  Cl17  1  0.999314  0.999314  0.001772  1
