# generated using pymatgen
data_Sr6LiLuCoPdO12
_symmetry_space_group_name_H-M   'P 1'
_cell_length_a   6.68816223
_cell_length_b   6.67769891
_cell_length_c   6.68064000
_cell_angle_alpha   92.50041967
_cell_angle_beta   92.55335811
_cell_angle_gamma   92.57453488
_symmetry_Int_Tables_number   1
_chemical_formula_structural   Sr6LiLuCoPdO12
_chemical_formula_sum   'Sr6 Li1 Lu1 Co1 Pd1 O12'
_cell_volume   297.45916382
_cell_formula_units_Z   1
loop_
 _symmetry_equiv_pos_site_id
 _symmetry_equiv_pos_as_xyz
  1  'x, y, z'
loop_
 _atom_site_type_symbol
 _atom_site_label
 _atom_site_symmetry_multiplicity
 _atom_site_fract_x
 _atom_site_fract_y
 _atom_site_fract_z
 _atom_site_occupancy
  Sr  Sr0  1  0.878570  0.253365  0.621751  1
  Sr  Sr1  1  0.254111  0.621629  0.877434  1
  Sr  Sr2  1  0.621146  0.877660  0.254277  1
  Sr  Sr3  1  0.745982  0.391542  0.108089  1
  Sr  Sr4  1  0.391667  0.107385  0.745728  1
  Sr  Sr5  1  0.107657  0.746273  0.391694  1
  Li  Li6  1  0.746192  0.747193  0.745536  1
  Lu  Lu7  1  0.253819  0.253706  0.253833  1
  Co  Co8  1  0.505219  0.503996  0.504693  1
  Pd  Pd9  1  0.997750  0.997900  0.998155  1
  O  O10  1  0.219010  0.412517  0.541990  1
  O  O11  1  0.413676  0.541737  0.218569  1
  O  O12  1  0.541404  0.219046  0.412192  1
  O  O13  1  0.913255  0.712085  0.046390  1
  O  O14  1  0.712347  0.045945  0.912590  1
  O  O15  1  0.045740  0.913176  0.712353  1
  O  O16  1  0.771141  0.579810  0.455075  1
  O  O17  1  0.579702  0.454529  0.770697  1
  O  O18  1  0.453538  0.771751  0.579485  1
  O  O19  1  0.094558  0.294038  0.960418  1
  O  O20  1  0.293366  0.960110  0.094980  1
  O  O21  1  0.960147  0.094610  0.294070  1
