# generated using pymatgen
data_Ba6Nd2Te2IrO18
_symmetry_space_group_name_H-M   'P 1'
_cell_length_a   10.54451185
_cell_length_b   10.54451046
_cell_length_c   10.54451086
_cell_angle_alpha   146.59382635
_cell_angle_beta   131.77911952
_cell_angle_gamma   59.93054833
_symmetry_Int_Tables_number   1
_chemical_formula_structural   Ba6Nd2Te2IrO18
_chemical_formula_sum   'Ba6 Nd2 Te2 Ir1 O18'
_cell_volume   476.99689469
_cell_formula_units_Z   1
loop_
 _symmetry_equiv_pos_site_id
 _symmetry_equiv_pos_as_xyz
  1  'x, y, z'
loop_
 _atom_site_type_symbol
 _atom_site_label
 _atom_site_symmetry_multiplicity
 _atom_site_fract_x
 _atom_site_fract_y
 _atom_site_fract_z
 _atom_site_occupancy
  Ba  Ba0  1  0.781068  0.501078  0.279990  1
  Ba  Ba1  1  0.380684  0.152469  0.228215  1
  Ba  Ba2  1  0.080355  0.848327  0.232029  1
  Ba  Ba3  1  0.221087  0.501078  0.720010  1
  Ba  Ba4  1  0.924254  0.152469  0.771785  1
  Ba  Ba5  1  0.616298  0.848327  0.767971  1
  Nd  Nd6  1  0.666600  0.666600  0.000000  1
  Nd  Nd7  1  0.333433  0.333433  0.000000  1
  Te  Te8  1  0.500397  0.000397  0.500000  1
  Te  Te9  1  0.831304  0.331304  0.500000  1
  Ir  Ir10  1  0.168048  0.668048  0.500000  1
  O  O11  1  0.723252  0.000482  0.722770  1
  O  O12  1  0.396206  0.666621  0.729586  1
  O  O13  1  0.061582  0.331824  0.729757  1
  O  O14  1  0.577306  0.847974  0.270667  1
  O  O15  1  0.243196  0.511309  0.268114  1
  O  O16  1  0.906237  0.181078  0.274840  1
  O  O17  1  0.423239  0.694269  0.271030  1
  O  O18  1  0.093221  0.369387  0.276165  1
  O  O19  1  0.756110  0.026810  0.270701  1
  O  O20  1  0.277713  0.000482  0.277230  1
  O  O21  1  0.937034  0.666621  0.270414  1
  O  O22  1  0.602066  0.331824  0.270243  1
  O  O23  1  0.423239  0.152208  0.728970  1
  O  O24  1  0.093221  0.817056  0.723835  1
  O  O25  1  0.756110  0.485409  0.729299  1
  O  O26  1  0.577306  0.306639  0.729333  1
  O  O27  1  0.243196  0.975082  0.731886  1
  O  O28  1  0.906237  0.631398  0.725160  1
