# generated using pymatgen
data_NdTh(BOs)4
_symmetry_space_group_name_H-M   'P 1'
_cell_length_a   6.80945141
_cell_length_b   6.04592964
_cell_length_c   5.63837954
_cell_angle_alpha   71.19611998
_cell_angle_beta   57.19138880
_cell_angle_gamma   51.61249936
_symmetry_Int_Tables_number   1
_chemical_formula_structural   NdTh(BOs)4
_chemical_formula_sum   'Nd1 Th1 B4 Os4'
_cell_volume   152.89062752
_cell_formula_units_Z   1
loop_
 _symmetry_equiv_pos_site_id
 _symmetry_equiv_pos_as_xyz
  1  'x, y, z'
loop_
 _atom_site_type_symbol
 _atom_site_label
 _atom_site_symmetry_multiplicity
 _atom_site_fract_x
 _atom_site_fract_y
 _atom_site_fract_z
 _atom_site_occupancy
  Nd  Nd0  1  0.250000  0.250000  0.250000  1
  Th  Th1  1  0.000000  0.000000  0.000000  1
  B  B2  1  0.316556  0.683444  0.316556  1
  B  B3  1  0.683444  0.316556  0.683444  1
  B  B4  1  0.564146  0.935854  0.564146  1
  B  B5  1  0.935854  0.564146  0.935854  1
  Os  Os6  1  0.636911  0.636911  0.363089  1
  Os  Os7  1  0.363089  0.363089  0.636911  1
  Os  Os8  1  0.612999  0.612999  0.887001  1
  Os  Os9  1  0.887001  0.887001  0.612999  1
