# generated using pymatgen
data_RbInBiH
_symmetry_space_group_name_H-M   'P 1'
_cell_length_a   4.80763900
_cell_length_b   4.80763868
_cell_length_c   6.78810900
_cell_angle_alpha   90.00000000
_cell_angle_beta   90.00000000
_cell_angle_gamma   119.99998158
_symmetry_Int_Tables_number   1
_chemical_formula_structural   RbInBiH
_chemical_formula_sum   'Rb1 In1 Bi1 H1'
_cell_volume   135.87613651
_cell_formula_units_Z   1
loop_
 _symmetry_equiv_pos_site_id
 _symmetry_equiv_pos_as_xyz
  1  'x, y, z'
loop_
 _atom_site_type_symbol
 _atom_site_label
 _atom_site_symmetry_multiplicity
 _atom_site_fract_x
 _atom_site_fract_y
 _atom_site_fract_z
 _atom_site_occupancy
  Rb  Rb0  1  0.000000  0.000000  0.995217  1
  In  In1  1  0.666667  0.333333  0.581818  1
  Bi  Bi2  1  0.333333  0.666667  0.423265  1
  H  H3  1  0.666667  0.333333  0.856799  1
