# generated using pymatgen
data_YHfZr(SnRh)3
_symmetry_space_group_name_H-M   'P 1'
_cell_length_a   7.49909551
_cell_length_b   7.47447155
_cell_length_c   7.38314300
_cell_angle_alpha   90.00000000
_cell_angle_beta   90.00000000
_cell_angle_gamma   119.87094446
_symmetry_Int_Tables_number   1
_chemical_formula_structural   YHfZr(SnRh)3
_chemical_formula_sum   'Y2 Hf2 Zr2 Sn6 Rh6'
_cell_volume   358.85962583
_cell_formula_units_Z   2
loop_
 _symmetry_equiv_pos_site_id
 _symmetry_equiv_pos_as_xyz
  1  'x, y, z'
loop_
 _atom_site_type_symbol
 _atom_site_label
 _atom_site_symmetry_multiplicity
 _atom_site_fract_x
 _atom_site_fract_y
 _atom_site_fract_z
 _atom_site_occupancy
  Y  Y0  1  0.595415  0.998745  0.250000  1
  Y  Y1  1  0.404789  0.403092  0.250000  1
  Hf  Hf2  1  0.610472  0.004489  0.750000  1
  Hf  Hf3  1  0.389392  0.394100  0.750000  1
  Zr  Zr4  1  0.000092  0.604865  0.750000  1
  Zr  Zr5  1  0.000518  0.599545  0.250000  1
  Sn  Sn6  1  0.267279  0.999405  0.991277  1
  Sn  Sn7  1  0.732704  0.732015  0.508690  1
  Sn  Sn8  1  0.999974  0.269763  0.495822  1
  Sn  Sn9  1  0.999974  0.269763  0.004178  1
  Sn  Sn10  1  0.732704  0.732015  0.991310  1
  Sn  Sn11  1  0.267279  0.999405  0.508723  1
  Rh  Rh12  1  0.667647  0.333535  0.966531  1
  Rh  Rh13  1  0.667647  0.333535  0.533469  1
  Rh  Rh14  1  0.332107  0.665707  0.967198  1
  Rh  Rh15  1  0.332107  0.665707  0.532802  1
  Rh  Rh16  1  0.999849  0.006896  0.750000  1
  Rh  Rh17  1  0.000050  0.987420  0.250000  1
