# generated using pymatgen
data_Y4Al14Ga4Ir5Pt
_symmetry_space_group_name_H-M   'P 1'
_cell_length_a   7.55285060
_cell_length_b   7.55710666
_cell_length_c   9.55173867
_cell_angle_alpha   90.03653155
_cell_angle_beta   90.00147069
_cell_angle_gamma   119.62055393
_symmetry_Int_Tables_number   1
_chemical_formula_structural   Y4Al14Ga4Ir5Pt
_chemical_formula_sum   'Y4 Al14 Ga4 Ir5 Pt1'
_cell_volume   473.94426090
_cell_formula_units_Z   1
loop_
 _symmetry_equiv_pos_site_id
 _symmetry_equiv_pos_as_xyz
  1  'x, y, z'
loop_
 _atom_site_type_symbol
 _atom_site_label
 _atom_site_symmetry_multiplicity
 _atom_site_fract_x
 _atom_site_fract_y
 _atom_site_fract_z
 _atom_site_occupancy
  Y  Y0  1  0.998235  0.673450  0.250804  1
  Y  Y1  1  0.001765  0.326550  0.749196  1
  Y  Y2  1  0.669529  0.994026  0.250808  1
  Y  Y3  1  0.330471  0.005974  0.749192  1
  Al  Al4  1  0.001304  0.337840  0.075251  1
  Al  Al5  1  0.998696  0.662160  0.924749  1
  Al  Al6  1  0.999596  0.665487  0.573042  1
  Al  Al7  1  0.335104  0.001275  0.426992  1
  Al  Al8  1  0.000404  0.334513  0.426958  1
  Al  Al9  1  0.664896  0.998725  0.573008  1
  Al  Al10  1  0.661555  0.998131  0.924769  1
  Al  Al11  1  0.338445  0.001869  0.075231  1
  Al  Al12  1  0.333750  0.334203  0.554729  1
  Al  Al13  1  0.666250  0.665797  0.445271  1
  Al  Al14  1  0.663388  0.662973  0.056605  1
  Al  Al15  1  0.336612  0.337027  0.943395  1
  Al  Al16  1  0.550048  0.338883  0.250475  1
  Al  Al17  1  0.449952  0.661117  0.749525  1
  Ga  Ga18  1  0.132202  0.133136  0.252214  1
  Ga  Ga19  1  0.867798  0.866864  0.747786  1
  Ga  Ga20  1  0.338413  0.546339  0.250504  1
  Ga  Ga21  1  0.661587  0.453661  0.749496  1
  Ir  Ir22  1  0.671085  0.328327  0.002300  1
  Ir  Ir23  1  0.328915  0.671673  0.997700  1
  Ir  Ir24  1  0.328931  0.671757  0.502272  1
  Ir  Ir25  1  0.671069  0.328243  0.497728  1
  Ir  Ir26  1  0.000000  0.000000  0.500000  1
  Pt  Pt27  1  0.000000  0.000000  0.000000  1
