# generated using pymatgen
data_SmYB6Os
_symmetry_space_group_name_H-M   'P 1'
_cell_length_a   3.68707600
_cell_length_b   9.21577400
_cell_length_c   11.61692900
_cell_angle_alpha   90.00000000
_cell_angle_beta   90.00000000
_cell_angle_gamma   90.00000000
_symmetry_Int_Tables_number   1
_chemical_formula_structural   SmYB6Os
_chemical_formula_sum   'Sm4 Y4 B24 Os4'
_cell_volume   394.73464087
_cell_formula_units_Z   4
loop_
 _symmetry_equiv_pos_site_id
 _symmetry_equiv_pos_as_xyz
  1  'x, y, z'
loop_
 _atom_site_type_symbol
 _atom_site_label
 _atom_site_symmetry_multiplicity
 _atom_site_fract_x
 _atom_site_fract_y
 _atom_site_fract_z
 _atom_site_occupancy
  Sm  Sm0  1  0.000000  0.323060  0.413879  1
  Sm  Sm1  1  0.000000  0.676940  0.586121  1
  Sm  Sm2  1  0.000000  0.823060  0.086121  1
  Sm  Sm3  1  0.000000  0.176940  0.913879  1
  Y  Y4  1  0.000000  0.944244  0.372791  1
  Y  Y5  1  0.000000  0.055756  0.627209  1
  Y  Y6  1  0.000000  0.444244  0.127209  1
  Y  Y7  1  0.000000  0.555756  0.872791  1
  B  B8  1  0.500000  0.555107  0.431511  1
  B  B9  1  0.500000  0.444893  0.568489  1
  B  B10  1  0.500000  0.055107  0.068489  1
  B  B11  1  0.500000  0.944893  0.931511  1
  B  B12  1  0.500000  0.748260  0.418670  1
  B  B13  1  0.500000  0.251740  0.581330  1
  B  B14  1  0.500000  0.248260  0.081330  1
  B  B15  1  0.500000  0.751740  0.918670  1
  B  B16  1  0.500000  0.790520  0.267031  1
  B  B17  1  0.500000  0.209480  0.732969  1
  B  B18  1  0.500000  0.290520  0.232969  1
  B  B19  1  0.500000  0.709480  0.767031  1
  B  B20  1  0.500000  0.631741  0.185714  1
  B  B21  1  0.500000  0.368259  0.814286  1
  B  B22  1  0.500000  0.131741  0.314286  1
  B  B23  1  0.500000  0.868259  0.685714  1
  B  B24  1  0.500000  0.985083  0.213601  1
  B  B25  1  0.500000  0.014917  0.786399  1
  B  B26  1  0.500000  0.485083  0.286399  1
  B  B27  1  0.500000  0.514917  0.713601  1
  B  B28  1  0.500000  0.606180  0.029305  1
  B  B29  1  0.500000  0.393820  0.970695  1
  B  B30  1  0.500000  0.106180  0.470695  1
  B  B31  1  0.500000  0.893820  0.529305  1
  Os  Os32  1  0.000000  0.638398  0.320570  1
  Os  Os33  1  0.000000  0.361602  0.679430  1
  Os  Os34  1  0.000000  0.138398  0.179430  1
  Os  Os35  1  0.000000  0.861602  0.820570  1
