# generated using pymatgen
data_Ho4Al18NiIr3Pd2
_symmetry_space_group_name_H-M   'P 1'
_cell_length_a   7.55918718
_cell_length_b   7.55918671
_cell_length_c   9.39617438
_cell_angle_alpha   89.93376745
_cell_angle_beta   89.93376297
_cell_angle_gamma   119.42166108
_symmetry_Int_Tables_number   1
_chemical_formula_structural   Ho4Al18NiIr3Pd2
_chemical_formula_sum   'Ho4 Al18 Ni1 Ir3 Pd2'
_cell_volume   467.66222821
_cell_formula_units_Z   1
loop_
 _symmetry_equiv_pos_site_id
 _symmetry_equiv_pos_as_xyz
  1  'x, y, z'
loop_
 _atom_site_type_symbol
 _atom_site_label
 _atom_site_symmetry_multiplicity
 _atom_site_fract_x
 _atom_site_fract_y
 _atom_site_fract_z
 _atom_site_occupancy
  Ho  Ho0  1  0.997310  0.674365  0.249987  1
  Ho  Ho1  1  0.006633  0.328455  0.750214  1
  Ho  Ho2  1  0.671545  0.993367  0.249786  1
  Ho  Ho3  1  0.325635  0.002690  0.750013  1
  Al  Al4  1  0.129228  0.130938  0.249476  1
  Al  Al5  1  0.869062  0.870772  0.750524  1
  Al  Al6  1  0.991557  0.332506  0.075274  1
  Al  Al7  1  0.994647  0.662365  0.924349  1
  Al  Al8  1  0.995085  0.662749  0.576149  1
  Al  Al9  1  0.337251  0.004915  0.423851  1
  Al  Al10  1  0.996343  0.331905  0.424076  1
  Al  Al11  1  0.668095  0.003657  0.575924  1
  Al  Al12  1  0.667494  0.008443  0.924726  1
  Al  Al13  1  0.337635  0.005353  0.075651  1
  Al  Al14  1  0.333352  0.329925  0.552395  1
  Al  Al15  1  0.670075  0.666648  0.447605  1
  Al  Al16  1  0.669399  0.665027  0.052967  1
  Al  Al17  1  0.334973  0.330601  0.947033  1
  Al  Al18  1  0.341186  0.546852  0.250066  1
  Al  Al19  1  0.658073  0.444783  0.753184  1
  Al  Al20  1  0.555217  0.341927  0.246816  1
  Al  Al21  1  0.453148  0.658814  0.749934  1
  Ni  Ni22  1  0.671185  0.328815  0.000000  1
  Ir  Ir23  1  0.671842  0.328158  0.500000  1
  Ir  Ir24  1  0.999278  0.000722  0.000000  1
  Ir  Ir25  1  0.000540  0.999460  0.500000  1
  Pd  Pd26  1  0.327640  0.672360  0.000000  1
  Pd  Pd27  1  0.326575  0.673425  0.500000  1
