# generated using pymatgen
data_Dy5Y3Re2(TcB12)2
_symmetry_space_group_name_H-M   'P 1'
_cell_length_a   3.68738900
_cell_length_b   9.17286897
_cell_length_c   11.55711601
_cell_angle_alpha   90.05059216
_cell_angle_beta   90.00000000
_cell_angle_gamma   90.00000000
_symmetry_Int_Tables_number   1
_chemical_formula_structural   Dy5Y3Re2(TcB12)2
_chemical_formula_sum   'Dy5 Y3 Re2 Tc2 B24'
_cell_volume   390.90700152
_cell_formula_units_Z   1
loop_
 _symmetry_equiv_pos_site_id
 _symmetry_equiv_pos_as_xyz
  1  'x, y, z'
loop_
 _atom_site_type_symbol
 _atom_site_label
 _atom_site_symmetry_multiplicity
 _atom_site_fract_x
 _atom_site_fract_y
 _atom_site_fract_z
 _atom_site_occupancy
  Dy  Dy0  1  0.000000  0.176367  0.914088  1
  Dy  Dy1  1  0.000000  0.941989  0.369755  1
  Dy  Dy2  1  0.000000  0.058058  0.630250  1
  Dy  Dy3  1  0.000000  0.443483  0.130646  1
  Dy  Dy4  1  0.000000  0.556461  0.869323  1
  Y  Y5  1  0.000000  0.323907  0.414089  1
  Y  Y6  1  0.000000  0.676091  0.585901  1
  Y  Y7  1  0.000000  0.823472  0.085903  1
  Re  Re8  1  0.000000  0.138679  0.179256  1
  Re  Re9  1  0.000000  0.861421  0.820724  1
  Tc  Tc10  1  0.000000  0.638689  0.320716  1
  Tc  Tc11  1  0.000000  0.361254  0.679352  1
  B  B12  1  0.500000  0.553468  0.432775  1
  B  B13  1  0.500000  0.446529  0.567240  1
  B  B14  1  0.500000  0.053490  0.066998  1
  B  B15  1  0.500000  0.946791  0.932886  1
  B  B16  1  0.500000  0.748544  0.418340  1
  B  B17  1  0.500000  0.251481  0.581695  1
  B  B18  1  0.500000  0.248943  0.081527  1
  B  B19  1  0.500000  0.751041  0.918322  1
  B  B20  1  0.500000  0.791616  0.265614  1
  B  B21  1  0.500000  0.208363  0.734505  1
  B  B22  1  0.500000  0.291939  0.234474  1
  B  B23  1  0.500000  0.708058  0.765509  1
  B  B24  1  0.500000  0.630950  0.185956  1
  B  B25  1  0.500000  0.368910  0.814136  1
  B  B26  1  0.500000  0.130599  0.314318  1
  B  B27  1  0.500000  0.869429  0.685684  1
  B  B28  1  0.500000  0.982361  0.211857  1
  B  B29  1  0.500000  0.017813  0.788198  1
  B  B30  1  0.500000  0.482717  0.288200  1
  B  B31  1  0.500000  0.517246  0.711803  1
  B  B32  1  0.500000  0.600430  0.027990  1
  B  B33  1  0.500000  0.399398  0.971963  1
  B  B34  1  0.500000  0.100100  0.471827  1
  B  B35  1  0.500000  0.899913  0.528179  1
