# generated using pymatgen
data_Sc3Be(B4Ru5)2
_symmetry_space_group_name_H-M   'P 1'
_cell_length_a   2.97988600
_cell_length_b   8.39986218
_cell_length_c   10.01156467
_cell_angle_alpha   87.37344235
_cell_angle_beta   90.00000000
_cell_angle_gamma   90.00000000
_symmetry_Int_Tables_number   1
_chemical_formula_structural   Sc3Be(B4Ru5)2
_chemical_formula_sum   'Sc3 Be1 B8 Ru10'
_cell_volume   250.33252139
_cell_formula_units_Z   1
loop_
 _symmetry_equiv_pos_site_id
 _symmetry_equiv_pos_as_xyz
  1  'x, y, z'
loop_
 _atom_site_type_symbol
 _atom_site_label
 _atom_site_symmetry_multiplicity
 _atom_site_fract_x
 _atom_site_fract_y
 _atom_site_fract_z
 _atom_site_occupancy
  Sc  Sc0  1  0.500000  0.146375  0.833244  1
  Sc  Sc1  1  0.500000  0.654783  0.674342  1
  Sc  Sc2  1  0.500000  0.357604  0.304046  1
  Be  Be3  1  0.500000  0.879915  0.210068  1
  B  B4  1  0.500000  0.966986  0.596174  1
  B  B5  1  0.500000  0.041731  0.417261  1
  B  B6  1  0.500000  0.838105  0.905376  1
  B  B7  1  0.500000  0.127678  0.102648  1
  B  B8  1  0.500000  0.664242  0.381591  1
  B  B9  1  0.500000  0.355031  0.593293  1
  B  B10  1  0.500000  0.450806  0.905639  1
  B  B11  1  0.500000  0.536150  0.085423  1
  Ru  Ru12  1  0.000000  0.639786  0.941419  1
  Ru  Ru13  1  0.000000  0.321897  0.042021  1
  Ru  Ru14  1  0.000000  0.845463  0.462663  1
  Ru  Ru15  1  0.000000  0.161320  0.546808  1
  Ru  Ru16  1  0.000000  0.961173  0.022534  1
  Ru  Ru17  1  0.000000  0.395774  0.753600  1
  Ru  Ru18  1  0.000000  0.653914  0.222928  1
  Ru  Ru19  1  0.000000  0.506427  0.486260  1
  Ru  Ru20  1  0.000000  0.900706  0.746969  1
  Ru  Ru21  1  0.000000  0.094134  0.265693  1
