# generated using pymatgen
data_Y2ScCo9As7Ru2
_symmetry_space_group_name_H-M   'P 1'
_cell_length_a   3.81543400
_cell_length_b   9.43725919
_cell_length_c   9.42001160
_cell_angle_alpha   119.44076426
_cell_angle_beta   90.00000000
_cell_angle_gamma   90.00000000
_symmetry_Int_Tables_number   1
_chemical_formula_structural   Y2ScCo9As7Ru2
_chemical_formula_sum   'Y2 Sc1 Co9 As7 Ru2'
_cell_volume   295.38726481
_cell_formula_units_Z   1
loop_
 _symmetry_equiv_pos_site_id
 _symmetry_equiv_pos_as_xyz
  1  'x, y, z'
loop_
 _atom_site_type_symbol
 _atom_site_label
 _atom_site_symmetry_multiplicity
 _atom_site_fract_x
 _atom_site_fract_y
 _atom_site_fract_z
 _atom_site_occupancy
  Y  Y0  1  0.000000  0.667503  0.336606  1
  Y  Y1  1  0.500000  0.327949  0.662827  1
  Sc  Sc2  1  0.500000  0.783775  0.894093  1
  Co  Co3  1  0.000000  0.566860  0.942573  1
  Co  Co4  1  0.000000  0.368404  0.427865  1
  Co  Co5  1  0.000000  0.059603  0.629494  1
  Co  Co6  1  0.000000  0.877438  0.161402  1
  Co  Co7  1  0.000000  0.287162  0.125824  1
  Co  Co8  1  0.000000  0.845565  0.720841  1
  Co  Co9  1  0.500000  0.947202  0.385288  1
  Co  Co10  1  0.500000  0.432894  0.053303  1
  Co  Co11  1  0.500000  0.615653  0.560976  1
  As  As12  1  0.000000  0.013202  0.008107  1
  As  As13  1  0.500000  0.704603  0.123106  1
  As  As14  1  0.500000  0.408648  0.291181  1
  As  As15  1  0.500000  0.881959  0.591076  1
  As  As16  1  0.000000  0.579132  0.693465  1
  As  As17  1  0.000000  0.112113  0.410547  1
  As  As18  1  0.000000  0.299009  0.886501  1
  Ru  Ru19  1  0.500000  0.120871  0.220228  1
  Ru  Ru20  1  0.500000  0.100455  0.874695  1
