# generated using pymatgen
data_ErSc9(In2Au)4
_symmetry_space_group_name_H-M   'P 1'
_cell_length_a   3.48560600
_cell_length_b   7.86636878
_cell_length_c   17.74243466
_cell_angle_alpha   89.88064484
_cell_angle_beta   90.00000000
_cell_angle_gamma   90.00000000
_symmetry_Int_Tables_number   1
_chemical_formula_structural   ErSc9(In2Au)4
_chemical_formula_sum   'Er1 Sc9 In8 Au4'
_cell_volume   486.47986413
_cell_formula_units_Z   1
loop_
 _symmetry_equiv_pos_site_id
 _symmetry_equiv_pos_as_xyz
  1  'x, y, z'
loop_
 _atom_site_type_symbol
 _atom_site_label
 _atom_site_symmetry_multiplicity
 _atom_site_fract_x
 _atom_site_fract_y
 _atom_site_fract_z
 _atom_site_occupancy
  Er  Er0  1  0.000000  0.741670  0.284309  1
  Sc  Sc1  1  0.000000  0.125546  0.423506  1
  Sc  Sc2  1  0.000000  0.876550  0.580423  1
  Sc  Sc3  1  0.000000  0.375679  0.920611  1
  Sc  Sc4  1  0.000000  0.623614  0.076839  1
  Sc  Sc5  1  0.000000  0.239720  0.214817  1
  Sc  Sc6  1  0.000000  0.757854  0.783230  1
  Sc  Sc7  1  0.000000  0.258442  0.717078  1
  Sc  Sc8  1  0.000000  0.999023  0.998345  1
  Sc  Sc9  1  0.000000  0.500260  0.500750  1
  In  In10  1  0.500000  0.416686  0.354772  1
  In  In11  1  0.500000  0.578460  0.646679  1
  In  In12  1  0.500000  0.078664  0.853552  1
  In  In13  1  0.500000  0.923742  0.143939  1
  In  In14  1  0.500000  0.290358  0.062696  1
  In  In15  1  0.500000  0.706634  0.934491  1
  In  In16  1  0.500000  0.208007  0.565572  1
  In  In17  1  0.500000  0.796757  0.439833  1
  Au  Au18  1  0.500000  0.041872  0.305328  1
  Au  Au19  1  0.500000  0.967074  0.696700  1
  Au  Au20  1  0.500000  0.466221  0.803769  1
  Au  Au21  1  0.500000  0.527170  0.192760  1
