# generated using pymatgen
data_Li4Sn7S16
_symmetry_space_group_name_H-M   'P 1'
_cell_length_a   13.05575701
_cell_length_b   13.05503015
_cell_length_c   13.05527747
_cell_angle_alpha   33.80139378
_cell_angle_beta   33.80222424
_cell_angle_gamma   33.80198077
_symmetry_Int_Tables_number   1
_chemical_formula_structural   Li4Sn7S16
_chemical_formula_sum   'Li4 Sn7 S16'
_cell_volume   613.67403967
_cell_formula_units_Z   1
loop_
 _symmetry_equiv_pos_site_id
 _symmetry_equiv_pos_as_xyz
  1  'x, y, z'
loop_
 _atom_site_type_symbol
 _atom_site_label
 _atom_site_symmetry_multiplicity
 _atom_site_fract_x
 _atom_site_fract_y
 _atom_site_fract_z
 _atom_site_occupancy
  Li  Li0  1  0.000491  0.000480  0.000490  1
  Li  Li1  1  0.701399  0.701414  0.701406  1
  Li  Li2  1  0.304580  0.304561  0.304567  1
  Li  Li3  1  0.188851  0.188849  0.188851  1
  Sn  Sn4  1  0.242459  0.755333  0.755357  1
  Sn  Sn5  1  0.755356  0.755327  0.242466  1
  Sn  Sn6  1  0.755371  0.242453  0.755322  1
  Sn  Sn7  1  0.497483  0.497482  0.497493  1
  Sn  Sn8  1  0.247982  0.751055  0.247960  1
  Sn  Sn9  1  0.751000  0.247991  0.248016  1
  Sn  Sn10  1  0.248000  0.247989  0.751012  1
  S  S11  1  0.876697  0.876686  0.876691  1
  S  S12  1  0.356559  0.888173  0.888156  1
  S  S13  1  0.888145  0.888177  0.356560  1
  S  S14  1  0.888155  0.356560  0.888164  1
  S  S15  1  0.622055  0.622047  0.622054  1
  S  S16  1  0.387753  0.851052  0.387759  1
  S  S17  1  0.851067  0.387748  0.387747  1
  S  S18  1  0.387755  0.387750  0.851060  1
  S  S19  1  0.140886  0.614858  0.614848  1
  S  S20  1  0.614830  0.614859  0.140902  1
  S  S21  1  0.614839  0.140899  0.614848  1
  S  S22  1  0.376162  0.376168  0.376163  1
  S  S23  1  0.113693  0.640110  0.113697  1
  S  S24  1  0.640128  0.113683  0.113679  1
  S  S25  1  0.113701  0.113680  0.640119  1
  S  S26  1  0.123002  0.123014  0.123009  1
