# generated using pymatgen
data_LaPr5FeI10
_symmetry_space_group_name_H-M   'P 1'
_cell_length_a   8.05634474
_cell_length_b   9.84579378
_cell_length_c   10.17821796
_cell_angle_alpha   107.88953738
_cell_angle_beta   97.42160947
_cell_angle_gamma   104.64873180
_symmetry_Int_Tables_number   1
_chemical_formula_structural   LaPr5FeI10
_chemical_formula_sum   'La1 Pr5 Fe1 I10'
_cell_volume   724.33541380
_cell_formula_units_Z   1
loop_
 _symmetry_equiv_pos_site_id
 _symmetry_equiv_pos_as_xyz
  1  'x, y, z'
loop_
 _atom_site_type_symbol
 _atom_site_label
 _atom_site_symmetry_multiplicity
 _atom_site_fract_x
 _atom_site_fract_y
 _atom_site_fract_z
 _atom_site_occupancy
  La  La0  1  0.530329  0.245744  0.425555  1
  Pr  Pr1  1  0.467855  0.763378  0.576911  1
  Pr  Pr2  1  0.141064  0.367342  0.326725  1
  Pr  Pr3  1  0.858969  0.631588  0.672583  1
  Pr  Pr4  1  0.619031  0.543942  0.254101  1
  Pr  Pr5  1  0.382686  0.455485  0.746132  1
  Fe  Fe6  1  0.502380  0.486024  0.495999  1
  I  I7  1  0.144477  0.040997  0.224765  1
  I  I8  1  0.847216  0.957216  0.772279  1
  I  I9  1  0.238681  0.412532  0.042002  1
  I  I10  1  0.762625  0.590160  0.959023  1
  I  I11  1  0.710165  0.238529  0.148968  1
  I  I12  1  0.293473  0.764285  0.847768  1
  I  I13  1  0.048844  0.688104  0.413844  1
  I  I14  1  0.955824  0.314707  0.588410  1
  I  I15  1  0.411751  0.128556  0.679842  1
  I  I16  1  0.584634  0.871411  0.325097  1
