# generated using pymatgen
data_Tm5GaCuBi
_symmetry_space_group_name_H-M   'P 1'
_cell_length_a   8.46543859
_cell_length_b   8.46543907
_cell_length_c   8.61611309
_cell_angle_alpha   124.39151804
_cell_angle_beta   124.39153002
_cell_angle_gamma   81.38484412
_symmetry_Int_Tables_number   1
_chemical_formula_structural   Tm5GaCuBi
_chemical_formula_sum   'Tm10 Ga2 Cu2 Bi2'
_cell_volume   407.26608308
_cell_formula_units_Z   2
loop_
 _symmetry_equiv_pos_site_id
 _symmetry_equiv_pos_as_xyz
  1  'x, y, z'
loop_
 _atom_site_type_symbol
 _atom_site_label
 _atom_site_symmetry_multiplicity
 _atom_site_fract_x
 _atom_site_fract_y
 _atom_site_fract_z
 _atom_site_occupancy
  Tm  Tm0  1  0.000000  0.000000  0.000000  1
  Tm  Tm1  1  0.500000  0.500000  0.000000  1
  Tm  Tm2  1  0.786443  0.286443  0.793196  1
  Tm  Tm3  1  0.213557  0.713557  0.206804  1
  Tm  Tm4  1  0.493247  0.993247  0.206804  1
  Tm  Tm5  1  0.298433  0.476310  0.500000  1
  Tm  Tm6  1  0.023690  0.201567  0.500000  1
  Tm  Tm7  1  0.506753  0.006753  0.793196  1
  Tm  Tm8  1  0.701567  0.523690  0.500000  1
  Tm  Tm9  1  0.976310  0.798433  0.500000  1
  Ga  Ga10  1  0.143849  0.643849  0.787698  1
  Ga  Ga11  1  0.856151  0.356151  0.212302  1
  Cu  Cu12  1  0.631782  0.868218  0.500000  1
  Cu  Cu13  1  0.368218  0.131782  0.500000  1
  Bi  Bi14  1  0.250000  0.250000  0.000000  1
  Bi  Bi15  1  0.750000  0.750000  0.000000  1
