# generated using pymatgen
data_NdThNi12P5
_symmetry_space_group_name_H-M   'P 1'
_cell_length_a   3.70524500
_cell_length_b   10.81142024
_cell_length_c   13.09840412
_cell_angle_alpha   72.04771799
_cell_angle_beta   90.00000000
_cell_angle_gamma   90.00000000
_symmetry_Int_Tables_number   1
_chemical_formula_structural   NdThNi12P5
_chemical_formula_sum   'Nd2 Th2 Ni24 P10'
_cell_volume   499.16226351
_cell_formula_units_Z   2
loop_
 _symmetry_equiv_pos_site_id
 _symmetry_equiv_pos_as_xyz
  1  'x, y, z'
loop_
 _atom_site_type_symbol
 _atom_site_label
 _atom_site_symmetry_multiplicity
 _atom_site_fract_x
 _atom_site_fract_y
 _atom_site_fract_z
 _atom_site_occupancy
  Nd  Nd0  1  0.250000  0.247644  0.187168  1
  Nd  Nd1  1  0.750000  0.752356  0.812832  1
  Th  Th2  1  0.250000  0.279445  0.682817  1
  Th  Th3  1  0.750000  0.720555  0.317183  1
  Ni  Ni4  1  0.250000  0.837459  0.139291  1
  Ni  Ni5  1  0.750000  0.162541  0.860709  1
  Ni  Ni6  1  0.250000  0.285491  0.439729  1
  Ni  Ni7  1  0.750000  0.714509  0.560271  1
  Ni  Ni8  1  0.250000  0.070338  0.016069  1
  Ni  Ni9  1  0.750000  0.929662  0.983931  1
  Ni  Ni10  1  0.250000  0.063606  0.446225  1
  Ni  Ni11  1  0.750000  0.936394  0.553775  1
  Ni  Ni12  1  0.250000  0.597740  0.696308  1
  Ni  Ni13  1  0.750000  0.402260  0.303692  1
  Ni  Ni14  1  0.250000  0.582504  0.008563  1
  Ni  Ni15  1  0.750000  0.417496  0.991437  1
  Ni  Ni16  1  0.250000  0.580025  0.508509  1
  Ni  Ni17  1  0.750000  0.419975  0.491491  1
  Ni  Ni18  1  0.250000  0.298009  0.917924  1
  Ni  Ni19  1  0.750000  0.701991  0.082076  1
  Ni  Ni20  1  0.250000  0.993767  0.659851  1
  Ni  Ni21  1  0.750000  0.006233  0.340149  1
  Ni  Ni22  1  0.250000  0.839487  0.436126  1
  Ni  Ni23  1  0.750000  0.160513  0.563874  1
  Ni  Ni24  1  0.250000  0.988059  0.849454  1
  Ni  Ni25  1  0.750000  0.011941  0.150546  1
  Ni  Ni26  1  0.250000  0.565077  0.203546  1
  Ni  Ni27  1  0.750000  0.434923  0.796454  1
  P  P28  1  0.250000  0.508444  0.871137  1
  P  P29  1  0.750000  0.491556  0.128863  1
  P  P30  1  0.250000  0.800170  0.984107  1
  P  P31  1  0.750000  0.199830  0.015893  1
  P  P32  1  0.250000  0.492670  0.378066  1
  P  P33  1  0.750000  0.507330  0.621934  1
  P  P34  1  0.250000  0.812810  0.610222  1
  P  P35  1  0.750000  0.187190  0.389778  1
  P  P36  1  0.250000  0.952539  0.258000  1
  P  P37  1  0.750000  0.047461  0.742000  1
