# generated using pymatgen
data_Hg4IrRh3O14
_symmetry_space_group_name_H-M   'P 1'
_cell_length_a   7.29781076
_cell_length_b   7.29781182
_cell_length_c   7.32864795
_cell_angle_alpha   60.13908189
_cell_angle_beta   60.13907865
_cell_angle_gamma   59.99999409
_symmetry_Int_Tables_number   1
_chemical_formula_structural   Hg4IrRh3O14
_chemical_formula_sum   'Hg4 Ir1 Rh3 O14'
_cell_volume   276.56924352
_cell_formula_units_Z   1
loop_
 _symmetry_equiv_pos_site_id
 _symmetry_equiv_pos_as_xyz
  1  'x, y, z'
loop_
 _atom_site_type_symbol
 _atom_site_label
 _atom_site_symmetry_multiplicity
 _atom_site_fract_x
 _atom_site_fract_y
 _atom_site_fract_z
 _atom_site_occupancy
  Hg  Hg0  1  0.625000  0.125000  0.125000  1
  Hg  Hg1  1  0.125000  0.625000  0.125000  1
  Hg  Hg2  1  0.125000  0.125000  0.625000  1
  Hg  Hg3  1  0.125000  0.125000  0.125000  1
  Ir  Ir4  1  0.625000  0.625000  0.125000  1
  Rh  Rh5  1  0.125000  0.625000  0.625000  1
  Rh  Rh6  1  0.625000  0.125000  0.625000  1
  Rh  Rh7  1  0.625000  0.625000  0.625000  1
  O  O8  1  0.694790  0.694790  0.301412  1
  O  O9  1  0.301096  0.301096  0.701589  1
  O  O10  1  0.696218  0.301096  0.701589  1
  O  O11  1  0.309008  0.694790  0.301412  1
  O  O12  1  0.301096  0.696218  0.701589  1
  O  O13  1  0.694790  0.309008  0.301412  1
  O  O14  1  0.555210  0.555210  0.948588  1
  O  O15  1  0.948904  0.948904  0.548411  1
  O  O16  1  0.553782  0.948904  0.548411  1
  O  O17  1  0.940992  0.555210  0.948588  1
  O  O18  1  0.948904  0.553782  0.548411  1
  O  O19  1  0.555210  0.940992  0.948588  1
  O  O20  1  0.251050  0.251050  0.246851  1
  O  O21  1  0.998950  0.998950  0.003149  1
