# generated using pymatgen
data_Y10TcRh3
_symmetry_space_group_name_H-M   'P 1'
_cell_length_a   6.44446114
_cell_length_b   7.29317515
_cell_length_c   8.57131989
_cell_angle_alpha   96.60386213
_cell_angle_beta   111.53832331
_cell_angle_gamma   90.06875095
_symmetry_Int_Tables_number   1
_chemical_formula_structural   Y10TcRh3
_chemical_formula_sum   'Y10 Tc1 Rh3'
_cell_volume   371.82889590
_cell_formula_units_Z   1
loop_
 _symmetry_equiv_pos_site_id
 _symmetry_equiv_pos_as_xyz
  1  'x, y, z'
loop_
 _atom_site_type_symbol
 _atom_site_label
 _atom_site_symmetry_multiplicity
 _atom_site_fract_x
 _atom_site_fract_y
 _atom_site_fract_z
 _atom_site_occupancy
  Y  Y0  1  0.980677  0.915662  0.189975  1
  Y  Y1  1  0.796220  0.584472  0.820313  1
  Y  Y2  1  0.018193  0.084854  0.812434  1
  Y  Y3  1  0.209948  0.416163  0.189722  1
  Y  Y4  1  0.649717  0.813009  0.434523  1
  Y  Y5  1  0.205824  0.684802  0.560657  1
  Y  Y6  1  0.353089  0.185210  0.564673  1
  Y  Y7  1  0.789257  0.316112  0.434846  1
  Y  Y8  1  0.423339  0.750293  0.000644  1
  Y  Y9  1  0.577406  0.250407  0.000947  1
  Tc  Tc10  1  0.822190  0.573551  0.212903  1
  Rh  Rh11  1  0.598158  0.926141  0.775720  1
  Rh  Rh12  1  0.178059  0.424435  0.779021  1
  Rh  Rh13  1  0.397924  0.074890  0.223620  1
