# generated using pymatgen
data_Ho3ErGa4(IrPt)2
_symmetry_space_group_name_H-M   'P 1'
_cell_length_a   4.41221400
_cell_length_b   6.78417807
_cell_length_c   7.70290208
_cell_angle_alpha   89.98360352
_cell_angle_beta   90.00000000
_cell_angle_gamma   90.00000000
_symmetry_Int_Tables_number   1
_chemical_formula_structural   Ho3ErGa4(IrPt)2
_chemical_formula_sum   'Ho3 Er1 Ga4 Ir2 Pt2'
_cell_volume   230.57284921
_cell_formula_units_Z   1
loop_
 _symmetry_equiv_pos_site_id
 _symmetry_equiv_pos_as_xyz
  1  'x, y, z'
loop_
 _atom_site_type_symbol
 _atom_site_label
 _atom_site_symmetry_multiplicity
 _atom_site_fract_x
 _atom_site_fract_y
 _atom_site_fract_z
 _atom_site_occupancy
  Ho  Ho0  1  0.250000  0.985319  0.304369  1
  Ho  Ho1  1  0.750000  0.021066  0.690025  1
  Ho  Ho2  1  0.750000  0.520979  0.810101  1
  Er  Er3  1  0.250000  0.485190  0.195557  1
  Ga  Ga4  1  0.250000  0.332740  0.568940  1
  Ga  Ga5  1  0.250000  0.832592  0.931027  1
  Ga  Ga6  1  0.750000  0.662264  0.425612  1
  Ga  Ga7  1  0.750000  0.162523  0.074271  1
  Ir  Ir8  1  0.750000  0.770929  0.103913  1
  Ir  Ir9  1  0.750000  0.271386  0.395971  1
  Pt  Pt10  1  0.250000  0.227609  0.895691  1
  Pt  Pt11  1  0.250000  0.727406  0.604522  1
