# generated using pymatgen
data_HfNpF7
_symmetry_space_group_name_H-M   'P 1'
_cell_length_a   5.90983200
_cell_length_b   6.26412191
_cell_length_c   8.52741098
_cell_angle_alpha   78.32513675
_cell_angle_beta   90.00000000
_cell_angle_gamma   90.00000000
_symmetry_Int_Tables_number   1
_chemical_formula_structural   HfNpF7
_chemical_formula_sum   'Hf2 Np2 F14'
_cell_volume   309.15300094
_cell_formula_units_Z   2
loop_
 _symmetry_equiv_pos_site_id
 _symmetry_equiv_pos_as_xyz
  1  'x, y, z'
loop_
 _atom_site_type_symbol
 _atom_site_label
 _atom_site_symmetry_multiplicity
 _atom_site_fract_x
 _atom_site_fract_y
 _atom_site_fract_z
 _atom_site_occupancy
  Hf  Hf0  1  0.211646  0.809997  0.780671  1
  Hf  Hf1  1  0.711646  0.190003  0.219329  1
  Np  Np2  1  0.203494  0.660349  0.315349  1
  Np  Np3  1  0.703494  0.339651  0.684651  1
  F  F4  1  0.381804  0.443022  0.527918  1
  F  F5  1  0.881804  0.556978  0.472082  1
  F  F6  1  0.919580  0.933871  0.225166  1
  F  F7  1  0.419580  0.066129  0.774834  1
  F  F8  1  0.452834  0.975076  0.238382  1
  F  F9  1  0.952834  0.024924  0.761618  1
  F  F10  1  0.495938  0.439901  0.212314  1
  F  F11  1  0.995938  0.560099  0.787686  1
  F  F12  1  0.208112  0.757520  0.019663  1
  F  F13  1  0.708112  0.242480  0.980337  1
  F  F14  1  0.217014  0.858917  0.538984  1
  F  F15  1  0.717014  0.141083  0.461016  1
  F  F16  1  0.985937  0.382036  0.214457  1
  F  F17  1  0.485937  0.617964  0.785543  1
