# generated using pymatgen
data_Y5(TcO6)2
_symmetry_space_group_name_H-M   'P 1'
_cell_length_a   5.67846000
_cell_length_b   6.85256569
_cell_length_c   7.55568351
_cell_angle_alpha   106.24729096
_cell_angle_beta   90.00000000
_cell_angle_gamma   114.47718982
_symmetry_Int_Tables_number   1
_chemical_formula_structural   Y5(TcO6)2
_chemical_formula_sum   'Y5 Tc2 O12'
_cell_volume   254.62610822
_cell_formula_units_Z   1
loop_
 _symmetry_equiv_pos_site_id
 _symmetry_equiv_pos_as_xyz
  1  'x, y, z'
loop_
 _atom_site_type_symbol
 _atom_site_label
 _atom_site_symmetry_multiplicity
 _atom_site_fract_x
 _atom_site_fract_y
 _atom_site_fract_z
 _atom_site_occupancy
  Y  Y0  1  0.815552  0.631102  0.175057  1
  Y  Y1  1  0.195246  0.390492  0.357756  1
  Y  Y2  1  0.500000  0.000000  0.500000  1
  Y  Y3  1  0.804755  0.609509  0.642245  1
  Y  Y4  1  0.184449  0.368898  0.824943  1
  Tc  Tc5  1  0.286191  0.000000  0.000000  1
  Tc  Tc6  1  0.713809  0.000000  0.000000  1
  O  O7  1  0.413606  0.328155  0.082845  1
  O  O8  1  0.914549  0.328155  0.082845  1
  O  O9  1  0.001321  0.002641  0.177384  1
  O  O10  1  0.499628  0.999255  0.204216  1
  O  O11  1  0.094141  0.691851  0.425581  1
  O  O12  1  0.597710  0.691851  0.425581  1
  O  O13  1  0.402291  0.308149  0.574420  1
  O  O14  1  0.905860  0.308149  0.574420  1
  O  O15  1  0.500373  0.000745  0.795783  1
  O  O16  1  0.998680  0.997359  0.822617  1
  O  O17  1  0.085453  0.671846  0.917156  1
  O  O18  1  0.586393  0.671846  0.917156  1
