# generated using pymatgen
data_TbLu2Co8P6Os
_symmetry_space_group_name_H-M   'P 1'
_cell_length_a   3.68417400
_cell_length_b   10.43733600
_cell_length_c   12.16032700
_cell_angle_alpha   90.00000000
_cell_angle_beta   90.00000000
_cell_angle_gamma   90.00000000
_symmetry_Int_Tables_number   1
_chemical_formula_structural   TbLu2Co8P6Os
_chemical_formula_sum   'Tb2 Lu4 Co16 P12 Os2'
_cell_volume   467.60059107
_cell_formula_units_Z   2
loop_
 _symmetry_equiv_pos_site_id
 _symmetry_equiv_pos_as_xyz
  1  'x, y, z'
loop_
 _atom_site_type_symbol
 _atom_site_label
 _atom_site_symmetry_multiplicity
 _atom_site_fract_x
 _atom_site_fract_y
 _atom_site_fract_z
 _atom_site_occupancy
  Tb  Tb0  1  0.000000  0.500000  0.525848  1
  Tb  Tb1  1  0.500000  0.000000  0.474152  1
  Lu  Lu2  1  0.500000  0.817931  0.206850  1
  Lu  Lu3  1  0.500000  0.182069  0.206850  1
  Lu  Lu4  1  0.000000  0.682069  0.793150  1
  Lu  Lu5  1  0.000000  0.317931  0.793150  1
  Co  Co6  1  0.500000  0.500000  0.705134  1
  Co  Co7  1  0.000000  0.000000  0.294866  1
  Co  Co8  1  0.000000  0.500000  0.986982  1
  Co  Co9  1  0.500000  0.000000  0.013018  1
  Co  Co10  1  0.500000  0.332349  0.989472  1
  Co  Co11  1  0.500000  0.667651  0.989472  1
  Co  Co12  1  0.000000  0.167651  0.010528  1
  Co  Co13  1  0.000000  0.832349  0.010528  1
  Co  Co14  1  0.500000  0.297118  0.430734  1
  Co  Co15  1  0.500000  0.702882  0.430734  1
  Co  Co16  1  0.000000  0.202882  0.569266  1
  Co  Co17  1  0.000000  0.797118  0.569266  1
  Co  Co18  1  0.500000  0.878250  0.709065  1
  Co  Co19  1  0.500000  0.121750  0.709065  1
  Co  Co20  1  0.000000  0.621750  0.290935  1
  Co  Co21  1  0.000000  0.378250  0.290935  1
  P  P22  1  0.500000  0.500000  0.880446  1
  P  P23  1  0.000000  0.000000  0.119554  1
  P  P24  1  0.500000  0.500000  0.350930  1
  P  P25  1  0.000000  0.000000  0.649070  1
  P  P26  1  0.500000  0.311682  0.617658  1
  P  P27  1  0.500000  0.688318  0.617658  1
  P  P28  1  0.000000  0.188318  0.382342  1
  P  P29  1  0.000000  0.811682  0.382342  1
  P  P30  1  0.500000  0.845489  0.891819  1
  P  P31  1  0.500000  0.154511  0.891819  1
  P  P32  1  0.000000  0.654511  0.108181  1
  P  P33  1  0.000000  0.345489  0.108181  1
  Os  Os34  1  0.500000  0.500000  0.158860  1
  Os  Os35  1  0.000000  0.000000  0.841140  1
