# generated using pymatgen
data_Nd3Pa(Pd2Pb)2
_symmetry_space_group_name_H-M   'P 1'
_cell_length_a   3.73221400
_cell_length_b   8.05504565
_cell_length_c   8.05504565
_cell_angle_alpha   91.89178197
_cell_angle_beta   90.00000000
_cell_angle_gamma   90.00000000
_symmetry_Int_Tables_number   1
_chemical_formula_structural   Nd3Pa(Pd2Pb)2
_chemical_formula_sum   'Nd3 Pa1 Pd4 Pb2'
_cell_volume   242.02809256
_cell_formula_units_Z   1
loop_
 _symmetry_equiv_pos_site_id
 _symmetry_equiv_pos_as_xyz
  1  'x, y, z'
loop_
 _atom_site_type_symbol
 _atom_site_label
 _atom_site_symmetry_multiplicity
 _atom_site_fract_x
 _atom_site_fract_y
 _atom_site_fract_z
 _atom_site_occupancy
  Nd  Nd0  1  0.500000  0.824351  0.324351  1
  Nd  Nd1  1  0.500000  0.326472  0.173284  1
  Nd  Nd2  1  0.500000  0.673284  0.826472  1
  Pa  Pa3  1  0.500000  0.170476  0.670476  1
  Pd  Pd4  1  0.000000  0.617391  0.117391  1
  Pd  Pd5  1  0.000000  0.359551  0.859551  1
  Pd  Pd6  1  0.000000  0.893144  0.633636  1
  Pd  Pd7  1  0.000000  0.133636  0.393144  1
  Pb  Pb8  1  0.000000  0.999434  0.002261  1
  Pb  Pb9  1  0.000000  0.502261  0.499434  1
