# generated using pymatgen
data_Y3Er7(Bi2As)2
_symmetry_space_group_name_H-M   'P 1'
_cell_length_a   8.00992130
_cell_length_b   9.09435900
_cell_length_c   12.06374881
_cell_angle_alpha   90.00000000
_cell_angle_beta   89.97649890
_cell_angle_gamma   90.00000000
_symmetry_Int_Tables_number   1
_chemical_formula_structural   Y3Er7(Bi2As)2
_chemical_formula_sum   'Y6 Er14 Bi8 As4'
_cell_volume   878.78491228
_cell_formula_units_Z   2
loop_
 _symmetry_equiv_pos_site_id
 _symmetry_equiv_pos_as_xyz
  1  'x, y, z'
loop_
 _atom_site_type_symbol
 _atom_site_label
 _atom_site_symmetry_multiplicity
 _atom_site_fract_x
 _atom_site_fract_y
 _atom_site_fract_z
 _atom_site_occupancy
  Y  Y0  1  0.654528  0.750000  0.710369  1
  Y  Y1  1  0.345472  0.250000  0.289631  1
  Y  Y2  1  0.155853  0.250000  0.788061  1
  Y  Y3  1  0.844147  0.750000  0.211939  1
  Y  Y4  1  0.133012  0.750000  0.794017  1
  Y  Y5  1  0.866988  0.250000  0.205983  1
  Er  Er6  1  0.634625  0.250000  0.706028  1
  Er  Er7  1  0.365375  0.750000  0.293972  1
  Er  Er8  1  0.534732  0.750000  0.999999  1
  Er  Er9  1  0.465268  0.250000  0.000001  1
  Er  Er10  1  0.035172  0.250000  0.500066  1
  Er  Er11  1  0.964828  0.750000  0.499934  1
  Er  Er12  1  0.816823  0.444762  0.936184  1
  Er  Er13  1  0.183177  0.555238  0.063816  1
  Er  Er14  1  0.316638  0.555227  0.563040  1
  Er  Er15  1  0.183177  0.944762  0.063816  1
  Er  Er16  1  0.683362  0.444773  0.436960  1
  Er  Er17  1  0.816823  0.055238  0.936184  1
  Er  Er18  1  0.683362  0.055227  0.436960  1
  Er  Er19  1  0.316638  0.944773  0.563040  1
  Bi  Bi20  1  0.924647  0.009714  0.671500  1
  Bi  Bi21  1  0.075353  0.990286  0.328500  1
  Bi  Bi22  1  0.426253  0.991242  0.827766  1
  Bi  Bi23  1  0.075353  0.509714  0.328500  1
  Bi  Bi24  1  0.573747  0.008758  0.172234  1
  Bi  Bi25  1  0.924647  0.490286  0.671500  1
  Bi  Bi26  1  0.573747  0.491242  0.172234  1
  Bi  Bi27  1  0.426253  0.508758  0.827766  1
  As  As28  1  0.913701  0.750000  0.980886  1
  As  As29  1  0.086299  0.250000  0.019114  1
  As  As30  1  0.414824  0.250000  0.521109  1
  As  As31  1  0.585176  0.750000  0.478891  1
