# generated using pymatgen
data_Tb4Dy5Th3(Si2Ni)4
_symmetry_space_group_name_H-M   'P 1'
_cell_length_a   4.16797900
_cell_length_b   11.43277954
_cell_length_c   11.26364249
_cell_angle_alpha   89.62558852
_cell_angle_beta   90.00000000
_cell_angle_gamma   90.00000000
_symmetry_Int_Tables_number   1
_chemical_formula_structural   Tb4Dy5Th3(Si2Ni)4
_chemical_formula_sum   'Tb4 Dy5 Th3 Si8 Ni4'
_cell_volume   536.71895777
_cell_formula_units_Z   1
loop_
 _symmetry_equiv_pos_site_id
 _symmetry_equiv_pos_as_xyz
  1  'x, y, z'
loop_
 _atom_site_type_symbol
 _atom_site_label
 _atom_site_symmetry_multiplicity
 _atom_site_fract_x
 _atom_site_fract_y
 _atom_site_fract_z
 _atom_site_occupancy
  Tb  Tb0  1  0.750000  0.559787  0.616540  1
  Tb  Tb1  1  0.250000  0.120626  0.561932  1
  Tb  Tb2  1  0.250000  0.379804  0.059699  1
  Tb  Tb3  1  0.750000  0.875174  0.438947  1
  Dy  Dy4  1  0.750000  0.621892  0.936556  1
  Dy  Dy5  1  0.250000  0.802206  0.709413  1
  Dy  Dy6  1  0.250000  0.692561  0.210080  1
  Dy  Dy7  1  0.750000  0.197174  0.291582  1
  Dy  Dy8  1  0.750000  0.310638  0.790915  1
  Th  Th9  1  0.250000  0.061881  0.883151  1
  Th  Th10  1  0.250000  0.438988  0.385540  1
  Th  Th11  1  0.750000  0.939220  0.116570  1
  Si  Si12  1  0.250000  0.805437  0.970600  1
  Si  Si13  1  0.250000  0.689820  0.472105  1
  Si  Si14  1  0.750000  0.194756  0.029030  1
  Si  Si15  1  0.750000  0.308357  0.532138  1
  Si  Si16  1  0.250000  0.494494  0.801623  1
  Si  Si17  1  0.250000  0.014257  0.308092  1
  Si  Si18  1  0.750000  0.509534  0.193372  1
  Si  Si19  1  0.750000  0.985049  0.692635  1
  Ni  Ni20  1  0.250000  0.363169  0.629854  1
  Ni  Ni21  1  0.250000  0.135815  0.129509  1
  Ni  Ni22  1  0.750000  0.633320  0.368345  1
  Ni  Ni23  1  0.750000  0.866038  0.871774  1
