# generated using pymatgen
data_Li6YbZrUN6
_symmetry_space_group_name_H-M   'P 1'
_cell_length_a   5.89401800
_cell_length_b   5.89401909
_cell_length_c   5.45192500
_cell_angle_alpha   90.00000000
_cell_angle_beta   90.00000000
_cell_angle_gamma   120.00000511
_symmetry_Int_Tables_number   1
_chemical_formula_structural   Li6YbZrUN6
_chemical_formula_sum   'Li6 Yb1 Zr1 U1 N6'
_cell_volume   164.02251929
_cell_formula_units_Z   1
loop_
 _symmetry_equiv_pos_site_id
 _symmetry_equiv_pos_as_xyz
  1  'x, y, z'
loop_
 _atom_site_type_symbol
 _atom_site_label
 _atom_site_symmetry_multiplicity
 _atom_site_fract_x
 _atom_site_fract_y
 _atom_site_fract_z
 _atom_site_occupancy
  Li  Li0  1  0.997410  0.661889  0.611408  1
  Li  Li1  1  0.338111  0.335521  0.611408  1
  Li  Li2  1  0.664479  0.002590  0.611408  1
  Li  Li3  1  0.006922  0.332149  0.387596  1
  Li  Li4  1  0.667851  0.674773  0.387596  1
  Li  Li5  1  0.325227  0.993078  0.387596  1
  Yb  Yb6  1  0.333333  0.666667  0.998793  1
  Zr  Zr7  1  0.000000  0.000000  0.996392  1
  U  U8  1  0.666667  0.333333  0.003378  1
  N  N9  1  0.971574  0.659188  0.224700  1
  N  N10  1  0.340812  0.312385  0.224700  1
  N  N11  1  0.687615  0.028426  0.224700  1
  N  N12  1  0.971297  0.312488  0.776776  1
  N  N13  1  0.687512  0.658809  0.776776  1
  N  N14  1  0.341191  0.028703  0.776776  1
