# generated using pymatgen
data_K4Li2LuInSb4
_symmetry_space_group_name_H-M   'P 1'
_cell_length_a   9.60379112
_cell_length_b   9.60379105
_cell_length_c   9.60379093
_cell_angle_alpha   137.43808393
_cell_angle_beta   61.66933870
_cell_angle_gamma   137.56238191
_symmetry_Int_Tables_number   1
_chemical_formula_structural   K4Li2LuInSb4
_chemical_formula_sum   'K4 Li2 Lu1 In1 Sb4'
_cell_volume   399.63751791
_cell_formula_units_Z   1
loop_
 _symmetry_equiv_pos_site_id
 _symmetry_equiv_pos_as_xyz
  1  'x, y, z'
loop_
 _atom_site_type_symbol
 _atom_site_label
 _atom_site_symmetry_multiplicity
 _atom_site_fract_x
 _atom_site_fract_y
 _atom_site_fract_z
 _atom_site_occupancy
  K  K0  1  0.821280  0.254935  0.087018  1
  K  K1  1  0.678721  0.765740  0.433656  1
  K  K2  1  0.332083  0.245065  0.566345  1
  K  K3  1  0.167917  0.734261  0.912982  1
  Li  Li4  1  0.750000  0.250000  0.500000  1
  Li  Li5  1  0.250000  0.750001  0.500000  1
  Lu  Lu6  1  0.250000  0.250000  0.000000  1
  In  In7  1  0.749999  0.749999  0.000000  1
  Sb  Sb8  1  0.399859  0.747140  0.145686  1
  Sb  Sb9  1  0.100141  0.245828  0.347281  1
  Sb  Sb10  1  0.898547  0.752862  0.652719  1
  Sb  Sb11  1  0.601453  0.254172  0.854314  1
