# generated using pymatgen
data_Tb8Dy4InCo4Rh
_symmetry_space_group_name_H-M   'P 1'
_cell_length_a   8.32805228
_cell_length_b   8.32805166
_cell_length_c   8.32805179
_cell_angle_alpha   110.82259886
_cell_angle_beta   110.61983677
_cell_angle_gamma   106.99921347
_symmetry_Int_Tables_number   1
_chemical_formula_structural   Tb8Dy4InCo4Rh
_chemical_formula_sum   'Tb8 Dy4 In1 Co4 Rh1'
_cell_volume   444.02101289
_cell_formula_units_Z   1
loop_
 _symmetry_equiv_pos_site_id
 _symmetry_equiv_pos_as_xyz
  1  'x, y, z'
loop_
 _atom_site_type_symbol
 _atom_site_label
 _atom_site_symmetry_multiplicity
 _atom_site_fract_x
 _atom_site_fract_y
 _atom_site_fract_z
 _atom_site_occupancy
  Tb  Tb0  1  0.186077  0.292603  0.478680  1
  Tb  Tb1  1  0.813923  0.707397  0.521320  1
  Tb  Tb2  1  0.186077  0.707397  0.893474  1
  Tb  Tb3  1  0.813923  0.292603  0.106526  1
  Tb  Tb4  1  0.314657  0.619967  0.305310  1
  Tb  Tb5  1  0.685343  0.380033  0.694690  1
  Tb  Tb6  1  0.314657  0.009348  0.694690  1
  Tb  Tb7  1  0.685343  0.990652  0.305310  1
  Dy  Dy8  1  0.405270  0.211190  0.194080  1
  Dy  Dy9  1  0.594730  0.788810  0.805920  1
  Dy  Dy10  1  0.017111  0.211190  0.805920  1
  Dy  Dy11  1  0.982889  0.788810  0.194080  1
  In  In12  1  0.500000  0.500000  0.000000  1
  Co  Co13  1  0.379769  0.000000  0.379769  1
  Co  Co14  1  0.620231  0.000000  0.620231  1
  Co  Co15  1  0.111753  0.611753  0.500000  1
  Co  Co16  1  0.888247  0.388247  0.500000  1
  Rh  Rh17  1  0.000000  0.000000  0.000000  1
