# generated using pymatgen
data_Pr5FeReO12
_symmetry_space_group_name_H-M   'P 1'
_cell_length_a   7.09388400
_cell_length_b   7.09388511
_cell_length_c   7.72493354
_cell_angle_alpha   74.24267508
_cell_angle_beta   74.24266987
_cell_angle_gamma   51.00965176
_symmetry_Int_Tables_number   1
_chemical_formula_structural   Pr5FeReO12
_chemical_formula_sum   'Pr5 Fe1 Re1 O12'
_cell_volume   288.14995992
_cell_formula_units_Z   1
loop_
 _symmetry_equiv_pos_site_id
 _symmetry_equiv_pos_as_xyz
  1  'x, y, z'
loop_
 _atom_site_type_symbol
 _atom_site_label
 _atom_site_symmetry_multiplicity
 _atom_site_fract_x
 _atom_site_fract_y
 _atom_site_fract_z
 _atom_site_occupancy
  Pr  Pr0  1  0.320746  0.292995  0.357567  1
  Pr  Pr1  1  0.707005  0.679254  0.642433  1
  Pr  Pr2  1  0.691504  0.690803  0.167827  1
  Pr  Pr3  1  0.309197  0.308496  0.832173  1
  Pr  Pr4  1  0.010718  0.989282  0.500000  1
  Fe  Fe5  1  0.754105  0.245895  0.000000  1
  Re  Re6  1  0.229054  0.770946  0.000000  1
  O  O7  1  0.103706  0.590821  0.573990  1
  O  O8  1  0.007380  0.991061  0.178813  1
  O  O9  1  0.409179  0.896294  0.426010  1
  O  O10  1  0.477082  0.524618  0.173200  1
  O  O11  1  0.100311  0.592318  0.077854  1
  O  O12  1  0.914215  0.399043  0.418571  1
  O  O13  1  0.008939  0.992620  0.821187  1
  O  O14  1  0.600957  0.085784  0.581429  1
  O  O15  1  0.475382  0.522918  0.826800  1
  O  O16  1  0.574181  0.101344  0.078494  1
  O  O17  1  0.407682  0.899689  0.922146  1
  O  O18  1  0.898656  0.425819  0.921506  1
