# generated using pymatgen
data_La5Tb9(Yb3Sn8)2
_symmetry_space_group_name_H-M   'P 1'
_cell_length_a   7.98319547
_cell_length_b   8.44900695
_cell_length_c   15.95372100
_cell_angle_alpha   90.08381089
_cell_angle_beta   90.09714140
_cell_angle_gamma   89.71983439
_symmetry_Int_Tables_number   1
_chemical_formula_structural   La5Tb9(Yb3Sn8)2
_chemical_formula_sum   'La5 Tb9 Yb6 Sn16'
_cell_volume   1076.06411270
_cell_formula_units_Z   1
loop_
 _symmetry_equiv_pos_site_id
 _symmetry_equiv_pos_as_xyz
  1  'x, y, z'
loop_
 _atom_site_type_symbol
 _atom_site_label
 _atom_site_symmetry_multiplicity
 _atom_site_fract_x
 _atom_site_fract_y
 _atom_site_fract_z
 _atom_site_occupancy
  La  La0  1  0.505370  0.683091  0.596269  1
  La  La1  1  0.006437  0.820406  0.906195  1
  La  La2  1  0.493452  0.316362  0.095919  1
  La  La3  1  0.993542  0.181223  0.407634  1
  La  La4  1  0.491042  0.318154  0.404023  1
  Tb  Tb5  1  0.671379  0.166137  0.624795  1
  Tb  Tb6  1  0.173807  0.331587  0.875977  1
  Tb  Tb7  1  0.329055  0.830730  0.122832  1
  Tb  Tb8  1  0.832492  0.670708  0.377114  1
  Tb  Tb9  1  0.329554  0.829241  0.376139  1
  Tb  Tb10  1  0.829771  0.668659  0.122775  1
  Tb  Tb11  1  0.670737  0.165503  0.875167  1
  Tb  Tb12  1  0.171802  0.331587  0.625720  1
  Tb  Tb13  1  0.835831  0.506658  0.751109  1
  Yb  Yb14  1  0.995176  0.184202  0.093252  1
  Yb  Yb15  1  0.504049  0.685062  0.903756  1
  Yb  Yb16  1  0.003896  0.817673  0.594636  1
  Yb  Yb17  1  0.335884  0.992194  0.749419  1
  Yb  Yb18  1  0.163788  0.493642  0.249023  1
  Yb  Yb19  1  0.665568  0.004613  0.248674  1
  Sn  Sn20  1  0.668860  0.961065  0.461392  1
  Sn  Sn21  1  0.169990  0.538047  0.038530  1
  Sn  Sn22  1  0.331290  0.038747  0.961213  1
  Sn  Sn23  1  0.827370  0.460213  0.540505  1
  Sn  Sn24  1  0.326792  0.037765  0.539199  1
  Sn  Sn25  1  0.825759  0.464769  0.957153  1
  Sn  Sn26  1  0.673108  0.963825  0.039951  1
  Sn  Sn27  1  0.171210  0.538155  0.461052  1
  Sn  Sn28  1  0.474415  0.384240  0.750519  1
  Sn  Sn29  1  0.971942  0.127321  0.751241  1
  Sn  Sn30  1  0.530788  0.617157  0.249831  1
  Sn  Sn31  1  0.031112  0.875359  0.250560  1
  Sn  Sn32  1  0.715268  0.860535  0.749748  1
  Sn  Sn33  1  0.202950  0.634766  0.749227  1
  Sn  Sn34  1  0.285905  0.133428  0.249239  1
  Sn  Sn35  1  0.790602  0.367181  0.250211  1
