# generated using pymatgen
data_Ce2Y7Er(Al2Ru3)2
_symmetry_space_group_name_H-M   'P 1'
_cell_length_a   8.49029224
_cell_length_b   8.39362044
_cell_length_c   8.36428773
_cell_angle_alpha   110.02596472
_cell_angle_beta   109.30905982
_cell_angle_gamma   110.28452362
_symmetry_Int_Tables_number   1
_chemical_formula_structural   Ce2Y7Er(Al2Ru3)2
_chemical_formula_sum   'Ce2 Y7 Er1 Al4 Ru6'
_cell_volume   451.87479844
_cell_formula_units_Z   1
loop_
 _symmetry_equiv_pos_site_id
 _symmetry_equiv_pos_as_xyz
  1  'x, y, z'
loop_
 _atom_site_type_symbol
 _atom_site_label
 _atom_site_symmetry_multiplicity
 _atom_site_fract_x
 _atom_site_fract_y
 _atom_site_fract_z
 _atom_site_occupancy
  Ce  Ce0  1  0.944017  0.250568  0.195490  1
  Ce  Ce1  1  0.197474  0.943114  0.251307  1
  Y  Y2  1  0.317460  0.565925  0.754386  1
  Y  Y3  1  0.751252  0.316980  0.567803  1
  Y  Y4  1  0.567485  0.748817  0.313701  1
  Y  Y5  1  0.722578  0.503853  0.998375  1
  Y  Y6  1  0.998694  0.720458  0.505900  1
  Y  Y7  1  0.501673  0.991484  0.717245  1
  Y  Y8  1  0.253711  0.188940  0.933358  1
  Er  Er9  1  0.783290  0.787593  0.780462  1
  Al  Al10  1  0.417428  0.412524  0.410734  1
  Al  Al11  1  0.091301  0.491905  0.996515  1
  Al  Al12  1  0.997755  0.090773  0.502120  1
  Al  Al13  1  0.502243  0.009954  0.094507  1
  Ru  Ru14  1  0.868994  0.115923  0.741109  1
  Ru  Ru15  1  0.755026  0.905544  0.121788  1
  Ru  Ru16  1  0.126425  0.764334  0.910861  1
  Ru  Ru17  1  0.222535  0.587829  0.361035  1
  Ru  Ru18  1  0.355392  0.219520  0.591702  1
  Ru  Ru19  1  0.625268  0.383964  0.251600  1
