# generated using pymatgen
data_Sm2Fe2CoP7Ru9
_symmetry_space_group_name_H-M   'P 1'
_cell_length_a   9.37961925
_cell_length_b   9.31452944
_cell_length_c   3.87871100
_cell_angle_alpha   90.00000000
_cell_angle_beta   90.00000000
_cell_angle_gamma   119.92516219
_symmetry_Int_Tables_number   1
_chemical_formula_structural   Sm2Fe2CoP7Ru9
_chemical_formula_sum   'Sm2 Fe2 Co1 P7 Ru9'
_cell_volume   293.69137787
_cell_formula_units_Z   1
loop_
 _symmetry_equiv_pos_site_id
 _symmetry_equiv_pos_as_xyz
  1  'x, y, z'
loop_
 _atom_site_type_symbol
 _atom_site_label
 _atom_site_symmetry_multiplicity
 _atom_site_fract_x
 _atom_site_fract_y
 _atom_site_fract_z
 _atom_site_occupancy
  Sm  Sm0  1  0.333505  0.666678  0.500000  1
  Sm  Sm1  1  0.000433  0.999177  0.000000  1
  Fe  Fe2  1  0.824113  0.600312  0.000000  1
  Fe  Fe3  1  0.400634  0.224036  0.000000  1
  Co  Co4  1  0.775100  0.175360  0.000000  1
  P  P5  1  0.780762  0.728644  0.500000  1
  P  P6  1  0.271803  0.051416  0.500000  1
  P  P7  1  0.950996  0.221027  0.500000  1
  P  P8  1  0.665621  0.333924  0.000000  1
  P  P9  1  0.077550  0.638611  0.000000  1
  P  P10  1  0.361201  0.439833  0.000000  1
  P  P11  1  0.558518  0.920729  0.000000  1
  Ru  Ru12  1  0.086433  0.393156  0.000000  1
  Ru  Ru13  1  0.606882  0.694464  0.000000  1
  Ru  Ru14  1  0.306243  0.912954  0.000000  1
  Ru  Ru15  1  0.051343  0.769745  0.500000  1
  Ru  Ru16  1  0.230841  0.281897  0.500000  1
  Ru  Ru17  1  0.719612  0.950165  0.500000  1
  Ru  Ru18  1  0.868977  0.419368  0.500000  1
  Ru  Ru19  1  0.580165  0.449625  0.500000  1
  Ru  Ru20  1  0.549268  0.128878  0.500000  1
