# generated using pymatgen
data_Rb7La4Tl(TcN4)4
_symmetry_space_group_name_H-M   'P 1'
_cell_length_a   11.22398256
_cell_length_b   10.89883041
_cell_length_c   8.33196327
_cell_angle_alpha   70.04821469
_cell_angle_beta   65.81858941
_cell_angle_gamma   44.21887227
_symmetry_Int_Tables_number   1
_chemical_formula_structural   Rb7La4Tl(TcN4)4
_chemical_formula_sum   'Rb7 La4 Tl1 Tc4 N16'
_cell_volume   646.62179481
_cell_formula_units_Z   1
loop_
 _symmetry_equiv_pos_site_id
 _symmetry_equiv_pos_as_xyz
  1  'x, y, z'
loop_
 _atom_site_type_symbol
 _atom_site_label
 _atom_site_symmetry_multiplicity
 _atom_site_fract_x
 _atom_site_fract_y
 _atom_site_fract_z
 _atom_site_occupancy
  Rb  Rb0  1  0.937928  0.562072  0.562072  1
  Rb  Rb1  1  0.312548  0.687452  0.687452  1
  Rb  Rb2  1  0.111109  0.107748  0.892905  1
  Rb  Rb3  1  0.135656  0.138065  0.366306  1
  Rb  Rb4  1  0.359973  0.366306  0.138065  1
  Rb  Rb5  1  0.691738  0.308262  0.308262  1
  Rb  Rb6  1  0.888238  0.892905  0.107748  1
  La  La7  1  0.347522  0.333975  0.656509  1
  La  La8  1  0.898259  0.911168  0.602132  1
  La  La9  1  0.661993  0.656509  0.333975  1
  La  La10  1  0.588440  0.602132  0.911168  1
  Tl  Tl11  1  0.531051  0.968949  0.968949  1
  Tc  Tc12  1  0.498830  0.999980  0.493588  1
  Tc  Tc13  1  0.007602  0.493588  0.999980  1
  Tc  Tc14  1  0.749086  0.255138  0.746822  1
  Tc  Tc15  1  0.248953  0.746822  0.255138  1
  N  N16  1  0.028390  0.631497  0.812432  1
  N  N17  1  0.690404  0.309743  0.965370  1
  N  N18  1  0.641136  0.021230  0.511318  1
  N  N19  1  0.527680  0.812432  0.631497  1
  N  N20  1  0.237630  0.596320  0.430182  1
  N  N21  1  0.735870  0.430182  0.596320  1
  N  N22  1  0.965840  0.036043  0.702322  1
  N  N23  1  0.547381  0.956887  0.270440  1
  N  N24  1  0.435213  0.720990  0.238547  1
  N  N25  1  0.955739  0.556388  0.209221  1
  N  N26  1  0.295796  0.702322  0.036043  1
  N  N27  1  0.826315  0.511318  0.021230  1
  N  N28  1  0.225292  0.270440  0.956887  1
  N  N29  1  0.605252  0.238547  0.720990  1
  N  N30  1  0.278650  0.209221  0.556388  1
  N  N31  1  0.034484  0.965370  0.309743  1
