# generated using pymatgen
data_Er2Mn3Co(SiC)2
_symmetry_space_group_name_H-M   'P 1'
_cell_length_a   5.57757307
_cell_length_b   5.57757419
_cell_length_c   6.93410479
_cell_angle_alpha   89.29571183
_cell_angle_beta   90.70428887
_cell_angle_gamma   141.59036953
_symmetry_Int_Tables_number   1
_chemical_formula_structural   Er2Mn3Co(SiC)2
_chemical_formula_sum   'Er2 Mn3 Co1 Si2 C2'
_cell_volume   134.00816320
_cell_formula_units_Z   1
loop_
 _symmetry_equiv_pos_site_id
 _symmetry_equiv_pos_as_xyz
  1  'x, y, z'
loop_
 _atom_site_type_symbol
 _atom_site_label
 _atom_site_symmetry_multiplicity
 _atom_site_fract_x
 _atom_site_fract_y
 _atom_site_fract_z
 _atom_site_occupancy
  Er  Er0  1  0.545236  0.454764  0.251034  1
  Er  Er1  1  0.454798  0.545202  0.748101  1
  Mn  Mn2  1  0.831601  0.168399  0.057805  1
  Mn  Mn3  1  0.169785  0.830215  0.940104  1
  Mn  Mn4  1  0.163012  0.836988  0.559854  1
  Co  Co5  1  0.832138  0.167862  0.441207  1
  Si  Si6  1  0.268238  0.731762  0.257736  1
  Si  Si7  1  0.734923  0.265077  0.744050  1
  C  C8  1  0.000577  0.999423  0.000236  1
  C  C9  1  0.999690  0.000310  0.499874  1
