# generated using pymatgen
data_La2GdRuI3
_symmetry_space_group_name_H-M   'P 1'
_cell_length_a   4.28114900
_cell_length_b   9.36600245
_cell_length_c   12.31680200
_cell_angle_alpha   87.31419055
_cell_angle_beta   90.00000000
_cell_angle_gamma   90.00000000
_symmetry_Int_Tables_number   1
_chemical_formula_structural   La2GdRuI3
_chemical_formula_sum   'La4 Gd2 Ru2 I6'
_cell_volume   493.32740328
_cell_formula_units_Z   2
loop_
 _symmetry_equiv_pos_site_id
 _symmetry_equiv_pos_as_xyz
  1  'x, y, z'
loop_
 _atom_site_type_symbol
 _atom_site_label
 _atom_site_symmetry_multiplicity
 _atom_site_fract_x
 _atom_site_fract_y
 _atom_site_fract_z
 _atom_site_occupancy
  La  La0  1  0.750000  0.685083  0.116560  1
  La  La1  1  0.250000  0.314917  0.883440  1
  La  La2  1  0.250000  0.886468  0.333793  1
  La  La3  1  0.750000  0.113532  0.666207  1
  Gd  Gd4  1  0.250000  0.906840  0.894786  1
  Gd  Gd5  1  0.750000  0.093160  0.105214  1
  Ru  Ru6  1  0.250000  0.889292  0.125561  1
  Ru  Ru7  1  0.750000  0.110708  0.874439  1
  I  I8  1  0.250000  0.854935  0.620590  1
  I  I9  1  0.750000  0.145065  0.379410  1
  I  I10  1  0.750000  0.627089  0.380758  1
  I  I11  1  0.250000  0.372911  0.619242  1
  I  I12  1  0.250000  0.389606  0.142412  1
  I  I13  1  0.750000  0.610394  0.857588  1
