# generated using pymatgen
data_Ba6Fe2TcO12
_symmetry_space_group_name_H-M   'P 1'
_cell_length_a   9.17346772
_cell_length_b   9.17346886
_cell_length_c   7.30644692
_cell_angle_alpha   67.94054658
_cell_angle_beta   67.94054463
_cell_angle_gamma   36.79753701
_symmetry_Int_Tables_number   1
_chemical_formula_structural   Ba6Fe2TcO12
_chemical_formula_sum   'Ba6 Fe2 Tc1 O12'
_cell_volume   338.21599638
_cell_formula_units_Z   1
loop_
 _symmetry_equiv_pos_site_id
 _symmetry_equiv_pos_as_xyz
  1  'x, y, z'
loop_
 _atom_site_type_symbol
 _atom_site_label
 _atom_site_symmetry_multiplicity
 _atom_site_fract_x
 _atom_site_fract_y
 _atom_site_fract_z
 _atom_site_occupancy
  Ba  Ba0  1  0.876353  0.876353  0.716812  1
  Ba  Ba1  1  0.219034  0.219034  0.710578  1
  Ba  Ba2  1  0.548184  0.548184  0.707439  1
  Ba  Ba3  1  0.451816  0.451816  0.292561  1
  Ba  Ba4  1  0.780966  0.780966  0.289422  1
  Ba  Ba5  1  0.123647  0.123647  0.283188  1
  Fe  Fe6  1  0.670440  0.670440  0.999221  1
  Fe  Fe7  1  0.329560  0.329560  0.000779  1
  Tc  Tc8  1  0.000000  0.000000  0.000000  1
  O  O9  1  0.950881  0.950881  0.295560  1
  O  O10  1  0.286276  0.286276  0.305533  1
  O  O11  1  0.611879  0.611879  0.306203  1
  O  O12  1  0.388121  0.388121  0.693797  1
  O  O13  1  0.713724  0.713724  0.694467  1
  O  O14  1  0.049119  0.049119  0.704440  1
  O  O15  1  0.500000  0.000000  0.000000  1
  O  O16  1  0.842557  0.316255  0.000390  1
  O  O17  1  0.157443  0.683745  0.999610  1
  O  O18  1  0.000000  0.500000  0.000000  1
  O  O19  1  0.316255  0.842557  0.000390  1
  O  O20  1  0.683745  0.157443  0.999610  1
