# generated using pymatgen
data_Sr4Ca4Ta(NbN4)3
_symmetry_space_group_name_H-M   'P 1'
_cell_length_a   6.23347742
_cell_length_b   6.37407545
_cell_length_c   12.40513372
_cell_angle_alpha   89.34116058
_cell_angle_beta   88.52951046
_cell_angle_gamma   123.04698529
_symmetry_Int_Tables_number   1
_chemical_formula_structural   Sr4Ca4Ta(NbN4)3
_chemical_formula_sum   'Sr4 Ca4 Ta1 Nb3 N12'
_cell_volume   412.82389824
_cell_formula_units_Z   1
loop_
 _symmetry_equiv_pos_site_id
 _symmetry_equiv_pos_as_xyz
  1  'x, y, z'
loop_
 _atom_site_type_symbol
 _atom_site_label
 _atom_site_symmetry_multiplicity
 _atom_site_fract_x
 _atom_site_fract_y
 _atom_site_fract_z
 _atom_site_occupancy
  Sr  Sr0  1  0.045263  0.456032  0.855421  1
  Sr  Sr1  1  0.520708  0.930379  0.639419  1
  Sr  Sr2  1  0.484382  0.067626  0.360707  1
  Sr  Sr3  1  0.639572  0.876619  0.078513  1
  Ca  Ca4  1  0.961277  0.575416  0.126889  1
  Ca  Ca5  1  0.182294  0.414119  0.428328  1
  Ca  Ca6  1  0.385687  0.159806  0.925593  1
  Ca  Ca7  1  0.818859  0.580014  0.575135  1
  Ta  Ta8  1  0.738460  0.749271  0.835203  1
  Nb  Nb9  1  0.800891  0.775511  0.342109  1
  Nb  Nb10  1  0.255701  0.254402  0.164678  1
  Nb  Nb11  1  0.206561  0.214040  0.660291  1
  N  N12  1  0.455945  0.460112  0.763704  1
  N  N13  1  0.566990  0.532250  0.233648  1
  N  N14  1  0.044175  0.872094  0.735395  1
  N  N15  1  0.962693  0.121820  0.273014  1
  N  N16  1  0.989823  0.326560  0.616348  1
  N  N17  1  0.638823  0.982737  0.870136  1
  N  N18  1  0.020303  0.671578  0.391567  1
  N  N19  1  0.322201  0.004205  0.117353  1
  N  N20  1  0.792578  0.612928  0.962190  1
  N  N21  1  0.605469  0.775350  0.463120  1
  N  N22  1  0.165281  0.374829  0.042995  1
  N  N23  1  0.396064  0.212303  0.538244  1
