# generated using pymatgen
data_Dy5Ti2Mn(P3Ir4)4
_symmetry_space_group_name_H-M   'P 1'
_cell_length_a   12.66826100
_cell_length_b   12.77682412
_cell_length_c   3.95467300
_cell_angle_alpha   90.00000000
_cell_angle_beta   90.00000000
_cell_angle_gamma   119.71931875
_symmetry_Int_Tables_number   1
_chemical_formula_structural   Dy5Ti2Mn(P3Ir4)4
_chemical_formula_sum   'Dy5 Ti2 Mn1 P12 Ir16'
_cell_volume   555.90748617
_cell_formula_units_Z   1
loop_
 _symmetry_equiv_pos_site_id
 _symmetry_equiv_pos_as_xyz
  1  'x, y, z'
loop_
 _atom_site_type_symbol
 _atom_site_label
 _atom_site_symmetry_multiplicity
 _atom_site_fract_x
 _atom_site_fract_y
 _atom_site_fract_z
 _atom_site_occupancy
  Dy  Dy0  1  0.331468  0.663069  0.500000  1
  Dy  Dy1  1  0.668400  0.336931  0.500000  1
  Dy  Dy2  1  0.999260  0.810808  0.000000  1
  Dy  Dy3  1  0.188451  0.189192  0.000000  1
  Dy  Dy4  1  0.808997  0.000000  0.000000  1
  Ti  Ti5  1  0.998737  0.445363  0.500000  1
  Ti  Ti6  1  0.553375  0.554637  0.500000  1
  Mn  Mn7  1  0.458512  0.000000  0.500000  1
  P  P8  1  0.002389  0.640046  0.500000  1
  P  P9  1  0.362343  0.359954  0.500000  1
  P  P10  1  0.634974  0.000000  0.500000  1
  P  P11  1  0.516034  0.684822  0.000000  1
  P  P12  1  0.313126  0.829526  0.000000  1
  P  P13  1  0.165024  0.481582  0.000000  1
  P  P14  1  0.483600  0.170474  0.000000  1
  P  P15  1  0.683442  0.518418  0.000000  1
  P  P16  1  0.831212  0.315178  0.000000  1
  P  P17  1  0.999221  0.175515  0.500000  1
  P  P18  1  0.823706  0.824485  0.500000  1
  P  P19  1  0.180660  0.000000  0.500000  1
  Ir  Ir20  1  0.506472  0.865984  0.000000  1
  Ir  Ir21  1  0.128886  0.641451  0.000000  1
  Ir  Ir22  1  0.356907  0.492692  0.000000  1
  Ir  Ir23  1  0.487437  0.358549  0.000000  1
  Ir  Ir24  1  0.864216  0.507308  0.000000  1
  Ir  Ir25  1  0.640490  0.134016  0.000000  1
  Ir  Ir26  1  0.998664  0.280685  0.000000  1
  Ir  Ir27  1  0.717979  0.719315  0.000000  1
  Ir  Ir28  1  0.283817  0.000000  0.000000  1
  Ir  Ir29  1  0.625134  0.806235  0.500000  1
  Ir  Ir30  1  0.201554  0.823177  0.500000  1
  Ir  Ir31  1  0.178142  0.370969  0.500000  1
  Ir  Ir32  1  0.378376  0.176823  0.500000  1
  Ir  Ir33  1  0.807173  0.629031  0.500000  1
  Ir  Ir34  1  0.818900  0.193765  0.500000  1
  Ir  Ir35  1  0.002923  0.000000  0.500000  1
