# generated using pymatgen
data_La11Sm(GePd)12
_symmetry_space_group_name_H-M   'P 1'
_cell_length_a   4.56714300
_cell_length_b   7.77017905
_cell_length_c   22.32860815
_cell_angle_alpha   90.01334012
_cell_angle_beta   90.00000000
_cell_angle_gamma   90.00000000
_symmetry_Int_Tables_number   1
_chemical_formula_structural   La11Sm(GePd)12
_chemical_formula_sum   'La11 Sm1 Ge12 Pd12'
_cell_volume   792.38688161
_cell_formula_units_Z   1
loop_
 _symmetry_equiv_pos_site_id
 _symmetry_equiv_pos_as_xyz
  1  'x, y, z'
loop_
 _atom_site_type_symbol
 _atom_site_label
 _atom_site_symmetry_multiplicity
 _atom_site_fract_x
 _atom_site_fract_y
 _atom_site_fract_z
 _atom_site_occupancy
  La  La0  1  0.250000  0.710143  0.333260  1
  La  La1  1  0.750000  0.290267  0.666754  1
  La  La2  1  0.750000  0.209733  0.166853  1
  La  La3  1  0.250000  0.790038  0.833190  1
  La  La4  1  0.250000  0.789831  0.166100  1
  La  La5  1  0.750000  0.210195  0.834007  1
  La  La6  1  0.750000  0.290008  0.334078  1
  La  La7  1  0.250000  0.710697  0.665849  1
  La  La8  1  0.250000  0.715663  0.001709  1
  La  La9  1  0.750000  0.284316  0.998434  1
  La  La10  1  0.750000  0.213903  0.498417  1
  Sm  Sm11  1  0.250000  0.780966  0.501399  1
  Ge  Ge12  1  0.250000  0.088026  0.071037  1
  Ge  Ge13  1  0.750000  0.911923  0.928936  1
  Ge  Ge14  1  0.750000  0.591128  0.430056  1
  Ge  Ge15  1  0.250000  0.414631  0.570735  1
  Ge  Ge16  1  0.250000  0.082587  0.270308  1
  Ge  Ge17  1  0.750000  0.917081  0.729547  1
  Ge  Ge18  1  0.750000  0.582752  0.229717  1
  Ge  Ge19  1  0.250000  0.417091  0.770322  1
  Ge  Ge20  1  0.250000  0.084121  0.397488  1
  Ge  Ge21  1  0.750000  0.913928  0.601928  1
  Ge  Ge22  1  0.750000  0.585050  0.103484  1
  Ge  Ge23  1  0.250000  0.414921  0.896547  1
  Pd  Pd24  1  0.250000  0.416450  0.238034  1
  Pd  Pd25  1  0.750000  0.583482  0.762055  1
  Pd  Pd26  1  0.750000  0.916519  0.262263  1
  Pd  Pd27  1  0.250000  0.083203  0.737704  1
  Pd  Pd28  1  0.250000  0.418462  0.435441  1
  Pd  Pd29  1  0.750000  0.584884  0.563892  1
  Pd  Pd30  1  0.750000  0.916917  0.065177  1
  Pd  Pd31  1  0.250000  0.083015  0.934928  1
  Pd  Pd32  1  0.250000  0.419756  0.093206  1
  Pd  Pd33  1  0.750000  0.580190  0.906896  1
  Pd  Pd34  1  0.750000  0.919298  0.407926  1
  Pd  Pd35  1  0.250000  0.078826  0.592324  1
