# generated using pymatgen
data_SmErFe6(CoB4)2
_symmetry_space_group_name_H-M   'P 1'
_cell_length_a   6.97496800
_cell_length_b   6.96785763
_cell_length_c   3.81235900
_cell_angle_alpha   90.00000000
_cell_angle_beta   90.00000000
_cell_angle_gamma   90.30911594
_symmetry_Int_Tables_number   1
_chemical_formula_structural   SmErFe6(CoB4)2
_chemical_formula_sum   'Sm1 Er1 Fe6 Co2 B8'
_cell_volume   185.28017738
_cell_formula_units_Z   1
loop_
 _symmetry_equiv_pos_site_id
 _symmetry_equiv_pos_as_xyz
  1  'x, y, z'
loop_
 _atom_site_type_symbol
 _atom_site_label
 _atom_site_symmetry_multiplicity
 _atom_site_fract_x
 _atom_site_fract_y
 _atom_site_fract_z
 _atom_site_occupancy
  Sm  Sm0  1  0.500000  0.500000  0.502425  1
  Er  Er1  1  0.000000  0.000000  0.001914  1
  Fe  Fe2  1  0.384949  0.130995  0.892655  1
  Fe  Fe3  1  0.615051  0.869005  0.892655  1
  Fe  Fe4  1  0.365561  0.885924  0.392930  1
  Fe  Fe5  1  0.634439  0.114076  0.392930  1
  Fe  Fe6  1  0.114023  0.366095  0.607005  1
  Fe  Fe7  1  0.885977  0.633905  0.607005  1
  Co  Co8  1  0.134355  0.615390  0.108094  1
  Co  Co9  1  0.865645  0.384610  0.108094  1
  B  B10  1  0.799678  0.668928  0.103997  1
  B  B11  1  0.200322  0.331072  0.103997  1
  B  B12  1  0.838246  0.294098  0.605235  1
  B  B13  1  0.161754  0.705902  0.605235  1
  B  B14  1  0.704204  0.835765  0.394073  1
  B  B15  1  0.295796  0.164235  0.394073  1
  B  B16  1  0.667432  0.194266  0.893841  1
  B  B17  1  0.332568  0.805734  0.893841  1
