# generated using pymatgen
data_HoEr2In3HgRh2
_symmetry_space_group_name_H-M   'P 1'
_cell_length_a   7.84410726
_cell_length_b   7.84039691
_cell_length_c   3.76639300
_cell_angle_alpha   90.00000000
_cell_angle_beta   90.00000000
_cell_angle_gamma   119.98603304
_symmetry_Int_Tables_number   1
_chemical_formula_structural   HoEr2In3HgRh2
_chemical_formula_sum   'Ho1 Er2 In3 Hg1 Rh2'
_cell_volume   200.63141844
_cell_formula_units_Z   1
loop_
 _symmetry_equiv_pos_site_id
 _symmetry_equiv_pos_as_xyz
  1  'x, y, z'
loop_
 _atom_site_type_symbol
 _atom_site_label
 _atom_site_symmetry_multiplicity
 _atom_site_fract_x
 _atom_site_fract_y
 _atom_site_fract_z
 _atom_site_occupancy
  Ho  Ho0  1  0.029863  0.614635  0.500000  1
  Er  Er1  1  0.385024  0.415328  0.500000  1
  Er  Er2  1  0.584861  0.969715  0.500000  1
  In  In3  1  0.258063  0.999398  0.000000  1
  In  In4  1  0.741120  0.742266  0.000000  1
  In  In5  1  0.000968  0.258573  0.000000  1
  Hg  Hg6  1  0.666350  0.333109  0.000000  1
  Rh  Rh7  1  0.333711  0.666797  0.000000  1
  Rh  Rh8  1  0.000040  0.000179  0.500000  1
