# generated using pymatgen
data_Zr4Sc(UPt5)2
_symmetry_space_group_name_H-M   'P 1'
_cell_length_a   8.29663502
_cell_length_b   8.29667816
_cell_length_c   9.80998767
_cell_angle_alpha   90.05649007
_cell_angle_beta   89.94897591
_cell_angle_gamma   107.50930399
_symmetry_Int_Tables_number   1
_chemical_formula_structural   Zr4Sc(UPt5)2
_chemical_formula_sum   'Zr8 Sc2 U4 Pt20'
_cell_volume   643.97892520
_cell_formula_units_Z   2
loop_
 _symmetry_equiv_pos_site_id
 _symmetry_equiv_pos_as_xyz
  1  'x, y, z'
loop_
 _atom_site_type_symbol
 _atom_site_label
 _atom_site_symmetry_multiplicity
 _atom_site_fract_x
 _atom_site_fract_y
 _atom_site_fract_z
 _atom_site_occupancy
  Zr  Zr0  1  0.000000  0.000000  0.000000  1
  Zr  Zr1  1  0.500000  0.500000  0.500000  1
  Zr  Zr2  1  0.499722  0.999744  0.750019  1
  Zr  Zr3  1  0.500278  0.000256  0.249981  1
  Zr  Zr4  1  0.307168  0.310763  0.190217  1
  Zr  Zr5  1  0.692832  0.689237  0.809783  1
  Zr  Zr6  1  0.189244  0.192815  0.690212  1
  Zr  Zr7  1  0.810756  0.807185  0.309788  1
  Sc  Sc8  1  0.999468  0.499482  0.250093  1
  Sc  Sc9  1  0.000532  0.500518  0.749907  1
  U  U10  1  0.692684  0.312580  0.999603  1
  U  U11  1  0.307316  0.687420  0.000397  1
  U  U12  1  0.812533  0.192621  0.500393  1
  U  U13  1  0.187467  0.807379  0.499607  1
  Pt  Pt14  1  0.850635  0.141326  0.209247  1
  Pt  Pt15  1  0.149365  0.858674  0.790753  1
  Pt  Pt16  1  0.648918  0.357061  0.708700  1
  Pt  Pt17  1  0.641271  0.350594  0.290856  1
  Pt  Pt18  1  0.351082  0.642939  0.291300  1
  Pt  Pt19  1  0.358729  0.649406  0.709144  1
  Pt  Pt20  1  0.857038  0.148931  0.791209  1
  Pt  Pt21  1  0.142962  0.851069  0.208791  1
  Pt  Pt22  1  0.936749  0.646236  0.997957  1
  Pt  Pt23  1  0.063251  0.353764  0.002043  1
  Pt  Pt24  1  0.563160  0.855260  0.497244  1
  Pt  Pt25  1  0.146206  0.436758  0.502020  1
  Pt  Pt26  1  0.436840  0.144740  0.502756  1
  Pt  Pt27  1  0.853794  0.563242  0.497980  1
  Pt  Pt28  1  0.355187  0.063129  0.002760  1
  Pt  Pt29  1  0.644813  0.936871  0.997240  1
  Pt  Pt30  1  0.105320  0.104876  0.394878  1
  Pt  Pt31  1  0.894680  0.895124  0.605122  1
  Pt  Pt32  1  0.395178  0.394738  0.894775  1
  Pt  Pt33  1  0.604822  0.605262  0.105225  1
