# generated using pymatgen
data_NdTlGeS4
_symmetry_space_group_name_H-M   'P 1'
_cell_length_a   6.65298588
_cell_length_b   6.73060000
_cell_length_c   8.76775900
_cell_angle_alpha   90.00000000
_cell_angle_beta   107.21515087
_cell_angle_gamma   90.00000000
_symmetry_Int_Tables_number   1
_chemical_formula_structural   NdTlGeS4
_chemical_formula_sum   'Nd2 Tl2 Ge2 S8'
_cell_volume   375.01907748
_cell_formula_units_Z   2
loop_
 _symmetry_equiv_pos_site_id
 _symmetry_equiv_pos_as_xyz
  1  'x, y, z'
loop_
 _atom_site_type_symbol
 _atom_site_label
 _atom_site_symmetry_multiplicity
 _atom_site_fract_x
 _atom_site_fract_y
 _atom_site_fract_z
 _atom_site_occupancy
  Nd  Nd0  1  0.771717  0.495180  0.448029  1
  Nd  Nd1  1  0.228283  0.995180  0.551972  1
  Tl  Tl2  1  0.270489  0.010816  0.066954  1
  Tl  Tl3  1  0.729512  0.510816  0.933045  1
  Ge  Ge4  1  0.222766  0.526497  0.319952  1
  Ge  Ge5  1  0.777234  0.026497  0.680047  1
  S  S6  1  0.424573  0.528754  0.161209  1
  S  S7  1  0.978509  0.765574  0.274177  1
  S  S8  1  0.020606  0.255945  0.290546  1
  S  S9  1  0.578991  0.084235  0.428836  1
  S  S10  1  0.421010  0.584235  0.571165  1
  S  S11  1  0.979394  0.755945  0.709454  1
  S  S12  1  0.021490  0.265574  0.725822  1
  S  S13  1  0.575427  0.028754  0.838792  1
