# generated using pymatgen
data_Ti8MnOs4Ru3
_symmetry_space_group_name_H-M   'P 1'
_cell_length_a   6.15573900
_cell_length_b   4.35037400
_cell_length_c   8.70995400
_cell_angle_alpha   90.00000000
_cell_angle_beta   89.99983071
_cell_angle_gamma   90.00000000
_symmetry_Int_Tables_number   1
_chemical_formula_structural   Ti8MnOs4Ru3
_chemical_formula_sum   'Ti8 Mn1 Os4 Ru3'
_cell_volume   233.25053780
_cell_formula_units_Z   1
loop_
 _symmetry_equiv_pos_site_id
 _symmetry_equiv_pos_as_xyz
  1  'x, y, z'
loop_
 _atom_site_type_symbol
 _atom_site_label
 _atom_site_symmetry_multiplicity
 _atom_site_fract_x
 _atom_site_fract_y
 _atom_site_fract_z
 _atom_site_occupancy
  Ti  Ti0  1  0.002290  0.749999  0.121179  1
  Ti  Ti1  1  0.497728  0.749999  0.121182  1
  Ti  Ti2  1  0.999266  0.250000  0.374998  1
  Ti  Ti3  1  0.500758  0.250000  0.375002  1
  Ti  Ti4  1  0.497703  0.749999  0.628825  1
  Ti  Ti5  1  0.002277  0.749999  0.628826  1
  Ti  Ti6  1  0.495105  0.250000  0.875001  1
  Ti  Ti7  1  0.004879  0.250000  0.875003  1
  Mn  Mn8  1  0.249982  0.749999  0.875004  1
  Os  Os9  1  0.250008  0.250000  0.124376  1
  Os  Os10  1  0.750010  0.749999  0.374994  1
  Os  Os11  1  0.249988  0.250000  0.625632  1
  Os  Os12  1  0.749996  0.749999  0.874994  1
  Ru  Ru13  1  0.750016  0.250000  0.125078  1
  Ru  Ru14  1  0.250010  0.749999  0.374985  1
  Ru  Ru15  1  0.749988  0.250000  0.624921  1
