# generated using pymatgen
data_Dy3YCo5Si10Ru
_symmetry_space_group_name_H-M   'P 1'
_cell_length_a   7.92221377
_cell_length_b   7.92315472
_cell_length_c   8.03398823
_cell_angle_alpha   139.21992534
_cell_angle_beta   106.68465650
_cell_angle_gamma   86.62842094
_symmetry_Int_Tables_number   1
_chemical_formula_structural   Dy3YCo5Si10Ru
_chemical_formula_sum   'Dy3 Y1 Co5 Si10 Ru1'
_cell_volume   305.20618636
_cell_formula_units_Z   1
loop_
 _symmetry_equiv_pos_site_id
 _symmetry_equiv_pos_as_xyz
  1  'x, y, z'
loop_
 _atom_site_type_symbol
 _atom_site_label
 _atom_site_symmetry_multiplicity
 _atom_site_fract_x
 _atom_site_fract_y
 _atom_site_fract_z
 _atom_site_occupancy
  Dy  Dy0  1  0.868547  0.632775  0.230244  1
  Dy  Dy1  1  0.130343  0.355324  0.756207  1
  Dy  Dy2  1  0.599024  0.874115  0.743956  1
  Y  Y3  1  0.402117  0.137743  0.269251  1
  Co  Co4  1  0.738773  0.157889  0.620023  1
  Co  Co5  1  0.538098  0.618863  0.880387  1
  Co  Co6  1  0.460191  0.391282  0.127150  1
  Co  Co7  1  0.994879  0.744982  0.749853  1
  Co  Co8  1  0.264169  0.833184  0.372982  1
  Si  Si9  1  0.065042  0.889936  0.157574  1
  Si  Si10  1  0.936106  0.088430  0.823880  1
  Si  Si11  1  0.264424  0.612028  0.675764  1
  Si  Si12  1  0.732618  0.407934  0.342470  1
  Si  Si13  1  0.231872  0.981777  0.749548  1
  Si  Si14  1  0.782560  0.532585  0.750289  1
  Si  Si15  1  0.771154  0.020824  0.250118  1
  Si  Si16  1  0.490838  0.240697  0.750267  1
  Si  Si17  1  0.510793  0.760643  0.250278  1
  Si  Si18  1  0.216781  0.467314  0.249977  1
  Ru  Ru19  1  0.001670  0.251674  0.249783  1
