# generated using pymatgen
data_Sm6Tc16O
_symmetry_space_group_name_H-M   'P 1'
_cell_length_a   8.13119884
_cell_length_b   8.13119864
_cell_length_c   8.13119800
_cell_angle_alpha   109.47121654
_cell_angle_beta   109.47121606
_cell_angle_gamma   109.47122570
_symmetry_Int_Tables_number   1
_chemical_formula_structural   Sm6Tc16O
_chemical_formula_sum   'Sm6 Tc16 O1'
_cell_volume   413.84891164
_cell_formula_units_Z   1
loop_
 _symmetry_equiv_pos_site_id
 _symmetry_equiv_pos_as_xyz
  1  'x, y, z'
loop_
 _atom_site_type_symbol
 _atom_site_label
 _atom_site_symmetry_multiplicity
 _atom_site_fract_x
 _atom_site_fract_y
 _atom_site_fract_z
 _atom_site_occupancy
  Sm  Sm0  1  0.264979  0.000000  0.264979  1
  Sm  Sm1  1  0.000000  0.264979  0.264979  1
  Sm  Sm2  1  0.000000  0.735021  0.735021  1
  Sm  Sm3  1  0.264979  0.264979  0.000000  1
  Sm  Sm4  1  0.735021  0.735021  0.000000  1
  Sm  Sm5  1  0.735021  0.000000  0.735021  1
  Tc  Tc6  1  0.000000  0.000000  0.500000  1
  Tc  Tc7  1  0.500000  0.000000  0.000000  1
  Tc  Tc8  1  0.000000  0.500000  0.000000  1
  Tc  Tc9  1  0.500000  0.500000  0.500000  1
  Tc  Tc10  1  0.339508  0.000000  0.660492  1
  Tc  Tc11  1  0.679018  0.339508  0.339508  1
  Tc  Tc12  1  0.000000  0.339508  0.660492  1
  Tc  Tc13  1  0.660492  0.660492  0.320982  1
  Tc  Tc14  1  0.339508  0.660492  0.000000  1
  Tc  Tc15  1  0.339508  0.679018  0.339508  1
  Tc  Tc16  1  0.660492  0.320982  0.660492  1
  Tc  Tc17  1  0.339508  0.339508  0.679018  1
  Tc  Tc18  1  0.320982  0.660492  0.660492  1
  Tc  Tc19  1  0.660492  0.339508  0.000000  1
  Tc  Tc20  1  0.000000  0.660492  0.339508  1
  Tc  Tc21  1  0.660492  0.000000  0.339508  1
  O  O22  1  0.000000  0.000000  0.000000  1
