# generated using pymatgen
data_YbPrB8Ru7
_symmetry_space_group_name_H-M   'P 1'
_cell_length_a   6.45738602
_cell_length_b   6.45793102
_cell_length_c   10.07653200
_cell_angle_alpha   90.00000000
_cell_angle_beta   90.00000000
_cell_angle_gamma   89.99198810
_symmetry_Int_Tables_number   1
_chemical_formula_structural   YbPrB8Ru7
_chemical_formula_sum   'Yb2 Pr2 B16 Ru14'
_cell_volume   420.20501819
_cell_formula_units_Z   2
loop_
 _symmetry_equiv_pos_site_id
 _symmetry_equiv_pos_as_xyz
  1  'x, y, z'
loop_
 _atom_site_type_symbol
 _atom_site_label
 _atom_site_symmetry_multiplicity
 _atom_site_fract_x
 _atom_site_fract_y
 _atom_site_fract_z
 _atom_site_occupancy
  Yb  Yb0  1  0.873983  0.260473  0.500000  1
  Yb  Yb1  1  0.262491  0.124982  0.000000  1
  Pr  Pr2  1  0.732276  0.882956  0.000000  1
  Pr  Pr3  1  0.115677  0.729173  0.500000  1
  B  B4  1  0.502019  0.000099  0.589038  1
  B  B5  1  0.502019  0.000099  0.410962  1
  B  B6  1  0.898244  0.274619  0.168290  1
  B  B7  1  0.102132  0.726655  0.831617  1
  B  B8  1  0.498959  0.500202  0.341232  1
  B  B9  1  0.498843  0.499591  0.841142  1
  B  B10  1  0.276595  0.102698  0.669007  1
  B  B11  1  0.102132  0.726655  0.168383  1
  B  B12  1  0.276595  0.102698  0.330993  1
  B  B13  1  0.898244  0.274619  0.831710  1
  B  B14  1  0.498959  0.500202  0.658768  1
  B  B15  1  0.498843  0.499591  0.158858  1
  B  B16  1  0.999087  0.499650  0.910908  1
  B  B17  1  0.728251  0.898736  0.667953  1
  B  B18  1  0.728251  0.898736  0.332047  1
  B  B19  1  0.999087  0.499650  0.089092  1
  Ru  Ru20  1  0.204572  0.395810  0.754365  1
  Ru  Ru21  1  0.405247  0.287341  0.500000  1
  Ru  Ru22  1  0.397082  0.795112  0.253564  1
  Ru  Ru23  1  0.204572  0.395810  0.245635  1
  Ru  Ru24  1  0.599362  0.712987  0.500000  1
  Ru  Ru25  1  0.604452  0.205063  0.745191  1
  Ru  Ru26  1  0.285639  0.595895  0.000000  1
  Ru  Ru27  1  0.711407  0.401455  0.000000  1
  Ru  Ru28  1  0.794800  0.602744  0.246337  1
  Ru  Ru29  1  0.794800  0.602744  0.753663  1
  Ru  Ru30  1  0.397082  0.795112  0.746436  1
  Ru  Ru31  1  0.001921  0.001390  0.250076  1
  Ru  Ru32  1  0.604452  0.205063  0.254809  1
  Ru  Ru33  1  0.001921  0.001390  0.749924  1
