# generated using pymatgen
data_Tb3Tm(HgO4)2
_symmetry_space_group_name_H-M   'P 1'
_cell_length_a   7.09700183
_cell_length_b   7.09700128
_cell_length_c   10.11652719
_cell_angle_alpha   58.70909559
_cell_angle_beta   58.70909861
_cell_angle_gamma   29.76068379
_symmetry_Int_Tables_number   1
_chemical_formula_structural   Tb3Tm(HgO4)2
_chemical_formula_sum   'Tb3 Tm1 Hg2 O8'
_cell_volume   213.29883471
_cell_formula_units_Z   1
loop_
 _symmetry_equiv_pos_site_id
 _symmetry_equiv_pos_as_xyz
  1  'x, y, z'
loop_
 _atom_site_type_symbol
 _atom_site_label
 _atom_site_symmetry_multiplicity
 _atom_site_fract_x
 _atom_site_fract_y
 _atom_site_fract_z
 _atom_site_occupancy
  Tb  Tb0  1  0.880586  0.880586  0.463606  1
  Tb  Tb1  1  0.117766  0.117766  0.539739  1
  Tb  Tb2  1  0.659933  0.659933  0.197975  1
  Tm  Tm3  1  0.341702  0.341702  0.799648  1
  Hg  Hg4  1  0.614023  0.614023  0.837995  1
  Hg  Hg5  1  0.386531  0.386531  0.159696  1
  O  O6  1  0.081663  0.081663  0.347886  1
  O  O7  1  0.916177  0.916177  0.657119  1
  O  O8  1  0.267868  0.267868  0.615136  1
  O  O9  1  0.732145  0.732145  0.387722  1
  O  O10  1  0.706208  0.706208  0.941280  1
  O  O11  1  0.298171  0.298171  0.050510  1
  O  O12  1  0.531954  0.531954  0.720597  1
  O  O13  1  0.465270  0.465270  0.281090  1
