# generated using pymatgen
data_Pr2Cu(SeO3)4
_symmetry_space_group_name_H-M   'P 1'
_cell_length_a   7.15914500
_cell_length_b   8.35678386
_cell_length_c   10.83944005
_cell_angle_alpha   70.18828961
_cell_angle_beta   90.00000000
_cell_angle_gamma   90.00000000
_symmetry_Int_Tables_number   1
_chemical_formula_structural   Pr2Cu(SeO3)4
_chemical_formula_sum   'Pr4 Cu2 Se8 O24'
_cell_volume   610.11232853
_cell_formula_units_Z   2
loop_
 _symmetry_equiv_pos_site_id
 _symmetry_equiv_pos_as_xyz
  1  'x, y, z'
loop_
 _atom_site_type_symbol
 _atom_site_label
 _atom_site_symmetry_multiplicity
 _atom_site_fract_x
 _atom_site_fract_y
 _atom_site_fract_z
 _atom_site_occupancy
  Pr  Pr0  1  0.839739  0.741542  0.411096  1
  Pr  Pr1  1  0.339739  0.758458  0.588904  1
  Pr  Pr2  1  0.160261  0.258458  0.588904  1
  Pr  Pr3  1  0.660261  0.241542  0.411096  1
  Cu  Cu4  1  0.000000  0.000000  0.000000  1
  Cu  Cu5  1  0.500000  0.500000  0.000000  1
  Se  Se6  1  0.823608  0.865077  0.682930  1
  Se  Se7  1  0.164794  0.374516  0.871310  1
  Se  Se8  1  0.676392  0.365077  0.682930  1
  Se  Se9  1  0.335206  0.874516  0.871310  1
  Se  Se10  1  0.323608  0.634923  0.317070  1
  Se  Se11  1  0.176392  0.134923  0.317070  1
  Se  Se12  1  0.835206  0.625484  0.128690  1
  Se  Se13  1  0.664794  0.125484  0.128690  1
  O  O14  1  0.715232  0.030712  0.292725  1
  O  O15  1  0.840629  0.410257  0.554670  1
  O  O16  1  0.159371  0.589743  0.445330  1
  O  O17  1  0.504755  0.286437  0.605485  1
  O  O18  1  0.215232  0.469288  0.707275  1
  O  O19  1  0.784768  0.530712  0.292725  1
  O  O20  1  0.659371  0.910257  0.554670  1
  O  O21  1  0.882849  0.822603  0.147461  1
  O  O22  1  0.115949  0.930378  0.337401  1
  O  O23  1  0.284768  0.969288  0.707275  1
  O  O24  1  0.120576  0.824850  0.948644  1
  O  O25  1  0.379424  0.324850  0.948644  1
  O  O26  1  0.884051  0.069622  0.662599  1
  O  O27  1  0.117151  0.177397  0.852539  1
  O  O28  1  0.382849  0.677397  0.852539  1
  O  O29  1  0.340629  0.089743  0.445330  1
  O  O30  1  0.617151  0.322603  0.147461  1
  O  O31  1  0.495245  0.713563  0.394515  1
  O  O32  1  0.004755  0.213563  0.394515  1
  O  O33  1  0.995245  0.786437  0.605485  1
  O  O34  1  0.615949  0.569622  0.662599  1
  O  O35  1  0.620576  0.675150  0.051356  1
  O  O36  1  0.879424  0.175150  0.051356  1
  O  O37  1  0.384051  0.430378  0.337401  1
