# generated using pymatgen
data_Tb2EuTm(Ni7P4)2
_symmetry_space_group_name_H-M   'P 1'
_cell_length_a   3.70931900
_cell_length_b   9.17333010
_cell_length_c   10.32404508
_cell_angle_alpha   89.78606727
_cell_angle_beta   90.00000000
_cell_angle_gamma   90.00000000
_symmetry_Int_Tables_number   1
_chemical_formula_structural   Tb2EuTm(Ni7P4)2
_chemical_formula_sum   'Tb2 Eu1 Tm1 Ni14 P8'
_cell_volume   351.29184723
_cell_formula_units_Z   1
loop_
 _symmetry_equiv_pos_site_id
 _symmetry_equiv_pos_as_xyz
  1  'x, y, z'
loop_
 _atom_site_type_symbol
 _atom_site_label
 _atom_site_symmetry_multiplicity
 _atom_site_fract_x
 _atom_site_fract_y
 _atom_site_fract_z
 _atom_site_occupancy
  Tb  Tb0  1  0.000000  0.441612  0.520288  1
  Tb  Tb1  1  0.000000  0.064488  0.736412  1
  Eu  Eu2  1  0.500000  0.938557  0.235341  1
  Tm  Tm3  1  0.500000  0.558620  0.018186  1
  Ni  Ni4  1  0.000000  0.768943  0.406340  1
  Ni  Ni5  1  0.500000  0.226469  0.905190  1
  Ni  Ni6  1  0.000000  0.753323  0.641999  1
  Ni  Ni7  1  0.500000  0.251359  0.140000  1
  Ni  Ni8  1  0.000000  0.811152  0.999757  1
  Ni  Ni9  1  0.500000  0.185139  0.504876  1
  Ni  Ni10  1  0.000000  0.443578  0.212405  1
  Ni  Ni11  1  0.500000  0.556562  0.714633  1
  Ni  Ni12  1  0.000000  0.404752  0.822092  1
  Ni  Ni13  1  0.500000  0.593711  0.320250  1
  Ni  Ni14  1  0.000000  0.199018  0.317849  1
  Ni  Ni15  1  0.500000  0.804713  0.811030  1
  Ni  Ni16  1  0.000000  0.084712  0.035592  1
  Ni  Ni17  1  0.500000  0.917185  0.549132  1
  P  P18  1  0.000000  0.687837  0.198739  1
  P  P19  1  0.500000  0.310097  0.701362  1
  P  P20  1  0.000000  0.019671  0.456228  1
  P  P21  1  0.500000  0.978906  0.950980  1
  P  P22  1  0.000000  0.321426  0.024100  1
  P  P23  1  0.500000  0.681254  0.524117  1
  P  P24  1  0.000000  0.653253  0.831273  1
  P  P25  1  0.500000  0.343665  0.331429  1
