# generated using pymatgen
data_Lu9Sc3Re3Si12Rh
_symmetry_space_group_name_H-M   'P 1'
_cell_length_a   4.07351800
_cell_length_b   10.69336059
_cell_length_c   11.99387368
_cell_angle_alpha   90.12962229
_cell_angle_beta   90.00000000
_cell_angle_gamma   90.00000000
_symmetry_Int_Tables_number   1
_chemical_formula_structural   Lu9Sc3Re3Si12Rh
_chemical_formula_sum   'Lu9 Sc3 Re3 Si12 Rh1'
_cell_volume   522.44696512
_cell_formula_units_Z   1
loop_
 _symmetry_equiv_pos_site_id
 _symmetry_equiv_pos_as_xyz
  1  'x, y, z'
loop_
 _atom_site_type_symbol
 _atom_site_label
 _atom_site_symmetry_multiplicity
 _atom_site_fract_x
 _atom_site_fract_y
 _atom_site_fract_z
 _atom_site_occupancy
  Lu  Lu0  1  0.250000  0.879299  0.020406  1
  Lu  Lu1  1  0.250000  0.623728  0.515549  1
  Lu  Lu2  1  0.750000  0.123263  0.983991  1
  Lu  Lu3  1  0.750000  0.377532  0.482171  1
  Lu  Lu4  1  0.250000  0.924604  0.602515  1
  Lu  Lu5  1  0.250000  0.576521  0.106382  1
  Lu  Lu6  1  0.750000  0.075857  0.394507  1
  Lu  Lu7  1  0.750000  0.422088  0.894476  1
  Lu  Lu8  1  0.250000  0.665013  0.797801  1
  Sc  Sc9  1  0.250000  0.838369  0.295982  1
  Sc  Sc10  1  0.750000  0.336592  0.203613  1
  Sc  Sc11  1  0.750000  0.159316  0.702666  1
  Re  Re12  1  0.250000  0.392485  0.681250  1
  Re  Re13  1  0.250000  0.106850  0.180878  1
  Re  Re14  1  0.750000  0.606802  0.318448  1
  Si  Si15  1  0.250000  0.018201  0.821961  1
  Si  Si16  1  0.250000  0.479699  0.320539  1
  Si  Si17  1  0.750000  0.981203  0.179795  1
  Si  Si18  1  0.750000  0.518560  0.678637  1
  Si  Si19  1  0.250000  0.247735  0.842263  1
  Si  Si20  1  0.250000  0.248686  0.344217  1
  Si  Si21  1  0.750000  0.750468  0.158026  1
  Si  Si22  1  0.750000  0.752890  0.653209  1
  Si  Si23  1  0.250000  0.198758  0.549025  1
  Si  Si24  1  0.250000  0.301786  0.049028  1
  Si  Si25  1  0.750000  0.803048  0.448588  1
  Si  Si26  1  0.750000  0.698182  0.956953  1
  Rh  Rh27  1  0.750000  0.892470  0.817125  1
