# generated using pymatgen
data_Yb11YZn24
_symmetry_space_group_name_H-M   'P 1'
_cell_length_a   4.57527400
_cell_length_b   7.46277901
_cell_length_c   21.72973600
_cell_angle_alpha   89.99754319
_cell_angle_beta   90.00000000
_cell_angle_gamma   90.00000000
_symmetry_Int_Tables_number   1
_chemical_formula_structural   Yb11YZn24
_chemical_formula_sum   'Yb11 Y1 Zn24'
_cell_volume   741.94572804
_cell_formula_units_Z   1
loop_
 _symmetry_equiv_pos_site_id
 _symmetry_equiv_pos_as_xyz
  1  'x, y, z'
loop_
 _atom_site_type_symbol
 _atom_site_label
 _atom_site_symmetry_multiplicity
 _atom_site_fract_x
 _atom_site_fract_y
 _atom_site_fract_z
 _atom_site_occupancy
  Yb  Yb0  1  0.250000  0.700947  0.000619  1
  Yb  Yb1  1  0.750000  0.298649  0.001011  1
  Yb  Yb2  1  0.750000  0.201333  0.499590  1
  Yb  Yb3  1  0.250000  0.799212  0.499849  1
  Yb  Yb4  1  0.250000  0.798784  0.166729  1
  Yb  Yb5  1  0.750000  0.202728  0.833335  1
  Yb  Yb6  1  0.750000  0.298238  0.333382  1
  Yb  Yb7  1  0.250000  0.701354  0.665971  1
  Yb  Yb8  1  0.250000  0.701246  0.333312  1
  Yb  Yb9  1  0.750000  0.299068  0.665740  1
  Yb  Yb10  1  0.750000  0.200876  0.167179  1
  Y  Y11  1  0.250000  0.794994  0.833316  1
  Zn  Zn12  1  0.250000  0.415702  0.103994  1
  Zn  Zn13  1  0.750000  0.584926  0.896385  1
  Zn  Zn14  1  0.750000  0.915149  0.396305  1
  Zn  Zn15  1  0.250000  0.085537  0.602817  1
  Zn  Zn16  1  0.250000  0.413888  0.230737  1
  Zn  Zn17  1  0.750000  0.586379  0.770010  1
  Zn  Zn18  1  0.750000  0.913629  0.270020  1
  Zn  Zn19  1  0.250000  0.084229  0.730420  1
  Zn  Zn20  1  0.250000  0.415423  0.436304  1
  Zn  Zn21  1  0.750000  0.585692  0.563377  1
  Zn  Zn22  1  0.750000  0.916094  0.063304  1
  Zn  Zn23  1  0.250000  0.082734  0.936617  1
  Zn  Zn24  1  0.250000  0.086111  0.064113  1
  Zn  Zn25  1  0.750000  0.912873  0.935227  1
  Zn  Zn26  1  0.750000  0.584975  0.436177  1
  Zn  Zn27  1  0.250000  0.415182  0.562944  1
  Zn  Zn28  1  0.250000  0.084319  0.270513  1
  Zn  Zn29  1  0.750000  0.914241  0.731058  1
  Zn  Zn30  1  0.750000  0.583529  0.230085  1
  Zn  Zn31  1  0.250000  0.417846  0.769011  1
  Zn  Zn32  1  0.250000  0.085841  0.396653  1
  Zn  Zn33  1  0.750000  0.915407  0.602962  1
  Zn  Zn34  1  0.750000  0.586374  0.102894  1
  Zn  Zn35  1  0.250000  0.416490  0.898039  1
