# generated using pymatgen
data_CrTc3Pb4O13
_symmetry_space_group_name_H-M   'P 1'
_cell_length_a   7.37666120
_cell_length_b   7.40709515
_cell_length_c   7.40709500
_cell_angle_alpha   59.99999622
_cell_angle_beta   59.86342476
_cell_angle_gamma   59.86342452
_symmetry_Int_Tables_number   1
_chemical_formula_structural   CrTc3Pb4O13
_chemical_formula_sum   'Cr1 Tc3 Pb4 O13'
_cell_volume   285.58871647
_cell_formula_units_Z   1
loop_
 _symmetry_equiv_pos_site_id
 _symmetry_equiv_pos_as_xyz
  1  'x, y, z'
loop_
 _atom_site_type_symbol
 _atom_site_label
 _atom_site_symmetry_multiplicity
 _atom_site_fract_x
 _atom_site_fract_y
 _atom_site_fract_z
 _atom_site_occupancy
  Cr  Cr0  1  0.375575  0.874808  0.874808  1
  Tc  Tc1  1  0.874864  0.375618  0.874758  1
  Tc  Tc2  1  0.874864  0.874758  0.375618  1
  Tc  Tc3  1  0.874864  0.874758  0.874758  1
  Pb  Pb4  1  0.880257  0.373248  0.373248  1
  Pb  Pb5  1  0.371094  0.374019  0.374019  1
  Pb  Pb6  1  0.371094  0.374019  0.880867  1
  Pb  Pb7  1  0.371094  0.880867  0.374019  1
  O  O8  1  0.194367  0.800984  0.800984  1
  O  O9  1  0.194367  0.800984  0.203664  1
  O  O10  1  0.559800  0.945243  0.945243  1
  O  O11  1  0.559800  0.945243  0.549713  1
  O  O12  1  0.941827  0.946322  0.555926  1
  O  O13  1  0.805587  0.801761  0.196326  1
  O  O14  1  0.559800  0.549713  0.945243  1
  O  O15  1  0.805587  0.196326  0.801761  1
  O  O16  1  0.805587  0.196326  0.196326  1
  O  O17  1  0.941827  0.555926  0.946322  1
  O  O18  1  0.941827  0.555926  0.555926  1
  O  O19  1  0.194367  0.203664  0.800984  1
  O  O20  1  0.501549  0.499483  0.499483  1
