# generated using pymatgen
data_La2YMg3Si2Ag
_symmetry_space_group_name_H-M   'P 1'
_cell_length_a   7.52904000
_cell_length_b   7.48810974
_cell_length_c   4.42798000
_cell_angle_alpha   90.00000000
_cell_angle_beta   90.00000000
_cell_angle_gamma   120.18098910
_symmetry_Int_Tables_number   1
_chemical_formula_structural   La2YMg3Si2Ag
_chemical_formula_sum   'La2 Y1 Mg3 Si2 Ag1'
_cell_volume   215.80084617
_cell_formula_units_Z   1
loop_
 _symmetry_equiv_pos_site_id
 _symmetry_equiv_pos_as_xyz
  1  'x, y, z'
loop_
 _atom_site_type_symbol
 _atom_site_label
 _atom_site_symmetry_multiplicity
 _atom_site_fract_x
 _atom_site_fract_y
 _atom_site_fract_z
 _atom_site_occupancy
  La  La0  1  0.423744  0.420175  0.500000  1
  La  La1  1  0.003569  0.579825  0.500000  1
  Y  Y2  1  0.578873  0.000000  0.500000  1
  Mg  Mg3  1  0.753851  0.758236  0.000000  1
  Mg  Mg4  1  0.249350  0.000000  0.000000  1
  Mg  Mg5  1  0.995616  0.241764  0.000000  1
  Si  Si6  1  0.663161  0.322027  0.000000  1
  Si  Si7  1  0.341134  0.677973  0.000000  1
  Ag  Ag8  1  0.990702  0.000000  0.500000  1
