# generated using pymatgen
data_Er4Ga7Ag5
_symmetry_space_group_name_H-M   'P 1'
_cell_length_a   4.34003300
_cell_length_b   6.99684624
_cell_length_c   10.31596832
_cell_angle_alpha   89.98079697
_cell_angle_beta   90.00000000
_cell_angle_gamma   90.00000000
_symmetry_Int_Tables_number   1
_chemical_formula_structural   Er4Ga7Ag5
_chemical_formula_sum   'Er4 Ga7 Ag5'
_cell_volume   313.26028415
_cell_formula_units_Z   1
loop_
 _symmetry_equiv_pos_site_id
 _symmetry_equiv_pos_as_xyz
  1  'x, y, z'
loop_
 _atom_site_type_symbol
 _atom_site_label
 _atom_site_symmetry_multiplicity
 _atom_site_fract_x
 _atom_site_fract_y
 _atom_site_fract_z
 _atom_site_occupancy
  Er  Er0  1  0.500000  0.781169  0.173636  1
  Er  Er1  1  0.500000  0.277328  0.327597  1
  Er  Er2  1  0.000000  0.215855  0.829309  1
  Er  Er3  1  0.000000  0.723134  0.670201  1
  Ga  Ga4  1  0.500000  0.923869  0.845593  1
  Ga  Ga5  1  0.500000  0.427201  0.656250  1
  Ga  Ga6  1  0.000000  0.076982  0.154208  1
  Ga  Ga7  1  0.000000  0.573651  0.343129  1
  Ga  Ga8  1  0.500000  0.202351  0.035609  1
  Ga  Ga9  1  0.000000  0.299499  0.535484  1
  Ga  Ga10  1  0.000000  0.795755  0.964367  1
  Ag  Ag11  1  0.500000  0.540869  0.903364  1
  Ag  Ag12  1  0.500000  0.046632  0.600995  1
  Ag  Ag13  1  0.000000  0.457817  0.097082  1
  Ag  Ag14  1  0.000000  0.961686  0.401279  1
  Ag  Ag15  1  0.500000  0.696205  0.461898  1
