# generated using pymatgen
data_Zr4Al2Au
_symmetry_space_group_name_H-M   'P 1'
_cell_length_a   5.38392846
_cell_length_b   5.38392846
_cell_length_c   5.46296200
_cell_angle_alpha   90.00000000
_cell_angle_beta   90.00000000
_cell_angle_gamma   118.61460227
_symmetry_Int_Tables_number   1
_chemical_formula_structural   Zr4Al2Au
_chemical_formula_sum   'Zr4 Al2 Au1'
_cell_volume   139.01205718
_cell_formula_units_Z   1
loop_
 _symmetry_equiv_pos_site_id
 _symmetry_equiv_pos_as_xyz
  1  'x, y, z'
loop_
 _atom_site_type_symbol
 _atom_site_label
 _atom_site_symmetry_multiplicity
 _atom_site_fract_x
 _atom_site_fract_y
 _atom_site_fract_z
 _atom_site_occupancy
  Zr  Zr0  1  0.000000  0.000000  0.743449  1
  Zr  Zr1  1  0.000000  0.000000  0.256551  1
  Zr  Zr2  1  0.328830  0.671170  0.500000  1
  Zr  Zr3  1  0.671170  0.328830  0.500000  1
  Al  Al4  1  0.500000  0.000000  0.000000  1
  Al  Al5  1  0.000000  0.500000  0.000000  1
  Au  Au6  1  0.500000  0.500000  0.000000  1
