# generated using pymatgen
data_Hf8Fe5Cu(Si7Ni)2
_symmetry_space_group_name_H-M   'P 1'
_cell_length_a   9.48032942
_cell_length_b   9.48227297
_cell_length_c   9.44649938
_cell_angle_alpha   94.02840203
_cell_angle_beta   94.02457196
_cell_angle_gamma   148.81394217
_symmetry_Int_Tables_number   1
_chemical_formula_structural   Hf8Fe5Cu(Si7Ni)2
_chemical_formula_sum   'Hf8 Fe5 Cu1 Si14 Ni2'
_cell_volume   424.46039626
_cell_formula_units_Z   1
loop_
 _symmetry_equiv_pos_site_id
 _symmetry_equiv_pos_as_xyz
  1  'x, y, z'
loop_
 _atom_site_type_symbol
 _atom_site_label
 _atom_site_symmetry_multiplicity
 _atom_site_fract_x
 _atom_site_fract_y
 _atom_site_fract_z
 _atom_site_occupancy
  Hf  Hf0  1  0.134381  0.133632  0.275799  1
  Hf  Hf1  1  0.866312  0.865475  0.724393  1
  Hf  Hf2  1  0.862761  0.137283  0.000060  1
  Hf  Hf3  1  0.138525  0.861551  0.000027  1
  Hf  Hf4  1  0.505862  0.309016  0.803443  1
  Hf  Hf5  1  0.504596  0.700179  0.195370  1
  Hf  Hf6  1  0.690736  0.493992  0.196575  1
  Hf  Hf7  1  0.300012  0.495452  0.804778  1
  Fe  Fe8  1  0.402088  0.906633  0.803096  1
  Fe  Fe9  1  0.093966  0.598405  0.196817  1
  Fe  Fe10  1  0.095237  0.903918  0.499924  1
  Fe  Fe11  1  0.398792  0.600978  0.499923  1
  Fe  Fe12  1  0.608814  0.391260  0.500050  1
  Cu  Cu13  1  0.897164  0.102974  0.500582  1
  Si  Si14  1  0.472725  0.067494  0.587867  1
  Si  Si15  1  0.449952  0.862021  0.404603  1
  Si  Si16  1  0.932307  0.527092  0.411943  1
  Si  Si17  1  0.138395  0.550394  0.595135  1
  Si  Si18  1  0.749377  0.748473  0.999861  1
  Si  Si19  1  0.251478  0.250579  0.000309  1
  Si  Si20  1  0.309996  0.305913  0.581681  1
  Si  Si21  1  0.693989  0.690014  0.418390  1
  Si  Si22  1  0.709856  0.290895  0.999851  1
  Si  Si23  1  0.290474  0.709379  0.999888  1
  Si  Si24  1  0.016579  0.315890  0.295354  1
  Si  Si25  1  0.010931  0.713319  0.698755  1
  Si  Si26  1  0.683795  0.982890  0.704906  1
  Si  Si27  1  0.286452  0.988882  0.301306  1
  Ni  Ni28  1  0.897297  0.392742  0.785909  1
  Ni  Ni29  1  0.607152  0.103276  0.213406  1
