# generated using pymatgen
data_Ho16Cd4IrRuPt2
_symmetry_space_group_name_H-M   'P 1'
_cell_length_a   9.60177692
_cell_length_b   9.60414680
_cell_length_c   9.58101200
_cell_angle_alpha   60.07965165
_cell_angle_beta   60.07151288
_cell_angle_gamma   60.30235505
_symmetry_Int_Tables_number   1
_chemical_formula_structural   Ho16Cd4IrRuPt2
_chemical_formula_sum   'Ho16 Cd4 Ir1 Ru1 Pt2'
_cell_volume   626.88348567
_cell_formula_units_Z   1
loop_
 _symmetry_equiv_pos_site_id
 _symmetry_equiv_pos_as_xyz
  1  'x, y, z'
loop_
 _atom_site_type_symbol
 _atom_site_label
 _atom_site_symmetry_multiplicity
 _atom_site_fract_x
 _atom_site_fract_y
 _atom_site_fract_z
 _atom_site_occupancy
  Ho  Ho0  1  0.599537  0.600777  0.595874  1
  Ho  Ho1  1  0.599537  0.600777  0.203813  1
  Ho  Ho2  1  0.606632  0.194034  0.599667  1
  Ho  Ho3  1  0.195863  0.606280  0.598928  1
  Ho  Ho4  1  0.056318  0.440026  0.441203  1
  Ho  Ho5  1  0.439458  0.055759  0.064500  1
  Ho  Ho6  1  0.439458  0.055759  0.440284  1
  Ho  Ho7  1  0.056318  0.440026  0.062454  1
  Ho  Ho8  1  0.441515  0.440551  0.058967  1
  Ho  Ho9  1  0.062502  0.060514  0.438492  1
  Ho  Ho10  1  0.188289  0.815421  0.809989  1
  Ho  Ho11  1  0.814481  0.188201  0.185939  1
  Ho  Ho12  1  0.814481  0.188201  0.811379  1
  Ho  Ho13  1  0.188289  0.815421  0.186301  1
  Ho  Ho14  1  0.812295  0.814360  0.186673  1
  Ho  Ho15  1  0.186963  0.187248  0.812894  1
  Cd  Cd16  1  0.831030  0.831214  0.831915  1
  Cd  Cd17  1  0.831030  0.831214  0.505840  1
  Cd  Cd18  1  0.830442  0.506346  0.831606  1
  Cd  Cd19  1  0.505552  0.830692  0.831878  1
  Ir  Ir20  1  0.823895  0.390468  0.392819  1
  Ru  Ru21  1  0.391840  0.823811  0.392176  1
  Pt  Pt22  1  0.392138  0.391451  0.394983  1
  Pt  Pt23  1  0.392138  0.391451  0.821429  1
