# generated using pymatgen
data_Nd5Zn2Ru3
_symmetry_space_group_name_H-M   'P 1'
_cell_length_a   8.50278390
_cell_length_b   8.50278359
_cell_length_c   8.50278300
_cell_angle_alpha   109.47121208
_cell_angle_beta   109.47121134
_cell_angle_gamma   109.47123067
_symmetry_Int_Tables_number   1
_chemical_formula_structural   Nd5Zn2Ru3
_chemical_formula_sum   'Nd10 Zn4 Ru6'
_cell_volume   473.21828133
_cell_formula_units_Z   2
loop_
 _symmetry_equiv_pos_site_id
 _symmetry_equiv_pos_as_xyz
  1  'x, y, z'
loop_
 _atom_site_type_symbol
 _atom_site_label
 _atom_site_symmetry_multiplicity
 _atom_site_fract_x
 _atom_site_fract_y
 _atom_site_fract_z
 _atom_site_occupancy
  Nd  Nd0  1  0.250000  0.684951  0.434951  1
  Nd  Nd1  1  0.750000  0.815049  0.065049  1
  Nd  Nd2  1  0.434951  0.250000  0.684951  1
  Nd  Nd3  1  0.684951  0.434951  0.250000  1
  Nd  Nd4  1  0.065049  0.750000  0.815049  1
  Nd  Nd5  1  0.815049  0.065049  0.750000  1
  Nd  Nd6  1  0.221706  0.221706  0.221706  1
  Nd  Nd7  1  0.500000  0.000000  0.278294  1
  Nd  Nd8  1  0.278294  0.500000  0.000000  1
  Nd  Nd9  1  0.000000  0.278294  0.500000  1
  Zn  Zn10  1  0.589297  0.589297  0.589297  1
  Zn  Zn11  1  0.500000  0.000000  0.910703  1
  Zn  Zn12  1  0.910703  0.500000  0.000000  1
  Zn  Zn13  1  0.000000  0.910703  0.500000  1
  Ru  Ru14  1  0.250000  0.127313  0.877313  1
  Ru  Ru15  1  0.750000  0.372687  0.622687  1
  Ru  Ru16  1  0.877312  0.250000  0.127313  1
  Ru  Ru17  1  0.127313  0.877312  0.250000  1
  Ru  Ru18  1  0.622687  0.750000  0.372687  1
  Ru  Ru19  1  0.372687  0.622687  0.750000  1
