# generated using pymatgen
data_Cs2Dy5YTe10
_symmetry_space_group_name_H-M   'P 1'
_cell_length_a   4.40968900
_cell_length_b   13.40564737
_cell_length_c   23.68216400
_cell_angle_alpha   89.89073932
_cell_angle_beta   90.00000000
_cell_angle_gamma   90.00000000
_symmetry_Int_Tables_number   1
_chemical_formula_structural   Cs2Dy5YTe10
_chemical_formula_sum   'Cs4 Dy10 Y2 Te20'
_cell_volume   1399.96232176
_cell_formula_units_Z   2
loop_
 _symmetry_equiv_pos_site_id
 _symmetry_equiv_pos_as_xyz
  1  'x, y, z'
loop_
 _atom_site_type_symbol
 _atom_site_label
 _atom_site_symmetry_multiplicity
 _atom_site_fract_x
 _atom_site_fract_y
 _atom_site_fract_z
 _atom_site_occupancy
  Cs  Cs0  1  0.250000  0.352718  0.089393  1
  Cs  Cs1  1  0.750000  0.647282  0.910607  1
  Cs  Cs2  1  0.750000  0.853841  0.410075  1
  Cs  Cs3  1  0.250000  0.146159  0.589925  1
  Dy  Dy4  1  0.250000  0.454962  0.698649  1
  Dy  Dy5  1  0.750000  0.545038  0.301351  1
  Dy  Dy6  1  0.750000  0.955191  0.801910  1
  Dy  Dy7  1  0.250000  0.044809  0.198090  1
  Dy  Dy8  1  0.250000  0.796354  0.674623  1
  Dy  Dy9  1  0.750000  0.203646  0.325377  1
  Dy  Dy10  1  0.750000  0.295877  0.826167  1
  Dy  Dy11  1  0.250000  0.704123  0.173833  1
  Dy  Dy12  1  0.250000  0.392577  0.444327  1
  Dy  Dy13  1  0.750000  0.607423  0.555673  1
  Y  Y14  1  0.750000  0.893574  0.055478  1
  Y  Y15  1  0.250000  0.106426  0.944522  1
  Te  Te16  1  0.250000  0.444916  0.569300  1
  Te  Te17  1  0.750000  0.555084  0.430700  1
  Te  Te18  1  0.750000  0.944426  0.930697  1
  Te  Te19  1  0.250000  0.055574  0.069303  1
  Te  Te20  1  0.250000  0.767179  0.545917  1
  Te  Te21  1  0.750000  0.232821  0.454083  1
  Te  Te22  1  0.750000  0.265574  0.954721  1
  Te  Te23  1  0.250000  0.734426  0.045279  1
  Te  Te24  1  0.250000  0.800440  0.803785  1
  Te  Te25  1  0.750000  0.199560  0.196215  1
  Te  Te26  1  0.750000  0.300238  0.697025  1
  Te  Te27  1  0.250000  0.699762  0.302975  1
  Te  Te28  1  0.250000  0.452104  0.828183  1
  Te  Te29  1  0.750000  0.547896  0.171817  1
  Te  Te30  1  0.750000  0.952570  0.672797  1
  Te  Te31  1  0.250000  0.047430  0.327203  1
  Te  Te32  1  0.250000  0.374734  0.312557  1
  Te  Te33  1  0.750000  0.625266  0.687443  1
  Te  Te34  1  0.750000  0.874792  0.186968  1
  Te  Te35  1  0.250000  0.125208  0.813032  1
