# generated using pymatgen
data_PrSbI18
_symmetry_space_group_name_H-M   'P 1'
_cell_length_a   10.53726263
_cell_length_b   10.53726392
_cell_length_c   10.53726350
_cell_angle_alpha   87.02608976
_cell_angle_beta   87.02608658
_cell_angle_gamma   87.02609725
_symmetry_Int_Tables_number   1
_chemical_formula_structural   PrSbI18
_chemical_formula_sum   'Pr1 Sb1 I18'
_cell_volume   1165.42427127
_cell_formula_units_Z   1
loop_
 _symmetry_equiv_pos_site_id
 _symmetry_equiv_pos_as_xyz
  1  'x, y, z'
loop_
 _atom_site_type_symbol
 _atom_site_label
 _atom_site_symmetry_multiplicity
 _atom_site_fract_x
 _atom_site_fract_y
 _atom_site_fract_z
 _atom_site_occupancy
  Pr  Pr0  1  0.500000  0.500000  0.500000  1
  Sb  Sb1  1  0.000000  0.000000  0.000000  1
  I  I2  1  0.709806  0.994465  0.042551  1
  I  I3  1  0.748707  0.123209  0.608981  1
  I  I4  1  0.042551  0.709806  0.994465  1
  I  I5  1  0.251293  0.876791  0.391019  1
  I  I6  1  0.123209  0.608981  0.748707  1
  I  I7  1  0.005535  0.957449  0.290194  1
  I  I8  1  0.608981  0.748707  0.123209  1
  I  I9  1  0.957449  0.290194  0.005535  1
  I  I10  1  0.876791  0.391019  0.251293  1
  I  I11  1  0.391019  0.251293  0.876791  1
  I  I12  1  0.994465  0.042551  0.709806  1
  I  I13  1  0.290194  0.005535  0.957449  1
  I  I14  1  0.799677  0.522653  0.484911  1
  I  I15  1  0.515089  0.200323  0.477347  1
  I  I16  1  0.477347  0.515089  0.200323  1
  I  I17  1  0.484911  0.799677  0.522653  1
  I  I18  1  0.522653  0.484911  0.799677  1
  I  I19  1  0.200323  0.477347  0.515089  1
