# generated using pymatgen
data_TiNb8PdSe16
_symmetry_space_group_name_H-M   'P 1'
_cell_length_a   7.01539500
_cell_length_b   7.01539637
_cell_length_c   12.99852200
_cell_angle_alpha   90.00000000
_cell_angle_beta   90.00000000
_cell_angle_gamma   120.00000770
_symmetry_Int_Tables_number   1
_chemical_formula_structural   TiNb8PdSe16
_chemical_formula_sum   'Ti1 Nb8 Pd1 Se16'
_cell_volume   554.02442792
_cell_formula_units_Z   1
loop_
 _symmetry_equiv_pos_site_id
 _symmetry_equiv_pos_as_xyz
  1  'x, y, z'
loop_
 _atom_site_type_symbol
 _atom_site_label
 _atom_site_symmetry_multiplicity
 _atom_site_fract_x
 _atom_site_fract_y
 _atom_site_fract_z
 _atom_site_occupancy
  Ti  Ti0  1  0.000000  0.000000  0.000000  1
  Nb  Nb1  1  0.000000  0.000000  0.250244  1
  Nb  Nb2  1  0.000000  0.000000  0.749756  1
  Nb  Nb3  1  0.508462  0.016925  0.249891  1
  Nb  Nb4  1  0.491538  0.983075  0.750109  1
  Nb  Nb5  1  0.983075  0.491538  0.249891  1
  Nb  Nb6  1  0.016925  0.508462  0.750109  1
  Nb  Nb7  1  0.508462  0.491538  0.249891  1
  Nb  Nb8  1  0.491538  0.508462  0.750109  1
  Pd  Pd9  1  0.000000  0.000000  0.500000  1
  Se  Se10  1  0.333333  0.666667  0.616408  1
  Se  Se11  1  0.666667  0.333333  0.383592  1
  Se  Se12  1  0.666667  0.333333  0.115440  1
  Se  Se13  1  0.333333  0.666667  0.884560  1
  Se  Se14  1  0.167404  0.334808  0.121333  1
  Se  Se15  1  0.832596  0.665192  0.878667  1
  Se  Se16  1  0.665192  0.832596  0.121333  1
  Se  Se17  1  0.829554  0.659107  0.623901  1
  Se  Se18  1  0.334808  0.167404  0.878667  1
  Se  Se19  1  0.170446  0.340893  0.376099  1
  Se  Se20  1  0.167404  0.832596  0.121333  1
  Se  Se21  1  0.340893  0.170446  0.623901  1
  Se  Se22  1  0.832596  0.167404  0.878667  1
  Se  Se23  1  0.659107  0.829554  0.376099  1
  Se  Se24  1  0.829554  0.170446  0.623901  1
  Se  Se25  1  0.170446  0.829554  0.376099  1
