# generated using pymatgen
data_Cd(GaBr4)2
_symmetry_space_group_name_H-M   'P 1'
_cell_length_a   7.46554600
_cell_length_b   7.65854789
_cell_length_c   14.11873211
_cell_angle_alpha   87.55046055
_cell_angle_beta   90.00000000
_cell_angle_gamma   90.00000000
_symmetry_Int_Tables_number   1
_chemical_formula_structural   Cd(GaBr4)2
_chemical_formula_sum   'Cd2 Ga4 Br16'
_cell_volume   806.50430191
_cell_formula_units_Z   2
loop_
 _symmetry_equiv_pos_site_id
 _symmetry_equiv_pos_as_xyz
  1  'x, y, z'
loop_
 _atom_site_type_symbol
 _atom_site_label
 _atom_site_symmetry_multiplicity
 _atom_site_fract_x
 _atom_site_fract_y
 _atom_site_fract_z
 _atom_site_occupancy
  Cd  Cd0  1  0.754151  0.077202  0.813239  1
  Cd  Cd1  1  0.245849  0.077202  0.313239  1
  Ga  Ga2  1  0.932737  0.222090  0.577932  1
  Ga  Ga3  1  0.067263  0.222090  0.077932  1
  Ga  Ga4  1  0.572889  0.638235  0.776221  1
  Ga  Ga5  1  0.427111  0.638235  0.276221  1
  Br  Br6  1  0.416869  0.613975  0.637282  1
  Br  Br7  1  0.583131  0.613975  0.137282  1
  Br  Br8  1  0.876303  0.737366  0.761559  1
  Br  Br9  1  0.123697  0.737366  0.261559  1
  Br  Br10  1  0.938841  0.485264  0.494056  1
  Br  Br11  1  0.061159  0.485264  0.994056  1
  Br  Br12  1  0.912809  0.998085  0.995825  1
  Br  Br13  1  0.087191  0.998085  0.495825  1
  Br  Br14  1  0.636344  0.124571  0.619742  1
  Br  Br15  1  0.363656  0.124571  0.119742  1
  Br  Br16  1  0.565805  0.371957  0.874364  1
  Br  Br17  1  0.434195  0.371957  0.374364  1
  Br  Br18  1  0.451237  0.870876  0.867107  1
  Br  Br19  1  0.548763  0.870876  0.367107  1
  Br  Br20  1  0.937175  0.227779  0.234875  1
  Br  Br21  1  0.062825  0.227779  0.734875  1
