# generated using pymatgen
data_CaZr(Si7Ir3)2
_symmetry_space_group_name_H-M   'P 1'
_cell_length_a   8.02055621
_cell_length_b   8.02055666
_cell_length_c   8.02055570
_cell_angle_alpha   56.58503295
_cell_angle_beta   56.58502791
_cell_angle_gamma   56.58503519
_symmetry_Int_Tables_number   1
_chemical_formula_structural   CaZr(Si7Ir3)2
_chemical_formula_sum   'Ca1 Zr1 Si14 Ir6'
_cell_volume   336.05095827
_cell_formula_units_Z   1
loop_
 _symmetry_equiv_pos_site_id
 _symmetry_equiv_pos_as_xyz
  1  'x, y, z'
loop_
 _atom_site_type_symbol
 _atom_site_label
 _atom_site_symmetry_multiplicity
 _atom_site_fract_x
 _atom_site_fract_y
 _atom_site_fract_z
 _atom_site_occupancy
  Ca  Ca0  1  0.000000  0.000000  0.000000  1
  Zr  Zr1  1  0.500000  0.500000  0.500000  1
  Si  Si2  1  0.065372  0.851390  0.672886  1
  Si  Si3  1  0.672886  0.065372  0.851390  1
  Si  Si4  1  0.851390  0.672886  0.065372  1
  Si  Si5  1  0.173445  0.349753  0.563646  1
  Si  Si6  1  0.563646  0.173445  0.349753  1
  Si  Si7  1  0.349753  0.563646  0.173445  1
  Si  Si8  1  0.934628  0.148610  0.327114  1
  Si  Si9  1  0.327114  0.934628  0.148610  1
  Si  Si10  1  0.148610  0.327114  0.934628  1
  Si  Si11  1  0.826555  0.650247  0.436354  1
  Si  Si12  1  0.436354  0.826555  0.650247  1
  Si  Si13  1  0.650247  0.436354  0.826555  1
  Si  Si14  1  0.750031  0.750031  0.750031  1
  Si  Si15  1  0.249969  0.249969  0.249969  1
  Ir  Ir16  1  0.075369  0.745394  0.432962  1
  Ir  Ir17  1  0.432962  0.075369  0.745394  1
  Ir  Ir18  1  0.745394  0.432962  0.075369  1
  Ir  Ir19  1  0.924631  0.254606  0.567038  1
  Ir  Ir20  1  0.567038  0.924631  0.254606  1
  Ir  Ir21  1  0.254606  0.567038  0.924631  1
