# generated using pymatgen
data_CeTaP7Ru12
_symmetry_space_group_name_H-M   'P 1'
_cell_length_a   9.41111600
_cell_length_b   9.41111504
_cell_length_c   3.89921500
_cell_angle_alpha   90.00000000
_cell_angle_beta   90.00000000
_cell_angle_gamma   120.00000244
_symmetry_Int_Tables_number   1
_chemical_formula_structural   CeTaP7Ru12
_chemical_formula_sum   'Ce1 Ta1 P7 Ru12'
_cell_volume   299.08181818
_cell_formula_units_Z   1
loop_
 _symmetry_equiv_pos_site_id
 _symmetry_equiv_pos_as_xyz
  1  'x, y, z'
loop_
 _atom_site_type_symbol
 _atom_site_label
 _atom_site_symmetry_multiplicity
 _atom_site_fract_x
 _atom_site_fract_y
 _atom_site_fract_z
 _atom_site_occupancy
  Ce  Ce0  1  0.333333  0.666667  0.000000  1
  Ta  Ta1  1  0.666667  0.333333  0.500000  1
  P  P2  1  0.601328  0.718959  0.500000  1
  P  P3  1  0.000000  0.000000  0.000000  1
  P  P4  1  0.281041  0.882369  0.500000  1
  P  P5  1  0.117631  0.398672  0.500000  1
  P  P6  1  0.886663  0.573770  0.000000  1
  P  P7  1  0.426230  0.312893  0.000000  1
  P  P8  1  0.687107  0.113337  0.000000  1
  Ru  Ru9  1  0.558947  0.957552  0.500000  1
  Ru  Ru10  1  0.398606  0.441053  0.500000  1
  Ru  Ru11  1  0.912004  0.122714  0.500000  1
  Ru  Ru12  1  0.210710  0.087996  0.500000  1
  Ru  Ru13  1  0.877286  0.789290  0.500000  1
  Ru  Ru14  1  0.724152  0.886714  0.000000  1
  Ru  Ru15  1  0.113286  0.837438  0.000000  1
  Ru  Ru16  1  0.162562  0.275848  0.000000  1
  Ru  Ru17  1  0.432685  0.080559  0.000000  1
  Ru  Ru18  1  0.919441  0.352127  0.000000  1
  Ru  Ru19  1  0.647873  0.567315  0.000000  1
  Ru  Ru20  1  0.042448  0.601394  0.500000  1
