# generated using pymatgen
data_Gd8TaSi16Tc11
_symmetry_space_group_name_H-M   'P 1'
_cell_length_a   6.79117090
_cell_length_b   6.81842480
_cell_length_c   12.65987500
_cell_angle_alpha   90.08774501
_cell_angle_beta   90.49544907
_cell_angle_gamma   90.21378121
_symmetry_Int_Tables_number   1
_chemical_formula_structural   Gd8TaSi16Tc11
_chemical_formula_sum   'Gd8 Ta1 Si16 Tc11'
_cell_volume   586.18991303
_cell_formula_units_Z   1
loop_
 _symmetry_equiv_pos_site_id
 _symmetry_equiv_pos_as_xyz
  1  'x, y, z'
loop_
 _atom_site_type_symbol
 _atom_site_label
 _atom_site_symmetry_multiplicity
 _atom_site_fract_x
 _atom_site_fract_y
 _atom_site_fract_z
 _atom_site_occupancy
  Gd  Gd0  1  0.334332  0.994629  0.467099  1
  Gd  Gd1  1  0.500958  0.831848  0.720548  1
  Gd  Gd2  1  0.494031  0.162172  0.218421  1
  Gd  Gd3  1  0.832539  0.499645  0.278246  1
  Gd  Gd4  1  0.164148  0.491921  0.783074  1
  Gd  Gd5  1  0.664029  0.999967  0.971619  1
  Gd  Gd6  1  0.000245  0.337128  0.529730  1
  Gd  Gd7  1  0.002246  0.660195  0.031270  1
  Ta  Ta8  1  0.995336  0.830126  0.622140  1
  Si  Si9  1  0.204720  0.121991  0.685737  1
  Si  Si10  1  0.385137  0.691477  0.938054  1
  Si  Si11  1  0.613774  0.311020  0.439210  1
  Si  Si12  1  0.689998  0.386049  0.062478  1
  Si  Si13  1  0.310567  0.616005  0.561642  1
  Si  Si14  1  0.807998  0.886263  0.188668  1
  Si  Si15  1  0.116211  0.196508  0.313565  1
  Si  Si16  1  0.884966  0.799757  0.816332  1
  Si  Si17  1  0.264277  0.983803  0.060115  1
  Si  Si18  1  0.522716  0.775007  0.312207  1
  Si  Si19  1  0.477786  0.216431  0.814902  1
  Si  Si20  1  0.782282  0.520996  0.688642  1
  Si  Si21  1  0.228930  0.482395  0.187744  1
  Si  Si22  1  0.705868  0.043224  0.564167  1
  Si  Si23  1  0.982488  0.263535  0.938645  1
  Si  Si24  1  0.030277  0.720487  0.427200  1
  Tc  Tc25  1  0.331702  0.332652  0.000685  1
  Tc  Tc26  1  0.166218  0.833438  0.248657  1
  Tc  Tc27  1  0.837772  0.160125  0.748938  1
  Tc  Tc28  1  0.672924  0.666370  0.502053  1
  Tc  Tc29  1  0.187748  0.975163  0.867118  1
  Tc  Tc30  1  0.517995  0.684906  0.120505  1
  Tc  Tc31  1  0.494134  0.325350  0.626766  1
  Tc  Tc32  1  0.675358  0.507595  0.876866  1
  Tc  Tc33  1  0.318575  0.483819  0.377588  1
  Tc  Tc34  1  0.824781  0.020891  0.376553  1
  Tc  Tc35  1  0.976933  0.187109  0.132815  1
