# generated using pymatgen
data_Ho6UO12
_symmetry_space_group_name_H-M   'P 1'
_cell_length_a   6.55134076
_cell_length_b   6.55134160
_cell_length_c   6.55134062
_cell_angle_alpha   99.05526673
_cell_angle_beta   99.05526692
_cell_angle_gamma   99.05527753
_symmetry_Int_Tables_number   1
_chemical_formula_structural   Ho6UO12
_chemical_formula_sum   'Ho6 U1 O12'
_cell_volume   269.39286445
_cell_formula_units_Z   1
loop_
 _symmetry_equiv_pos_site_id
 _symmetry_equiv_pos_as_xyz
  1  'x, y, z'
loop_
 _atom_site_type_symbol
 _atom_site_label
 _atom_site_symmetry_multiplicity
 _atom_site_fract_x
 _atom_site_fract_y
 _atom_site_fract_z
 _atom_site_occupancy
  Ho  Ho0  1  0.390144  0.677421  0.854602  1
  Ho  Ho1  1  0.854602  0.390144  0.677421  1
  Ho  Ho2  1  0.677421  0.854602  0.390144  1
  Ho  Ho3  1  0.609856  0.322579  0.145398  1
  Ho  Ho4  1  0.145398  0.609856  0.322579  1
  Ho  Ho5  1  0.322579  0.145398  0.609856  1
  U  U6  1  0.000000  0.000000  0.000000  1
  O  O7  1  0.177625  0.427485  0.587896  1
  O  O8  1  0.587896  0.177625  0.427485  1
  O  O9  1  0.427485  0.587896  0.177625  1
  O  O10  1  0.822375  0.572515  0.412104  1
  O  O11  1  0.412104  0.822375  0.572515  1
  O  O12  1  0.572515  0.412104  0.822375  1
  O  O13  1  0.919195  0.047333  0.690716  1
  O  O14  1  0.952667  0.309284  0.080805  1
  O  O15  1  0.309284  0.080805  0.952667  1
  O  O16  1  0.080805  0.952667  0.309284  1
  O  O17  1  0.047333  0.690716  0.919195  1
  O  O18  1  0.690716  0.919195  0.047333  1
