# generated using pymatgen
data_Zr4Re4NiOs3
_symmetry_space_group_name_H-M   'P 1'
_cell_length_a   5.17782300
_cell_length_b   5.17632849
_cell_length_c   8.70146800
_cell_angle_alpha   90.00000000
_cell_angle_beta   90.00000000
_cell_angle_gamma   60.84390019
_symmetry_Int_Tables_number   1
_chemical_formula_structural   Zr4Re4NiOs3
_chemical_formula_sum   'Zr4 Re4 Ni1 Os3'
_cell_volume   203.66801879
_cell_formula_units_Z   1
loop_
 _symmetry_equiv_pos_site_id
 _symmetry_equiv_pos_as_xyz
  1  'x, y, z'
loop_
 _atom_site_type_symbol
 _atom_site_label
 _atom_site_symmetry_multiplicity
 _atom_site_fract_x
 _atom_site_fract_y
 _atom_site_fract_z
 _atom_site_occupancy
  Zr  Zr0  1  0.332665  0.332334  0.565680  1
  Zr  Zr1  1  0.660433  0.668830  0.440753  1
  Zr  Zr2  1  0.660433  0.668830  0.059247  1
  Zr  Zr3  1  0.332665  0.332334  0.934320  1
  Re  Re4  1  0.836060  0.828853  0.750000  1
  Re  Re5  1  0.168603  0.657858  0.250000  1
  Re  Re6  1  0.658698  0.170160  0.250000  1
  Re  Re7  1  0.168469  0.172183  0.250000  1
  Ni  Ni8  1  0.343867  0.835001  0.750000  1
  Os  Os9  1  0.001126  0.993463  0.505913  1
  Os  Os10  1  0.001126  0.993463  0.994087  1
  Os  Os11  1  0.835853  0.346691  0.750000  1
