# generated using pymatgen
data_Tb3HoCd2CuPd3
_symmetry_space_group_name_H-M   'P 1'
_cell_length_a   7.82190283
_cell_length_b   7.76784687
_cell_length_c   3.63663000
_cell_angle_alpha   90.00000000
_cell_angle_beta   90.00000000
_cell_angle_gamma   90.39285603
_symmetry_Int_Tables_number   1
_chemical_formula_structural   Tb3HoCd2CuPd3
_chemical_formula_sum   'Tb3 Ho1 Cd2 Cu1 Pd3'
_cell_volume   220.95405696
_cell_formula_units_Z   1
loop_
 _symmetry_equiv_pos_site_id
 _symmetry_equiv_pos_as_xyz
  1  'x, y, z'
loop_
 _atom_site_type_symbol
 _atom_site_label
 _atom_site_symmetry_multiplicity
 _atom_site_fract_x
 _atom_site_fract_y
 _atom_site_fract_z
 _atom_site_occupancy
  Tb  Tb0  1  0.675023  0.172957  0.500000  1
  Tb  Tb1  1  0.329714  0.828917  0.500000  1
  Tb  Tb2  1  0.171980  0.327264  0.500000  1
  Ho  Ho3  1  0.823569  0.670034  0.500000  1
  Cd  Cd4  1  0.000775  0.995371  0.000000  1
  Cd  Cd5  1  0.497001  0.499963  0.000000  1
  Cu  Cu6  1  0.119485  0.625254  0.000000  1
  Pd  Pd7  1  0.879547  0.381043  0.000000  1
  Pd  Pd8  1  0.629434  0.872114  0.000000  1
  Pd  Pd9  1  0.373471  0.127083  0.000000  1
