# generated using pymatgen
data_Ce2NbB2Ru5
_symmetry_space_group_name_H-M   'P 1'
_cell_length_a   9.79245900
_cell_length_b   9.79245900
_cell_length_c   3.13049500
_cell_angle_alpha   90.00000000
_cell_angle_beta   90.00000000
_cell_angle_gamma   90.00000000
_symmetry_Int_Tables_number   1
_chemical_formula_structural   Ce2NbB2Ru5
_chemical_formula_sum   'Ce4 Nb2 B4 Ru10'
_cell_volume   300.19021939
_cell_formula_units_Z   2
loop_
 _symmetry_equiv_pos_site_id
 _symmetry_equiv_pos_as_xyz
  1  'x, y, z'
loop_
 _atom_site_type_symbol
 _atom_site_label
 _atom_site_symmetry_multiplicity
 _atom_site_fract_x
 _atom_site_fract_y
 _atom_site_fract_z
 _atom_site_occupancy
  Ce  Ce0  1  0.824318  0.675682  0.000000  1
  Ce  Ce1  1  0.175682  0.324318  0.000000  1
  Ce  Ce2  1  0.324318  0.824318  0.000000  1
  Ce  Ce3  1  0.675682  0.175682  0.000000  1
  Nb  Nb4  1  0.500000  0.500000  0.000000  1
  Nb  Nb5  1  0.000000  0.000000  0.000000  1
  B  B6  1  0.621157  0.878843  0.000000  1
  B  B7  1  0.378843  0.121157  0.000000  1
  B  B8  1  0.121157  0.621157  0.000000  1
  B  B9  1  0.878843  0.378843  0.000000  1
  Ru  Ru10  1  0.570824  0.720138  0.500000  1
  Ru  Ru11  1  0.429176  0.279862  0.500000  1
  Ru  Ru12  1  0.070824  0.779862  0.500000  1
  Ru  Ru13  1  0.929176  0.220138  0.500000  1
  Ru  Ru14  1  0.279862  0.570824  0.500000  1
  Ru  Ru15  1  0.720138  0.429176  0.500000  1
  Ru  Ru16  1  0.220138  0.070824  0.500000  1
  Ru  Ru17  1  0.779862  0.929176  0.500000  1
  Ru  Ru18  1  0.500000  0.000000  0.500000  1
  Ru  Ru19  1  0.000000  0.500000  0.500000  1
