# generated using pymatgen
data_Lu12CdNi4Bi
_symmetry_space_group_name_H-M   'P 1'
_cell_length_a   8.23197563
_cell_length_b   8.23197614
_cell_length_c   8.23197700
_cell_angle_alpha   112.44164274
_cell_angle_beta   109.57539794
_cell_angle_gamma   106.45192436
_symmetry_Int_Tables_number   1
_chemical_formula_structural   Lu12CdNi4Bi
_chemical_formula_sum   'Lu12 Cd1 Ni4 Bi1'
_cell_volume   428.25587475
_cell_formula_units_Z   1
loop_
 _symmetry_equiv_pos_site_id
 _symmetry_equiv_pos_as_xyz
  1  'x, y, z'
loop_
 _atom_site_type_symbol
 _atom_site_label
 _atom_site_symmetry_multiplicity
 _atom_site_fract_x
 _atom_site_fract_y
 _atom_site_fract_z
 _atom_site_occupancy
  Lu  Lu0  1  0.677253  0.868868  0.191615  1
  Lu  Lu1  1  0.322738  0.514392  0.191654  1
  Lu  Lu2  1  0.819867  0.789631  0.609530  1
  Lu  Lu3  1  0.180102  0.789631  0.969764  1
  Lu  Lu4  1  0.819898  0.210369  0.030236  1
  Lu  Lu5  1  0.180133  0.210369  0.390470  1
  Lu  Lu6  1  0.677262  0.485608  0.808346  1
  Lu  Lu7  1  0.322747  0.131132  0.808385  1
  Lu  Lu8  1  0.563005  0.270419  0.292605  1
  Lu  Lu9  1  0.436995  0.729581  0.707395  1
  Lu  Lu10  1  0.022185  0.729581  0.292585  1
  Lu  Lu11  1  0.977815  0.270419  0.707415  1
  Cd  Cd12  1  0.000000  0.500000  0.500000  1
  Ni  Ni13  1  0.350723  0.500000  0.850723  1
  Ni  Ni14  1  0.649277  0.500000  0.149277  1
  Ni  Ni15  1  0.874894  0.874887  0.999993  1
  Ni  Ni16  1  0.125106  0.125113  0.000007  1
  Bi  Bi17  1  0.500000  0.000000  0.500000  1
