# generated using pymatgen
data_BaSb12IrOsRu2
_symmetry_space_group_name_H-M   'P 1'
_cell_length_a   8.17913963
_cell_length_b   8.17939753
_cell_length_c   8.18268906
_cell_angle_alpha   109.48331205
_cell_angle_beta   109.47205531
_cell_angle_gamma   109.45627267
_symmetry_Int_Tables_number   1
_chemical_formula_structural   BaSb12IrOsRu2
_chemical_formula_sum   'Ba1 Sb12 Ir1 Os1 Ru2'
_cell_volume   421.41880772
_cell_formula_units_Z   1
loop_
 _symmetry_equiv_pos_site_id
 _symmetry_equiv_pos_as_xyz
  1  'x, y, z'
loop_
 _atom_site_type_symbol
 _atom_site_label
 _atom_site_symmetry_multiplicity
 _atom_site_fract_x
 _atom_site_fract_y
 _atom_site_fract_z
 _atom_site_occupancy
  Ba  Ba0  1  0.000000  0.000000  0.000000  1
  Sb  Sb1  1  0.156580  0.814965  0.654510  1
  Sb  Sb2  1  0.158636  0.501917  0.341935  1
  Sb  Sb3  1  0.498013  0.654659  0.840236  1
  Sb  Sb4  1  0.341318  0.839139  0.184815  1
  Sb  Sb5  1  0.817124  0.657645  0.159968  1
  Sb  Sb6  1  0.657602  0.841019  0.497876  1
  Sb  Sb7  1  0.182876  0.342355  0.840032  1
  Sb  Sb8  1  0.658682  0.160861  0.815185  1
  Sb  Sb9  1  0.342398  0.158981  0.502124  1
  Sb  Sb10  1  0.501987  0.345341  0.159764  1
  Sb  Sb11  1  0.841364  0.498083  0.658065  1
  Sb  Sb12  1  0.843420  0.185035  0.345490  1
  Ir  Ir13  1  0.500000  0.000000  0.000000  1
  Os  Os14  1  0.500000  0.500000  0.500000  1
  Ru  Ru15  1  0.000000  0.000000  0.500000  1
  Ru  Ru16  1  0.000000  0.500000  0.000000  1
