# generated using pymatgen
data_Ta8Mo4RuW3
_symmetry_space_group_name_H-M   'P 1'
_cell_length_a   6.43529500
_cell_length_b   4.58167300
_cell_length_c   9.14310700
_cell_angle_alpha   90.00000000
_cell_angle_beta   90.00044585
_cell_angle_gamma   90.00000000
_symmetry_Int_Tables_number   1
_chemical_formula_structural   Ta8Mo4RuW3
_chemical_formula_sum   'Ta8 Mo4 Ru1 W3'
_cell_volume   269.57918265
_cell_formula_units_Z   1
loop_
 _symmetry_equiv_pos_site_id
 _symmetry_equiv_pos_as_xyz
  1  'x, y, z'
loop_
 _atom_site_type_symbol
 _atom_site_label
 _atom_site_symmetry_multiplicity
 _atom_site_fract_x
 _atom_site_fract_y
 _atom_site_fract_z
 _atom_site_occupancy
  Ta  Ta0  1  0.500512  0.750000  0.123561  1
  Ta  Ta1  1  0.999521  0.750000  0.123564  1
  Ta  Ta2  1  0.500801  0.250000  0.374993  1
  Ta  Ta3  1  0.999229  0.250000  0.374991  1
  Ta  Ta4  1  0.999486  0.750000  0.626445  1
  Ta  Ta5  1  0.500480  0.750000  0.626445  1
  Ta  Ta6  1  0.999629  0.250000  0.874998  1
  Ta  Ta7  1  0.500341  0.250000  0.875000  1
  Mo  Mo8  1  0.750014  0.250000  0.124333  1
  Mo  Mo9  1  0.250016  0.750000  0.374999  1
  Mo  Mo10  1  0.749984  0.250000  0.625653  1
  Mo  Mo11  1  0.249985  0.750000  0.875003  1
  Ru  Ru12  1  0.749983  0.750000  0.875026  1
  W  W13  1  0.250015  0.250000  0.123583  1
  W  W14  1  0.750014  0.750000  0.374994  1
  W  W15  1  0.249986  0.250000  0.626409  1
