# generated using pymatgen
data_NdThCu3Ni7
_symmetry_space_group_name_H-M   'P 1'
_cell_length_a   4.04326000
_cell_length_b   4.96380849
_cell_length_c   8.62525979
_cell_angle_alpha   90.09048234
_cell_angle_beta   90.00000000
_cell_angle_gamma   90.00000000
_symmetry_Int_Tables_number   1
_chemical_formula_structural   NdThCu3Ni7
_chemical_formula_sum   'Nd1 Th1 Cu3 Ni7'
_cell_volume   173.10847484
_cell_formula_units_Z   1
loop_
 _symmetry_equiv_pos_site_id
 _symmetry_equiv_pos_as_xyz
  1  'x, y, z'
loop_
 _atom_site_type_symbol
 _atom_site_label
 _atom_site_symmetry_multiplicity
 _atom_site_fract_x
 _atom_site_fract_y
 _atom_site_fract_z
 _atom_site_occupancy
  Nd  Nd0  1  0.000000  0.500000  0.500000  1
  Th  Th1  1  0.000000  0.000000  0.000000  1
  Cu  Cu2  1  0.500000  0.000000  0.500000  1
  Cu  Cu3  1  0.500000  0.252071  0.248903  1
  Cu  Cu4  1  0.500000  0.747929  0.751097  1
  Ni  Ni5  1  0.000000  0.991664  0.327189  1
  Ni  Ni6  1  0.000000  0.491906  0.837851  1
  Ni  Ni7  1  0.000000  0.508094  0.162149  1
  Ni  Ni8  1  0.000000  0.008336  0.672811  1
  Ni  Ni9  1  0.500000  0.500000  0.000000  1
  Ni  Ni10  1  0.500000  0.752482  0.246308  1
  Ni  Ni11  1  0.500000  0.247518  0.753692  1
