# generated using pymatgen
data_Tb3YbGa18(CoPd2)2
_symmetry_space_group_name_H-M   'P 1'
_cell_length_a   7.56873549
_cell_length_b   7.56418741
_cell_length_c   9.50211700
_cell_angle_alpha   90.00000000
_cell_angle_beta   90.00000000
_cell_angle_gamma   119.41920250
_symmetry_Int_Tables_number   1
_chemical_formula_structural   Tb3YbGa18(CoPd2)2
_chemical_formula_sum   'Tb3 Yb1 Ga18 Co2 Pd4'
_cell_volume   473.85851236
_cell_formula_units_Z   1
loop_
 _symmetry_equiv_pos_site_id
 _symmetry_equiv_pos_as_xyz
  1  'x, y, z'
loop_
 _atom_site_type_symbol
 _atom_site_label
 _atom_site_symmetry_multiplicity
 _atom_site_fract_x
 _atom_site_fract_y
 _atom_site_fract_z
 _atom_site_occupancy
  Tb  Tb0  1  0.316777  0.991441  0.250000  1
  Tb  Tb1  1  0.007357  0.680725  0.750000  1
  Tb  Tb2  1  0.667566  0.989254  0.750000  1
  Yb  Yb3  1  0.013515  0.332498  0.250000  1
  Ga  Ga4  1  0.347064  0.014842  0.922385  1
  Ga  Ga5  1  0.984762  0.650121  0.079631  1
  Ga  Ga6  1  0.347064  0.014842  0.577615  1
  Ga  Ga7  1  0.984762  0.650121  0.420369  1
  Ga  Ga8  1  0.666690  0.019071  0.080243  1
  Ga  Ga9  1  0.984839  0.335164  0.923993  1
  Ga  Ga10  1  0.666690  0.019071  0.419757  1
  Ga  Ga11  1  0.984839  0.335164  0.576007  1
  Ga  Ga12  1  0.666141  0.657100  0.935597  1
  Ga  Ga13  1  0.342032  0.334443  0.065761  1
  Ga  Ga14  1  0.666141  0.657100  0.564403  1
  Ga  Ga15  1  0.342032  0.334443  0.434239  1
  Ga  Ga16  1  0.133547  0.138124  0.750000  1
  Ga  Ga17  1  0.862347  0.866582  0.250000  1
  Ga  Ga18  1  0.462811  0.663464  0.250000  1
  Ga  Ga19  1  0.335732  0.536828  0.750000  1
  Ga  Ga20  1  0.567952  0.338339  0.750000  1
  Ga  Ga21  1  0.660420  0.428052  0.250000  1
  Co  Co22  1  0.667994  0.331891  0.998707  1
  Co  Co23  1  0.667994  0.331891  0.501293  1
  Pd  Pd24  1  0.998537  0.000366  0.999836  1
  Pd  Pd25  1  0.998537  0.000366  0.500164  1
  Pd  Pd26  1  0.327931  0.674347  0.999724  1
  Pd  Pd27  1  0.327931  0.674347  0.500276  1
