# generated using pymatgen
data_Tb19HoSn16
_symmetry_space_group_name_H-M   'P 1'
_cell_length_a   8.07142511
_cell_length_b   8.21972711
_cell_length_c   15.54722400
_cell_angle_alpha   90.00000000
_cell_angle_beta   90.00000000
_cell_angle_gamma   89.98103611
_symmetry_Int_Tables_number   1
_chemical_formula_structural   Tb19HoSn16
_chemical_formula_sum   'Tb19 Ho1 Sn16'
_cell_volume   1031.47914880
_cell_formula_units_Z   1
loop_
 _symmetry_equiv_pos_site_id
 _symmetry_equiv_pos_as_xyz
  1  'x, y, z'
loop_
 _atom_site_type_symbol
 _atom_site_label
 _atom_site_symmetry_multiplicity
 _atom_site_fract_x
 _atom_site_fract_y
 _atom_site_fract_z
 _atom_site_occupancy
  Tb  Tb0  1  0.367590  0.835497  0.878513  1
  Tb  Tb1  1  0.867872  0.664289  0.621487  1
  Tb  Tb2  1  0.632319  0.164396  0.378528  1
  Tb  Tb3  1  0.132304  0.335589  0.121416  1
  Tb  Tb4  1  0.632319  0.164396  0.121472  1
  Tb  Tb5  1  0.132304  0.335589  0.378584  1
  Tb  Tb6  1  0.367590  0.835497  0.621487  1
  Tb  Tb7  1  0.867872  0.664289  0.878513  1
  Tb  Tb8  1  0.520158  0.319644  0.902130  1
  Tb  Tb9  1  0.020316  0.180510  0.597854  1
  Tb  Tb10  1  0.479783  0.680431  0.402178  1
  Tb  Tb11  1  0.979741  0.819580  0.097850  1
  Tb  Tb12  1  0.479783  0.680431  0.097822  1
  Tb  Tb13  1  0.979741  0.819580  0.402150  1
  Tb  Tb14  1  0.520158  0.319644  0.597870  1
  Tb  Tb15  1  0.020316  0.180510  0.902146  1
  Tb  Tb16  1  0.698162  0.997843  0.750000  1
  Tb  Tb17  1  0.801785  0.497804  0.250000  1
  Tb  Tb18  1  0.301789  0.002226  0.250000  1
  Ho  Ho19  1  0.198445  0.502204  0.750000  1
  Sn  Sn20  1  0.291889  0.033832  0.042087  1
  Sn  Sn21  1  0.791880  0.466133  0.457910  1
  Sn  Sn22  1  0.708113  0.966174  0.542138  1
  Sn  Sn23  1  0.208096  0.533798  0.957614  1
  Sn  Sn24  1  0.708113  0.966174  0.957862  1
  Sn  Sn25  1  0.208096  0.533798  0.542386  1
  Sn  Sn26  1  0.291889  0.033832  0.457913  1
  Sn  Sn27  1  0.791880  0.466133  0.042090  1
  Sn  Sn28  1  0.565009  0.618635  0.750000  1
  Sn  Sn29  1  0.065705  0.880873  0.750000  1
  Sn  Sn30  1  0.434352  0.381194  0.250000  1
  Sn  Sn31  1  0.934447  0.118844  0.250000  1
  Sn  Sn32  1  0.327597  0.145977  0.750000  1
  Sn  Sn33  1  0.827926  0.354774  0.750000  1
  Sn  Sn34  1  0.672280  0.854575  0.250000  1
  Sn  Sn35  1  0.172381  0.645306  0.250000  1
