# generated using pymatgen
data_CaMg2Si9B36C
_symmetry_space_group_name_H-M   'P 1'
_cell_length_a   8.02791481
_cell_length_b   8.01687912
_cell_length_c   8.02791482
_cell_angle_alpha   78.18137994
_cell_angle_beta   78.34806286
_cell_angle_gamma   78.18138006
_symmetry_Int_Tables_number   1
_chemical_formula_structural   CaMg2Si9B36C
_chemical_formula_sum   'Ca1 Mg2 Si9 B36 C1'
_cell_volume   488.04035132
_cell_formula_units_Z   1
loop_
 _symmetry_equiv_pos_site_id
 _symmetry_equiv_pos_as_xyz
  1  'x, y, z'
loop_
 _atom_site_type_symbol
 _atom_site_label
 _atom_site_symmetry_multiplicity
 _atom_site_fract_x
 _atom_site_fract_y
 _atom_site_fract_z
 _atom_site_occupancy
  Ca  Ca0  1  0.500773  0.999688  0.500773  1
  Mg  Mg1  1  0.999059  0.498557  0.498341  1
  Mg  Mg2  1  0.498341  0.498557  0.999059  1
  Si  Si3  1  0.573426  0.573630  0.573426  1
  Si  Si4  1  0.430518  0.430180  0.430518  1
  Si  Si5  1  0.740752  0.737031  0.340250  1
  Si  Si6  1  0.739471  0.342815  0.739471  1
  Si  Si7  1  0.340250  0.737031  0.740752  1
  Si  Si8  1  0.259926  0.264137  0.657252  1
  Si  Si9  1  0.261726  0.655034  0.261726  1
  Si  Si10  1  0.657252  0.264137  0.259926  1
  Si  Si11  1  0.955560  0.955785  0.955560  1
  B  B12  1  0.703483  0.993836  0.994050  1
  B  B13  1  0.994050  0.993836  0.703483  1
  B  B14  1  0.994166  0.703677  0.994166  1
  B  B15  1  0.275691  0.018182  0.017751  1
  B  B16  1  0.017751  0.018182  0.275691  1
  B  B17  1  0.017854  0.275699  0.017854  1
  B  B18  1  0.625110  0.981600  0.801629  1
  B  B19  1  0.980774  0.800500  0.624431  1
  B  B20  1  0.800755  0.624701  0.980481  1
  B  B21  1  0.980481  0.624701  0.800755  1
  B  B22  1  0.624431  0.800500  0.980774  1
  B  B23  1  0.801629  0.981600  0.625110  1
  B  B24  1  0.371703  0.021999  0.201697  1
  B  B25  1  0.022804  0.202489  0.372245  1
  B  B26  1  0.202345  0.371857  0.023222  1
  B  B27  1  0.023222  0.371857  0.202345  1
  B  B28  1  0.372245  0.202489  0.022804  1
  B  B29  1  0.201697  0.021999  0.371703  1
  B  B30  1  0.580255  0.179127  0.893147  1
  B  B31  1  0.177369  0.890982  0.580433  1
  B  B32  1  0.893235  0.579605  0.178278  1
  B  B33  1  0.178278  0.579605  0.893235  1
  B  B34  1  0.580433  0.890982  0.177369  1
  B  B35  1  0.893147  0.179127  0.580255  1
  B  B36  1  0.410510  0.825757  0.108212  1
  B  B37  1  0.827178  0.110604  0.410255  1
  B  B38  1  0.108489  0.411236  0.826607  1
  B  B39  1  0.826607  0.411236  0.108489  1
  B  B40  1  0.410255  0.110604  0.827178  1
  B  B41  1  0.108212  0.825757  0.410510  1
  B  B42  1  0.555995  0.124809  0.126686  1
  B  B43  1  0.126686  0.124809  0.555995  1
  B  B44  1  0.125845  0.555455  0.125845  1
  B  B45  1  0.434312  0.879594  0.877594  1
  B  B46  1  0.877594  0.879594  0.434312  1
  B  B47  1  0.878703  0.434942  0.878703  1
  C  C48  1  0.067106  0.067345  0.067106  1
