# generated using pymatgen
data_Y2HoTaO7
_symmetry_space_group_name_H-M   'P 1'
_cell_length_a   6.49067004
_cell_length_b   6.51102688
_cell_length_c   7.46483800
_cell_angle_alpha   89.99998874
_cell_angle_beta   90.00006601
_cell_angle_gamma   108.50256073
_symmetry_Int_Tables_number   1
_chemical_formula_structural   Y2HoTaO7
_chemical_formula_sum   'Y4 Ho2 Ta2 O14'
_cell_volume   299.16411348
_cell_formula_units_Z   2
loop_
 _symmetry_equiv_pos_site_id
 _symmetry_equiv_pos_as_xyz
  1  'x, y, z'
loop_
 _atom_site_type_symbol
 _atom_site_label
 _atom_site_symmetry_multiplicity
 _atom_site_fract_x
 _atom_site_fract_y
 _atom_site_fract_z
 _atom_site_occupancy
  Y  Y0  1  0.537172  0.537863  0.499933  1
  Y  Y1  1  0.462831  0.462140  0.999936  1
  Y  Y2  1  0.999701  0.535133  0.240808  1
  Y  Y3  1  0.000299  0.464869  0.740807  1
  Ho  Ho4  1  0.534843  0.000507  0.758970  1
  Ho  Ho5  1  0.465155  0.999492  0.258968  1
  Ta  Ta6  1  0.002269  0.002173  0.500072  1
  Ta  Ta7  1  0.997727  0.997824  0.000072  1
  O  O8  1  0.930452  0.067378  0.750067  1
  O  O9  1  0.069549  0.932621  0.250067  1
  O  O10  1  0.360737  0.641826  0.249887  1
  O  O11  1  0.639264  0.358175  0.749889  1
  O  O12  1  0.372138  0.630758  0.750169  1
  O  O13  1  0.627863  0.369241  0.250172  1
  O  O14  1  0.328254  0.080578  0.975480  1
  O  O15  1  0.671746  0.919421  0.475480  1
  O  O16  1  0.306870  0.047421  0.545777  1
  O  O17  1  0.693131  0.952578  0.045776  1
  O  O18  1  0.049542  0.306522  0.455051  1
  O  O19  1  0.950459  0.693481  0.955051  1
  O  O20  1  0.917286  0.672298  0.523784  1
  O  O21  1  0.082713  0.327702  0.023783  1
