# generated using pymatgen
data_La2Mn(Al2Pt)8
_symmetry_space_group_name_H-M   'P 1'
_cell_length_a   11.17122375
_cell_length_b   11.17122544
_cell_length_c   11.17122400
_cell_angle_alpha   158.49329216
_cell_angle_beta   116.25502151
_cell_angle_gamma   68.11517945
_symmetry_Int_Tables_number   1
_chemical_formula_structural   La2Mn(Al2Pt)8
_chemical_formula_sum   'La2 Mn1 Al16 Pt8'
_cell_volume   455.16575671
_cell_formula_units_Z   1
loop_
 _symmetry_equiv_pos_site_id
 _symmetry_equiv_pos_as_xyz
  1  'x, y, z'
loop_
 _atom_site_type_symbol
 _atom_site_label
 _atom_site_symmetry_multiplicity
 _atom_site_fract_x
 _atom_site_fract_y
 _atom_site_fract_z
 _atom_site_occupancy
  La  La0  1  0.229447  0.230107  0.999340  1
  La  La1  1  0.769233  0.769893  0.999340  1
  Mn  Mn2  1  0.779331  0.500000  0.279331  1
  Al  Al3  1  0.277423  0.393035  0.884388  1
  Al  Al4  1  0.090260  0.924724  0.165536  1
  Al  Al5  1  0.504449  0.200971  0.303479  1
  Al  Al6  1  0.240811  0.075276  0.165536  1
  Al  Al7  1  0.910501  0.416788  0.493713  1
  Al  Al8  1  0.722929  0.597973  0.124956  1
  Al  Al9  1  0.902801  0.207986  0.694815  1
  Al  Al10  1  0.486830  0.792014  0.694815  1
  Al  Al11  1  0.387761  0.000000  0.387761  1
  Al  Al12  1  0.625380  0.000000  0.625380  1
  Al  Al13  1  0.491354  0.606965  0.884388  1
  Al  Al14  1  0.102508  0.799029  0.303479  1
  Al  Al15  1  0.903123  0.083804  0.819319  1
  Al  Al16  1  0.735516  0.916196  0.819319  1
  Al  Al17  1  0.526982  0.402027  0.124956  1
  Al  Al18  1  0.076926  0.583212  0.493713  1
  Pt  Pt19  1  0.028003  0.343740  0.684262  1
  Pt  Pt20  1  0.627316  0.123984  0.503332  1
  Pt  Pt21  1  0.255745  0.500000  0.755745  1
  Pt  Pt22  1  0.379349  0.876016  0.503332  1
  Pt  Pt23  1  0.983862  0.000000  0.983862  1
  Pt  Pt24  1  0.648106  0.337287  0.310819  1
  Pt  Pt25  1  0.340522  0.656260  0.684262  1
  Pt  Pt26  1  0.973533  0.662713  0.310819  1
