# generated using pymatgen
data_La4Nd6NiOs3
_symmetry_space_group_name_H-M   'P 1'
_cell_length_a   9.02255987
_cell_length_b   9.00464537
_cell_length_c   7.40793500
_cell_angle_alpha   84.05366183
_cell_angle_beta   84.01086325
_cell_angle_gamma   43.57871747
_symmetry_Int_Tables_number   1
_chemical_formula_structural   La4Nd6NiOs3
_chemical_formula_sum   'La4 Nd6 Ni1 Os3'
_cell_volume   412.28152844
_cell_formula_units_Z   1
loop_
 _symmetry_equiv_pos_site_id
 _symmetry_equiv_pos_as_xyz
  1  'x, y, z'
loop_
 _atom_site_type_symbol
 _atom_site_label
 _atom_site_symmetry_multiplicity
 _atom_site_fract_x
 _atom_site_fract_y
 _atom_site_fract_z
 _atom_site_occupancy
  La  La0  1  0.018723  0.795721  0.907741  1
  La  La1  1  0.202480  0.984098  0.590919  1
  La  La2  1  0.987397  0.203632  0.089858  1
  La  La3  1  0.798844  0.015687  0.409110  1
  Nd  Nd4  1  0.357087  0.209988  0.820406  1
  Nd  Nd5  1  0.790145  0.642575  0.683027  1
  Nd  Nd6  1  0.644254  0.781533  0.183553  1
  Nd  Nd7  1  0.206675  0.360442  0.320399  1
  Nd  Nd8  1  0.570745  0.431593  0.747670  1
  Nd  Nd9  1  0.430651  0.569226  0.249943  1
  Ni  Ni10  1  0.597749  0.180105  0.073988  1
  Os  Os11  1  0.170514  0.607941  0.577613  1
  Os  Os12  1  0.395627  0.826607  0.924998  1
  Os  Os13  1  0.829109  0.390853  0.420772  1
