# generated using pymatgen
data_Y7Er6Th3(MgRh)4
_symmetry_space_group_name_H-M   'P 1'
_cell_length_a   9.75300443
_cell_length_b   9.75581926
_cell_length_c   9.76819400
_cell_angle_alpha   59.95802443
_cell_angle_beta   59.94846064
_cell_angle_gamma   59.98983910
_symmetry_Int_Tables_number   1
_chemical_formula_structural   Y7Er6Th3(MgRh)4
_chemical_formula_sum   'Y7 Er6 Th3 Mg4 Rh4'
_cell_volume   656.69064757
_cell_formula_units_Z   1
loop_
 _symmetry_equiv_pos_site_id
 _symmetry_equiv_pos_as_xyz
  1  'x, y, z'
loop_
 _atom_site_type_symbol
 _atom_site_label
 _atom_site_symmetry_multiplicity
 _atom_site_fract_x
 _atom_site_fract_y
 _atom_site_fract_z
 _atom_site_occupancy
  Y  Y0  1  0.063740  0.063591  0.436334  1
  Y  Y1  1  0.186352  0.814134  0.815127  1
  Y  Y2  1  0.815337  0.185141  0.183592  1
  Y  Y3  1  0.815337  0.185141  0.815930  1
  Y  Y4  1  0.186352  0.814134  0.184387  1
  Y  Y5  1  0.816181  0.816031  0.183894  1
  Y  Y6  1  0.186097  0.186192  0.813856  1
  Er  Er7  1  0.204281  0.598769  0.598475  1
  Er  Er8  1  0.062765  0.437143  0.437031  1
  Er  Er9  1  0.435833  0.064117  0.064643  1
  Er  Er10  1  0.435833  0.064117  0.435406  1
  Er  Er11  1  0.062765  0.437143  0.063060  1
  Er  Er12  1  0.435840  0.435878  0.064141  1
  Th  Th13  1  0.595786  0.598778  0.598305  1
  Th  Th14  1  0.595786  0.598778  0.207132  1
  Th  Th15  1  0.596019  0.205952  0.599015  1
  Mg  Mg16  1  0.830550  0.828989  0.830244  1
  Mg  Mg17  1  0.830550  0.828989  0.510216  1
  Mg  Mg18  1  0.829846  0.509843  0.830155  1
  Mg  Mg19  1  0.508891  0.829277  0.830916  1
  Rh  Rh20  1  0.395375  0.391722  0.392376  1
  Rh  Rh21  1  0.395375  0.391722  0.820529  1
  Rh  Rh22  1  0.397268  0.819173  0.391780  1
  Rh  Rh23  1  0.817839  0.395245  0.393458  1
