# generated using pymatgen
data_Tb2Y2Ga12Ru
_symmetry_space_group_name_H-M   'P 1'
_cell_length_a   7.48892564
_cell_length_b   7.48892559
_cell_length_c   7.48892500
_cell_angle_alpha   109.47121633
_cell_angle_beta   109.47121619
_cell_angle_gamma   109.47122903
_symmetry_Int_Tables_number   1
_chemical_formula_structural   Tb2Y2Ga12Ru
_chemical_formula_sum   'Tb2 Y2 Ga12 Ru1'
_cell_volume   323.32301980
_cell_formula_units_Z   1
loop_
 _symmetry_equiv_pos_site_id
 _symmetry_equiv_pos_as_xyz
  1  'x, y, z'
loop_
 _atom_site_type_symbol
 _atom_site_label
 _atom_site_symmetry_multiplicity
 _atom_site_fract_x
 _atom_site_fract_y
 _atom_site_fract_z
 _atom_site_occupancy
  Tb  Tb0  1  0.000000  0.500000  0.000000  1
  Tb  Tb1  1  0.500000  0.500000  0.500000  1
  Y  Y2  1  0.000000  0.000000  0.500000  1
  Y  Y3  1  0.500000  0.000000  0.000000  1
  Ga  Ga4  1  0.750000  0.250000  0.500000  1
  Ga  Ga5  1  0.750000  0.500000  0.250000  1
  Ga  Ga6  1  0.500000  0.250000  0.750000  1
  Ga  Ga7  1  0.250000  0.500000  0.750000  1
  Ga  Ga8  1  0.250000  0.750000  0.500000  1
  Ga  Ga9  1  0.500000  0.750000  0.250000  1
  Ga  Ga10  1  0.709806  0.709806  0.000000  1
  Ga  Ga11  1  0.290194  0.000000  0.290194  1
  Ga  Ga12  1  0.000000  0.290194  0.290194  1
  Ga  Ga13  1  0.290194  0.290194  0.000000  1
  Ga  Ga14  1  0.709806  0.000000  0.709806  1
  Ga  Ga15  1  0.000000  0.709806  0.709806  1
  Ru  Ru16  1  0.000000  0.000000  0.000000  1
