# generated using pymatgen
data_Sc4Cr4Co9P12Rh7
_symmetry_space_group_name_H-M   'P 1'
_cell_length_a   3.64773400
_cell_length_b   10.55035254
_cell_length_c   12.09661411
_cell_angle_alpha   89.97766266
_cell_angle_beta   90.00000000
_cell_angle_gamma   90.00000000
_symmetry_Int_Tables_number   1
_chemical_formula_structural   Sc4Cr4Co9P12Rh7
_chemical_formula_sum   'Sc4 Cr4 Co9 P12 Rh7'
_cell_volume   465.53670301
_cell_formula_units_Z   1
loop_
 _symmetry_equiv_pos_site_id
 _symmetry_equiv_pos_as_xyz
  1  'x, y, z'
loop_
 _atom_site_type_symbol
 _atom_site_label
 _atom_site_symmetry_multiplicity
 _atom_site_fract_x
 _atom_site_fract_y
 _atom_site_fract_z
 _atom_site_occupancy
  Sc  Sc0  1  0.250000  0.581734  0.711333  1
  Sc  Sc1  1  0.250000  0.912720  0.214137  1
  Sc  Sc2  1  0.750000  0.420941  0.288861  1
  Sc  Sc3  1  0.750000  0.081644  0.787324  1
  Cr  Cr4  1  0.250000  0.706242  0.991442  1
  Cr  Cr5  1  0.250000  0.793500  0.486051  1
  Cr  Cr6  1  0.750000  0.295498  0.010986  1
  Cr  Cr7  1  0.750000  0.206552  0.508682  1
  Co  Co8  1  0.750000  0.724304  0.321742  1
  Co  Co9  1  0.250000  0.887032  0.694405  1
  Co  Co10  1  0.250000  0.618696  0.199047  1
  Co  Co11  1  0.750000  0.108109  0.303878  1
  Co  Co12  1  0.750000  0.388114  0.803253  1
  Co  Co13  1  0.250000  0.463691  0.933669  1
  Co  Co14  1  0.250000  0.033407  0.432324  1
  Co  Co15  1  0.750000  0.538699  0.068945  1
  Co  Co16  1  0.750000  0.962804  0.563969  1
  P  P17  1  0.250000  0.429678  0.113846  1
  P  P18  1  0.250000  0.072460  0.611031  1
  P  P19  1  0.750000  0.573053  0.889027  1
  P  P20  1  0.750000  0.918255  0.384836  1
  P  P21  1  0.250000  0.272030  0.869278  1
  P  P22  1  0.250000  0.227255  0.369203  1
  P  P23  1  0.750000  0.728880  0.138826  1
  P  P24  1  0.750000  0.771478  0.629861  1
  P  P25  1  0.250000  0.600921  0.378872  1
  P  P26  1  0.250000  0.906114  0.881084  1
  P  P27  1  0.750000  0.407486  0.617743  1
  P  P28  1  0.750000  0.092845  0.119664  1
  Rh  Rh29  1  0.250000  0.405230  0.479787  1
  Rh  Rh30  1  0.250000  0.096436  0.981276  1
  Rh  Rh31  1  0.750000  0.598353  0.515149  1
  Rh  Rh32  1  0.750000  0.901794  0.021206  1
  Rh  Rh33  1  0.250000  0.227074  0.180011  1
  Rh  Rh34  1  0.250000  0.273279  0.678922  1
  Rh  Rh35  1  0.750000  0.773691  0.820328  1
