# generated using pymatgen
data_Gd6ErVO12
_symmetry_space_group_name_H-M   'P 1'
_cell_length_a   6.71694017
_cell_length_b   6.71694086
_cell_length_c   6.71693975
_cell_angle_alpha   93.42436759
_cell_angle_beta   93.42436838
_cell_angle_gamma   93.42437435
_symmetry_Int_Tables_number   1
_chemical_formula_structural   Gd6ErVO12
_chemical_formula_sum   'Gd6 Er1 V1 O12'
_cell_volume   301.35898946
_cell_formula_units_Z   1
loop_
 _symmetry_equiv_pos_site_id
 _symmetry_equiv_pos_as_xyz
  1  'x, y, z'
loop_
 _atom_site_type_symbol
 _atom_site_label
 _atom_site_symmetry_multiplicity
 _atom_site_fract_x
 _atom_site_fract_y
 _atom_site_fract_z
 _atom_site_occupancy
  Gd  Gd0  1  0.739034  0.923910  0.435499  1
  Gd  Gd1  1  0.435499  0.739034  0.923910  1
  Gd  Gd2  1  0.076090  0.564501  0.260966  1
  Gd  Gd3  1  0.923910  0.435499  0.739034  1
  Gd  Gd4  1  0.564501  0.260966  0.076090  1
  Gd  Gd5  1  0.260966  0.076090  0.564501  1
  Er  Er6  1  0.000000  0.000000  0.000000  1
  V  V7  1  0.500000  0.500000  0.500000  1
  O  O8  1  0.066183  0.910400  0.314645  1
  O  O9  1  0.685355  0.933817  0.089600  1
  O  O10  1  0.460492  0.797199  0.587018  1
  O  O11  1  0.089600  0.685355  0.933817  1
  O  O12  1  0.797199  0.587018  0.460492  1
  O  O13  1  0.412982  0.539508  0.202801  1
  O  O14  1  0.587018  0.460492  0.797199  1
  O  O15  1  0.202801  0.412982  0.539508  1
  O  O16  1  0.910400  0.314645  0.066183  1
  O  O17  1  0.539508  0.202801  0.412982  1
  O  O18  1  0.314645  0.066183  0.910400  1
  O  O19  1  0.933817  0.089600  0.685355  1
