# generated using pymatgen
data_SmDy2TeAs2
_symmetry_space_group_name_H-M   'P 1'
_cell_length_a   4.21373500
_cell_length_b   10.48315283
_cell_length_c   7.27645378
_cell_angle_alpha   89.86644915
_cell_angle_beta   90.00000000
_cell_angle_gamma   90.00000000
_symmetry_Int_Tables_number   1
_chemical_formula_structural   SmDy2TeAs2
_chemical_formula_sum   'Sm2 Dy4 Te2 As4'
_cell_volume   321.42357856
_cell_formula_units_Z   2
loop_
 _symmetry_equiv_pos_site_id
 _symmetry_equiv_pos_as_xyz
  1  'x, y, z'
loop_
 _atom_site_type_symbol
 _atom_site_label
 _atom_site_symmetry_multiplicity
 _atom_site_fract_x
 _atom_site_fract_y
 _atom_site_fract_z
 _atom_site_occupancy
  Sm  Sm0  1  0.250000  0.500246  0.249253  1
  Sm  Sm1  1  0.750000  0.499754  0.750747  1
  Dy  Dy2  1  0.250000  0.808222  0.917369  1
  Dy  Dy3  1  0.750000  0.191778  0.082631  1
  Dy  Dy4  1  0.750000  0.806895  0.418323  1
  Dy  Dy5  1  0.250000  0.193105  0.581677  1
  Te  Te6  1  0.750000  0.000326  0.749054  1
  Te  Te7  1  0.250000  0.999674  0.250946  1
  As  As8  1  0.250000  0.664821  0.584820  1
  As  As9  1  0.750000  0.335179  0.415180  1
  As  As10  1  0.750000  0.666004  0.084156  1
  As  As11  1  0.250000  0.333996  0.915844  1
