# generated using pymatgen
data_TbSmCo6(Ni2P3)2
_symmetry_space_group_name_H-M   'P 1'
_cell_length_a   3.70206100
_cell_length_b   10.31472500
_cell_length_c   11.86336700
_cell_angle_alpha   90.00000000
_cell_angle_beta   90.00000000
_cell_angle_gamma   90.00000000
_symmetry_Int_Tables_number   1
_chemical_formula_structural   TbSmCo6(Ni2P3)2
_chemical_formula_sum   'Tb2 Sm2 Co12 Ni8 P12'
_cell_volume   453.01146141
_cell_formula_units_Z   2
loop_
 _symmetry_equiv_pos_site_id
 _symmetry_equiv_pos_as_xyz
  1  'x, y, z'
loop_
 _atom_site_type_symbol
 _atom_site_label
 _atom_site_symmetry_multiplicity
 _atom_site_fract_x
 _atom_site_fract_y
 _atom_site_fract_z
 _atom_site_occupancy
  Tb  Tb0  1  0.250000  0.581962  0.702709  1
  Tb  Tb1  1  0.250000  0.918038  0.202709  1
  Sm  Sm2  1  0.750000  0.417864  0.297239  1
  Sm  Sm3  1  0.750000  0.082136  0.797239  1
  Co  Co4  1  0.250000  0.221185  0.175694  1
  Co  Co5  1  0.250000  0.278815  0.675694  1
  Co  Co6  1  0.750000  0.777855  0.824172  1
  Co  Co7  1  0.750000  0.722145  0.324172  1
  Co  Co8  1  0.250000  0.879926  0.696977  1
  Co  Co9  1  0.250000  0.620074  0.196977  1
  Co  Co10  1  0.750000  0.118003  0.302377  1
  Co  Co11  1  0.750000  0.381997  0.802377  1
  Co  Co12  1  0.250000  0.468648  0.932218  1
  Co  Co13  1  0.250000  0.031352  0.432218  1
  Co  Co14  1  0.750000  0.533405  0.066394  1
  Co  Co15  1  0.750000  0.966595  0.566394  1
  Ni  Ni16  1  0.250000  0.712173  0.989537  1
  Ni  Ni17  1  0.250000  0.787827  0.489537  1
  Ni  Ni18  1  0.750000  0.288148  0.011143  1
  Ni  Ni19  1  0.750000  0.211852  0.511143  1
  Ni  Ni20  1  0.250000  0.408610  0.487375  1
  Ni  Ni21  1  0.250000  0.091390  0.987375  1
  Ni  Ni22  1  0.750000  0.592568  0.514936  1
  Ni  Ni23  1  0.750000  0.907432  0.014936  1
  P  P24  1  0.250000  0.420217  0.111097  1
  P  P25  1  0.250000  0.079783  0.611097  1
  P  P26  1  0.750000  0.580203  0.887029  1
  P  P27  1  0.750000  0.919797  0.387029  1
  P  P28  1  0.250000  0.274931  0.865779  1
  P  P29  1  0.250000  0.225069  0.365779  1
  P  P30  1  0.750000  0.727013  0.134880  1
  P  P31  1  0.750000  0.772987  0.634880  1
  P  P32  1  0.250000  0.607551  0.388440  1
  P  P33  1  0.250000  0.892449  0.888440  1
  P  P34  1  0.750000  0.393951  0.612002  1
  P  P35  1  0.750000  0.106049  0.112002  1
