# generated using pymatgen
data_LaPr15MgCd3Ir4
_symmetry_space_group_name_H-M   'P 1'
_cell_length_a   10.06201925
_cell_length_b   10.06304387
_cell_length_c   10.06304833
_cell_angle_alpha   60.17529186
_cell_angle_beta   60.17097293
_cell_angle_gamma   60.17102867
_symmetry_Int_Tables_number   1
_chemical_formula_structural   LaPr15MgCd3Ir4
_chemical_formula_sum   'La1 Pr15 Mg1 Cd3 Ir4'
_cell_volume   723.30548958
_cell_formula_units_Z   1
loop_
 _symmetry_equiv_pos_site_id
 _symmetry_equiv_pos_as_xyz
  1  'x, y, z'
loop_
 _atom_site_type_symbol
 _atom_site_label
 _atom_site_symmetry_multiplicity
 _atom_site_fract_x
 _atom_site_fract_y
 _atom_site_fract_z
 _atom_site_occupancy
  La  La0  1  0.346594  0.346633  0.346633  1
  Pr  Pr1  1  0.347970  0.347944  0.955710  1
  Pr  Pr2  1  0.347970  0.955710  0.347944  1
  Pr  Pr3  1  0.955715  0.347987  0.347987  1
  Pr  Pr4  1  0.809827  0.190636  0.190636  1
  Pr  Pr5  1  0.188466  0.810222  0.810224  1
  Pr  Pr6  1  0.190650  0.809842  0.190618  1
  Pr  Pr7  1  0.810213  0.188468  0.810225  1
  Pr  Pr8  1  0.190649  0.190618  0.809842  1
  Pr  Pr9  1  0.810213  0.810226  0.188467  1
  Pr  Pr10  1  0.939013  0.562189  0.562190  1
  Pr  Pr11  1  0.559736  0.939662  0.939663  1
  Pr  Pr12  1  0.562130  0.939050  0.562139  1
  Pr  Pr13  1  0.939711  0.559681  0.939698  1
  Pr  Pr14  1  0.562130  0.562139  0.939050  1
  Pr  Pr15  1  0.939712  0.939698  0.559681  1
  Mg  Mg16  1  0.574979  0.574980  0.574980  1
  Cd  Cd17  1  0.581048  0.581030  0.258309  1
  Cd  Cd18  1  0.581048  0.258309  0.581030  1
  Cd  Cd19  1  0.258304  0.581034  0.581034  1
  Ir  Ir20  1  0.141833  0.141852  0.141852  1
  Ir  Ir21  1  0.143359  0.143342  0.575379  1
  Ir  Ir22  1  0.143359  0.575379  0.143342  1
  Ir  Ir23  1  0.575368  0.143367  0.143367  1
