# generated using pymatgen
data_Ca2TbY(NiB4)4
_symmetry_space_group_name_H-M   'P 1'
_cell_length_a   6.84352371
_cell_length_b   6.84352300
_cell_length_c   6.84352200
_cell_angle_alpha   112.88525403
_cell_angle_beta   112.88525246
_cell_angle_gamma   102.83983277
_symmetry_Int_Tables_number   1
_chemical_formula_structural   Ca2TbY(NiB4)4
_chemical_formula_sum   'Ca2 Tb1 Y1 Ni4 B16'
_cell_volume   244.28815607
_cell_formula_units_Z   1
loop_
 _symmetry_equiv_pos_site_id
 _symmetry_equiv_pos_as_xyz
  1  'x, y, z'
loop_
 _atom_site_type_symbol
 _atom_site_label
 _atom_site_symmetry_multiplicity
 _atom_site_fract_x
 _atom_site_fract_y
 _atom_site_fract_z
 _atom_site_occupancy
  Ca  Ca0  1  0.202797  0.202797  0.000000  1
  Ca  Ca1  1  0.797203  0.797203  0.000000  1
  Tb  Tb2  1  0.250000  0.750000  0.500000  1
  Y  Y3  1  0.750000  0.250000  0.500000  1
  Ni  Ni4  1  0.500007  0.272917  0.772910  1
  Ni  Ni5  1  0.500007  0.727098  0.227090  1
  Ni  Ni6  1  0.727083  0.499993  0.227090  1
  Ni  Ni7  1  0.272902  0.499993  0.772910  1
  B  B8  1  0.112558  0.276865  0.389309  1
  B  B9  1  0.887556  0.723249  0.610691  1
  B  B10  1  0.887556  0.276865  0.164307  1
  B  B11  1  0.112558  0.723249  0.835693  1
  B  B12  1  0.723135  0.887442  0.610691  1
  B  B13  1  0.276751  0.112444  0.389309  1
  B  B14  1  0.723135  0.112444  0.835693  1
  B  B15  1  0.276751  0.887442  0.164307  1
  B  B16  1  0.416694  0.416707  0.529661  1
  B  B17  1  0.887048  0.887035  0.470339  1
  B  B18  1  0.583293  0.112952  0.999987  1
  B  B19  1  0.112965  0.583306  0.000013  1
  B  B20  1  0.583293  0.583306  0.470339  1
  B  B21  1  0.112965  0.112952  0.529661  1
  B  B22  1  0.887048  0.416707  0.000013  1
  B  B23  1  0.416694  0.887035  0.999987  1
