# generated using pymatgen
data_Ho3Sc2Sn3O
_symmetry_space_group_name_H-M   'P 1'
_cell_length_a   8.71132500
_cell_length_b   8.71132633
_cell_length_c   6.12451900
_cell_angle_alpha   90.00000000
_cell_angle_beta   90.00000000
_cell_angle_gamma   119.99999874
_symmetry_Int_Tables_number   1
_chemical_formula_structural   Ho3Sc2Sn3O
_chemical_formula_sum   'Ho6 Sc4 Sn6 O2'
_cell_volume   402.50485492
_cell_formula_units_Z   2
loop_
 _symmetry_equiv_pos_site_id
 _symmetry_equiv_pos_as_xyz
  1  'x, y, z'
loop_
 _atom_site_type_symbol
 _atom_site_label
 _atom_site_symmetry_multiplicity
 _atom_site_fract_x
 _atom_site_fract_y
 _atom_site_fract_z
 _atom_site_occupancy
  Ho  Ho0  1  0.000000  0.773579  0.750000  1
  Ho  Ho1  1  0.000000  0.226421  0.250000  1
  Ho  Ho2  1  0.226421  0.226421  0.750000  1
  Ho  Ho3  1  0.226421  0.000000  0.250000  1
  Ho  Ho4  1  0.773579  0.773579  0.250000  1
  Ho  Ho5  1  0.773579  0.000000  0.750000  1
  Sc  Sc6  1  0.333333  0.666667  0.000000  1
  Sc  Sc7  1  0.333333  0.666667  0.500000  1
  Sc  Sc8  1  0.666667  0.333333  0.000000  1
  Sc  Sc9  1  0.666667  0.333333  0.500000  1
  Sn  Sn10  1  0.000000  0.595672  0.250000  1
  Sn  Sn11  1  0.000000  0.404328  0.750000  1
  Sn  Sn12  1  0.404328  0.404328  0.250000  1
  Sn  Sn13  1  0.595672  0.595672  0.750000  1
  Sn  Sn14  1  0.404328  0.000000  0.750000  1
  Sn  Sn15  1  0.595672  0.000000  0.250000  1
  O  O16  1  0.000000  0.000000  0.000000  1
  O  O17  1  0.000000  0.000000  0.500000  1
