# generated using pymatgen
data_NaPr2Ge2(PPd5)4
_symmetry_space_group_name_H-M   'P 1'
_cell_length_a   8.69737032
_cell_length_b   8.80116432
_cell_length_c   8.80116476
_cell_angle_alpha   59.22128766
_cell_angle_beta   60.38934496
_cell_angle_gamma   60.38934511
_symmetry_Int_Tables_number   1
_chemical_formula_structural   NaPr2Ge2(PPd5)4
_chemical_formula_sum   'Na1 Pr2 Ge2 P4 Pd20'
_cell_volume   476.24865077
_cell_formula_units_Z   1
loop_
 _symmetry_equiv_pos_site_id
 _symmetry_equiv_pos_as_xyz
  1  'x, y, z'
loop_
 _atom_site_type_symbol
 _atom_site_label
 _atom_site_symmetry_multiplicity
 _atom_site_fract_x
 _atom_site_fract_y
 _atom_site_fract_z
 _atom_site_occupancy
  Na  Na0  1  0.000000  0.000000  0.000000  1
  Pr  Pr1  1  0.250000  0.250000  0.250000  1
  Pr  Pr2  1  0.750000  0.750000  0.750000  1
  Ge  Ge3  1  0.739062  0.260938  0.260938  1
  Ge  Ge4  1  0.260938  0.739062  0.739062  1
  P  P5  1  0.262751  0.737249  0.262751  1
  P  P6  1  0.737249  0.262751  0.737249  1
  P  P7  1  0.262751  0.262751  0.737249  1
  P  P8  1  0.737249  0.737249  0.262751  1
  Pd  Pd9  1  0.379584  0.389227  0.389227  1
  Pd  Pd10  1  0.620416  0.610773  0.610773  1
  Pd  Pd11  1  0.389227  0.379584  0.841964  1
  Pd  Pd12  1  0.389227  0.841964  0.379584  1
  Pd  Pd13  1  0.610773  0.620416  0.158036  1
  Pd  Pd14  1  0.610773  0.158036  0.620416  1
  Pd  Pd15  1  0.841964  0.389227  0.389227  1
  Pd  Pd16  1  0.158036  0.610773  0.610773  1
  Pd  Pd17  1  0.344163  0.000000  0.000000  1
  Pd  Pd18  1  0.655837  0.000000  0.000000  1
  Pd  Pd19  1  0.000000  0.344163  0.655837  1
  Pd  Pd20  1  0.000000  0.655837  0.344163  1
  Pd  Pd21  1  0.010601  0.348046  0.989399  1
  Pd  Pd22  1  0.651954  0.989399  0.348046  1
  Pd  Pd23  1  0.989399  0.651954  0.010601  1
  Pd  Pd24  1  0.348046  0.010601  0.651954  1
  Pd  Pd25  1  0.010601  0.989399  0.348046  1
  Pd  Pd26  1  0.989399  0.010601  0.651954  1
  Pd  Pd27  1  0.651954  0.348046  0.989399  1
  Pd  Pd28  1  0.348046  0.651954  0.010601  1
