# generated using pymatgen
data_Tb4Dy11Er(Ga3Co)2
_symmetry_space_group_name_H-M   'P 1'
_cell_length_a   10.03051337
_cell_length_b   10.02856682
_cell_length_c   6.91956600
_cell_angle_alpha   89.99853749
_cell_angle_beta   90.00149363
_cell_angle_gamma   120.02226805
_symmetry_Int_Tables_number   1
_chemical_formula_structural   Tb4Dy11Er(Ga3Co)2
_chemical_formula_sum   'Tb4 Dy11 Er1 Ga6 Co2'
_cell_volume   602.66230340
_cell_formula_units_Z   1
loop_
 _symmetry_equiv_pos_site_id
 _symmetry_equiv_pos_as_xyz
  1  'x, y, z'
loop_
 _atom_site_type_symbol
 _atom_site_label
 _atom_site_symmetry_multiplicity
 _atom_site_fract_x
 _atom_site_fract_y
 _atom_site_fract_z
 _atom_site_occupancy
  Tb  Tb0  1  0.999696  0.000197  0.270467  1
  Tb  Tb1  1  0.000283  0.999761  0.770488  1
  Tb  Tb2  1  0.173028  0.827427  0.990752  1
  Tb  Tb3  1  0.827047  0.172721  0.491144  1
  Dy  Dy4  1  0.173024  0.346257  0.990858  1
  Dy  Dy5  1  0.653660  0.827162  0.990673  1
  Dy  Dy6  1  0.346434  0.172996  0.491061  1
  Dy  Dy7  1  0.827009  0.653804  0.490872  1
  Dy  Dy8  1  0.333601  0.666717  0.672141  1
  Dy  Dy9  1  0.666376  0.333231  0.171815  1
  Dy  Dy10  1  0.463821  0.536205  0.292824  1
  Dy  Dy11  1  0.536193  0.463658  0.792795  1
  Dy  Dy12  1  0.463694  0.927101  0.293265  1
  Dy  Dy13  1  0.073075  0.536408  0.293206  1
  Dy  Dy14  1  0.926767  0.463448  0.793170  1
  Er  Er15  1  0.536555  0.073396  0.793482  1
  Ga  Ga16  1  0.163708  0.836335  0.539224  1
  Ga  Ga17  1  0.836060  0.163608  0.038942  1
  Ga  Ga18  1  0.164895  0.327884  0.540807  1
  Ga  Ga19  1  0.672106  0.835119  0.540942  1
  Ga  Ga20  1  0.328055  0.164817  0.040657  1
  Ga  Ga21  1  0.835113  0.672132  0.040883  1
  Co  Co22  1  0.333736  0.666281  0.057686  1
  Co  Co23  1  0.666065  0.333334  0.557966  1
