# generated using pymatgen
data_Th2MnNi8P7W3
_symmetry_space_group_name_H-M   'P 1'
_cell_length_a   9.24494632
_cell_length_b   9.20431829
_cell_length_c   3.82674900
_cell_angle_alpha   90.00000000
_cell_angle_beta   90.00000000
_cell_angle_gamma   119.72598018
_symmetry_Int_Tables_number   1
_chemical_formula_structural   Th2MnNi8P7W3
_chemical_formula_sum   'Th2 Mn1 Ni8 P7 W3'
_cell_volume   282.78033033
_cell_formula_units_Z   1
loop_
 _symmetry_equiv_pos_site_id
 _symmetry_equiv_pos_as_xyz
  1  'x, y, z'
loop_
 _atom_site_type_symbol
 _atom_site_label
 _atom_site_symmetry_multiplicity
 _atom_site_fract_x
 _atom_site_fract_y
 _atom_site_fract_z
 _atom_site_occupancy
  Th  Th0  1  0.335515  0.665593  0.000000  1
  Th  Th1  1  0.001131  0.999823  0.500000  1
  Mn  Mn2  1  0.516351  0.458815  0.000000  1
  Ni  Ni3  1  0.032890  0.267687  0.000000  1
  Ni  Ni4  1  0.733782  0.766355  0.000000  1
  Ni  Ni5  1  0.235900  0.967424  0.000000  1
  Ni  Ni6  1  0.537916  0.052954  0.000000  1
  Ni  Ni7  1  0.945525  0.482709  0.000000  1
  Ni  Ni8  1  0.607986  0.893461  0.500000  1
  Ni  Ni9  1  0.108118  0.714251  0.500000  1
  Ni  Ni10  1  0.282756  0.389622  0.500000  1
  P  P11  1  0.770953  0.032873  0.000000  1
  P  P12  1  0.968797  0.738418  0.000000  1
  P  P13  1  0.262514  0.230826  0.000000  1
  P  P14  1  0.373067  0.932222  0.500000  1
  P  P15  1  0.066488  0.443271  0.500000  1
  P  P16  1  0.553303  0.618697  0.500000  1
  P  P17  1  0.668523  0.335615  0.000000  1
  W  W18  1  0.775051  0.232335  0.500000  1
  W  W19  1  0.772001  0.553499  0.500000  1
  W  W20  1  0.451434  0.223548  0.500000  1
