# generated using pymatgen
data_BiSeO3F
_symmetry_space_group_name_H-M   'P 1'
_cell_length_a   7.30390700
_cell_length_b   4.60443715
_cell_length_c   6.79499827
_cell_angle_alpha   83.75609616
_cell_angle_beta   90.00000000
_cell_angle_gamma   90.00000000
_symmetry_Int_Tables_number   1
_chemical_formula_structural   BiSeO3F
_chemical_formula_sum   'Bi2 Se2 O6 F2'
_cell_volume   227.16278854
_cell_formula_units_Z   2
loop_
 _symmetry_equiv_pos_site_id
 _symmetry_equiv_pos_as_xyz
  1  'x, y, z'
loop_
 _atom_site_type_symbol
 _atom_site_label
 _atom_site_symmetry_multiplicity
 _atom_site_fract_x
 _atom_site_fract_y
 _atom_site_fract_z
 _atom_site_occupancy
  Bi  Bi0  1  0.250000  0.541555  0.357963  1
  Bi  Bi1  1  0.750000  0.458445  0.642037  1
  Se  Se2  1  0.750000  0.674320  0.148338  1
  Se  Se3  1  0.250000  0.325680  0.851662  1
  O  O4  1  0.250000  0.591884  0.008234  1
  O  O5  1  0.750000  0.408116  0.991766  1
  O  O6  1  0.576904  0.561642  0.318223  1
  O  O7  1  0.076904  0.438358  0.681777  1
  O  O8  1  0.423096  0.438358  0.681777  1
  O  O9  1  0.923096  0.561642  0.318223  1
  F  F10  1  0.250000  0.046423  0.347355  1
  F  F11  1  0.750000  0.953577  0.652645  1
