# generated using pymatgen
data_Sc20Si12H
_symmetry_space_group_name_H-M   'P 1'
_cell_length_a   13.71394600
_cell_length_b   5.79654948
_cell_length_c   7.88757738
_cell_angle_alpha   89.99451175
_cell_angle_beta   90.00000000
_cell_angle_gamma   90.00000000
_symmetry_Int_Tables_number   1
_chemical_formula_structural   Sc20Si12H
_chemical_formula_sum   'Sc20 Si12 H1'
_cell_volume   627.01165438
_cell_formula_units_Z   1
loop_
 _symmetry_equiv_pos_site_id
 _symmetry_equiv_pos_as_xyz
  1  'x, y, z'
loop_
 _atom_site_type_symbol
 _atom_site_label
 _atom_site_symmetry_multiplicity
 _atom_site_fract_x
 _atom_site_fract_y
 _atom_site_fract_z
 _atom_site_occupancy
  Sc  Sc0  1  0.666791  0.500000  0.500000  1
  Sc  Sc1  1  0.167719  0.500000  0.000000  1
  Sc  Sc2  1  0.832281  0.500000  0.000000  1
  Sc  Sc3  1  0.333209  0.500000  0.500000  1
  Sc  Sc4  1  0.834314  0.000000  0.000000  1
  Sc  Sc5  1  0.332601  0.000000  0.500000  1
  Sc  Sc6  1  0.667399  0.000000  0.500000  1
  Sc  Sc7  1  0.165686  0.000000  0.000000  1
  Sc  Sc8  1  0.500000  0.248640  0.757337  1
  Sc  Sc9  1  0.000000  0.250933  0.254699  1
  Sc  Sc10  1  0.620864  0.250192  0.121816  1
  Sc  Sc11  1  0.122119  0.247588  0.622356  1
  Sc  Sc12  1  0.877881  0.247588  0.622356  1
  Sc  Sc13  1  0.379136  0.250192  0.121816  1
  Sc  Sc14  1  0.000000  0.749067  0.745301  1
  Sc  Sc15  1  0.500000  0.751360  0.242663  1
  Sc  Sc16  1  0.877881  0.752412  0.377644  1
  Sc  Sc17  1  0.379136  0.749808  0.878184  1
  Sc  Sc18  1  0.620864  0.749808  0.878184  1
  Sc  Sc19  1  0.122119  0.752412  0.377644  1
  Si  Si20  1  0.000000  0.251735  0.893146  1
  Si  Si21  1  0.500000  0.248953  0.394701  1
  Si  Si22  1  0.803724  0.249075  0.304154  1
  Si  Si23  1  0.302621  0.248680  0.803448  1
  Si  Si24  1  0.697379  0.248680  0.803448  1
  Si  Si25  1  0.196276  0.249075  0.304154  1
  Si  Si26  1  0.500000  0.751047  0.605299  1
  Si  Si27  1  0.000000  0.748265  0.106854  1
  Si  Si28  1  0.697379  0.751320  0.196552  1
  Si  Si29  1  0.196276  0.750925  0.695846  1
  Si  Si30  1  0.803724  0.750925  0.695846  1
  Si  Si31  1  0.302621  0.751320  0.196552  1
  H  H32  1  0.000000  0.500000  0.500000  1
