# generated using pymatgen
data_SrPrB5Os3
_symmetry_space_group_name_H-M   'P 1'
_cell_length_a   5.79960605
_cell_length_b   5.79418430
_cell_length_c   8.11911928
_cell_angle_alpha   57.39507745
_cell_angle_beta   57.14678141
_cell_angle_gamma   41.28854589
_symmetry_Int_Tables_number   1
_chemical_formula_structural   SrPrB5Os3
_chemical_formula_sum   'Sr1 Pr1 B5 Os3'
_cell_volume   146.93835349
_cell_formula_units_Z   1
loop_
 _symmetry_equiv_pos_site_id
 _symmetry_equiv_pos_as_xyz
  1  'x, y, z'
loop_
 _atom_site_type_symbol
 _atom_site_label
 _atom_site_symmetry_multiplicity
 _atom_site_fract_x
 _atom_site_fract_y
 _atom_site_fract_z
 _atom_site_occupancy
  Sr  Sr0  1  0.400079  0.936602  0.727972  1
  Pr  Pr1  1  0.071658  0.607818  0.251874  1
  B  B2  1  0.734739  0.262527  0.001024  1
  B  B3  1  0.531325  0.522798  0.381576  1
  B  B4  1  0.478024  0.464082  0.622843  1
  B  B5  1  0.081455  0.624946  0.815982  1
  B  B6  1  0.372035  0.917760  0.189436  1
  Os  Os7  1  0.015021  0.988690  0.502734  1
  Os  Os8  1  0.607111  0.123907  0.907705  1
  Os  Os9  1  0.874824  0.384598  0.098852  1
