# generated using pymatgen
data_Pr3Y2P12PdRu18
_symmetry_space_group_name_H-M   'P 1'
_cell_length_a   12.66938848
_cell_length_b   12.56368030
_cell_length_c   4.01478800
_cell_angle_alpha   90.00000000
_cell_angle_beta   90.00000000
_cell_angle_gamma   119.72437378
_symmetry_Int_Tables_number   1
_chemical_formula_structural   Pr3Y2P12PdRu18
_chemical_formula_sum   'Pr3 Y2 P12 Pd1 Ru18'
_cell_volume   554.96462004
_cell_formula_units_Z   1
loop_
 _symmetry_equiv_pos_site_id
 _symmetry_equiv_pos_as_xyz
  1  'x, y, z'
loop_
 _atom_site_type_symbol
 _atom_site_label
 _atom_site_symmetry_multiplicity
 _atom_site_fract_x
 _atom_site_fract_y
 _atom_site_fract_z
 _atom_site_occupancy
  Pr  Pr0  1  0.000000  0.182782  0.500000  1
  Pr  Pr1  1  0.816054  0.815055  0.500000  1
  Pr  Pr2  1  0.183946  0.999001  0.500000  1
  Y  Y3  1  0.661157  0.330058  0.000000  1
  Y  Y4  1  0.338843  0.668901  0.000000  1
  P  P5  1  0.000000  0.807603  0.000000  1
  P  P6  1  0.187247  0.188348  0.000000  1
  P  P7  1  0.812753  0.001101  0.000000  1
  P  P8  1  0.694381  0.175196  0.500000  1
  P  P9  1  0.817129  0.518555  0.500000  1
  P  P10  1  0.475549  0.304380  0.500000  1
  P  P11  1  0.182871  0.701426  0.500000  1
  P  P12  1  0.524451  0.828831  0.500000  1
  P  P13  1  0.305619  0.480815  0.500000  1
  P  P14  1  0.000000  0.367165  0.000000  1
  P  P15  1  0.624548  0.625175  0.000000  1
  P  P16  1  0.375452  0.000628  0.000000  1
  Pd  Pd17  1  0.000000  0.551874  0.000000  1
  Ru  Ru18  1  0.444810  0.446628  0.000000  1
  Ru  Ru19  1  0.555190  0.001818  0.000000  1
  Ru  Ru20  1  0.000000  0.707829  0.500000  1
  Ru  Ru21  1  0.285478  0.287545  0.500000  1
  Ru  Ru22  1  0.714522  0.002068  0.500000  1
  Ru  Ru23  1  0.804031  0.186870  0.000000  1
  Ru  Ru24  1  0.813266  0.616694  0.000000  1
  Ru  Ru25  1  0.378450  0.194589  0.000000  1
  Ru  Ru26  1  0.186734  0.803427  0.000000  1
  Ru  Ru27  1  0.621550  0.816139  0.000000  1
  Ru  Ru28  1  0.195969  0.382838  0.000000  1
  Ru  Ru29  1  0.873907  0.368955  0.500000  1
  Ru  Ru30  1  0.628503  0.506414  0.500000  1
  Ru  Ru31  1  0.493368  0.127063  0.500000  1
  Ru  Ru32  1  0.371497  0.877911  0.500000  1
  Ru  Ru33  1  0.506632  0.633695  0.500000  1
  Ru  Ru34  1  0.126093  0.495049  0.500000  1
  Ru  Ru35  1  0.000000  0.997574  0.000000  1
