# generated using pymatgen
data_Dy2Lu8CoBi5
_symmetry_space_group_name_H-M   'P 1'
_cell_length_a   8.01922100
_cell_length_b   9.34659600
_cell_length_c   12.03381500
_cell_angle_alpha   90.00000000
_cell_angle_beta   90.00000000
_cell_angle_gamma   90.00000000
_symmetry_Int_Tables_number   1
_chemical_formula_structural   Dy2Lu8CoBi5
_chemical_formula_sum   'Dy4 Lu16 Co2 Bi10'
_cell_volume   901.96354311
_cell_formula_units_Z   2
loop_
 _symmetry_equiv_pos_site_id
 _symmetry_equiv_pos_as_xyz
  1  'x, y, z'
loop_
 _atom_site_type_symbol
 _atom_site_label
 _atom_site_symmetry_multiplicity
 _atom_site_fract_x
 _atom_site_fract_y
 _atom_site_fract_z
 _atom_site_occupancy
  Dy  Dy0  1  0.572494  0.500000  0.772399  1
  Dy  Dy1  1  0.427506  0.500000  0.272399  1
  Dy  Dy2  1  0.907438  0.000000  0.200608  1
  Dy  Dy3  1  0.092562  0.000000  0.700608  1
  Lu  Lu4  1  0.429205  0.174241  0.562113  1
  Lu  Lu5  1  0.570795  0.825759  0.062113  1
  Lu  Lu6  1  0.072237  0.730695  0.436467  1
  Lu  Lu7  1  0.927763  0.269305  0.936467  1
  Lu  Lu8  1  0.072237  0.269305  0.436467  1
  Lu  Lu9  1  0.927763  0.730695  0.936467  1
  Lu  Lu10  1  0.429205  0.825759  0.562113  1
  Lu  Lu11  1  0.570795  0.174241  0.062113  1
  Lu  Lu12  1  0.257168  0.500000  0.992381  1
  Lu  Lu13  1  0.742832  0.500000  0.492381  1
  Lu  Lu14  1  0.196291  0.000000  0.995852  1
  Lu  Lu15  1  0.803709  0.000000  0.495852  1
  Lu  Lu16  1  0.088473  0.500000  0.720040  1
  Lu  Lu17  1  0.911527  0.500000  0.220040  1
  Lu  Lu18  1  0.369460  0.000000  0.310985  1
  Lu  Lu19  1  0.630540  0.000000  0.810985  1
  Co  Co20  1  0.174584  0.000000  0.487901  1
  Co  Co21  1  0.825416  0.000000  0.987901  1
  Bi  Bi22  1  0.813972  0.741209  0.670636  1
  Bi  Bi23  1  0.186028  0.258791  0.170636  1
  Bi  Bi24  1  0.680167  0.242056  0.326057  1
  Bi  Bi25  1  0.319833  0.757944  0.826057  1
  Bi  Bi26  1  0.680167  0.757944  0.326057  1
  Bi  Bi27  1  0.319833  0.242056  0.826057  1
  Bi  Bi28  1  0.813972  0.258791  0.670636  1
  Bi  Bi29  1  0.186028  0.741209  0.170636  1
  Bi  Bi30  1  0.346698  0.500000  0.529286  1
  Bi  Bi31  1  0.653302  0.500000  0.029286  1
