# generated using pymatgen
data_La8Sm9Sc3Sn16
_symmetry_space_group_name_H-M   'P 1'
_cell_length_a   8.20498200
_cell_length_b   8.40269009
_cell_length_c   15.91412100
_cell_angle_alpha   90.00000000
_cell_angle_beta   90.00000000
_cell_angle_gamma   89.99147657
_symmetry_Int_Tables_number   1
_chemical_formula_structural   La8Sm9Sc3Sn16
_chemical_formula_sum   'La8 Sm9 Sc3 Sn16'
_cell_volume   1097.18188830
_cell_formula_units_Z   1
loop_
 _symmetry_equiv_pos_site_id
 _symmetry_equiv_pos_as_xyz
  1  'x, y, z'
loop_
 _atom_site_type_symbol
 _atom_site_label
 _atom_site_symmetry_multiplicity
 _atom_site_fract_x
 _atom_site_fract_y
 _atom_site_fract_z
 _atom_site_occupancy
  La  La0  1  0.509128  0.318905  0.904336  1
  La  La1  1  0.008316  0.178813  0.595710  1
  La  La2  1  0.490648  0.680199  0.402474  1
  La  La3  1  0.990624  0.820164  0.097056  1
  La  La4  1  0.490648  0.680199  0.097526  1
  La  La5  1  0.990624  0.820164  0.402944  1
  La  La6  1  0.509128  0.318905  0.595664  1
  La  La7  1  0.008316  0.178813  0.904290  1
  Sm  Sm8  1  0.350841  0.838248  0.877446  1
  Sm  Sm9  1  0.848429  0.663365  0.623062  1
  Sm  Sm10  1  0.650188  0.161870  0.375570  1
  Sm  Sm11  1  0.151100  0.338109  0.126087  1
  Sm  Sm12  1  0.650188  0.161870  0.124430  1
  Sm  Sm13  1  0.151100  0.338109  0.373913  1
  Sm  Sm14  1  0.350841  0.838248  0.622554  1
  Sm  Sm15  1  0.848429  0.663365  0.876938  1
  Sm  Sm16  1  0.183320  0.500799  0.750000  1
  Sc  Sc17  1  0.685753  0.997699  0.750000  1
  Sc  Sc18  1  0.814883  0.498754  0.250000  1
  Sc  Sc19  1  0.313995  0.000987  0.250000  1
  Sn  Sn20  1  0.308974  0.038207  0.046617  1
  Sn  Sn21  1  0.810742  0.462040  0.453590  1
  Sn  Sn22  1  0.690258  0.962545  0.544924  1
  Sn  Sn23  1  0.189197  0.539308  0.958884  1
  Sn  Sn24  1  0.690258  0.962545  0.955076  1
  Sn  Sn25  1  0.189197  0.539308  0.541116  1
  Sn  Sn26  1  0.308974  0.038207  0.453383  1
  Sn  Sn27  1  0.810742  0.462040  0.046410  1
  Sn  Sn28  1  0.549663  0.625245  0.750000  1
  Sn  Sn29  1  0.041172  0.882584  0.750000  1
  Sn  Sn30  1  0.459451  0.381573  0.250000  1
  Sn  Sn31  1  0.957504  0.117710  0.250000  1
  Sn  Sn32  1  0.317873  0.140769  0.750000  1
  Sn  Sn33  1  0.810454  0.348507  0.750000  1
  Sn  Sn34  1  0.684788  0.851128  0.250000  1
  Sn  Sn35  1  0.184255  0.650701  0.250000  1
