# generated using pymatgen
data_Dy19InIr12
_symmetry_space_group_name_H-M   'P 1'
_cell_length_a   10.88053000
_cell_length_b   10.88053000
_cell_length_c   6.32606100
_cell_angle_alpha   90.00000000
_cell_angle_beta   90.00000000
_cell_angle_gamma   90.00000000
_symmetry_Int_Tables_number   1
_chemical_formula_structural   Dy19InIr12
_chemical_formula_sum   'Dy19 In1 Ir12'
_cell_volume   748.91663421
_cell_formula_units_Z   1
loop_
 _symmetry_equiv_pos_site_id
 _symmetry_equiv_pos_as_xyz
  1  'x, y, z'
loop_
 _atom_site_type_symbol
 _atom_site_label
 _atom_site_symmetry_multiplicity
 _atom_site_fract_x
 _atom_site_fract_y
 _atom_site_fract_z
 _atom_site_occupancy
  Dy  Dy0  1  0.284398  0.085272  0.380483  1
  Dy  Dy1  1  0.290955  0.911479  0.880583  1
  Dy  Dy2  1  0.709045  0.088521  0.880583  1
  Dy  Dy3  1  0.715602  0.914728  0.380483  1
  Dy  Dy4  1  0.588332  0.791809  0.881704  1
  Dy  Dy5  1  0.588231  0.207858  0.378171  1
  Dy  Dy6  1  0.411769  0.792142  0.378171  1
  Dy  Dy7  1  0.411668  0.208191  0.881704  1
  Dy  Dy8  1  0.207858  0.411769  0.621829  1
  Dy  Dy9  1  0.208191  0.588332  0.118296  1
  Dy  Dy10  1  0.791809  0.411668  0.118296  1
  Dy  Dy11  1  0.792142  0.588231  0.621829  1
  Dy  Dy12  1  0.911479  0.709045  0.119417  1
  Dy  Dy13  1  0.914728  0.284398  0.619517  1
  Dy  Dy14  1  0.085272  0.715602  0.619517  1
  Dy  Dy15  1  0.088521  0.290955  0.119417  1
  Dy  Dy16  1  0.000000  0.000000  0.000000  1
  Dy  Dy17  1  0.500000  0.500000  0.000000  1
  Dy  Dy18  1  0.500000  0.500000  0.500000  1
  In  In19  1  0.000000  0.000000  0.500000  1
  Ir  Ir20  1  0.845755  0.155438  0.246025  1
  Ir  Ir21  1  0.844562  0.845755  0.753975  1
  Ir  Ir22  1  0.155438  0.154245  0.753975  1
  Ir  Ir23  1  0.154245  0.844562  0.246025  1
  Ir  Ir24  1  0.654480  0.346209  0.747434  1
  Ir  Ir25  1  0.653791  0.654480  0.252566  1
  Ir  Ir26  1  0.346209  0.345520  0.252566  1
  Ir  Ir27  1  0.345520  0.653791  0.747434  1
  Ir  Ir28  1  0.500000  0.000000  0.125632  1
  Ir  Ir29  1  0.500000  0.000000  0.621726  1
  Ir  Ir30  1  0.000000  0.500000  0.874368  1
  Ir  Ir31  1  0.000000  0.500000  0.378274  1
