# generated using pymatgen
data_Li4Tb2ThSn4
_symmetry_space_group_name_H-M   'P 1'
_cell_length_a   4.65594804
_cell_length_b   7.11815230
_cell_length_c   8.70696878
_cell_angle_alpha   114.12706814
_cell_angle_beta   105.50776966
_cell_angle_gamma   90.00000532
_symmetry_Int_Tables_number   1
_chemical_formula_structural   Li4Tb2ThSn4
_chemical_formula_sum   'Li4 Tb2 Th1 Sn4'
_cell_volume   251.80057470
_cell_formula_units_Z   1
loop_
 _symmetry_equiv_pos_site_id
 _symmetry_equiv_pos_as_xyz
  1  'x, y, z'
loop_
 _atom_site_type_symbol
 _atom_site_label
 _atom_site_symmetry_multiplicity
 _atom_site_fract_x
 _atom_site_fract_y
 _atom_site_fract_z
 _atom_site_occupancy
  Li  Li0  1  0.326651  0.015014  0.653300  1
  Li  Li1  1  0.672414  0.981532  0.344830  1
  Li  Li2  1  0.326651  0.638287  0.653300  1
  Li  Li3  1  0.672414  0.363298  0.344830  1
  Tb  Tb4  1  0.128588  0.628588  0.257178  1
  Tb  Tb5  1  0.000681  0.000681  0.001362  1
  Th  Th6  1  0.872098  0.372098  0.744194  1
  Sn  Sn7  1  0.213156  0.213156  0.426312  1
  Sn  Sn8  1  0.786872  0.786872  0.573746  1
  Sn  Sn9  1  0.500237  0.296630  0.000474  1
  Sn  Sn10  1  0.500237  0.703844  0.000474  1
