# generated using pymatgen
data_RuSeCl9
_symmetry_space_group_name_H-M   'P 1'
_cell_length_a   11.57888200
_cell_length_b   6.80532203
_cell_length_c   9.66978616
_cell_angle_alpha   75.63889482
_cell_angle_beta   90.00000000
_cell_angle_gamma   90.00000000
_symmetry_Int_Tables_number   1
_chemical_formula_structural   RuSeCl9
_chemical_formula_sum   'Ru2 Se2 Cl18'
_cell_volume   738.15009996
_cell_formula_units_Z   2
loop_
 _symmetry_equiv_pos_site_id
 _symmetry_equiv_pos_as_xyz
  1  'x, y, z'
loop_
 _atom_site_type_symbol
 _atom_site_label
 _atom_site_symmetry_multiplicity
 _atom_site_fract_x
 _atom_site_fract_y
 _atom_site_fract_z
 _atom_site_occupancy
  Ru  Ru0  1  0.250000  0.649843  0.843502  1
  Ru  Ru1  1  0.750000  0.350157  0.156498  1
  Se  Se2  1  0.250000  0.758072  0.467203  1
  Se  Se3  1  0.750000  0.241928  0.532797  1
  Cl  Cl4  1  0.609873  0.443273  0.310447  1
  Cl  Cl5  1  0.109873  0.556727  0.689553  1
  Cl  Cl6  1  0.390127  0.556727  0.689553  1
  Cl  Cl7  1  0.890127  0.443273  0.310447  1
  Cl  Cl8  1  0.750000  0.670325  0.016637  1
  Cl  Cl9  1  0.250000  0.329675  0.983363  1
  Cl  Cl10  1  0.750000  0.493782  0.640505  1
  Cl  Cl11  1  0.250000  0.506218  0.359495  1
  Cl  Cl12  1  0.750000  0.026497  0.324768  1
  Cl  Cl13  1  0.250000  0.973503  0.675232  1
  Cl  Cl14  1  0.892791  0.245435  0.032044  1
  Cl  Cl15  1  0.392791  0.754565  0.967956  1
  Cl  Cl16  1  0.107209  0.754565  0.967956  1
  Cl  Cl17  1  0.607209  0.245435  0.032044  1
  Cl  Cl18  1  0.893815  0.064466  0.653711  1
  Cl  Cl19  1  0.393815  0.935534  0.346289  1
  Cl  Cl20  1  0.106185  0.935534  0.346289  1
  Cl  Cl21  1  0.606185  0.064466  0.653711  1
