# generated using pymatgen
data_Lu3Al3ZnGeIr
_symmetry_space_group_name_H-M   'P 1'
_cell_length_a   6.90600400
_cell_length_b   6.90600358
_cell_length_c   4.16317000
_cell_angle_alpha   90.00000000
_cell_angle_beta   90.00000000
_cell_angle_gamma   119.99999241
_symmetry_Int_Tables_number   1
_chemical_formula_structural   Lu3Al3ZnGeIr
_chemical_formula_sum   'Lu3 Al3 Zn1 Ge1 Ir1'
_cell_volume   171.95247659
_cell_formula_units_Z   1
loop_
 _symmetry_equiv_pos_site_id
 _symmetry_equiv_pos_as_xyz
  1  'x, y, z'
loop_
 _atom_site_type_symbol
 _atom_site_label
 _atom_site_symmetry_multiplicity
 _atom_site_fract_x
 _atom_site_fract_y
 _atom_site_fract_z
 _atom_site_occupancy
  Lu  Lu0  1  0.416824  0.001711  0.000000  1
  Lu  Lu1  1  0.998289  0.415113  0.000000  1
  Lu  Lu2  1  0.584886  0.583175  0.000000  1
  Al  Al3  1  0.769717  0.006546  0.500001  1
  Al  Al4  1  0.236828  0.230282  0.500001  1
  Al  Al5  1  0.993454  0.763171  0.500001  1
  Zn  Zn6  1  0.666667  0.333334  0.500001  1
  Ge  Ge7  1  0.333333  0.666667  0.500001  1
  Ir  Ir8  1  0.000000  0.000000  0.000000  1
