# generated using pymatgen
data_ErU2(SnRu)3
_symmetry_space_group_name_H-M   'P 1'
_cell_length_a   7.48024975
_cell_length_b   7.19909188
_cell_length_c   3.96812500
_cell_angle_alpha   90.00000000
_cell_angle_beta   90.00000000
_cell_angle_gamma   118.76423994
_symmetry_Int_Tables_number   1
_chemical_formula_structural   ErU2(SnRu)3
_chemical_formula_sum   'Er1 U2 Sn3 Ru3'
_cell_volume   187.32001591
_cell_formula_units_Z   1
loop_
 _symmetry_equiv_pos_site_id
 _symmetry_equiv_pos_as_xyz
  1  'x, y, z'
loop_
 _atom_site_type_symbol
 _atom_site_label
 _atom_site_symmetry_multiplicity
 _atom_site_fract_x
 _atom_site_fract_y
 _atom_site_fract_z
 _atom_site_occupancy
  Er  Er0  1  0.000000  0.408773  0.500000  1
  U  U1  1  0.586482  0.584841  0.500000  1
  U  U2  1  0.413518  0.998359  0.500000  1
  Sn  Sn3  1  0.000000  0.730605  0.000000  1
  Sn  Sn4  1  0.240442  0.254432  0.000000  1
  Sn  Sn5  1  0.759558  0.013990  0.000000  1
  Ru  Ru6  1  0.364726  0.695626  0.000000  1
  Ru  Ru7  1  0.635274  0.330899  0.000000  1
  Ru  Ru8  1  0.000000  0.982474  0.500000  1
