# generated using pymatgen
data_Ba5CaPr2Fe4O15
_symmetry_space_group_name_H-M   'P 1'
_cell_length_a   11.87435900
_cell_length_b   11.87435909
_cell_length_c   7.08918401
_cell_angle_alpha   89.96158833
_cell_angle_beta   89.96158657
_cell_angle_gamma   120.04488173
_symmetry_Int_Tables_number   1
_chemical_formula_structural   Ba5CaPr2Fe4O15
_chemical_formula_sum   'Ba10 Ca2 Pr4 Fe8 O30'
_cell_volume   865.26722228
_cell_formula_units_Z   2
loop_
 _symmetry_equiv_pos_site_id
 _symmetry_equiv_pos_as_xyz
  1  'x, y, z'
loop_
 _atom_site_type_symbol
 _atom_site_label
 _atom_site_symmetry_multiplicity
 _atom_site_fract_x
 _atom_site_fract_y
 _atom_site_fract_z
 _atom_site_occupancy
  Ba  Ba0  1  0.000349  0.000067  0.497917  1
  Ba  Ba1  1  0.000067  0.000349  0.997917  1
  Ba  Ba2  1  0.331400  0.669166  0.017673  1
  Ba  Ba3  1  0.669166  0.331400  0.517673  1
  Ba  Ba4  1  0.830722  0.651470  0.833986  1
  Ba  Ba5  1  0.347418  0.170451  0.839316  1
  Ba  Ba6  1  0.826999  0.176152  0.836925  1
  Ba  Ba7  1  0.170451  0.347418  0.339316  1
  Ba  Ba8  1  0.651470  0.830722  0.333986  1
  Ba  Ba9  1  0.176152  0.826999  0.336925  1
  Ca  Ca10  1  0.519325  0.039049  0.156253  1
  Ca  Ca11  1  0.039049  0.519325  0.656253  1
  Pr  Pr12  1  0.956813  0.478553  0.165306  1
  Pr  Pr13  1  0.522039  0.477691  0.165398  1
  Pr  Pr14  1  0.478553  0.956813  0.665306  1
  Pr  Pr15  1  0.477691  0.522039  0.665398  1
  Fe  Fe16  1  0.665438  0.330160  0.975405  1
  Fe  Fe17  1  0.330160  0.665438  0.475405  1
  Fe  Fe18  1  0.178539  0.818865  0.837721  1
  Fe  Fe19  1  0.178194  0.359460  0.839373  1
  Fe  Fe20  1  0.642860  0.821712  0.838726  1
  Fe  Fe21  1  0.818865  0.178539  0.337721  1
  Fe  Fe22  1  0.821712  0.642860  0.338726  1
  Fe  Fe23  1  0.359460  0.178194  0.339373  1
  O  O24  1  0.935635  0.333125  0.468703  1
  O  O25  1  0.666306  0.602471  0.470979  1
  O  O26  1  0.393121  0.065036  0.484150  1
  O  O27  1  0.935478  0.602168  0.469214  1
  O  O28  1  0.672008  0.065055  0.484147  1
  O  O29  1  0.397245  0.333565  0.470735  1
  O  O30  1  0.065055  0.672008  0.984147  1
  O  O31  1  0.333565  0.397245  0.970735  1
  O  O32  1  0.602168  0.935478  0.969214  1
  O  O33  1  0.065036  0.393121  0.984150  1
  O  O34  1  0.333125  0.935635  0.968703  1
  O  O35  1  0.602471  0.666306  0.970979  1
  O  O36  1  0.417198  0.582579  0.333681  1
  O  O37  1  0.417292  0.833888  0.336530  1
  O  O38  1  0.168918  0.583960  0.326523  1
  O  O39  1  0.582579  0.417198  0.833681  1
  O  O40  1  0.583960  0.168918  0.826523  1
  O  O41  1  0.833888  0.417292  0.836530  1
  O  O42  1  0.749612  0.251462  0.160421  1
  O  O43  1  0.749642  0.502378  0.158421  1
  O  O44  1  0.500023  0.252432  0.159962  1
  O  O45  1  0.251462  0.749612  0.660421  1
  O  O46  1  0.252432  0.500023  0.659962  1
  O  O47  1  0.502378  0.749642  0.658421  1
  O  O48  1  0.096925  0.194772  0.732030  1
  O  O49  1  0.807779  0.901876  0.733065  1
  O  O50  1  0.094585  0.900415  0.731924  1
  O  O51  1  0.901876  0.807779  0.233065  1
  O  O52  1  0.194772  0.096925  0.232030  1
  O  O53  1  0.900415  0.094585  0.231924  1
