# generated using pymatgen
data_K8In2O7
_symmetry_space_group_name_H-M   'P 1'
_cell_length_a   6.85658012
_cell_length_b   18.05786100
_cell_length_c   6.90839749
_cell_angle_alpha   90.00000000
_cell_angle_beta   118.80862470
_cell_angle_gamma   90.00000000
_symmetry_Int_Tables_number   1
_chemical_formula_structural   K8In2O7
_chemical_formula_sum   'K16 In4 O14'
_cell_volume   749.49951274
_cell_formula_units_Z   2
loop_
 _symmetry_equiv_pos_site_id
 _symmetry_equiv_pos_as_xyz
  1  'x, y, z'
loop_
 _atom_site_type_symbol
 _atom_site_label
 _atom_site_symmetry_multiplicity
 _atom_site_fract_x
 _atom_site_fract_y
 _atom_site_fract_z
 _atom_site_occupancy
  K  K0  1  0.351624  0.912233  0.004134  1
  K  K1  1  0.767286  0.503274  0.041181  1
  K  K2  1  0.782451  0.701906  0.056484  1
  K  K3  1  0.790945  0.310066  0.054574  1
  K  K4  1  0.209053  0.810066  0.445425  1
  K  K5  1  0.217549  0.201906  0.443516  1
  K  K6  1  0.232713  0.003274  0.458820  1
  K  K7  1  0.648376  0.412233  0.495866  1
  K  K8  1  0.351624  0.587767  0.504134  1
  K  K9  1  0.767286  0.996727  0.541180  1
  K  K10  1  0.782450  0.798094  0.556484  1
  K  K11  1  0.790946  0.189934  0.554575  1
  K  K12  1  0.209054  0.689934  0.945425  1
  K  K13  1  0.217550  0.298094  0.943516  1
  K  K14  1  0.232713  0.496726  0.958820  1
  K  K15  1  0.648377  0.087767  0.995866  1
  In  In16  1  0.160116  0.101456  0.001944  1
  In  In17  1  0.839882  0.601456  0.498055  1
  In  In18  1  0.160117  0.398544  0.501945  1
  In  In19  1  0.839883  0.898543  0.998056  1
  O  O20  1  0.000000  0.000000  0.000000  1
  O  O21  1  0.947413  0.185494  0.000740  1
  O  O22  1  0.181423  0.395431  0.210534  1
  O  O23  1  0.536584  0.601390  0.206500  1
  O  O24  1  0.463415  0.101391  0.293500  1
  O  O25  1  0.818577  0.895431  0.289467  1
  O  O26  1  0.052586  0.685493  0.499260  1
  O  O27  1  0.000000  0.500000  0.500000  1
  O  O28  1  0.947413  0.314506  0.500740  1
  O  O29  1  0.181424  0.104568  0.710534  1
  O  O30  1  0.536584  0.898609  0.706500  1
  O  O31  1  0.463415  0.398609  0.793500  1
  O  O32  1  0.818576  0.604568  0.789466  1
  O  O33  1  0.052587  0.814506  0.999260  1
