# generated using pymatgen
data_Li6Co11P12Ir7
_symmetry_space_group_name_H-M   'P 1'
_cell_length_a   3.63317700
_cell_length_b   10.82506934
_cell_length_c   11.89681702
_cell_angle_alpha   91.24331175
_cell_angle_beta   90.00000000
_cell_angle_gamma   90.00000000
_symmetry_Int_Tables_number   1
_chemical_formula_structural   Li6Co11P12Ir7
_chemical_formula_sum   'Li6 Co11 P12 Ir7'
_cell_volume   467.78443346
_cell_formula_units_Z   1
loop_
 _symmetry_equiv_pos_site_id
 _symmetry_equiv_pos_as_xyz
  1  'x, y, z'
loop_
 _atom_site_type_symbol
 _atom_site_label
 _atom_site_symmetry_multiplicity
 _atom_site_fract_x
 _atom_site_fract_y
 _atom_site_fract_z
 _atom_site_occupancy
  Li  Li0  1  0.000000  0.512109  0.519090  1
  Li  Li1  1  0.500000  0.977525  0.483526  1
  Li  Li2  1  0.500000  0.832859  0.203860  1
  Li  Li3  1  0.500000  0.173616  0.198528  1
  Li  Li4  1  0.000000  0.668701  0.797205  1
  Li  Li5  1  0.000000  0.327079  0.799183  1
  Co  Co6  1  0.000000  0.500792  0.983048  1
  Co  Co7  1  0.500000  0.000766  0.016101  1
  Co  Co8  1  0.000000  0.800908  0.572711  1
  Co  Co9  1  0.500000  0.876632  0.713538  1
  Co  Co10  1  0.500000  0.109567  0.713411  1
  Co  Co11  1  0.000000  0.625178  0.285669  1
  Co  Co12  1  0.000000  0.390007  0.283899  1
  Co  Co13  1  0.500000  0.332712  0.986799  1
  Co  Co14  1  0.500000  0.668829  0.987273  1
  Co  Co15  1  0.000000  0.168058  0.011305  1
  Co  Co16  1  0.000000  0.833182  0.011423  1
  P  P17  1  0.500000  0.289602  0.634101  1
  P  P18  1  0.500000  0.696324  0.632838  1
  P  P19  1  0.000000  0.210110  0.363512  1
  P  P20  1  0.000000  0.809097  0.376699  1
  P  P21  1  0.500000  0.499250  0.876830  1
  P  P22  1  0.000000  0.001973  0.122945  1
  P  P23  1  0.500000  0.840261  0.895055  1
  P  P24  1  0.500000  0.156078  0.894798  1
  P  P25  1  0.000000  0.662287  0.104488  1
  P  P26  1  0.000000  0.344125  0.102917  1
  P  P27  1  0.500000  0.507388  0.344967  1
  P  P28  1  0.000000  0.987310  0.651223  1
  Ir  Ir29  1  0.500000  0.320598  0.438015  1
  Ir  Ir30  1  0.500000  0.697655  0.437911  1
  Ir  Ir31  1  0.000000  0.176473  0.559248  1
  Ir  Ir32  1  0.500000  0.504877  0.151862  1
  Ir  Ir33  1  0.000000  0.997172  0.845582  1
  Ir  Ir34  1  0.500000  0.493620  0.687434  1
  Ir  Ir35  1  0.000000  0.007277  0.313004  1
