# generated using pymatgen
data_TbTaN2
_symmetry_space_group_name_H-M   'P 1'
_cell_length_a   3.26774800
_cell_length_b   5.69301700
_cell_length_c   11.01679800
_cell_angle_alpha   90.00000000
_cell_angle_beta   90.00000000
_cell_angle_gamma   90.00000000
_symmetry_Int_Tables_number   1
_chemical_formula_structural   TbTaN2
_chemical_formula_sum   'Tb4 Ta4 N8'
_cell_volume   204.94929306
_cell_formula_units_Z   4
loop_
 _symmetry_equiv_pos_site_id
 _symmetry_equiv_pos_as_xyz
  1  'x, y, z'
loop_
 _atom_site_type_symbol
 _atom_site_label
 _atom_site_symmetry_multiplicity
 _atom_site_fract_x
 _atom_site_fract_y
 _atom_site_fract_z
 _atom_site_occupancy
  Tb  Tb0  1  0.250000  0.588387  0.863778  1
  Tb  Tb1  1  0.750000  0.411613  0.136222  1
  Tb  Tb2  1  0.750000  0.911613  0.363778  1
  Tb  Tb3  1  0.250000  0.088387  0.636222  1
  Ta  Ta4  1  0.250000  0.917307  0.112759  1
  Ta  Ta5  1  0.750000  0.082693  0.887241  1
  Ta  Ta6  1  0.750000  0.582693  0.612759  1
  Ta  Ta7  1  0.250000  0.417307  0.387241  1
  N  N8  1  0.250000  0.661842  0.244143  1
  N  N9  1  0.750000  0.338158  0.755857  1
  N  N10  1  0.750000  0.838158  0.744143  1
  N  N11  1  0.250000  0.161842  0.255857  1
  N  N12  1  0.250000  0.740072  0.506194  1
  N  N13  1  0.750000  0.259928  0.493806  1
  N  N14  1  0.750000  0.759928  0.006194  1
  N  N15  1  0.250000  0.240072  0.993806  1
