# generated using pymatgen
data_Y8Re(TcB8)3
_symmetry_space_group_name_H-M   'P 1'
_cell_length_a   3.69238700
_cell_length_b   9.18717235
_cell_length_c   11.57604444
_cell_angle_alpha   89.96825869
_cell_angle_beta   90.00000000
_cell_angle_gamma   90.00000000
_symmetry_Int_Tables_number   1
_chemical_formula_structural   Y8Re(TcB8)3
_chemical_formula_sum   'Y8 Re1 Tc3 B24'
_cell_volume   392.68941593
_cell_formula_units_Z   1
loop_
 _symmetry_equiv_pos_site_id
 _symmetry_equiv_pos_as_xyz
  1  'x, y, z'
loop_
 _atom_site_type_symbol
 _atom_site_label
 _atom_site_symmetry_multiplicity
 _atom_site_fract_x
 _atom_site_fract_y
 _atom_site_fract_z
 _atom_site_occupancy
  Y  Y0  1  0.000000  0.823857  0.085875  1
  Y  Y1  1  0.000000  0.176300  0.914177  1
  Y  Y2  1  0.000000  0.323695  0.413974  1
  Y  Y3  1  0.000000  0.676619  0.585734  1
  Y  Y4  1  0.000000  0.442510  0.130649  1
  Y  Y5  1  0.000000  0.558032  0.870199  1
  Y  Y6  1  0.000000  0.942515  0.369369  1
  Y  Y7  1  0.000000  0.056463  0.630174  1
  Re  Re8  1  0.000000  0.361775  0.679280  1
  Tc  Tc9  1  0.000000  0.138416  0.179338  1
  Tc  Tc10  1  0.000000  0.861616  0.820708  1
  Tc  Tc11  1  0.000000  0.638450  0.320570  1
  B  B12  1  0.500000  0.053229  0.067201  1
  B  B13  1  0.500000  0.946841  0.932773  1
  B  B14  1  0.500000  0.553244  0.432688  1
  B  B15  1  0.500000  0.446953  0.567017  1
  B  B16  1  0.500000  0.248432  0.081591  1
  B  B17  1  0.500000  0.751760  0.918421  1
  B  B18  1  0.500000  0.748364  0.418408  1
  B  B19  1  0.500000  0.251245  0.581471  1
  B  B20  1  0.500000  0.291344  0.234718  1
  B  B21  1  0.500000  0.708669  0.765384  1
  B  B22  1  0.500000  0.791319  0.265219  1
  B  B23  1  0.500000  0.208340  0.734657  1
  B  B24  1  0.500000  0.130741  0.314134  1
  B  B25  1  0.500000  0.869095  0.685890  1
  B  B26  1  0.500000  0.630774  0.185814  1
  B  B27  1  0.500000  0.369445  0.814305  1
  B  B28  1  0.500000  0.482210  0.288449  1
  B  B29  1  0.500000  0.518083  0.711748  1
  B  B30  1  0.500000  0.982192  0.211570  1
  B  B31  1  0.500000  0.017704  0.788340  1
  B  B32  1  0.500000  0.100436  0.471767  1
  B  B33  1  0.500000  0.899165  0.528067  1
  B  B34  1  0.500000  0.600593  0.028392  1
  B  B35  1  0.500000  0.399576  0.971928  1
