# generated using pymatgen
data_Cs3AsO3
_symmetry_space_group_name_H-M   'P 1'
_cell_length_a   7.13604000
_cell_length_b   9.58800819
_cell_length_c   11.53065903
_cell_angle_alpha   93.32345091
_cell_angle_beta   90.00102645
_cell_angle_gamma   89.99766080
_symmetry_Int_Tables_number   1
_chemical_formula_structural   Cs3AsO3
_chemical_formula_sum   'Cs12 As4 O12'
_cell_volume   787.60556897
_cell_formula_units_Z   4
loop_
 _symmetry_equiv_pos_site_id
 _symmetry_equiv_pos_as_xyz
  1  'x, y, z'
loop_
 _atom_site_type_symbol
 _atom_site_label
 _atom_site_symmetry_multiplicity
 _atom_site_fract_x
 _atom_site_fract_y
 _atom_site_fract_z
 _atom_site_occupancy
  Cs  Cs0  1  0.888546  0.693838  0.040521  1
  Cs  Cs1  1  0.220217  0.004141  0.161691  1
  Cs  Cs2  1  0.413031  0.580526  0.185492  1
  Cs  Cs3  1  0.913006  0.419466  0.314494  1
  Cs  Cs4  1  0.720204  0.995868  0.338304  1
  Cs  Cs5  1  0.388531  0.306160  0.459489  1
  Cs  Cs6  1  0.611469  0.693845  0.540529  1
  Cs  Cs7  1  0.279765  0.004135  0.661711  1
  Cs  Cs8  1  0.087015  0.580510  0.685476  1
  Cs  Cs9  1  0.586998  0.419470  0.814502  1
  Cs  Cs10  1  0.779775  0.995859  0.838327  1
  Cs  Cs11  1  0.111438  0.306161  0.959468  1
  As  As12  1  0.647617  0.238545  0.090637  1
  As  As13  1  0.147661  0.761432  0.409351  1
  As  As14  1  0.852339  0.238526  0.590639  1
  As  As15  1  0.352382  0.761432  0.909368  1
  O  O16  1  0.743590  0.409129  0.067370  1
  O  O17  1  0.854144  0.142637  0.125866  1
  O  O18  1  0.526411  0.263351  0.227190  1
  O  O19  1  0.026433  0.736653  0.272797  1
  O  O20  1  0.354163  0.857376  0.374116  1
  O  O21  1  0.243619  0.590883  0.432635  1
  O  O22  1  0.756385  0.409144  0.567361  1
  O  O23  1  0.645803  0.142666  0.625898  1
  O  O24  1  0.973591  0.263352  0.727170  1
  O  O25  1  0.473615  0.736668  0.772832  1
  O  O26  1  0.145849  0.857360  0.874136  1
  O  O27  1  0.256399  0.590867  0.932626  1
