# generated using pymatgen
data_Pr10(ErSe3)9
_symmetry_space_group_name_H-M   'P 1'
_cell_length_a   4.04199636
_cell_length_b   15.38048112
_cell_length_c   19.34897300
_cell_angle_alpha   79.25266338
_cell_angle_beta   83.98890617
_cell_angle_gamma   82.45325926
_symmetry_Int_Tables_number   1
_chemical_formula_structural   Pr10(ErSe3)9
_chemical_formula_sum   'Pr10 Er9 Se27'
_cell_volume   1167.56606177
_cell_formula_units_Z   1
loop_
 _symmetry_equiv_pos_site_id
 _symmetry_equiv_pos_as_xyz
  1  'x, y, z'
loop_
 _atom_site_type_symbol
 _atom_site_label
 _atom_site_symmetry_multiplicity
 _atom_site_fract_x
 _atom_site_fract_y
 _atom_site_fract_z
 _atom_site_occupancy
  Pr  Pr0  1  0.126787  0.954302  0.791992  1
  Pr  Pr1  1  0.042173  0.605839  0.305477  1
  Pr  Pr2  1  0.114064  0.160480  0.607636  1
  Pr  Pr3  1  0.955438  0.393939  0.694384  1
  Pr  Pr4  1  0.870553  0.045159  0.208733  1
  Pr  Pr5  1  0.819569  0.464685  0.895206  1
  Pr  Pr6  1  0.800285  0.673873  0.719903  1
  Pr  Pr7  1  0.880226  0.838456  0.392977  1
  Pr  Pr8  1  0.196029  0.325224  0.280574  1
  Pr  Pr9  1  0.179834  0.534280  0.105045  1
  Er  Er10  1  0.179259  0.716074  0.924573  1
  Er  Er11  1  0.819421  0.283345  0.076053  1
  Er  Er12  1  0.569920  0.381867  0.472818  1
  Er  Er13  1  0.999687  0.000272  0.000257  1
  Er  Er14  1  0.748454  0.906003  0.589479  1
  Er  Er15  1  0.243818  0.092741  0.411077  1
  Er  Er16  1  0.424790  0.616784  0.527350  1
  Er  Er17  1  0.528729  0.807739  0.140281  1
  Er  Er18  1  0.472723  0.191933  0.859929  1
  Se  Se19  1  0.678551  0.804291  0.838104  1
  Se  Se20  1  0.319347  0.195142  0.162463  1
  Se  Se21  1  0.297289  0.912664  0.484329  1
  Se  Se22  1  0.605135  0.455603  0.331437  1
  Se  Se23  1  0.450155  0.997242  0.102087  1
  Se  Se24  1  0.456174  0.696515  0.384066  1
  Se  Se25  1  0.242211  0.825855  0.683910  1
  Se  Se26  1  0.539625  0.302488  0.616297  1
  Se  Se27  1  0.854561  0.729516  0.553799  1
  Se  Se28  1  0.751958  0.172986  0.316627  1
  Se  Se29  1  0.594281  0.624709  0.185266  1
  Se  Se30  1  0.139921  0.269339  0.446184  1
  Se  Se31  1  0.078814  0.812405  0.035961  1
  Se  Se32  1  0.549256  0.002601  0.898566  1
  Se  Se33  1  0.715395  0.399290  0.169949  1
  Se  Se34  1  0.391465  0.544051  0.668908  1
  Se  Se35  1  0.282318  0.600004  0.830628  1
  Se  Se36  1  0.694361  0.086214  0.516291  1
  Se  Se37  1  0.298798  0.394737  0.006947  1
  Se  Se38  1  0.922451  0.188137  0.964117  1
  Se  Se39  1  0.700571  0.604369  0.993382  1
  Se  Se40  1  0.026997  0.180766  0.763780  1
  Se  Se41  1  0.642307  0.027598  0.685852  1
  Se  Se42  1  0.405157  0.374862  0.814561  1
  Se  Se43  1  0.997442  0.499123  0.500506  1
  Se  Se44  1  0.973789  0.817939  0.236705  1
  Se  Se45  1  0.354486  0.971176  0.314727  1
