# generated using pymatgen
data_Pr3YGa18Ir5Pd
_symmetry_space_group_name_H-M   'P 1'
_cell_length_a   7.67272190
_cell_length_b   7.67464104
_cell_length_c   9.61232390
_cell_angle_alpha   90.10776834
_cell_angle_beta   90.04097101
_cell_angle_gamma   119.78263783
_symmetry_Int_Tables_number   1
_chemical_formula_structural   Pr3YGa18Ir5Pd
_chemical_formula_sum   'Pr3 Y1 Ga18 Ir5 Pd1'
_cell_volume   491.26075706
_cell_formula_units_Z   1
loop_
 _symmetry_equiv_pos_site_id
 _symmetry_equiv_pos_as_xyz
  1  'x, y, z'
loop_
 _atom_site_type_symbol
 _atom_site_label
 _atom_site_symmetry_multiplicity
 _atom_site_fract_x
 _atom_site_fract_y
 _atom_site_fract_z
 _atom_site_occupancy
  Pr  Pr0  1  0.995877  0.669332  0.250511  1
  Pr  Pr1  1  0.003941  0.330471  0.749626  1
  Pr  Pr2  1  0.669477  0.995919  0.250449  1
  Y  Y3  1  0.330349  0.003874  0.749171  1
  Ga  Ga4  1  0.133114  0.132379  0.251873  1
  Ga  Ga5  1  0.869447  0.868224  0.748423  1
  Ga  Ga6  1  0.002512  0.337864  0.078651  1
  Ga  Ga7  1  0.000185  0.664880  0.919188  1
  Ga  Ga8  1  0.001095  0.667818  0.578715  1
  Ga  Ga9  1  0.334657  0.001039  0.425624  1
  Ga  Ga10  1  0.001567  0.334629  0.423490  1
  Ga  Ga11  1  0.662974  0.998880  0.578649  1
  Ga  Ga12  1  0.659405  0.998023  0.919029  1
  Ga  Ga13  1  0.337849  0.001935  0.076511  1
  Ga  Ga14  1  0.333552  0.331665  0.562773  1
  Ga  Ga15  1  0.666419  0.666280  0.440283  1
  Ga  Ga16  1  0.661837  0.661656  0.063140  1
  Ga  Ga17  1  0.337840  0.335801  0.933926  1
  Ga  Ga18  1  0.338874  0.544200  0.250446  1
  Ga  Ga19  1  0.659586  0.453628  0.749558  1
  Ga  Ga20  1  0.543623  0.338239  0.250416  1
  Ga  Ga21  1  0.455670  0.662490  0.749601  1
  Ir  Ir22  1  0.670750  0.328843  0.999153  1
  Ir  Ir23  1  0.328978  0.671116  0.999004  1
  Ir  Ir24  1  0.329308  0.670877  0.500942  1
  Ir  Ir25  1  0.670367  0.329102  0.500859  1
  Ir  Ir26  1  0.000560  0.000359  0.501016  1
  Pd  Pd27  1  0.000188  0.000478  0.998974  1
