# generated using pymatgen
data_Tb16CdIn2AgRh4
_symmetry_space_group_name_H-M   'P 1'
_cell_length_a   9.66890213
_cell_length_b   9.68213361
_cell_length_c   9.68213413
_cell_angle_alpha   59.72494887
_cell_angle_beta   59.77034261
_cell_angle_gamma   59.77034620
_symmetry_Int_Tables_number   1
_chemical_formula_structural   Tb16CdIn2AgRh4
_chemical_formula_sum   'Tb16 Cd1 In2 Ag1 Rh4'
_cell_volume   637.35797112
_cell_formula_units_Z   1
loop_
 _symmetry_equiv_pos_site_id
 _symmetry_equiv_pos_as_xyz
  1  'x, y, z'
loop_
 _atom_site_type_symbol
 _atom_site_label
 _atom_site_symmetry_multiplicity
 _atom_site_fract_x
 _atom_site_fract_y
 _atom_site_fract_z
 _atom_site_occupancy
  Tb  Tb0  1  0.301519  0.899028  0.899028  1
  Tb  Tb1  1  0.685130  0.314512  0.686401  1
  Tb  Tb2  1  0.307927  0.688294  0.316856  1
  Tb  Tb3  1  0.062654  0.438787  0.438787  1
  Tb  Tb4  1  0.686638  0.312931  0.312931  1
  Tb  Tb5  1  0.440231  0.061421  0.439840  1
  Tb  Tb6  1  0.442096  0.058504  0.058504  1
  Tb  Tb7  1  0.899802  0.901130  0.901130  1
  Tb  Tb8  1  0.059733  0.440026  0.060308  1
  Tb  Tb9  1  0.898602  0.300614  0.898997  1
  Tb  Tb10  1  0.308841  0.687712  0.687712  1
  Tb  Tb11  1  0.898602  0.898997  0.300614  1
  Tb  Tb12  1  0.440231  0.439840  0.061421  1
  Tb  Tb13  1  0.307927  0.316856  0.688294  1
  Tb  Tb14  1  0.685130  0.686401  0.314512  1
  Tb  Tb15  1  0.059733  0.060308  0.440026  1
  Cd  Cd16  1  0.671704  0.668190  0.668190  1
  In  In17  1  0.671871  0.993961  0.667348  1
  In  In18  1  0.671871  0.667348  0.993961  1
  Ag  Ag19  1  0.999975  0.666436  0.666436  1
  Rh  Rh20  1  0.107652  0.107013  0.677160  1
  Rh  Rh21  1  0.107652  0.677160  0.107013  1
  Rh  Rh22  1  0.108387  0.106781  0.106781  1
  Rh  Rh23  1  0.676092  0.107753  0.107753  1
