# generated using pymatgen
data_Sc6Co4CuSn6Pt
_symmetry_space_group_name_H-M   'P 1'
_cell_length_a   7.41319600
_cell_length_b   7.41319508
_cell_length_c   6.83208600
_cell_angle_alpha   90.00000000
_cell_angle_beta   90.00000000
_cell_angle_gamma   120.00000409
_symmetry_Int_Tables_number   1
_chemical_formula_structural   Sc6Co4CuSn6Pt
_chemical_formula_sum   'Sc6 Co4 Cu1 Sn6 Pt1'
_cell_volume   325.15830425
_cell_formula_units_Z   1
loop_
 _symmetry_equiv_pos_site_id
 _symmetry_equiv_pos_as_xyz
  1  'x, y, z'
loop_
 _atom_site_type_symbol
 _atom_site_label
 _atom_site_symmetry_multiplicity
 _atom_site_fract_x
 _atom_site_fract_y
 _atom_site_fract_z
 _atom_site_occupancy
  Sc  Sc0  1  0.384876  0.979820  0.252818  1
  Sc  Sc1  1  0.594943  0.615124  0.252818  1
  Sc  Sc2  1  0.020180  0.405057  0.252818  1
  Sc  Sc3  1  0.384639  0.978994  0.747247  1
  Sc  Sc4  1  0.594355  0.615361  0.747247  1
  Sc  Sc5  1  0.021006  0.405645  0.747247  1
  Co  Co6  1  0.000000  0.000000  0.769446  1
  Co  Co7  1  0.000000  0.000000  0.230689  1
  Co  Co8  1  0.333333  0.666667  0.499308  1
  Co  Co9  1  0.333333  0.666667  0.000846  1
  Cu  Cu10  1  0.666667  0.333333  0.998063  1
  Sn  Sn11  1  0.278529  0.274847  0.000240  1
  Sn  Sn12  1  0.996319  0.721471  0.000240  1
  Sn  Sn13  1  0.000017  0.738057  0.499893  1
  Sn  Sn14  1  0.738040  0.999983  0.499893  1
  Sn  Sn15  1  0.261943  0.261960  0.499893  1
  Sn  Sn16  1  0.725153  0.003681  0.000240  1
  Pt  Pt17  1  0.666667  0.333333  0.501050  1
