# generated using pymatgen
data_SmTm3Ru4F28
_symmetry_space_group_name_H-M   'P 1'
_cell_length_a   5.53506202
_cell_length_b   8.84548452
_cell_length_c   11.92588333
_cell_angle_alpha   63.88972566
_cell_angle_beta   90.03431394
_cell_angle_gamma   90.06772123
_symmetry_Int_Tables_number   1
_chemical_formula_structural   SmTm3Ru4F28
_chemical_formula_sum   'Sm1 Tm3 Ru4 F28'
_cell_volume   524.30727245
_cell_formula_units_Z   1
loop_
 _symmetry_equiv_pos_site_id
 _symmetry_equiv_pos_as_xyz
  1  'x, y, z'
loop_
 _atom_site_type_symbol
 _atom_site_label
 _atom_site_symmetry_multiplicity
 _atom_site_fract_x
 _atom_site_fract_y
 _atom_site_fract_z
 _atom_site_occupancy
  Sm  Sm0  1  0.741576  0.812792  0.269150  1
  Tm  Tm1  1  0.757555  0.812723  0.768978  1
  Tm  Tm2  1  0.258618  0.188921  0.730416  1
  Tm  Tm3  1  0.240890  0.197028  0.227889  1
  Ru  Ru4  1  0.756336  0.274680  0.953288  1
  Ru  Ru5  1  0.254722  0.726096  0.549472  1
  Ru  Ru6  1  0.246631  0.727501  0.040143  1
  Ru  Ru7  1  0.745157  0.268588  0.456928  1
  F  F8  1  0.451217  0.703611  0.914512  1
  F  F9  1  0.953681  0.293379  0.581424  1
  F  F10  1  0.548419  0.296291  0.079329  1
  F  F11  1  0.053770  0.703560  0.422022  1
  F  F12  1  0.452654  0.278060  0.549833  1
  F  F13  1  0.949742  0.719716  0.949806  1
  F  F14  1  0.547325  0.715974  0.459258  1
  F  F15  1  0.048326  0.283183  0.046560  1
  F  F16  1  0.768690  0.513936  0.857961  1
  F  F17  1  0.265712  0.485495  0.643651  1
  F  F18  1  0.232714  0.487010  0.137413  1
  F  F19  1  0.729231  0.507729  0.360987  1
  F  F20  1  0.754643  0.036171  0.046420  1
  F  F21  1  0.253864  0.963107  0.457301  1
  F  F22  1  0.247017  0.965955  0.949152  1
  F  F23  1  0.746530  0.030310  0.549682  1
  F  F24  1  0.967022  0.730639  0.645665  1
  F  F25  1  0.472204  0.268086  0.855468  1
  F  F26  1  0.031765  0.269333  0.358252  1
  F  F27  1  0.534579  0.729240  0.135022  1
  F  F28  1  0.050875  0.747986  0.170564  1
  F  F29  1  0.538494  0.245532  0.329212  1
  F  F30  1  0.962351  0.249421  0.826870  1
  F  F31  1  0.457563  0.750229  0.676875  1
  F  F32  1  0.413547  0.979683  0.233435  1
  F  F33  1  0.928932  0.036835  0.267358  1
  F  F34  1  0.568859  0.024551  0.765598  1
  F  F35  1  0.068789  0.976647  0.734104  1
