# generated using pymatgen
data_Pa2GaCo2
_symmetry_space_group_name_H-M   'P 1'
_cell_length_a   7.18253186
_cell_length_b   7.18253257
_cell_length_c   3.49450300
_cell_angle_alpha   90.00000000
_cell_angle_beta   90.00000000
_cell_angle_gamma   90.02405100
_symmetry_Int_Tables_number   1
_chemical_formula_structural   Pa2GaCo2
_chemical_formula_sum   'Pa4 Ga2 Co4'
_cell_volume   180.27709237
_cell_formula_units_Z   2
loop_
 _symmetry_equiv_pos_site_id
 _symmetry_equiv_pos_as_xyz
  1  'x, y, z'
loop_
 _atom_site_type_symbol
 _atom_site_label
 _atom_site_symmetry_multiplicity
 _atom_site_fract_x
 _atom_site_fract_y
 _atom_site_fract_z
 _atom_site_occupancy
  Pa  Pa0  1  0.324642  0.824642  0.500000  1
  Pa  Pa1  1  0.175187  0.324285  0.500000  1
  Pa  Pa2  1  0.824285  0.675187  0.500000  1
  Pa  Pa3  1  0.675595  0.175595  0.500000  1
  Ga  Ga4  1  0.999827  0.999589  0.000000  1
  Ga  Ga5  1  0.499589  0.499827  0.000000  1
  Co  Co6  1  0.133988  0.633988  0.000000  1
  Co  Co7  1  0.866950  0.366950  0.000000  1
  Co  Co8  1  0.633430  0.866507  0.000000  1
  Co  Co9  1  0.366507  0.133430  0.000000  1
