# generated using pymatgen
data_YbSm3Y4(B6Ru)4
_symmetry_space_group_name_H-M   'P 1'
_cell_length_a   3.68931000
_cell_length_b   9.19386828
_cell_length_c   11.59589607
_cell_angle_alpha   89.92055605
_cell_angle_beta   90.00000000
_cell_angle_gamma   90.00000000
_symmetry_Int_Tables_number   1
_chemical_formula_structural   YbSm3Y4(B6Ru)4
_chemical_formula_sum   'Yb1 Sm3 Y4 B24 Ru4'
_cell_volume   393.32117077
_cell_formula_units_Z   1
loop_
 _symmetry_equiv_pos_site_id
 _symmetry_equiv_pos_as_xyz
  1  'x, y, z'
loop_
 _atom_site_type_symbol
 _atom_site_label
 _atom_site_symmetry_multiplicity
 _atom_site_fract_x
 _atom_site_fract_y
 _atom_site_fract_z
 _atom_site_occupancy
  Yb  Yb0  1  0.000000  0.323796  0.413771  1
  Sm  Sm1  1  0.000000  0.675162  0.584896  1
  Sm  Sm2  1  0.000000  0.823189  0.086764  1
  Sm  Sm3  1  0.000000  0.177152  0.914285  1
  Y  Y4  1  0.000000  0.944368  0.371328  1
  Y  Y5  1  0.000000  0.058387  0.627498  1
  Y  Y6  1  0.000000  0.442814  0.130182  1
  Y  Y7  1  0.000000  0.555905  0.871685  1
  B  B8  1  0.500000  0.553482  0.431429  1
  B  B9  1  0.500000  0.444387  0.567439  1
  B  B10  1  0.500000  0.054770  0.068563  1
  B  B11  1  0.500000  0.944912  0.931092  1
  B  B12  1  0.500000  0.747784  0.418029  1
  B  B13  1  0.500000  0.252540  0.580360  1
  B  B14  1  0.500000  0.247933  0.082276  1
  B  B15  1  0.500000  0.751455  0.918418  1
  B  B16  1  0.500000  0.790127  0.266945  1
  B  B17  1  0.500000  0.210816  0.732704  1
  B  B18  1  0.500000  0.289930  0.234575  1
  B  B19  1  0.500000  0.710151  0.766543  1
  B  B20  1  0.500000  0.630917  0.186809  1
  B  B21  1  0.500000  0.368741  0.814313  1
  B  B22  1  0.500000  0.132134  0.314646  1
  B  B23  1  0.500000  0.869090  0.685295  1
  B  B24  1  0.500000  0.985435  0.212924  1
  B  B25  1  0.500000  0.015295  0.786480  1
  B  B26  1  0.500000  0.483567  0.288212  1
  B  B27  1  0.500000  0.514575  0.712543  1
  B  B28  1  0.500000  0.605367  0.029531  1
  B  B29  1  0.500000  0.394358  0.971351  1
  B  B30  1  0.500000  0.105509  0.470723  1
  B  B31  1  0.500000  0.895844  0.528707  1
  Ru  Ru32  1  0.000000  0.638936  0.320518  1
  Ru  Ru33  1  0.000000  0.361484  0.679770  1
  Ru  Ru34  1  0.000000  0.138103  0.179200  1
  Ru  Ru35  1  0.000000  0.861582  0.820198  1
