# generated using pymatgen
data_Ho4LuInGa2
_symmetry_space_group_name_H-M   'P 1'
_cell_length_a   7.67536200
_cell_length_b   7.67536200
_cell_length_c   14.27909800
_cell_angle_alpha   90.00000000
_cell_angle_beta   90.00000000
_cell_angle_gamma   90.00000000
_symmetry_Int_Tables_number   1
_chemical_formula_structural   Ho4LuInGa2
_chemical_formula_sum   'Ho16 Lu4 In4 Ga8'
_cell_volume   841.19853866
_cell_formula_units_Z   4
loop_
 _symmetry_equiv_pos_site_id
 _symmetry_equiv_pos_as_xyz
  1  'x, y, z'
loop_
 _atom_site_type_symbol
 _atom_site_label
 _atom_site_symmetry_multiplicity
 _atom_site_fract_x
 _atom_site_fract_y
 _atom_site_fract_z
 _atom_site_occupancy
  Ho  Ho0  1  0.673207  0.661264  0.606531  1
  Ho  Ho1  1  0.673207  0.338736  0.106531  1
  Ho  Ho2  1  0.826793  0.838736  0.393469  1
  Ho  Ho3  1  0.173207  0.838736  0.893469  1
  Ho  Ho4  1  0.326793  0.338736  0.606531  1
  Ho  Ho5  1  0.326793  0.661264  0.106531  1
  Ho  Ho6  1  0.173207  0.161264  0.393469  1
  Ho  Ho7  1  0.826793  0.161264  0.893469  1
  Ho  Ho8  1  0.661264  0.326793  0.393469  1
  Ho  Ho9  1  0.338736  0.326793  0.893469  1
  Ho  Ho10  1  0.161264  0.826793  0.606531  1
  Ho  Ho11  1  0.838736  0.826793  0.106531  1
  Ho  Ho12  1  0.338736  0.673207  0.393469  1
  Ho  Ho13  1  0.661264  0.673207  0.893469  1
  Ho  Ho14  1  0.838736  0.173207  0.606531  1
  Ho  Ho15  1  0.161264  0.173207  0.106531  1
  Lu  Lu16  1  0.000000  0.500000  0.759039  1
  Lu  Lu17  1  0.000000  0.500000  0.259039  1
  Lu  Lu18  1  0.500000  0.000000  0.240961  1
  Lu  Lu19  1  0.500000  0.000000  0.740961  1
  In  In20  1  0.000000  0.500000  0.495640  1
  In  In21  1  0.000000  0.500000  0.995640  1
  In  In22  1  0.500000  0.000000  0.504360  1
  In  In23  1  0.500000  0.000000  0.004360  1
  Ga  Ga24  1  0.874669  0.874669  0.750000  1
  Ga  Ga25  1  0.874669  0.125331  0.250000  1
  Ga  Ga26  1  0.625331  0.625331  0.250000  1
  Ga  Ga27  1  0.374669  0.625331  0.750000  1
  Ga  Ga28  1  0.125331  0.125331  0.750000  1
  Ga  Ga29  1  0.125331  0.874669  0.250000  1
  Ga  Ga30  1  0.374669  0.374669  0.250000  1
  Ga  Ga31  1  0.625331  0.374669  0.750000  1
