# generated using pymatgen
data_SrTiVO5
_symmetry_space_group_name_H-M   'P 1'
_cell_length_a   3.72858600
_cell_length_b   5.25141168
_cell_length_c   11.59083008
_cell_angle_alpha   90.34747250
_cell_angle_beta   90.00000000
_cell_angle_gamma   89.99997818
_symmetry_Int_Tables_number   1
_chemical_formula_structural   SrTiVO5
_chemical_formula_sum   'Sr2 Ti2 V2 O10'
_cell_volume   226.94822124
_cell_formula_units_Z   2
loop_
 _symmetry_equiv_pos_site_id
 _symmetry_equiv_pos_as_xyz
  1  'x, y, z'
loop_
 _atom_site_type_symbol
 _atom_site_label
 _atom_site_symmetry_multiplicity
 _atom_site_fract_x
 _atom_site_fract_y
 _atom_site_fract_z
 _atom_site_occupancy
  Sr  Sr0  1  0.749999  0.873529  0.252446  1
  Sr  Sr1  1  0.250000  0.126478  0.747552  1
  Ti  Ti2  1  0.749999  0.596246  0.599676  1
  Ti  Ti3  1  0.250000  0.403780  0.400314  1
  V  V4  1  0.250000  0.395489  0.094443  1
  V  V5  1  0.749999  0.604464  0.905588  1
  O  O6  1  0.749999  0.455982  0.751083  1
  O  O7  1  0.250000  0.544022  0.248911  1
  O  O8  1  0.750000  0.524798  0.073623  1
  O  O9  1  0.250000  0.475185  0.926381  1
  O  O10  1  0.749999  0.524807  0.425315  1
  O  O11  1  0.250000  0.475222  0.574678  1
  O  O12  1  0.249999  0.079652  0.374211  1
  O  O13  1  0.750000  0.920367  0.625785  1
  O  O14  1  0.750000  0.920774  0.881883  1
  O  O15  1  0.249999  0.079204  0.118112  1
