# generated using pymatgen
data_Tb5CrOsO12
_symmetry_space_group_name_H-M   'P 1'
_cell_length_a   6.88959180
_cell_length_b   6.88959115
_cell_length_c   7.31944945
_cell_angle_alpha   74.49276636
_cell_angle_beta   74.49277936
_cell_angle_gamma   50.79559043
_symmetry_Int_Tables_number   1
_chemical_formula_structural   Tb5CrOsO12
_chemical_formula_sum   'Tb5 Cr1 Os1 O12'
_cell_volume   257.15948240
_cell_formula_units_Z   1
loop_
 _symmetry_equiv_pos_site_id
 _symmetry_equiv_pos_as_xyz
  1  'x, y, z'
loop_
 _atom_site_type_symbol
 _atom_site_label
 _atom_site_symmetry_multiplicity
 _atom_site_fract_x
 _atom_site_fract_y
 _atom_site_fract_z
 _atom_site_occupancy
  Tb  Tb0  1  0.288784  0.313960  0.359792  1
  Tb  Tb1  1  0.686040  0.711216  0.640208  1
  Tb  Tb2  1  0.306973  0.307112  0.832116  1
  Tb  Tb3  1  0.692888  0.693027  0.167884  1
  Tb  Tb4  1  0.993983  0.006017  0.500000  1
  Cr  Cr5  1  0.254261  0.745739  0.000000  1
  Os  Os6  1  0.762387  0.237613  0.000000  1
  O  O7  1  0.901219  0.419167  0.916755  1
  O  O8  1  0.434320  0.900991  0.916757  1
  O  O9  1  0.099009  0.565680  0.083243  1
  O  O10  1  0.580833  0.098781  0.083245  1
  O  O11  1  0.090060  0.600954  0.577326  1
  O  O12  1  0.595692  0.103042  0.570361  1
  O  O13  1  0.896958  0.404308  0.429639  1
  O  O14  1  0.399046  0.909940  0.422674  1
  O  O15  1  0.996369  0.002770  0.819340  1
  O  O16  1  0.997230  0.003631  0.180660  1
  O  O17  1  0.511336  0.487390  0.816572  1
  O  O18  1  0.512610  0.488664  0.183428  1
