# generated using pymatgen
data_Tb2Ta3P7(IrRh2)3
_symmetry_space_group_name_H-M   'P 1'
_cell_length_a   3.95152000
_cell_length_b   9.64772626
_cell_length_c   9.64771900
_cell_angle_alpha   120.00305280
_cell_angle_beta   90.00077063
_cell_angle_gamma   90.00065615
_symmetry_Int_Tables_number   1
_chemical_formula_structural   Tb2Ta3P7(IrRh2)3
_chemical_formula_sum   'Tb2 Ta3 P7 Ir3 Rh6'
_cell_volume   318.51586850
_cell_formula_units_Z   1
loop_
 _symmetry_equiv_pos_site_id
 _symmetry_equiv_pos_as_xyz
  1  'x, y, z'
loop_
 _atom_site_type_symbol
 _atom_site_label
 _atom_site_symmetry_multiplicity
 _atom_site_fract_x
 _atom_site_fract_y
 _atom_site_fract_z
 _atom_site_occupancy
  Tb  Tb0  1  0.261414  0.666674  0.333347  1
  Tb  Tb1  1  0.762142  0.333345  0.666668  1
  Ta  Ta2  1  0.761962  0.094894  0.871906  1
  Ta  Ta3  1  0.761959  0.128084  0.222986  1
  Ta  Ta4  1  0.761972  0.776995  0.905085  1
  P  P5  1  0.262097  0.999990  0.999996  1
  P  P6  1  0.761724  0.876791  0.588731  1
  P  P7  1  0.761694  0.411271  0.288022  1
  P  P8  1  0.761714  0.711968  0.123250  1
  P  P9  1  0.262016  0.117935  0.416721  1
  P  P10  1  0.262018  0.583282  0.701233  1
  P  P11  1  0.262003  0.298774  0.882066  1
  Ir  Ir12  1  0.261869  0.886587  0.160504  1
  Ir  Ir13  1  0.261863  0.839502  0.726100  1
  Ir  Ir14  1  0.261852  0.273901  0.113409  1
  Rh  Rh15  1  0.761897  0.611406  0.556716  1
  Rh  Rh16  1  0.761878  0.443257  0.054669  1
  Rh  Rh17  1  0.761897  0.945356  0.388590  1
  Rh  Rh18  1  0.261994  0.367472  0.438983  1
  Rh  Rh19  1  0.262017  0.561011  0.928495  1
  Rh  Rh20  1  0.262019  0.071507  0.632521  1
