# generated using pymatgen
data_Gd3Si2ClO8
_symmetry_space_group_name_H-M   'P 1'
_cell_length_a   7.01565500
_cell_length_b   17.96631600
_cell_length_c   6.26064500
_cell_angle_alpha   90.00000000
_cell_angle_beta   90.00000000
_cell_angle_gamma   90.00000000
_symmetry_Int_Tables_number   1
_chemical_formula_structural   Gd3Si2ClO8
_chemical_formula_sum   'Gd12 Si8 Cl4 O32'
_cell_volume   789.12597081
_cell_formula_units_Z   4
loop_
 _symmetry_equiv_pos_site_id
 _symmetry_equiv_pos_as_xyz
  1  'x, y, z'
loop_
 _atom_site_type_symbol
 _atom_site_label
 _atom_site_symmetry_multiplicity
 _atom_site_fract_x
 _atom_site_fract_y
 _atom_site_fract_z
 _atom_site_occupancy
  Gd  Gd0  1  0.195535  0.250000  0.115296  1
  Gd  Gd1  1  0.522790  0.591021  0.126787  1
  Gd  Gd2  1  0.522790  0.908979  0.126787  1
  Gd  Gd3  1  0.022790  0.591021  0.373213  1
  Gd  Gd4  1  0.022790  0.908979  0.373213  1
  Gd  Gd5  1  0.695536  0.250000  0.384704  1
  Gd  Gd6  1  0.304465  0.750000  0.615297  1
  Gd  Gd7  1  0.977211  0.091021  0.626786  1
  Gd  Gd8  1  0.977211  0.408979  0.626786  1
  Gd  Gd9  1  0.477210  0.091021  0.873214  1
  Gd  Gd10  1  0.477210  0.408979  0.873214  1
  Gd  Gd11  1  0.804465  0.750000  0.884703  1
  Si  Si12  1  0.967599  0.099839  0.121353  1
  Si  Si13  1  0.967599  0.400161  0.121353  1
  Si  Si14  1  0.467599  0.099839  0.378646  1
  Si  Si15  1  0.467599  0.400161  0.378646  1
  Si  Si16  1  0.532402  0.599840  0.621353  1
  Si  Si17  1  0.532402  0.900160  0.621353  1
  Si  Si18  1  0.032402  0.599840  0.878648  1
  Si  Si19  1  0.032402  0.900160  0.878648  1
  Cl  Cl20  1  0.556548  0.750000  0.240721  1
  Cl  Cl21  1  0.056548  0.750000  0.259280  1
  Cl  Cl22  1  0.943453  0.250000  0.740721  1
  Cl  Cl23  1  0.443453  0.250000  0.759280  1
  O  O24  1  0.844254  0.618675  0.030403  1
  O  O25  1  0.844254  0.881325  0.030403  1
  O  O26  1  0.204952  0.594941  0.051931  1
  O  O27  1  0.204952  0.905059  0.051931  1
  O  O28  1  0.482500  0.030259  0.212847  1
  O  O29  1  0.482500  0.469740  0.212847  1
  O  O30  1  0.456038  0.175283  0.222834  1
  O  O31  1  0.456038  0.324717  0.222834  1
  O  O32  1  0.956038  0.175283  0.277167  1
  O  O33  1  0.956038  0.324717  0.277167  1
  O  O34  1  0.982499  0.030259  0.287155  1
  O  O35  1  0.982499  0.469740  0.287155  1
  O  O36  1  0.704951  0.594941  0.448070  1
  O  O37  1  0.704951  0.905059  0.448070  1
  O  O38  1  0.344253  0.618675  0.469597  1
  O  O39  1  0.344253  0.881325  0.469597  1
  O  O40  1  0.655746  0.118674  0.530404  1
  O  O41  1  0.655746  0.381326  0.530404  1
  O  O42  1  0.295049  0.094941  0.551930  1
  O  O43  1  0.295049  0.405058  0.551930  1
  O  O44  1  0.017501  0.530259  0.712846  1
  O  O45  1  0.017501  0.969740  0.712846  1
  O  O46  1  0.043962  0.675283  0.722834  1
  O  O47  1  0.043962  0.824718  0.722834  1
  O  O48  1  0.543963  0.675283  0.777167  1
  O  O49  1  0.543963  0.824718  0.777167  1
  O  O50  1  0.517501  0.530259  0.787154  1
  O  O51  1  0.517501  0.969740  0.787154  1
  O  O52  1  0.795049  0.094941  0.948070  1
  O  O53  1  0.795049  0.405058  0.948070  1
  O  O54  1  0.155746  0.118674  0.969597  1
  O  O55  1  0.155746  0.381326  0.969597  1
