# generated using pymatgen
data_Ce9Pa(Al2Tc3)2
_symmetry_space_group_name_H-M   'P 1'
_cell_length_a   8.43901172
_cell_length_b   8.43901280
_cell_length_c   8.43901291
_cell_angle_alpha   109.97830910
_cell_angle_beta   109.97831190
_cell_angle_gamma   109.97831270
_symmetry_Int_Tables_number   1
_chemical_formula_structural   Ce9Pa(Al2Tc3)2
_chemical_formula_sum   'Ce9 Pa1 Al4 Tc6'
_cell_volume   453.75670876
_cell_formula_units_Z   1
loop_
 _symmetry_equiv_pos_site_id
 _symmetry_equiv_pos_as_xyz
  1  'x, y, z'
loop_
 _atom_site_type_symbol
 _atom_site_label
 _atom_site_symmetry_multiplicity
 _atom_site_fract_x
 _atom_site_fract_y
 _atom_site_fract_z
 _atom_site_occupancy
  Ce  Ce0  1  0.310896  0.556806  0.753086  1
  Ce  Ce1  1  0.753086  0.310896  0.556806  1
  Ce  Ce2  1  0.556806  0.753086  0.310896  1
  Ce  Ce3  1  0.713380  0.496553  0.994366  1
  Ce  Ce4  1  0.994366  0.713380  0.496553  1
  Ce  Ce5  1  0.496553  0.994366  0.713380  1
  Ce  Ce6  1  0.256952  0.202812  0.949548  1
  Ce  Ce7  1  0.949548  0.256952  0.202812  1
  Ce  Ce8  1  0.202812  0.949548  0.256952  1
  Pa  Pa9  1  0.803987  0.803987  0.803987  1
  Al  Al10  1  0.419060  0.419060  0.419060  1
  Al  Al11  1  0.087135  0.492140  0.998777  1
  Al  Al12  1  0.998777  0.087135  0.492140  1
  Al  Al13  1  0.492140  0.998777  0.087135  1
  Tc  Tc14  1  0.880436  0.097989  0.746598  1
  Tc  Tc15  1  0.746598  0.880436  0.097989  1
  Tc  Tc16  1  0.097989  0.746598  0.880436  1
  Tc  Tc17  1  0.242410  0.619684  0.377384  1
  Tc  Tc18  1  0.377384  0.242410  0.619684  1
  Tc  Tc19  1  0.619684  0.377384  0.242410  1
