# generated using pymatgen
data_Tb2WCl12
_symmetry_space_group_name_H-M   'P 1'
_cell_length_a   7.02620711
_cell_length_b   7.02533052
_cell_length_c   12.54974215
_cell_angle_alpha   89.99526317
_cell_angle_beta   89.99630393
_cell_angle_gamma   119.99421288
_symmetry_Int_Tables_number   1
_chemical_formula_structural   Tb2WCl12
_chemical_formula_sum   'Tb2 W1 Cl12'
_cell_volume   536.51079038
_cell_formula_units_Z   1
loop_
 _symmetry_equiv_pos_site_id
 _symmetry_equiv_pos_as_xyz
  1  'x, y, z'
loop_
 _atom_site_type_symbol
 _atom_site_label
 _atom_site_symmetry_multiplicity
 _atom_site_fract_x
 _atom_site_fract_y
 _atom_site_fract_z
 _atom_site_occupancy
  Tb  Tb0  1  0.666660  0.333325  0.999984  1
  Tb  Tb1  1  0.333337  0.666673  0.000012  1
  W  W2  1  0.999995  0.999997  0.500000  1
  Cl  Cl3  1  0.628439  0.000026  0.118759  1
  Cl  Cl4  1  0.371514  0.371544  0.118764  1
  Cl  Cl5  1  0.999937  0.628465  0.118738  1
  Cl  Cl6  1  0.267789  0.267812  0.606551  1
  Cl  Cl7  1  0.999980  0.732161  0.606491  1
  Cl  Cl8  1  0.732124  0.999993  0.606547  1
  Cl  Cl9  1  0.000024  0.267845  0.393508  1
  Cl  Cl10  1  0.267879  0.000007  0.393449  1
  Cl  Cl11  1  0.732220  0.732195  0.393448  1
  Cl  Cl12  1  0.371560  0.999972  0.881245  1
  Cl  Cl13  1  0.628479  0.628450  0.881240  1
  Cl  Cl14  1  0.000061  0.371536  0.881266  1
