# generated using pymatgen
data_Tb3YRe2(B8Mo)2
_symmetry_space_group_name_H-M   'P 1'
_cell_length_a   3.62744300
_cell_length_b   6.01335695
_cell_length_c   11.63324231
_cell_angle_alpha   89.94059690
_cell_angle_beta   90.00000000
_cell_angle_gamma   90.00000000
_symmetry_Int_Tables_number   1
_chemical_formula_structural   Tb3YRe2(B8Mo)2
_chemical_formula_sum   'Tb3 Y1 Re2 B16 Mo2'
_cell_volume   253.75705288
_cell_formula_units_Z   1
loop_
 _symmetry_equiv_pos_site_id
 _symmetry_equiv_pos_as_xyz
  1  'x, y, z'
loop_
 _atom_site_type_symbol
 _atom_site_label
 _atom_site_symmetry_multiplicity
 _atom_site_fract_x
 _atom_site_fract_y
 _atom_site_fract_z
 _atom_site_occupancy
  Tb  Tb0  1  0.000000  0.127318  0.149478  1
  Tb  Tb1  1  0.000000  0.872662  0.850528  1
  Tb  Tb2  1  0.000000  0.626557  0.349200  1
  Y  Y3  1  0.000000  0.373472  0.650702  1
  Re  Re4  1  0.000000  0.633867  0.086572  1
  Re  Re5  1  0.000000  0.366094  0.913389  1
  B  B6  1  0.500000  0.477273  0.191089  1
  B  B7  1  0.500000  0.522759  0.808849  1
  B  B8  1  0.500000  0.975882  0.306065  1
  B  B9  1  0.500000  0.024117  0.694008  1
  B  B10  1  0.500000  0.288464  0.313646  1
  B  B11  1  0.500000  0.711437  0.686417  1
  B  B12  1  0.500000  0.784846  0.184073  1
  B  B13  1  0.500000  0.215057  0.815924  1
  B  B14  1  0.500000  0.366700  0.467655  1
  B  B15  1  0.500000  0.633270  0.532328  1
  B  B16  1  0.500000  0.862675  0.031015  1
  B  B17  1  0.500000  0.137340  0.968979  1
  B  B18  1  0.500000  0.386959  0.047062  1
  B  B19  1  0.500000  0.613034  0.952925  1
  B  B20  1  0.500000  0.885462  0.452645  1
  B  B21  1  0.500000  0.114680  0.547437  1
  Mo  Mo22  1  0.000000  0.128882  0.415407  1
  Mo  Mo23  1  0.000000  0.871193  0.584606  1
