# generated using pymatgen
data_Re5MoPt2
_symmetry_space_group_name_H-M   'P 1'
_cell_length_a   5.62182800
_cell_length_b   5.61395396
_cell_length_c   4.44475600
_cell_angle_alpha   90.00000000
_cell_angle_beta   90.00000000
_cell_angle_gamma   120.04641974
_symmetry_Int_Tables_number   1
_chemical_formula_structural   Re5MoPt2
_chemical_formula_sum   'Re5 Mo1 Pt2'
_cell_volume   121.42877769
_cell_formula_units_Z   1
loop_
 _symmetry_equiv_pos_site_id
 _symmetry_equiv_pos_as_xyz
  1  'x, y, z'
loop_
 _atom_site_type_symbol
 _atom_site_label
 _atom_site_symmetry_multiplicity
 _atom_site_fract_x
 _atom_site_fract_y
 _atom_site_fract_z
 _atom_site_occupancy
  Re  Re0  1  0.682593  0.841401  0.250000  1
  Re  Re1  1  0.158806  0.841401  0.250000  1
  Re  Re2  1  0.841483  0.682965  0.750000  1
  Re  Re3  1  0.316596  0.155806  0.750000  1
  Re  Re4  1  0.839211  0.155806  0.750000  1
  Mo  Mo5  1  0.159741  0.319484  0.250000  1
  Pt  Pt6  1  0.334610  0.669221  0.750000  1
  Pt  Pt7  1  0.666959  0.333916  0.250000  1
