# generated using pymatgen
data_Cs4Li2HoInSb4
_symmetry_space_group_name_H-M   'P 1'
_cell_length_a   11.52902648
_cell_length_b   11.52902539
_cell_length_c   7.22305800
_cell_angle_alpha   90.00000000
_cell_angle_beta   90.00000000
_cell_angle_gamma   103.20073850
_symmetry_Int_Tables_number   1
_chemical_formula_structural   Cs4Li2HoInSb4
_chemical_formula_sum   'Cs8 Li4 Ho2 In2 Sb8'
_cell_volume   934.70846531
_cell_formula_units_Z   2
loop_
 _symmetry_equiv_pos_site_id
 _symmetry_equiv_pos_as_xyz
  1  'x, y, z'
loop_
 _atom_site_type_symbol
 _atom_site_label
 _atom_site_symmetry_multiplicity
 _atom_site_fract_x
 _atom_site_fract_y
 _atom_site_fract_z
 _atom_site_occupancy
  Cs  Cs0  1  0.572463  0.927537  0.750000  1
  Cs  Cs1  1  0.927537  0.572463  0.250000  1
  Cs  Cs2  1  0.423347  0.076653  0.250000  1
  Cs  Cs3  1  0.076653  0.423347  0.750000  1
  Cs  Cs4  1  0.670366  0.323323  0.775489  1
  Cs  Cs5  1  0.829634  0.176677  0.275489  1
  Cs  Cs6  1  0.323323  0.670366  0.224511  1
  Cs  Cs7  1  0.176677  0.829634  0.724511  1
  Li  Li8  1  0.619177  0.619177  0.000000  1
  Li  Li9  1  0.880823  0.880823  0.500000  1
  Li  Li10  1  0.377935  0.377935  0.000000  1
  Li  Li11  1  0.122065  0.122065  0.500000  1
  Ho  Ho12  1  0.873835  0.873835  0.000000  1
  Ho  Ho13  1  0.626165  0.626165  0.500000  1
  In  In14  1  0.130821  0.130821  0.000000  1
  In  In15  1  0.369179  0.369179  0.500000  1
  Sb  Sb16  1  0.340526  0.159474  0.750000  1
  Sb  Sb17  1  0.159474  0.340526  0.250000  1
  Sb  Sb18  1  0.659534  0.840466  0.250000  1
  Sb  Sb19  1  0.840466  0.659534  0.750000  1
  Sb  Sb20  1  0.913628  0.093875  0.764331  1
  Sb  Sb21  1  0.586372  0.406125  0.264331  1
  Sb  Sb22  1  0.093875  0.913628  0.235669  1
  Sb  Sb23  1  0.406125  0.586372  0.735669  1
