# generated using pymatgen
data_YEr2P4Rh7
_symmetry_space_group_name_H-M   'P 1'
_cell_length_a   7.72741960
_cell_length_b   7.72741944
_cell_length_c   9.17237208
_cell_angle_alpha   56.76708933
_cell_angle_beta   56.76708920
_cell_angle_gamma   29.44342524
_symmetry_Int_Tables_number   1
_chemical_formula_structural   YEr2P4Rh7
_chemical_formula_sum   'Y1 Er2 P4 Rh7'
_cell_volume   221.83880732
_cell_formula_units_Z   1
loop_
 _symmetry_equiv_pos_site_id
 _symmetry_equiv_pos_as_xyz
  1  'x, y, z'
loop_
 _atom_site_type_symbol
 _atom_site_label
 _atom_site_symmetry_multiplicity
 _atom_site_fract_x
 _atom_site_fract_y
 _atom_site_fract_z
 _atom_site_occupancy
  Y  Y0  1  0.500000  0.500000  0.500000  1
  Er  Er1  1  0.828908  0.828908  0.168233  1
  Er  Er2  1  0.171092  0.171092  0.831767  1
  P  P3  1  0.391136  0.391136  0.324429  1
  P  P4  1  0.608864  0.608864  0.675571  1
  P  P5  1  0.832328  0.832328  0.774466  1
  P  P6  1  0.167672  0.167672  0.225534  1
  Rh  Rh7  1  0.668770  0.668770  0.077947  1
  Rh  Rh8  1  0.007084  0.007084  0.229468  1
  Rh  Rh9  1  0.992916  0.992916  0.770532  1
  Rh  Rh10  1  0.500000  0.500000  0.000000  1
  Rh  Rh11  1  0.198016  0.198016  0.453745  1
  Rh  Rh12  1  0.801984  0.801984  0.546255  1
  Rh  Rh13  1  0.331230  0.331230  0.922053  1
