# generated using pymatgen
data_KTbY2F10
_symmetry_space_group_name_H-M   'P 1'
_cell_length_a   8.29325791
_cell_length_b   8.29289642
_cell_length_c   8.29289601
_cell_angle_alpha   60.00342270
_cell_angle_beta   59.99855567
_cell_angle_gamma   59.99855356
_symmetry_Int_Tables_number   1
_chemical_formula_structural   KTbY2F10
_chemical_formula_sum   'K2 Tb2 Y4 F20'
_cell_volume   403.29643017
_cell_formula_units_Z   2
loop_
 _symmetry_equiv_pos_site_id
 _symmetry_equiv_pos_as_xyz
  1  'x, y, z'
loop_
 _atom_site_type_symbol
 _atom_site_label
 _atom_site_symmetry_multiplicity
 _atom_site_fract_x
 _atom_site_fract_y
 _atom_site_fract_z
 _atom_site_occupancy
  K  K0  1  0.749999  0.750009  0.749992  1
  K  K1  1  0.250001  0.250008  0.249991  1
  Tb  Tb2  1  0.759813  0.759730  0.240270  1
  Tb  Tb3  1  0.240187  0.759730  0.240270  1
  Y  Y4  1  0.759382  0.240564  0.240673  1
  Y  Y5  1  0.240685  0.240637  0.759363  1
  Y  Y6  1  0.759315  0.240637  0.759363  1
  Y  Y7  1  0.240618  0.759327  0.759436  1
  F  F8  1  0.888089  0.888636  0.335186  1
  F  F9  1  0.888343  0.334986  0.888327  1
  F  F10  1  0.335084  0.888497  0.887937  1
  F  F11  1  0.888482  0.888497  0.887937  1
  F  F12  1  0.111657  0.111673  0.665014  1
  F  F13  1  0.111911  0.664814  0.111364  1
  F  F14  1  0.664916  0.112063  0.111503  1
  F  F15  1  0.111518  0.112063  0.111503  1
  F  F16  1  0.500024  0.499998  0.830119  1
  F  F17  1  0.169859  0.499998  0.830119  1
  F  F18  1  0.500000  0.169839  0.830161  1
  F  F19  1  0.169828  0.830193  0.500518  1
  F  F20  1  0.499460  0.830193  0.500518  1
  F  F21  1  0.500000  0.830270  0.169730  1
  F  F22  1  0.830141  0.169881  0.500002  1
  F  F23  1  0.830172  0.499482  0.169807  1
  F  F24  1  0.830214  0.499457  0.500543  1
  F  F25  1  0.500540  0.499482  0.169807  1
  F  F26  1  0.499976  0.169881  0.500002  1
  F  F27  1  0.169786  0.499457  0.500543  1
