# generated using pymatgen
data_La2DyNi13B2
_symmetry_space_group_name_H-M   'P 1'
_cell_length_a   4.98702178
_cell_length_b   5.00141350
_cell_length_c   10.94227561
_cell_angle_alpha   90.00047487
_cell_angle_beta   89.99904752
_cell_angle_gamma   119.90485102
_symmetry_Int_Tables_number   1
_chemical_formula_structural   La2DyNi13B2
_chemical_formula_sum   'La2 Dy1 Ni13 B2'
_cell_volume   236.58538040
_cell_formula_units_Z   1
loop_
 _symmetry_equiv_pos_site_id
 _symmetry_equiv_pos_as_xyz
  1  'x, y, z'
loop_
 _atom_site_type_symbol
 _atom_site_label
 _atom_site_symmetry_multiplicity
 _atom_site_fract_x
 _atom_site_fract_y
 _atom_site_fract_z
 _atom_site_occupancy
  La  La0  1  0.999973  0.000000  0.326391  1
  La  La1  1  0.000012  0.000000  0.673351  1
  Dy  Dy2  1  0.999999  0.000000  0.000116  1
  Ni  Ni3  1  0.500044  0.000000  0.499916  1
  Ni  Ni4  1  0.499931  0.499952  0.499931  1
  Ni  Ni5  1  0.999980  0.500048  0.499931  1
  Ni  Ni6  1  0.333161  0.666377  0.317924  1
  Ni  Ni7  1  0.666784  0.333623  0.317924  1
  Ni  Ni8  1  0.666769  0.333508  0.682039  1
  Ni  Ni9  1  0.333261  0.666492  0.682039  1
  Ni  Ni10  1  0.500111  0.000000  0.130631  1
  Ni  Ni11  1  0.500073  0.499996  0.130264  1
  Ni  Ni12  1  0.000077  0.500004  0.130264  1
  Ni  Ni13  1  0.499906  0.000000  0.869490  1
  Ni  Ni14  1  0.499911  0.499987  0.869825  1
  Ni  Ni15  1  0.999923  0.500013  0.869825  1
  B  B16  1  0.333599  0.667213  0.000068  1
  B  B17  1  0.666386  0.332787  0.000068  1
