# generated using pymatgen
data_La2FeB10
_symmetry_space_group_name_H-M   'P 1'
_cell_length_a   4.22485200
_cell_length_b   5.69090600
_cell_length_c   11.32324800
_cell_angle_alpha   90.00000000
_cell_angle_beta   90.00000000
_cell_angle_gamma   90.00000000
_symmetry_Int_Tables_number   1
_chemical_formula_structural   La2FeB10
_chemical_formula_sum   'La4 Fe2 B20'
_cell_volume   272.24751937
_cell_formula_units_Z   2
loop_
 _symmetry_equiv_pos_site_id
 _symmetry_equiv_pos_as_xyz
  1  'x, y, z'
loop_
 _atom_site_type_symbol
 _atom_site_label
 _atom_site_symmetry_multiplicity
 _atom_site_fract_x
 _atom_site_fract_y
 _atom_site_fract_z
 _atom_site_occupancy
  La  La0  1  0.500000  0.208722  0.367915  1
  La  La1  1  0.500000  0.791278  0.632085  1
  La  La2  1  0.500000  0.291278  0.867915  1
  La  La3  1  0.500000  0.708722  0.132085  1
  Fe  Fe4  1  0.000000  0.000000  0.000000  1
  Fe  Fe5  1  0.000000  0.500000  0.500000  1
  B  B6  1  0.000000  0.371852  0.040460  1
  B  B7  1  0.000000  0.628148  0.959540  1
  B  B8  1  0.000000  0.128148  0.540460  1
  B  B9  1  0.000000  0.871852  0.459540  1
  B  B10  1  0.000000  0.347073  0.197225  1
  B  B11  1  0.000000  0.652927  0.802775  1
  B  B12  1  0.000000  0.152927  0.697225  1
  B  B13  1  0.000000  0.847073  0.302775  1
  B  B14  1  0.000000  0.037979  0.186785  1
  B  B15  1  0.000000  0.962021  0.813215  1
  B  B16  1  0.000000  0.462021  0.686785  1
  B  B17  1  0.000000  0.537979  0.313215  1
  B  B18  1  0.296964  0.204110  0.112854  1
  B  B19  1  0.703036  0.795890  0.887146  1
  B  B20  1  0.296964  0.795890  0.887146  1
  B  B21  1  0.703036  0.295890  0.612854  1
  B  B22  1  0.703036  0.204110  0.112854  1
  B  B23  1  0.296964  0.704110  0.387146  1
  B  B24  1  0.703036  0.704110  0.387146  1
  B  B25  1  0.296964  0.295890  0.612854  1
