# generated using pymatgen
data_HoEr15(Ga3Co)2
_symmetry_space_group_name_H-M   'P 1'
_cell_length_a   9.94258800
_cell_length_b   9.94258868
_cell_length_c   6.85346500
_cell_angle_alpha   90.00000000
_cell_angle_beta   90.00000000
_cell_angle_gamma   120.00000438
_symmetry_Int_Tables_number   1
_chemical_formula_structural   HoEr15(Ga3Co)2
_chemical_formula_sum   'Ho1 Er15 Ga6 Co2'
_cell_volume   586.73193744
_cell_formula_units_Z   1
loop_
 _symmetry_equiv_pos_site_id
 _symmetry_equiv_pos_as_xyz
  1  'x, y, z'
loop_
 _atom_site_type_symbol
 _atom_site_label
 _atom_site_symmetry_multiplicity
 _atom_site_fract_x
 _atom_site_fract_y
 _atom_site_fract_z
 _atom_site_occupancy
  Ho  Ho0  1  0.000000  0.000000  0.270074  1
  Er  Er1  1  0.000000  0.000000  0.769823  1
  Er  Er2  1  0.173085  0.826915  0.991466  1
  Er  Er3  1  0.826914  0.173086  0.491621  1
  Er  Er4  1  0.173085  0.346169  0.991466  1
  Er  Er5  1  0.653831  0.826915  0.991466  1
  Er  Er6  1  0.346172  0.173086  0.491621  1
  Er  Er7  1  0.826914  0.653828  0.491621  1
  Er  Er8  1  0.333333  0.666667  0.671997  1
  Er  Er9  1  0.666667  0.333333  0.171891  1
  Er  Er10  1  0.464258  0.535742  0.292910  1
  Er  Er11  1  0.535739  0.464261  0.792890  1
  Er  Er12  1  0.464258  0.928517  0.292910  1
  Er  Er13  1  0.071483  0.535742  0.292910  1
  Er  Er14  1  0.928523  0.464261  0.792890  1
  Er  Er15  1  0.535739  0.071477  0.792890  1
  Ga  Ga16  1  0.163537  0.836463  0.539986  1
  Ga  Ga17  1  0.836454  0.163546  0.039693  1
  Ga  Ga18  1  0.163537  0.327074  0.539986  1
  Ga  Ga19  1  0.672926  0.836463  0.539986  1
  Ga  Ga20  1  0.327092  0.163546  0.039693  1
  Ga  Ga21  1  0.836454  0.672908  0.039693  1
  Co  Co22  1  0.333333  0.666667  0.058399  1
  Co  Co23  1  0.666667  0.333333  0.558234  1
