# generated using pymatgen
data_LaGd4Sn3H
_symmetry_space_group_name_H-M   'P 1'
_cell_length_a   9.45370212
_cell_length_b   9.45370174
_cell_length_c   9.46824100
_cell_angle_alpha   128.71511705
_cell_angle_beta   128.71511519
_cell_angle_gamma   75.35549870
_symmetry_Int_Tables_number   1
_chemical_formula_structural   LaGd4Sn3H
_chemical_formula_sum   'La2 Gd8 Sn6 H2'
_cell_volume   501.69736824
_cell_formula_units_Z   2
loop_
 _symmetry_equiv_pos_site_id
 _symmetry_equiv_pos_as_xyz
  1  'x, y, z'
loop_
 _atom_site_type_symbol
 _atom_site_label
 _atom_site_symmetry_multiplicity
 _atom_site_fract_x
 _atom_site_fract_y
 _atom_site_fract_z
 _atom_site_occupancy
  La  La0  1  0.514324  0.014324  0.829731  1
  La  La1  1  0.184593  0.684593  0.170269  1
  Gd  Gd2  1  0.505085  0.505085  0.000000  1
  Gd  Gd3  1  0.005085  0.005085  0.000000  1
  Gd  Gd4  1  0.009511  0.191099  0.500000  1
  Gd  Gd5  1  0.691099  0.509511  0.500000  1
  Gd  Gd6  1  0.488266  0.988266  0.181527  1
  Gd  Gd7  1  0.806739  0.306739  0.818473  1
  Gd  Gd8  1  0.988745  0.812820  0.500000  1
  Gd  Gd9  1  0.312820  0.488745  0.500000  1
  Sn  Sn10  1  0.246745  0.246745  0.000000  1
  Sn  Sn11  1  0.746745  0.746745  0.000000  1
  Sn  Sn12  1  0.868554  0.368554  0.232376  1
  Sn  Sn13  1  0.136179  0.636179  0.767624  1
  Sn  Sn14  1  0.362566  0.141295  0.500000  1
  Sn  Sn15  1  0.641295  0.862566  0.500000  1
  H  H16  1  0.243643  0.743643  0.500000  1
  H  H17  1  0.748006  0.248006  0.500000  1
