# generated using pymatgen
data_NdDy6Sn23Rh6
_symmetry_space_group_name_H-M   'P 1'
_cell_length_a   9.87067600
_cell_length_b   9.87067759
_cell_length_c   10.12840000
_cell_angle_alpha   90.00000000
_cell_angle_beta   90.00000000
_cell_angle_gamma   119.99999468
_symmetry_Int_Tables_number   1
_chemical_formula_structural   NdDy6Sn23Rh6
_chemical_formula_sum   'Nd1 Dy6 Sn23 Rh6'
_cell_volume   854.60486855
_cell_formula_units_Z   1
loop_
 _symmetry_equiv_pos_site_id
 _symmetry_equiv_pos_as_xyz
  1  'x, y, z'
loop_
 _atom_site_type_symbol
 _atom_site_label
 _atom_site_symmetry_multiplicity
 _atom_site_fract_x
 _atom_site_fract_y
 _atom_site_fract_z
 _atom_site_occupancy
  Nd  Nd0  1  0.000000  0.000000  0.000000  1
  Dy  Dy1  1  0.478830  0.521170  0.307729  1
  Dy  Dy2  1  0.521170  0.478830  0.692271  1
  Dy  Dy3  1  0.478830  0.957659  0.307729  1
  Dy  Dy4  1  0.521170  0.042341  0.692271  1
  Dy  Dy5  1  0.042341  0.521170  0.307729  1
  Dy  Dy6  1  0.957659  0.478830  0.692271  1
  Sn  Sn7  1  0.351720  0.000000  0.000000  1
  Sn  Sn8  1  0.648280  0.000000  0.000000  1
  Sn  Sn9  1  0.000000  0.351720  0.000000  1
  Sn  Sn10  1  0.000000  0.648280  0.000000  1
  Sn  Sn11  1  0.648280  0.648280  0.000000  1
  Sn  Sn12  1  0.351720  0.351720  0.000000  1
  Sn  Sn13  1  0.333333  0.666667  0.819007  1
  Sn  Sn14  1  0.666667  0.333333  0.180993  1
  Sn  Sn15  1  0.000000  0.000000  0.500000  1
  Sn  Sn16  1  0.778644  0.221356  0.455326  1
  Sn  Sn17  1  0.221356  0.778644  0.544674  1
  Sn  Sn18  1  0.778644  0.557288  0.455326  1
  Sn  Sn19  1  0.221356  0.442712  0.544674  1
  Sn  Sn20  1  0.442712  0.221356  0.455326  1
  Sn  Sn21  1  0.557288  0.778644  0.544674  1
  Sn  Sn22  1  0.333333  0.666667  0.119543  1
  Sn  Sn23  1  0.666667  0.333333  0.880457  1
  Sn  Sn24  1  0.119663  0.880337  0.280783  1
  Sn  Sn25  1  0.880337  0.119663  0.719217  1
  Sn  Sn26  1  0.119663  0.239326  0.280783  1
  Sn  Sn27  1  0.880337  0.760674  0.719217  1
  Sn  Sn28  1  0.760674  0.880337  0.280783  1
  Sn  Sn29  1  0.239326  0.119663  0.719217  1
  Rh  Rh30  1  0.831095  0.168905  0.198469  1
  Rh  Rh31  1  0.168905  0.831095  0.801531  1
  Rh  Rh32  1  0.831095  0.662188  0.198469  1
  Rh  Rh33  1  0.168905  0.337812  0.801531  1
  Rh  Rh34  1  0.337812  0.168905  0.198469  1
  Rh  Rh35  1  0.662188  0.831095  0.801531  1
