# generated using pymatgen
data_La3PrZn4(InCu4)4
_symmetry_space_group_name_H-M   'P 1'
_cell_length_a   5.08646100
_cell_length_b   8.48028907
_cell_length_c   10.85464508
_cell_angle_alpha   90.01429525
_cell_angle_beta   90.00000000
_cell_angle_gamma   90.00000000
_symmetry_Int_Tables_number   1
_chemical_formula_structural   La3PrZn4(InCu4)4
_chemical_formula_sum   'La3 Pr1 Zn4 In4 Cu16'
_cell_volume   468.21140626
_cell_formula_units_Z   1
loop_
 _symmetry_equiv_pos_site_id
 _symmetry_equiv_pos_as_xyz
  1  'x, y, z'
loop_
 _atom_site_type_symbol
 _atom_site_label
 _atom_site_symmetry_multiplicity
 _atom_site_fract_x
 _atom_site_fract_y
 _atom_site_fract_z
 _atom_site_occupancy
  La  La0  1  0.250000  0.755473  0.058899  1
  La  La1  1  0.750000  0.244827  0.941459  1
  La  La2  1  0.750000  0.745182  0.558522  1
  Pr  Pr3  1  0.250000  0.255661  0.440855  1
  Zn  Zn4  1  0.250000  0.815577  0.740398  1
  Zn  Zn5  1  0.750000  0.184248  0.260148  1
  Zn  Zn6  1  0.750000  0.684345  0.240802  1
  Zn  Zn7  1  0.250000  0.315787  0.758930  1
  In  In8  1  0.250000  0.636757  0.365252  1
  In  In9  1  0.750000  0.361021  0.634271  1
  In  In10  1  0.750000  0.862030  0.865068  1
  In  In11  1  0.250000  0.138120  0.135506  1
  Cu  Cu12  1  0.503006  0.567191  0.812328  1
  Cu  Cu13  1  0.496815  0.432498  0.187868  1
  Cu  Cu14  1  0.496906  0.932950  0.312577  1
  Cu  Cu15  1  0.003185  0.432498  0.187868  1
  Cu  Cu16  1  0.502511  0.067504  0.687435  1
  Cu  Cu17  1  0.996994  0.567191  0.812328  1
  Cu  Cu18  1  0.997489  0.067504  0.687435  1
  Cu  Cu19  1  0.003094  0.932950  0.312577  1
  Cu  Cu20  1  0.250000  0.556181  0.607038  1
  Cu  Cu21  1  0.750000  0.442717  0.392667  1
  Cu  Cu22  1  0.750000  0.943165  0.107307  1
  Cu  Cu23  1  0.250000  0.056761  0.892751  1
  Cu  Cu24  1  0.250000  0.921292  0.514684  1
  Cu  Cu25  1  0.750000  0.080432  0.484949  1
  Cu  Cu26  1  0.750000  0.579574  0.015264  1
  Cu  Cu27  1  0.250000  0.420567  0.984816  1
