# generated using pymatgen
data_Er5PaGa10
_symmetry_space_group_name_H-M   'P 1'
_cell_length_a   6.09076730
_cell_length_b   9.59435945
_cell_length_c   11.45306400
_cell_angle_alpha   90.00000000
_cell_angle_beta   90.00000000
_cell_angle_gamma   90.03571591
_symmetry_Int_Tables_number   1
_chemical_formula_structural   Er5PaGa10
_chemical_formula_sum   'Er10 Pa2 Ga20'
_cell_volume   669.28269533
_cell_formula_units_Z   2
loop_
 _symmetry_equiv_pos_site_id
 _symmetry_equiv_pos_as_xyz
  1  'x, y, z'
loop_
 _atom_site_type_symbol
 _atom_site_label
 _atom_site_symmetry_multiplicity
 _atom_site_fract_x
 _atom_site_fract_y
 _atom_site_fract_z
 _atom_site_occupancy
  Er  Er0  1  0.850405  0.749336  0.073693  1
  Er  Er1  1  0.649595  0.750664  0.573693  1
  Er  Er2  1  0.148101  0.248012  0.925814  1
  Er  Er3  1  0.351899  0.251988  0.425814  1
  Er  Er4  1  0.111374  0.009667  0.648435  1
  Er  Er5  1  0.388626  0.490333  0.148435  1
  Er  Er6  1  0.110686  0.489836  0.648676  1
  Er  Er7  1  0.389314  0.010164  0.148676  1
  Er  Er8  1  0.890035  0.990485  0.351737  1
  Er  Er9  1  0.609965  0.509515  0.851737  1
  Pa  Pa10  1  0.887557  0.510924  0.353525  1
  Pa  Pa11  1  0.612443  0.989076  0.853525  1
  Ga  Ga12  1  0.872018  0.053034  0.090935  1
  Ga  Ga13  1  0.627982  0.446966  0.590935  1
  Ga  Ga14  1  0.127262  0.551322  0.907750  1
  Ga  Ga15  1  0.372738  0.948678  0.407750  1
  Ga  Ga16  1  0.123832  0.946941  0.908813  1
  Ga  Ga17  1  0.376168  0.553059  0.408813  1
  Ga  Ga18  1  0.872716  0.447017  0.090968  1
  Ga  Ga19  1  0.627284  0.052983  0.590968  1
  Ga  Ga20  1  0.172928  0.750274  0.253179  1
  Ga  Ga21  1  0.327072  0.749726  0.753179  1
  Ga  Ga22  1  0.825579  0.249669  0.747000  1
  Ga  Ga23  1  0.674421  0.250331  0.247000  1
  Ga  Ga24  1  0.375097  0.750651  0.003705  1
  Ga  Ga25  1  0.124903  0.749349  0.503705  1
  Ga  Ga26  1  0.624572  0.249305  0.994629  1
  Ga  Ga27  1  0.875428  0.250695  0.494629  1
  Ga  Ga28  1  0.604083  0.750666  0.299128  1
  Ga  Ga29  1  0.895917  0.749334  0.799128  1
  Ga  Ga30  1  0.398213  0.248147  0.702014  1
  Ga  Ga31  1  0.101787  0.251853  0.202014  1
