# generated using pymatgen
data_Nd3In3Ni2Ir
_symmetry_space_group_name_H-M   'P 1'
_cell_length_a   7.57714100
_cell_length_b   7.57714110
_cell_length_c   4.01111800
_cell_angle_alpha   90.00000000
_cell_angle_beta   90.00000000
_cell_angle_gamma   119.99999519
_symmetry_Int_Tables_number   1
_chemical_formula_structural   Nd3In3Ni2Ir
_chemical_formula_sum   'Nd3 In3 Ni2 Ir1'
_cell_volume   199.43750608
_cell_formula_units_Z   1
loop_
 _symmetry_equiv_pos_site_id
 _symmetry_equiv_pos_as_xyz
  1  'x, y, z'
loop_
 _atom_site_type_symbol
 _atom_site_label
 _atom_site_symmetry_multiplicity
 _atom_site_fract_x
 _atom_site_fract_y
 _atom_site_fract_z
 _atom_site_occupancy
  Nd  Nd0  1  0.415244  0.410997  0.500000  1
  Nd  Nd1  1  0.589003  0.004247  0.500000  1
  Nd  Nd2  1  0.995753  0.584756  0.500000  1
  In  In3  1  0.753425  0.757688  0.000000  1
  In  In4  1  0.242312  0.995737  0.000000  1
  In  In5  1  0.004263  0.246575  0.000000  1
  Ni  Ni6  1  0.000000  0.000000  0.500000  1
  Ni  Ni7  1  0.333333  0.666667  0.000000  1
  Ir  Ir8  1  0.666667  0.333333  0.000000  1
