# generated using pymatgen
data_TbEr3(LuPt)4
_symmetry_space_group_name_H-M   'P 1'
_cell_length_a   4.73652700
_cell_length_b   7.08552404
_cell_length_c   8.60308113
_cell_angle_alpha   90.06300613
_cell_angle_beta   90.00000000
_cell_angle_gamma   90.00000000
_symmetry_Int_Tables_number   1
_chemical_formula_structural   TbEr3(LuPt)4
_chemical_formula_sum   'Tb1 Er3 Lu4 Pt4'
_cell_volume   288.72590357
_cell_formula_units_Z   1
loop_
 _symmetry_equiv_pos_site_id
 _symmetry_equiv_pos_as_xyz
  1  'x, y, z'
loop_
 _atom_site_type_symbol
 _atom_site_label
 _atom_site_symmetry_multiplicity
 _atom_site_fract_x
 _atom_site_fract_y
 _atom_site_fract_z
 _atom_site_occupancy
  Tb  Tb0  1  0.750000  0.513478  0.828524  1
  Er  Er1  1  0.250000  0.985793  0.328845  1
  Er  Er2  1  0.250000  0.485862  0.171260  1
  Er  Er3  1  0.750000  0.014172  0.670007  1
  Lu  Lu4  1  0.250000  0.355352  0.575092  1
  Lu  Lu5  1  0.250000  0.855908  0.923860  1
  Lu  Lu6  1  0.750000  0.644563  0.423363  1
  Lu  Lu7  1  0.750000  0.144034  0.076658  1
  Pt  Pt8  1  0.250000  0.252496  0.905375  1
  Pt  Pt9  1  0.250000  0.755020  0.594912  1
  Pt  Pt10  1  0.750000  0.746962  0.097606  1
  Pt  Pt11  1  0.750000  0.246359  0.404500  1
