# generated using pymatgen
data_Y3HoTh4(ReB6)4
_symmetry_space_group_name_H-M   'P 1'
_cell_length_a   3.76909300
_cell_length_b   9.27185005
_cell_length_c   11.69605306
_cell_angle_alpha   90.01175522
_cell_angle_beta   90.00000000
_cell_angle_gamma   90.00000000
_symmetry_Int_Tables_number   1
_chemical_formula_structural   Y3HoTh4(ReB6)4
_chemical_formula_sum   'Y3 Ho1 Th4 Re4 B24'
_cell_volume   408.73570171
_cell_formula_units_Z   1
loop_
 _symmetry_equiv_pos_site_id
 _symmetry_equiv_pos_as_xyz
  1  'x, y, z'
loop_
 _atom_site_type_symbol
 _atom_site_label
 _atom_site_symmetry_multiplicity
 _atom_site_fract_x
 _atom_site_fract_y
 _atom_site_fract_z
 _atom_site_occupancy
  Y  Y0  1  0.000000  0.945016  0.372887  1
  Y  Y1  1  0.000000  0.055107  0.627276  1
  Y  Y2  1  0.000000  0.445038  0.126877  1
  Ho  Ho3  1  0.000000  0.555228  0.872559  1
  Th  Th4  1  0.000000  0.322993  0.414132  1
  Th  Th5  1  0.000000  0.677096  0.585842  1
  Th  Th6  1  0.000000  0.822646  0.085808  1
  Th  Th7  1  0.000000  0.177464  0.914162  1
  Re  Re8  1  0.000000  0.639042  0.320126  1
  Re  Re9  1  0.000000  0.361024  0.680284  1
  Re  Re10  1  0.000000  0.139098  0.179634  1
  Re  Re11  1  0.000000  0.860263  0.820306  1
  B  B12  1  0.500000  0.556154  0.429806  1
  B  B13  1  0.500000  0.443956  0.570347  1
  B  B14  1  0.500000  0.056094  0.070068  1
  B  B15  1  0.500000  0.943558  0.929859  1
  B  B16  1  0.500000  0.749140  0.417152  1
  B  B17  1  0.500000  0.251016  0.582961  1
  B  B18  1  0.500000  0.249223  0.082743  1
  B  B19  1  0.500000  0.750252  0.917104  1
  B  B20  1  0.500000  0.790904  0.266638  1
  B  B21  1  0.500000  0.209321  0.733399  1
  B  B22  1  0.500000  0.291009  0.233198  1
  B  B23  1  0.500000  0.708603  0.766930  1
  B  B24  1  0.500000  0.631160  0.186247  1
  B  B25  1  0.500000  0.369270  0.813843  1
  B  B26  1  0.500000  0.131334  0.313601  1
  B  B27  1  0.500000  0.868539  0.686506  1
  B  B28  1  0.500000  0.985643  0.213801  1
  B  B29  1  0.500000  0.014179  0.786276  1
  B  B30  1  0.500000  0.485586  0.286056  1
  B  B31  1  0.500000  0.514646  0.714239  1
  B  B32  1  0.500000  0.603859  0.028100  1
  B  B33  1  0.500000  0.396494  0.971096  1
  B  B34  1  0.500000  0.104510  0.471387  1
  B  B35  1  0.500000  0.895537  0.528751  1
