# generated using pymatgen
data_La6Cr3TcC12
_symmetry_space_group_name_H-M   'P 1'
_cell_length_a   8.44186500
_cell_length_b   8.44185852
_cell_length_c   5.29305400
_cell_angle_alpha   90.00000000
_cell_angle_beta   90.00000000
_cell_angle_gamma   120.00022306
_symmetry_Int_Tables_number   1
_chemical_formula_structural   La6Cr3TcC12
_chemical_formula_sum   'La6 Cr3 Tc1 C12'
_cell_volume   326.67240686
_cell_formula_units_Z   1
loop_
 _symmetry_equiv_pos_site_id
 _symmetry_equiv_pos_as_xyz
  1  'x, y, z'
loop_
 _atom_site_type_symbol
 _atom_site_label
 _atom_site_symmetry_multiplicity
 _atom_site_fract_x
 _atom_site_fract_y
 _atom_site_fract_z
 _atom_site_occupancy
  La  La0  1  0.614431  0.695151  0.750000  1
  La  La1  1  0.922054  0.614426  0.250000  1
  La  La2  1  0.692372  0.077946  0.250000  1
  La  La3  1  0.304850  0.919278  0.750000  1
  La  La4  1  0.080720  0.385570  0.750000  1
  La  La5  1  0.385574  0.307629  0.250000  1
  Cr  Cr6  1  0.000000  0.000000  0.495748  1
  Cr  Cr7  1  0.000000  0.000000  0.004252  1
  Cr  Cr8  1  0.333333  0.666667  0.250000  1
  Tc  Tc9  1  0.666667  0.333332  0.750000  1
  C  C10  1  0.951665  0.776821  0.750000  1
  C  C11  1  0.177915  0.949053  0.250000  1
  C  C12  1  0.771137  0.822084  0.250000  1
  C  C13  1  0.223179  0.174843  0.750000  1
  C  C14  1  0.825157  0.048336  0.750000  1
  C  C15  1  0.050948  0.228864  0.250000  1
  C  C16  1  0.862102  0.589646  0.750000  1
  C  C17  1  0.271110  0.851809  0.250000  1
  C  C18  1  0.580698  0.728890  0.250000  1
  C  C19  1  0.410352  0.272455  0.750000  1
  C  C20  1  0.148191  0.419303  0.250000  1
  C  C21  1  0.727545  0.137897  0.750000  1
