# generated using pymatgen
data_Li6Co11Si6Rh
_symmetry_space_group_name_H-M   'P 1'
_cell_length_a   3.89552000
_cell_length_b   5.50942300
_cell_length_c   11.69133100
_cell_angle_alpha   90.00012611
_cell_angle_beta   89.99988726
_cell_angle_gamma   90.00000000
_symmetry_Int_Tables_number   1
_chemical_formula_structural   Li6Co11Si6Rh
_chemical_formula_sum   'Li6 Co11 Si6 Rh1'
_cell_volume   250.92013491
_cell_formula_units_Z   1
loop_
 _symmetry_equiv_pos_site_id
 _symmetry_equiv_pos_as_xyz
  1  'x, y, z'
loop_
 _atom_site_type_symbol
 _atom_site_label
 _atom_site_symmetry_multiplicity
 _atom_site_fract_x
 _atom_site_fract_y
 _atom_site_fract_z
 _atom_site_occupancy
  Li  Li0  1  0.999999  0.507155  0.999998  1
  Li  Li1  1  0.499943  0.995771  0.169821  1
  Li  Li2  1  0.999892  0.500865  0.334588  1
  Li  Li3  1  0.500000  0.000453  0.499998  1
  Li  Li4  1  0.000105  0.500854  0.665415  1
  Li  Li5  1  0.500059  0.995791  0.830181  1
  Co  Co6  1  0.500001  0.748010  0.000001  1
  Co  Co7  1  0.999942  0.250239  0.169835  1
  Co  Co8  1  0.999931  0.749684  0.168512  1
  Co  Co9  1  0.499916  0.250461  0.334688  1
  Co  Co10  1  0.499907  0.751132  0.335314  1
  Co  Co11  1  0.999999  0.250083  0.499999  1
  Co  Co12  1  0.000000  0.750438  0.499999  1
  Co  Co13  1  0.500085  0.250460  0.665314  1
  Co  Co14  1  0.500091  0.751130  0.664685  1
  Co  Co15  1  0.000057  0.250240  0.830166  1
  Co  Co16  1  0.000072  0.749685  0.831490  1
  Si  Si17  1  0.000000  0.988216  0.999999  1
  Si  Si18  1  0.499941  0.504742  0.171212  1
  Si  Si19  1  0.999923  0.000467  0.334384  1
  Si  Si20  1  0.500001  0.499916  0.499999  1
  Si  Si21  1  0.000077  0.000470  0.665618  1
  Si  Si22  1  0.500058  0.504731  0.828788  1
  Rh  Rh23  1  0.500004  0.249015  0.999997  1
