# generated using pymatgen
data_Pa3(Co3Ge)2
_symmetry_space_group_name_H-M   'P 1'
_cell_length_a   7.54713056
_cell_length_b   7.54713004
_cell_length_c   7.54712900
_cell_angle_alpha   109.47122054
_cell_angle_beta   109.47121912
_cell_angle_gamma   109.47121977
_symmetry_Int_Tables_number   1
_chemical_formula_structural   Pa3(Co3Ge)2
_chemical_formula_sum   'Pa6 Co12 Ge4'
_cell_volume   330.92043906
_cell_formula_units_Z   2
loop_
 _symmetry_equiv_pos_site_id
 _symmetry_equiv_pos_as_xyz
  1  'x, y, z'
loop_
 _atom_site_type_symbol
 _atom_site_label
 _atom_site_symmetry_multiplicity
 _atom_site_fract_x
 _atom_site_fract_y
 _atom_site_fract_z
 _atom_site_occupancy
  Pa  Pa0  1  0.718101  0.718101  0.000000  1
  Pa  Pa1  1  0.281899  0.000000  0.281899  1
  Pa  Pa2  1  0.000000  0.281899  0.281899  1
  Pa  Pa3  1  0.281899  0.281899  0.000000  1
  Pa  Pa4  1  0.718101  0.000000  0.718101  1
  Pa  Pa5  1  0.000000  0.718101  0.718101  1
  Co  Co6  1  0.350562  0.350562  0.701123  1
  Co  Co7  1  0.649438  0.000000  0.350562  1
  Co  Co8  1  0.000000  0.649438  0.350562  1
  Co  Co9  1  0.649438  0.350562  0.000000  1
  Co  Co10  1  0.350562  0.701123  0.350562  1
  Co  Co11  1  0.000000  0.350562  0.649438  1
  Co  Co12  1  0.350562  0.649438  0.000000  1
  Co  Co13  1  0.350562  0.000000  0.649438  1
  Co  Co14  1  0.701123  0.350562  0.350562  1
  Co  Co15  1  0.649438  0.649438  0.298877  1
  Co  Co16  1  0.649438  0.298877  0.649438  1
  Co  Co17  1  0.298877  0.649438  0.649438  1
  Ge  Ge18  1  0.000000  0.000000  0.500000  1
  Ge  Ge19  1  0.000000  0.500000  0.000000  1
  Ge  Ge20  1  0.500000  0.000000  0.000000  1
  Ge  Ge21  1  0.500000  0.500000  0.500000  1
