# generated using pymatgen
data_YbAs2Pd3
_symmetry_space_group_name_H-M   'P 1'
_cell_length_a   4.04017200
_cell_length_b   8.71584147
_cell_length_c   10.10267370
_cell_angle_alpha   107.53082367
_cell_angle_beta   90.00000000
_cell_angle_gamma   103.40140569
_symmetry_Int_Tables_number   1
_chemical_formula_structural   YbAs2Pd3
_chemical_formula_sum   'Yb3 As6 Pd9'
_cell_volume   329.05459756
_cell_formula_units_Z   3
loop_
 _symmetry_equiv_pos_site_id
 _symmetry_equiv_pos_as_xyz
  1  'x, y, z'
loop_
 _atom_site_type_symbol
 _atom_site_label
 _atom_site_symmetry_multiplicity
 _atom_site_fract_x
 _atom_site_fract_y
 _atom_site_fract_z
 _atom_site_occupancy
  Yb  Yb0  1  0.847598  0.695195  0.305062  1
  Yb  Yb1  1  0.152402  0.304805  0.694938  1
  Yb  Yb2  1  0.000000  0.000000  0.000000  1
  As  As3  1  0.801036  0.602070  0.866521  1
  As  As4  1  0.198964  0.397930  0.133479  1
  As  As5  1  0.541995  0.083990  0.780757  1
  As  As6  1  0.458005  0.916010  0.219243  1
  As  As7  1  0.635890  0.271780  0.452131  1
  As  As8  1  0.364110  0.728220  0.547869  1
  Pd  Pd9  1  0.955493  0.910987  0.676829  1
  Pd  Pd10  1  0.044507  0.089013  0.323171  1
  Pd  Pd11  1  0.777267  0.554534  0.609410  1
  Pd  Pd12  1  0.222733  0.445466  0.390590  1
  Pd  Pd13  1  0.378454  0.756907  0.805931  1
  Pd  Pd14  1  0.621546  0.243093  0.194069  1
  Pd  Pd15  1  0.500000  0.000000  0.500000  1
  Pd  Pd16  1  0.682192  0.364385  0.962053  1
  Pd  Pd17  1  0.317808  0.635615  0.037947  1
