# generated using pymatgen
data_Y4B3(PtRh)6
_symmetry_space_group_name_H-M   'P 1'
_cell_length_a   4.24275900
_cell_length_b   4.24275900
_cell_length_c   16.58255500
_cell_angle_alpha   90.00000000
_cell_angle_beta   90.00000000
_cell_angle_gamma   90.00000000
_symmetry_Int_Tables_number   1
_chemical_formula_structural   Y4B3(PtRh)6
_chemical_formula_sum   'Y4 B3 Pt6 Rh6'
_cell_volume   298.50263776
_cell_formula_units_Z   1
loop_
 _symmetry_equiv_pos_site_id
 _symmetry_equiv_pos_as_xyz
  1  'x, y, z'
loop_
 _atom_site_type_symbol
 _atom_site_label
 _atom_site_symmetry_multiplicity
 _atom_site_fract_x
 _atom_site_fract_y
 _atom_site_fract_z
 _atom_site_occupancy
  Y  Y0  1  0.000000  0.000000  0.876164  1
  Y  Y1  1  0.000000  0.000000  0.123836  1
  Y  Y2  1  0.000000  0.000000  0.374561  1
  Y  Y3  1  0.000000  0.000000  0.625439  1
  B  B4  1  0.500000  0.500000  0.238736  1
  B  B5  1  0.500000  0.500000  0.500000  1
  B  B6  1  0.500000  0.500000  0.761264  1
  Pt  Pt7  1  0.500000  0.500000  0.885328  1
  Pt  Pt8  1  0.500000  0.500000  0.114672  1
  Pt  Pt9  1  0.500000  0.500000  0.371913  1
  Pt  Pt10  1  0.500000  0.500000  0.628087  1
  Pt  Pt11  1  0.500000  0.000000  0.000000  1
  Pt  Pt12  1  0.000000  0.500000  0.000000  1
  Rh  Rh13  1  0.500000  0.000000  0.250078  1
  Rh  Rh14  1  0.500000  0.000000  0.500000  1
  Rh  Rh15  1  0.500000  0.000000  0.749922  1
  Rh  Rh16  1  0.000000  0.500000  0.250078  1
  Rh  Rh17  1  0.000000  0.500000  0.500000  1
  Rh  Rh18  1  0.000000  0.500000  0.749922  1
