# generated using pymatgen
data_Ac5LaNd2(Si4I3)2
_symmetry_space_group_name_H-M   'P 1'
_cell_length_a   12.69859515
_cell_length_b   12.69859466
_cell_length_c   12.83759466
_cell_angle_alpha   83.03111922
_cell_angle_beta   83.03111961
_cell_angle_gamma   19.72852768
_symmetry_Int_Tables_number   1
_chemical_formula_structural   Ac5LaNd2(Si4I3)2
_chemical_formula_sum   'Ac5 La1 Nd2 Si8 I6'
_cell_volume   693.47782599
_cell_formula_units_Z   1
loop_
 _symmetry_equiv_pos_site_id
 _symmetry_equiv_pos_as_xyz
  1  'x, y, z'
loop_
 _atom_site_type_symbol
 _atom_site_label
 _atom_site_symmetry_multiplicity
 _atom_site_fract_x
 _atom_site_fract_y
 _atom_site_fract_z
 _atom_site_occupancy
  Ac  Ac0  1  0.494838  0.494838  0.164999  1
  Ac  Ac1  1  0.923866  0.923866  0.446102  1
  Ac  Ac2  1  0.352320  0.352320  0.018749  1
  Ac  Ac3  1  0.077025  0.077025  0.556273  1
  Ac  Ac4  1  0.647558  0.647558  0.979204  1
  La  La5  1  0.502817  0.502817  0.836147  1
  Nd  Nd6  1  0.633117  0.633117  0.290696  1
  Nd  Nd7  1  0.367474  0.367474  0.708580  1
  Si  Si8  1  0.523929  0.523929  0.407970  1
  Si  Si9  1  0.040806  0.040806  0.324239  1
  Si  Si10  1  0.049461  0.049461  0.986050  1
  Si  Si11  1  0.477269  0.477269  0.595797  1
  Si  Si12  1  0.906887  0.906887  0.853500  1
  Si  Si13  1  0.951028  0.951028  0.007109  1
  Si  Si14  1  0.960458  0.960458  0.678403  1
  Si  Si15  1  0.093688  0.093688  0.143181  1
  I  I16  1  0.248420  0.248420  0.863458  1
  I  I17  1  0.751942  0.751942  0.135316  1
  I  I18  1  0.801013  0.801013  0.585159  1
  I  I19  1  0.364223  0.364223  0.287737  1
  I  I20  1  0.199305  0.199305  0.414919  1
  I  I21  1  0.632557  0.632557  0.716411  1
