# generated using pymatgen
data_LiTh4CoSi6
_symmetry_space_group_name_H-M   'P 1'
_cell_length_a   8.21484078
_cell_length_b   8.14835430
_cell_length_c   5.86649037
_cell_angle_alpha   69.59826925
_cell_angle_beta   68.38584829
_cell_angle_gamma   42.01588496
_symmetry_Int_Tables_number   1
_chemical_formula_structural   LiTh4CoSi6
_chemical_formula_sum   'Li1 Th4 Co1 Si6'
_cell_volume   242.58093809
_cell_formula_units_Z   1
loop_
 _symmetry_equiv_pos_site_id
 _symmetry_equiv_pos_as_xyz
  1  'x, y, z'
loop_
 _atom_site_type_symbol
 _atom_site_label
 _atom_site_symmetry_multiplicity
 _atom_site_fract_x
 _atom_site_fract_y
 _atom_site_fract_z
 _atom_site_occupancy
  Li  Li0  1  0.334958  0.334958  0.665042  1
  Th  Th1  1  0.747112  0.747112  0.752888  1
  Th  Th2  1  0.756348  0.250240  0.749760  1
  Th  Th3  1  0.247112  0.247112  0.252888  1
  Th  Th4  1  0.250240  0.756348  0.243652  1
  Co  Co5  1  0.665795  0.665795  0.334205  1
  Si  Si6  1  0.825407  0.346159  0.174593  1
  Si  Si7  1  0.667447  0.165602  0.332553  1
  Si  Si8  1  0.165602  0.667447  0.834398  1
  Si  Si9  1  0.346159  0.825407  0.653841  1
  Si  Si10  1  0.167607  0.167607  0.832393  1
  Si  Si11  1  0.826211  0.826211  0.173789  1
