# generated using pymatgen
data_Zr8PbSe16
_symmetry_space_group_name_H-M   'P 1'
_cell_length_a   7.52733800
_cell_length_b   7.52733893
_cell_length_c   15.38819700
_cell_angle_alpha   90.00000000
_cell_angle_beta   90.00000000
_cell_angle_gamma   119.99999593
_symmetry_Int_Tables_number   1
_chemical_formula_structural   Zr8PbSe16
_chemical_formula_sum   'Zr8 Pb1 Se16'
_cell_volume   755.09444556
_cell_formula_units_Z   1
loop_
 _symmetry_equiv_pos_site_id
 _symmetry_equiv_pos_as_xyz
  1  'x, y, z'
loop_
 _atom_site_type_symbol
 _atom_site_label
 _atom_site_symmetry_multiplicity
 _atom_site_fract_x
 _atom_site_fract_y
 _atom_site_fract_z
 _atom_site_occupancy
  Zr  Zr0  1  0.502868  0.497132  0.749578  1
  Zr  Zr1  1  0.497132  0.502868  0.250422  1
  Zr  Zr2  1  0.502868  0.005735  0.749578  1
  Zr  Zr3  1  0.497132  0.994265  0.250422  1
  Zr  Zr4  1  0.994265  0.497132  0.749578  1
  Zr  Zr5  1  0.005735  0.502868  0.250422  1
  Zr  Zr6  1  0.000000  0.000000  0.746483  1
  Zr  Zr7  1  0.000000  0.000000  0.253517  1
  Pb  Pb8  1  0.000000  0.000000  0.000000  1
  Se  Se9  1  0.833007  0.666016  0.143175  1
  Se  Se10  1  0.833084  0.666170  0.643883  1
  Se  Se11  1  0.833007  0.166993  0.143175  1
  Se  Se12  1  0.833084  0.166916  0.643883  1
  Se  Se13  1  0.333333  0.666667  0.142999  1
  Se  Se14  1  0.333333  0.666667  0.648665  1
  Se  Se15  1  0.333984  0.166993  0.143175  1
  Se  Se16  1  0.333830  0.166916  0.643883  1
  Se  Se17  1  0.666016  0.833007  0.856825  1
  Se  Se18  1  0.666170  0.833084  0.356117  1
  Se  Se19  1  0.666667  0.333333  0.857001  1
  Se  Se20  1  0.666667  0.333333  0.351335  1
  Se  Se21  1  0.166993  0.833007  0.856825  1
  Se  Se22  1  0.166916  0.833084  0.356117  1
  Se  Se23  1  0.166993  0.333984  0.856825  1
  Se  Se24  1  0.166916  0.333830  0.356117  1
