# generated using pymatgen
data_TbEr(Al5Fe)4
_symmetry_space_group_name_H-M   'P 1'
_cell_length_a   6.75786250
_cell_length_b   6.75786246
_cell_length_c   8.97030000
_cell_angle_alpha   90.00000000
_cell_angle_beta   90.00000000
_cell_angle_gamma   97.10234229
_symmetry_Int_Tables_number   1
_chemical_formula_structural   TbEr(Al5Fe)4
_chemical_formula_sum   'Tb1 Er1 Al20 Fe4'
_cell_volume   406.51860319
_cell_formula_units_Z   1
loop_
 _symmetry_equiv_pos_site_id
 _symmetry_equiv_pos_as_xyz
  1  'x, y, z'
loop_
 _atom_site_type_symbol
 _atom_site_label
 _atom_site_symmetry_multiplicity
 _atom_site_fract_x
 _atom_site_fract_y
 _atom_site_fract_z
 _atom_site_occupancy
  Tb  Tb0  1  0.874880  0.125120  0.750000  1
  Er  Er1  1  0.126276  0.873724  0.250000  1
  Al  Al2  1  0.625057  0.374943  0.548284  1
  Al  Al3  1  0.374726  0.625274  0.450024  1
  Al  Al4  1  0.374726  0.625274  0.049976  1
  Al  Al5  1  0.625057  0.374943  0.951716  1
  Al  Al6  1  0.227904  0.227666  0.499346  1
  Al  Al7  1  0.772334  0.772096  0.499346  1
  Al  Al8  1  0.772334  0.772096  0.000654  1
  Al  Al9  1  0.227904  0.227666  0.000654  1
  Al  Al10  1  0.842161  0.157839  0.097247  1
  Al  Al11  1  0.158654  0.841346  0.903561  1
  Al  Al12  1  0.158654  0.841346  0.596439  1
  Al  Al13  1  0.842161  0.157839  0.402753  1
  Al  Al14  1  0.865408  0.585745  0.750000  1
  Al  Al15  1  0.134494  0.415666  0.250000  1
  Al  Al16  1  0.414255  0.134592  0.750000  1
  Al  Al17  1  0.584334  0.865506  0.250000  1
  Al  Al18  1  0.220530  0.478798  0.750000  1
  Al  Al19  1  0.779816  0.521865  0.250000  1
  Al  Al20  1  0.521202  0.779470  0.750000  1
  Al  Al21  1  0.478135  0.220184  0.250000  1
  Fe  Fe22  1  0.000166  0.500668  0.499615  1
  Fe  Fe23  1  0.000166  0.500668  0.000385  1
  Fe  Fe24  1  0.499332  0.999834  0.000385  1
  Fe  Fe25  1  0.499332  0.999834  0.499615  1
