# generated using pymatgen
data_Pr3BRh6Pb
_symmetry_space_group_name_H-M   'P 1'
_cell_length_a   5.96266300
_cell_length_b   5.96266220
_cell_length_c   14.15367500
_cell_angle_alpha   90.00000000
_cell_angle_beta   90.00000000
_cell_angle_gamma   119.99999888
_symmetry_Int_Tables_number   1
_chemical_formula_structural   Pr3BRh6Pb
_chemical_formula_sum   'Pr6 B2 Rh12 Pb2'
_cell_volume   435.79307661
_cell_formula_units_Z   2
loop_
 _symmetry_equiv_pos_site_id
 _symmetry_equiv_pos_as_xyz
  1  'x, y, z'
loop_
 _atom_site_type_symbol
 _atom_site_label
 _atom_site_symmetry_multiplicity
 _atom_site_fract_x
 _atom_site_fract_y
 _atom_site_fract_z
 _atom_site_occupancy
  Pr  Pr0  1  0.000000  0.000000  0.750000  1
  Pr  Pr1  1  0.000000  0.000000  0.250000  1
  Pr  Pr2  1  0.333333  0.666667  0.407505  1
  Pr  Pr3  1  0.666667  0.333333  0.907505  1
  Pr  Pr4  1  0.666667  0.333333  0.592495  1
  Pr  Pr5  1  0.333333  0.666667  0.092495  1
  B  B6  1  0.000000  0.000000  0.500000  1
  B  B7  1  0.000000  0.000000  0.000000  1
  Rh  Rh8  1  0.341935  0.170968  0.416265  1
  Rh  Rh9  1  0.829032  0.170968  0.416265  1
  Rh  Rh10  1  0.829032  0.658065  0.416265  1
  Rh  Rh11  1  0.170968  0.341935  0.916265  1
  Rh  Rh12  1  0.658065  0.829032  0.583735  1
  Rh  Rh13  1  0.658065  0.829032  0.916265  1
  Rh  Rh14  1  0.341935  0.170968  0.083735  1
  Rh  Rh15  1  0.170968  0.341935  0.583735  1
  Rh  Rh16  1  0.170968  0.829032  0.583735  1
  Rh  Rh17  1  0.829032  0.170968  0.083735  1
  Rh  Rh18  1  0.829032  0.658065  0.083735  1
  Rh  Rh19  1  0.170968  0.829032  0.916265  1
  Pb  Pb20  1  0.333333  0.666667  0.750000  1
  Pb  Pb21  1  0.666667  0.333333  0.250000  1
