# generated using pymatgen
data_Tb4MgCd(CuNi)2
_symmetry_space_group_name_H-M   'P 1'
_cell_length_a   7.59868996
_cell_length_b   7.63417744
_cell_length_c   3.60426900
_cell_angle_alpha   90.00000000
_cell_angle_beta   90.00000000
_cell_angle_gamma   89.01969939
_symmetry_Int_Tables_number   1
_chemical_formula_structural   Tb4MgCd(CuNi)2
_chemical_formula_sum   'Tb4 Mg1 Cd1 Cu2 Ni2'
_cell_volume   209.05213237
_cell_formula_units_Z   1
loop_
 _symmetry_equiv_pos_site_id
 _symmetry_equiv_pos_as_xyz
  1  'x, y, z'
loop_
 _atom_site_type_symbol
 _atom_site_label
 _atom_site_symmetry_multiplicity
 _atom_site_fract_x
 _atom_site_fract_y
 _atom_site_fract_z
 _atom_site_occupancy
  Tb  Tb0  1  0.667195  0.158865  0.500000  1
  Tb  Tb1  1  0.332805  0.841135  0.500000  1
  Tb  Tb2  1  0.176400  0.312502  0.500000  1
  Tb  Tb3  1  0.823600  0.687498  0.500000  1
  Mg  Mg4  1  0.500000  0.500000  0.000000  1
  Cd  Cd5  1  0.000000  0.000000  0.000000  1
  Cu  Cu6  1  0.122680  0.616723  0.000000  1
  Cu  Cu7  1  0.877320  0.383277  0.000000  1
  Ni  Ni8  1  0.616819  0.875112  0.000000  1
  Ni  Ni9  1  0.383181  0.124888  0.000000  1
