# generated using pymatgen
data_Dy5Y12Ho3(CoBi2)4
_symmetry_space_group_name_H-M   'P 1'
_cell_length_a   8.03780331
_cell_length_b   8.88726007
_cell_length_c   12.45509639
_cell_angle_alpha   89.92173499
_cell_angle_beta   90.03185566
_cell_angle_gamma   90.00049822
_symmetry_Int_Tables_number   1
_chemical_formula_structural   Dy5Y12Ho3(CoBi2)4
_chemical_formula_sum   'Dy5 Y12 Ho3 Co4 Bi8'
_cell_volume   889.71699093
_cell_formula_units_Z   1
loop_
 _symmetry_equiv_pos_site_id
 _symmetry_equiv_pos_as_xyz
  1  'x, y, z'
loop_
 _atom_site_type_symbol
 _atom_site_label
 _atom_site_symmetry_multiplicity
 _atom_site_fract_x
 _atom_site_fract_y
 _atom_site_fract_z
 _atom_site_occupancy
  Dy  Dy0  1  0.675333  0.536882  0.562900  1
  Dy  Dy1  1  0.324767  0.463312  0.437219  1
  Dy  Dy2  1  0.175380  0.463192  0.937133  1
  Dy  Dy3  1  0.324732  0.036805  0.437046  1
  Dy  Dy4  1  0.824611  0.536711  0.062838  1
  Y  Y5  1  0.347454  0.750144  0.700208  1
  Y  Y6  1  0.652588  0.249887  0.299789  1
  Y  Y7  1  0.847611  0.249795  0.799986  1
  Y  Y8  1  0.152385  0.750188  0.200011  1
  Y  Y9  1  0.882523  0.750354  0.809654  1
  Y  Y10  1  0.117463  0.249628  0.190268  1
  Y  Y11  1  0.382668  0.249878  0.690640  1
  Y  Y12  1  0.617731  0.750229  0.309361  1
  Y  Y13  1  0.048782  0.750253  0.498092  1
  Y  Y14  1  0.950418  0.249677  0.501951  1
  Y  Y15  1  0.549292  0.249563  0.001943  1
  Y  Y16  1  0.450731  0.750435  0.998006  1
  Ho  Ho17  1  0.674680  0.962794  0.562976  1
  Ho  Ho18  1  0.825306  0.962983  0.062945  1
  Ho  Ho19  1  0.174705  0.037180  0.937061  1
  Co  Co20  1  0.063074  0.750337  0.991702  1
  Co  Co21  1  0.936932  0.249696  0.008294  1
  Co  Co22  1  0.563631  0.249890  0.508462  1
  Co  Co23  1  0.437161  0.750191  0.491686  1
  Bi  Bi24  1  0.572412  0.509260  0.826422  1
  Bi  Bi25  1  0.427648  0.490801  0.173659  1
  Bi  Bi26  1  0.072409  0.490857  0.673702  1
  Bi  Bi27  1  0.428257  0.009227  0.173605  1
  Bi  Bi28  1  0.927695  0.509203  0.326258  1
  Bi  Bi29  1  0.571854  0.990777  0.826334  1
  Bi  Bi30  1  0.927744  0.990659  0.326171  1
  Bi  Bi31  1  0.072023  0.009211  0.673677  1
