# generated using pymatgen
data_Er5Lu(FeCo3)4
_symmetry_space_group_name_H-M   'P 1'
_cell_length_a   7.55059661
_cell_length_b   7.55059588
_cell_length_c   7.55059643
_cell_angle_alpha   109.49046117
_cell_angle_beta   109.49046078
_cell_angle_gamma   109.43273608
_symmetry_Int_Tables_number   1
_chemical_formula_structural   Er5Lu(FeCo3)4
_chemical_formula_sum   'Er5 Lu1 Fe4 Co12'
_cell_volume   331.37655123
_cell_formula_units_Z   1
loop_
 _symmetry_equiv_pos_site_id
 _symmetry_equiv_pos_as_xyz
  1  'x, y, z'
loop_
 _atom_site_type_symbol
 _atom_site_label
 _atom_site_symmetry_multiplicity
 _atom_site_fract_x
 _atom_site_fract_y
 _atom_site_fract_z
 _atom_site_occupancy
  Er  Er0  1  0.282450  0.999692  0.282758  1
  Er  Er1  1  0.999692  0.282450  0.282758  1
  Er  Er2  1  0.283532  0.283532  0.000000  1
  Er  Er3  1  0.716934  0.999692  0.717242  1
  Er  Er4  1  0.999692  0.716934  0.717242  1
  Lu  Lu5  1  0.715125  0.715125  0.000000  1
  Fe  Fe6  1  0.999693  0.999693  0.499147  1
  Fe  Fe7  1  0.999693  0.500546  0.000000  1
  Fe  Fe8  1  0.500546  0.999693  0.000000  1
  Fe  Fe9  1  0.500546  0.500546  0.500853  1
  Co  Co10  1  0.336583  0.336583  0.672261  1
  Co  Co11  1  0.664442  0.999526  0.335084  1
  Co  Co12  1  0.999526  0.664442  0.335084  1
  Co  Co13  1  0.664320  0.336583  0.000000  1
  Co  Co14  1  0.335631  0.671270  0.335641  1
  Co  Co15  1  0.999990  0.335631  0.664359  1
  Co  Co16  1  0.336583  0.664320  0.000000  1
  Co  Co17  1  0.335631  0.999990  0.664359  1
  Co  Co18  1  0.671270  0.335631  0.335641  1
  Co  Co19  1  0.664320  0.664320  0.327739  1
  Co  Co20  1  0.664442  0.329360  0.664916  1
  Co  Co21  1  0.329360  0.664442  0.664916  1
