# generated using pymatgen
data_Ta2Nb4Co15Si7Ru
_symmetry_space_group_name_H-M   'P 1'
_cell_length_a   7.97535752
_cell_length_b   7.97535784
_cell_length_c   7.97271107
_cell_angle_alpha   59.79123914
_cell_angle_beta   59.79123711
_cell_angle_gamma   59.75025989
_symmetry_Int_Tables_number   1
_chemical_formula_structural   Ta2Nb4Co15Si7Ru
_chemical_formula_sum   'Ta2 Nb4 Co15 Si7 Ru1'
_cell_volume   356.77345728
_cell_formula_units_Z   1
loop_
 _symmetry_equiv_pos_site_id
 _symmetry_equiv_pos_as_xyz
  1  'x, y, z'
loop_
 _atom_site_type_symbol
 _atom_site_label
 _atom_site_symmetry_multiplicity
 _atom_site_fract_x
 _atom_site_fract_y
 _atom_site_fract_z
 _atom_site_occupancy
  Ta  Ta0  1  0.795992  0.795992  0.202430  1
  Ta  Ta1  1  0.202131  0.202131  0.799216  1
  Nb  Nb2  1  0.201034  0.797489  0.797355  1
  Nb  Nb3  1  0.200914  0.800428  0.200835  1
  Nb  Nb4  1  0.800428  0.200914  0.200835  1
  Nb  Nb5  1  0.797489  0.201034  0.797355  1
  Co  Co6  1  0.499159  0.834703  0.833567  1
  Co  Co7  1  0.622005  0.622005  0.142356  1
  Co  Co8  1  0.163778  0.163778  0.503492  1
  Co  Co9  1  0.833581  0.833581  0.499370  1
  Co  Co10  1  0.167822  0.167822  0.166934  1
  Co  Co11  1  0.833500  0.833500  0.834452  1
  Co  Co12  1  0.380293  0.380293  0.857023  1
  Co  Co13  1  0.834703  0.499159  0.833567  1
  Co  Co14  1  0.619980  0.619980  0.619082  1
  Co  Co15  1  0.381304  0.856946  0.380363  1
  Co  Co16  1  0.142177  0.621229  0.622099  1
  Co  Co17  1  0.621229  0.142177  0.622099  1
  Co  Co18  1  0.162759  0.503758  0.163873  1
  Co  Co19  1  0.856946  0.381304  0.380363  1
  Co  Co20  1  0.503758  0.162759  0.163873  1
  Si  Si21  1  0.999439  0.999439  0.498688  1
  Si  Si22  1  0.500825  0.994004  0.500807  1
  Si  Si23  1  0.504121  0.504121  0.503772  1
  Si  Si24  1  0.999358  0.498668  0.999499  1
  Si  Si25  1  0.500866  0.500866  0.994116  1
  Si  Si26  1  0.498668  0.999358  0.999499  1
  Si  Si27  1  0.994004  0.500825  0.500807  1
  Ru  Ru28  1  0.381731  0.381731  0.382265  1
