# generated using pymatgen
data_Cs2NaPS4
_symmetry_space_group_name_H-M   'P 1'
_cell_length_a   7.05515435
_cell_length_b   7.25927068
_cell_length_c   11.84621062
_cell_angle_alpha   93.64138040
_cell_angle_beta   105.71133261
_cell_angle_gamma   113.37792310
_symmetry_Int_Tables_number   1
_chemical_formula_structural   Cs2NaPS4
_chemical_formula_sum   'Cs4 Na2 P2 S8'
_cell_volume   525.96438906
_cell_formula_units_Z   2
loop_
 _symmetry_equiv_pos_site_id
 _symmetry_equiv_pos_as_xyz
  1  'x, y, z'
loop_
 _atom_site_type_symbol
 _atom_site_label
 _atom_site_symmetry_multiplicity
 _atom_site_fract_x
 _atom_site_fract_y
 _atom_site_fract_z
 _atom_site_occupancy
  Cs  Cs0  1  0.852914  0.722913  0.095967  1
  Cs  Cs1  1  0.147086  0.277087  0.904033  1
  Cs  Cs2  1  0.449715  0.981078  0.692644  1
  Cs  Cs3  1  0.550285  0.018922  0.307356  1
  Na  Na4  1  0.774776  0.584832  0.433658  1
  Na  Na5  1  0.225224  0.415168  0.566342  1
  P  P6  1  0.862192  0.647674  0.732039  1
  P  P7  1  0.137808  0.352326  0.267961  1
  S  S8  1  0.128686  0.761759  0.883385  1
  S  S9  1  0.871314  0.238241  0.116615  1
  S  S10  1  0.578303  0.551279  0.777330  1
  S  S11  1  0.421697  0.448721  0.222670  1
  S  S12  1  0.877523  0.872250  0.631075  1
  S  S13  1  0.122477  0.127750  0.368925  1
  S  S14  1  0.854308  0.397463  0.631686  1
  S  S15  1  0.145692  0.602537  0.368314  1
