# generated using pymatgen
data_CeDy12Tm3(CdCo)4
_symmetry_space_group_name_H-M   'P 1'
_cell_length_a   9.42179300
_cell_length_b   9.50205742
_cell_length_c   9.42378612
_cell_angle_alpha   60.36501266
_cell_angle_beta   60.02640471
_cell_angle_gamma   60.25652225
_symmetry_Int_Tables_number   1
_chemical_formula_structural   CeDy12Tm3(CdCo)4
_chemical_formula_sum   'Ce1 Dy12 Tm3 Cd4 Co4'
_cell_volume   599.47675307
_cell_formula_units_Z   1
loop_
 _symmetry_equiv_pos_site_id
 _symmetry_equiv_pos_as_xyz
  1  'x, y, z'
loop_
 _atom_site_type_symbol
 _atom_site_label
 _atom_site_symmetry_multiplicity
 _atom_site_fract_x
 _atom_site_fract_y
 _atom_site_fract_z
 _atom_site_occupancy
  Ce  Ce0  1  0.161240  0.517870  0.159976  1
  Dy  Dy1  1  0.543286  0.150947  0.152244  1
  Dy  Dy2  1  0.151795  0.150618  0.544244  1
  Dy  Dy3  1  0.937192  0.937194  0.561934  1
  Dy  Dy4  1  0.310097  0.690178  0.312638  1
  Dy  Dy5  1  0.562776  0.937160  0.937737  1
  Dy  Dy6  1  0.563925  0.936932  0.561405  1
  Dy  Dy7  1  0.687171  0.689062  0.313722  1
  Dy  Dy8  1  0.562352  0.560795  0.938275  1
  Dy  Dy9  1  0.938426  0.560839  0.938793  1
  Dy  Dy10  1  0.311811  0.690831  0.686705  1
  Dy  Dy11  1  0.153046  0.150543  0.153419  1
  Dy  Dy12  1  0.312387  0.314500  0.686527  1
  Tm  Tm13  1  0.687565  0.314660  0.686743  1
  Tm  Tm14  1  0.687756  0.313101  0.312353  1
  Tm  Tm15  1  0.939082  0.560303  0.560907  1
  Cd  Cd16  1  0.918838  0.242342  0.919078  1
  Cd  Cd17  1  0.919846  0.918619  0.920283  1
  Cd  Cd18  1  0.919799  0.917089  0.243500  1
  Cd  Cd19  1  0.241219  0.918267  0.920491  1
  Co  Co20  1  0.351460  0.368150  0.929015  1
  Co  Co21  1  0.359171  0.923775  0.357615  1
  Co  Co22  1  0.928989  0.368028  0.351461  1
  Co  Co23  1  0.350773  0.368193  0.350940  1
