# generated using pymatgen
data_K6O
_symmetry_space_group_name_H-M   'P 1'
_cell_length_a   7.94117829
_cell_length_b   7.94238224
_cell_length_c   28.56879000
_cell_angle_alpha   90.00000000
_cell_angle_beta   90.00000000
_cell_angle_gamma   120.01045174
_symmetry_Int_Tables_number   1
_chemical_formula_structural   K6O
_chemical_formula_sum   'K24 O4'
_cell_volume   1560.31563559
_cell_formula_units_Z   4
loop_
 _symmetry_equiv_pos_site_id
 _symmetry_equiv_pos_as_xyz
  1  'x, y, z'
loop_
 _atom_site_type_symbol
 _atom_site_label
 _atom_site_symmetry_multiplicity
 _atom_site_fract_x
 _atom_site_fract_y
 _atom_site_fract_z
 _atom_site_occupancy
  K  K0  1  0.333287  0.666626  0.987837  1
  K  K1  1  0.666711  0.333360  0.487784  1
  K  K2  1  0.666711  0.333360  0.012216  1
  K  K3  1  0.333287  0.666626  0.512163  1
  K  K4  1  0.000004  0.000001  0.000010  1
  K  K5  1  0.000004  0.000001  0.499990  1
  K  K6  1  0.084721  0.424506  0.250000  1
  K  K7  1  0.915260  0.575505  0.750000  1
  K  K8  1  0.576113  0.660740  0.250000  1
  K  K9  1  0.340139  0.916193  0.250000  1
  K  K10  1  0.659892  0.083844  0.750000  1
  K  K11  1  0.423932  0.339275  0.750000  1
  K  K12  1  0.324190  0.385511  0.136502  1
  K  K13  1  0.675812  0.614446  0.636470  1
  K  K14  1  0.614956  0.939494  0.136514  1
  K  K15  1  0.060844  0.675955  0.136559  1
  K  K16  1  0.939122  0.324050  0.636526  1
  K  K17  1  0.385046  0.060527  0.636500  1
  K  K18  1  0.675812  0.614446  0.863530  1
  K  K19  1  0.324190  0.385511  0.363498  1
  K  K20  1  0.385046  0.060527  0.863500  1
  K  K21  1  0.939122  0.324050  0.863474  1
  K  K22  1  0.060844  0.675955  0.363441  1
  K  K23  1  0.614956  0.939494  0.363485  1
  O  O24  1  0.333475  0.667028  0.184139  1
  O  O25  1  0.666529  0.332972  0.684154  1
  O  O26  1  0.666529  0.332972  0.815846  1
  O  O27  1  0.333475  0.667028  0.315861  1
