# generated using pymatgen
data_Tb9Th(PPb3)2
_symmetry_space_group_name_H-M   'P 1'
_cell_length_a   9.25678277
_cell_length_b   9.25678278
_cell_length_c   6.82100500
_cell_angle_alpha   90.00000000
_cell_angle_beta   90.00000000
_cell_angle_gamma   120.21814661
_symmetry_Int_Tables_number   1
_chemical_formula_structural   Tb9Th(PPb3)2
_chemical_formula_sum   'Tb9 Th1 P2 Pb6'
_cell_volume   505.05686616
_cell_formula_units_Z   1
loop_
 _symmetry_equiv_pos_site_id
 _symmetry_equiv_pos_as_xyz
  1  'x, y, z'
loop_
 _atom_site_type_symbol
 _atom_site_label
 _atom_site_symmetry_multiplicity
 _atom_site_fract_x
 _atom_site_fract_y
 _atom_site_fract_z
 _atom_site_occupancy
  Tb  Tb0  1  0.238555  0.000528  0.750000  1
  Tb  Tb1  1  0.000528  0.238555  0.750000  1
  Tb  Tb2  1  0.237516  0.237516  0.250000  1
  Tb  Tb3  1  0.762226  0.000414  0.250000  1
  Tb  Tb4  1  0.000414  0.762226  0.250000  1
  Tb  Tb5  1  0.666894  0.332772  0.000574  1
  Tb  Tb6  1  0.332772  0.666894  0.000574  1
  Tb  Tb7  1  0.332772  0.666894  0.499426  1
  Tb  Tb8  1  0.666894  0.332772  0.499426  1
  Th  Th9  1  0.760801  0.760801  0.750000  1
  P  P10  1  0.001235  0.001235  0.001190  1
  P  P11  1  0.001235  0.001235  0.498810  1
  Pb  Pb12  1  0.397703  0.397703  0.750000  1
  Pb  Pb13  1  0.599111  0.002086  0.750000  1
  Pb  Pb14  1  0.002086  0.599111  0.750000  1
  Pb  Pb15  1  0.600130  0.600130  0.250000  1
  Pb  Pb16  1  0.399206  0.999920  0.250000  1
  Pb  Pb17  1  0.999920  0.399206  0.250000  1
