# generated using pymatgen
data_LiY15ErCd3Pt4
_symmetry_space_group_name_H-M   'P 1'
_cell_length_a   9.72782936
_cell_length_b   9.72782901
_cell_length_c   9.72783048
_cell_angle_alpha   59.83287533
_cell_angle_beta   59.83287833
_cell_angle_gamma   59.83287378
_symmetry_Int_Tables_number   1
_chemical_formula_structural   LiY15ErCd3Pt4
_chemical_formula_sum   'Li1 Y15 Er1 Cd3 Pt4'
_cell_volume   648.45884565
_cell_formula_units_Z   1
loop_
 _symmetry_equiv_pos_site_id
 _symmetry_equiv_pos_as_xyz
  1  'x, y, z'
loop_
 _atom_site_type_symbol
 _atom_site_label
 _atom_site_symmetry_multiplicity
 _atom_site_fract_x
 _atom_site_fract_y
 _atom_site_fract_z
 _atom_site_occupancy
  Li  Li0  1  0.571384  0.571384  0.571384  1
  Y  Y1  1  0.352762  0.352762  0.943158  1
  Y  Y2  1  0.352762  0.943158  0.352762  1
  Y  Y3  1  0.943158  0.352762  0.352762  1
  Y  Y4  1  0.808893  0.192922  0.192922  1
  Y  Y5  1  0.188485  0.812441  0.812441  1
  Y  Y6  1  0.192922  0.808893  0.192922  1
  Y  Y7  1  0.812441  0.188485  0.812441  1
  Y  Y8  1  0.192922  0.192922  0.808893  1
  Y  Y9  1  0.812441  0.812441  0.188485  1
  Y  Y10  1  0.937459  0.564395  0.564395  1
  Y  Y11  1  0.563082  0.936282  0.936282  1
  Y  Y12  1  0.564395  0.937459  0.564395  1
  Y  Y13  1  0.936282  0.563082  0.936282  1
  Y  Y14  1  0.564395  0.564395  0.937459  1
  Y  Y15  1  0.936282  0.936282  0.563082  1
  Er  Er16  1  0.350386  0.350386  0.350386  1
  Cd  Cd17  1  0.581656  0.581656  0.254117  1
  Cd  Cd18  1  0.581656  0.254117  0.581656  1
  Cd  Cd19  1  0.254117  0.581656  0.581656  1
  Pt  Pt20  1  0.143891  0.143891  0.143891  1
  Pt  Pt21  1  0.144038  0.144038  0.570153  1
  Pt  Pt22  1  0.144038  0.570153  0.144038  1
  Pt  Pt23  1  0.570153  0.144038  0.144038  1
