# generated using pymatgen
data_Ba3Sr5Li4(InPb2)4
_symmetry_space_group_name_H-M   'P 1'
_cell_length_a   5.13072500
_cell_length_b   7.86208429
_cell_length_c   19.02037393
_cell_angle_alpha   89.74716188
_cell_angle_beta   90.00000000
_cell_angle_gamma   90.00000000
_symmetry_Int_Tables_number   1
_chemical_formula_structural   Ba3Sr5Li4(InPb2)4
_chemical_formula_sum   'Ba3 Sr5 Li4 In4 Pb8'
_cell_volume   767.24003311
_cell_formula_units_Z   1
loop_
 _symmetry_equiv_pos_site_id
 _symmetry_equiv_pos_as_xyz
  1  'x, y, z'
loop_
 _atom_site_type_symbol
 _atom_site_label
 _atom_site_symmetry_multiplicity
 _atom_site_fract_x
 _atom_site_fract_y
 _atom_site_fract_z
 _atom_site_occupancy
  Ba  Ba0  1  0.250000  0.341012  0.942859  1
  Ba  Ba1  1  0.250000  0.837418  0.558415  1
  Ba  Ba2  1  0.750000  0.162937  0.440762  1
  Sr  Sr3  1  0.750000  0.495741  0.269934  1
  Sr  Sr4  1  0.750000  0.994863  0.225943  1
  Sr  Sr5  1  0.750000  0.666049  0.059842  1
  Sr  Sr6  1  0.250000  0.502581  0.728283  1
  Sr  Sr7  1  0.250000  0.001150  0.774649  1
  Li  Li8  1  0.250000  0.986708  0.076274  1
  Li  Li9  1  0.750000  0.512760  0.577653  1
  Li  Li10  1  0.750000  0.008931  0.925565  1
  Li  Li11  1  0.250000  0.487430  0.421601  1
  In  In12  1  0.750000  0.176990  0.654725  1
  In  In13  1  0.250000  0.821070  0.342832  1
  In  In14  1  0.750000  0.672981  0.849407  1
  In  In15  1  0.250000  0.321857  0.153039  1
  Pb  Pb16  1  0.750000  0.205715  0.066328  1
  Pb  Pb17  1  0.750000  0.784364  0.689163  1
  Pb  Pb18  1  0.250000  0.214897  0.311466  1
  Pb  Pb19  1  0.250000  0.713499  0.182751  1
  Pb  Pb20  1  0.250000  0.309359  0.566621  1
  Pb  Pb21  1  0.750000  0.282108  0.813543  1
  Pb  Pb22  1  0.250000  0.807386  0.936713  1
  Pb  Pb23  1  0.750000  0.692196  0.431632  1
