# generated using pymatgen
data_CaThNi10
_symmetry_space_group_name_H-M   'P 1'
_cell_length_a   6.31440470
_cell_length_b   6.31440422
_cell_length_c   6.31440354
_cell_angle_alpha   133.96202081
_cell_angle_beta   102.11304312
_cell_angle_gamma   95.50759049
_symmetry_Int_Tables_number   1
_chemical_formula_structural   CaThNi10
_chemical_formula_sum   'Ca1 Th1 Ni10'
_cell_volume   166.41438767
_cell_formula_units_Z   1
loop_
 _symmetry_equiv_pos_site_id
 _symmetry_equiv_pos_as_xyz
  1  'x, y, z'
loop_
 _atom_site_type_symbol
 _atom_site_label
 _atom_site_symmetry_multiplicity
 _atom_site_fract_x
 _atom_site_fract_y
 _atom_site_fract_z
 _atom_site_occupancy
  Ca  Ca0  1  0.250000  0.497438  0.247438  1
  Th  Th1  1  0.750000  0.502201  0.752201  1
  Ni  Ni2  1  0.079221  0.825266  0.746045  1
  Ni  Ni3  1  0.420779  0.166825  0.746045  1
  Ni  Ni4  1  0.587015  0.840796  0.253782  1
  Ni  Ni5  1  0.912985  0.166768  0.253782  1
  Ni  Ni6  1  0.004489  0.999548  0.504036  1
  Ni  Ni7  1  0.495511  0.999548  0.995059  1
  Ni  Ni8  1  0.751577  0.000705  0.751678  1
  Ni  Ni9  1  0.748423  0.500101  0.249128  1
  Ni  Ni10  1  0.250972  0.500101  0.751678  1
  Ni  Ni11  1  0.249028  0.000705  0.249128  1
