# generated using pymatgen
data_TbDy7In2NiIr
_symmetry_space_group_name_H-M   'P 1'
_cell_length_a   9.63365202
_cell_length_b   9.63365237
_cell_length_c   9.61215400
_cell_angle_alpha   60.07379301
_cell_angle_beta   60.07379180
_cell_angle_gamma   60.32413542
_symmetry_Int_Tables_number   1
_chemical_formula_structural   TbDy7In2NiIr
_chemical_formula_sum   'Tb2 Dy14 In4 Ni2 Ir2'
_cell_volume   633.03266223
_cell_formula_units_Z   2
loop_
 _symmetry_equiv_pos_site_id
 _symmetry_equiv_pos_as_xyz
  1  'x, y, z'
loop_
 _atom_site_type_symbol
 _atom_site_label
 _atom_site_symmetry_multiplicity
 _atom_site_fract_x
 _atom_site_fract_y
 _atom_site_fract_z
 _atom_site_occupancy
  Tb  Tb0  1  0.597887  0.597887  0.599504  1
  Tb  Tb1  1  0.597887  0.597887  0.204720  1
  Dy  Dy2  1  0.597553  0.202475  0.599987  1
  Dy  Dy3  1  0.202475  0.597553  0.599987  1
  Dy  Dy4  1  0.061331  0.440922  0.438605  1
  Dy  Dy5  1  0.440922  0.061331  0.059142  1
  Dy  Dy6  1  0.440922  0.061331  0.438605  1
  Dy  Dy7  1  0.061331  0.440922  0.059142  1
  Dy  Dy8  1  0.439623  0.439623  0.060377  1
  Dy  Dy9  1  0.059282  0.059282  0.440718  1
  Dy  Dy10  1  0.188887  0.813826  0.808608  1
  Dy  Dy11  1  0.813826  0.188887  0.188679  1
  Dy  Dy12  1  0.813826  0.188887  0.808608  1
  Dy  Dy13  1  0.188887  0.813826  0.188679  1
  Dy  Dy14  1  0.810641  0.810641  0.189359  1
  Dy  Dy15  1  0.187787  0.187787  0.812213  1
  In  In16  1  0.832687  0.832687  0.832377  1
  In  In17  1  0.832687  0.832687  0.502249  1
  In  In18  1  0.832576  0.502539  0.832443  1
  In  In19  1  0.502539  0.832576  0.832443  1
  Ni  Ni20  1  0.390787  0.390787  0.393688  1
  Ni  Ni21  1  0.390787  0.390787  0.824740  1
  Ir  Ir22  1  0.390134  0.824739  0.392564  1
  Ir  Ir23  1  0.824739  0.390134  0.392564  1
