# generated using pymatgen
data_Er20Ir7Au5
_symmetry_space_group_name_H-M   'P 1'
_cell_length_a   11.06588557
_cell_length_b   11.06588557
_cell_length_c   6.32215837
_cell_angle_alpha   89.89783023
_cell_angle_beta   89.89783023
_cell_angle_gamma   89.51890735
_symmetry_Int_Tables_number   1
_chemical_formula_structural   Er20Ir7Au5
_chemical_formula_sum   'Er20 Ir7 Au5'
_cell_volume   774.14273380
_cell_formula_units_Z   1
loop_
 _symmetry_equiv_pos_site_id
 _symmetry_equiv_pos_as_xyz
  1  'x, y, z'
loop_
 _atom_site_type_symbol
 _atom_site_label
 _atom_site_symmetry_multiplicity
 _atom_site_fract_x
 _atom_site_fract_y
 _atom_site_fract_z
 _atom_site_occupancy
  Er  Er0  1  0.300599  0.090725  0.365612  1
  Er  Er1  1  0.302283  0.907915  0.863485  1
  Er  Er2  1  0.697097  0.080260  0.861315  1
  Er  Er3  1  0.697418  0.906327  0.362572  1
  Er  Er4  1  0.581128  0.786398  0.877229  1
  Er  Er5  1  0.575631  0.205970  0.364318  1
  Er  Er6  1  0.418252  0.790133  0.376764  1
  Er  Er7  1  0.411613  0.207410  0.879638  1
  Er  Er8  1  0.213602  0.418872  0.622771  1
  Er  Er9  1  0.209867  0.581748  0.123236  1
  Er  Er10  1  0.794030  0.424369  0.135682  1
  Er  Er11  1  0.792590  0.588387  0.620362  1
  Er  Er12  1  0.909275  0.699401  0.134388  1
  Er  Er13  1  0.919740  0.302903  0.638685  1
  Er  Er14  1  0.092085  0.697717  0.636515  1
  Er  Er15  1  0.093673  0.302582  0.137428  1
  Er  Er16  1  0.999056  0.999962  0.499156  1
  Er  Er17  1  0.000038  0.000944  0.000844  1
  Er  Er18  1  0.495800  0.502513  0.001578  1
  Er  Er19  1  0.497487  0.504200  0.498422  1
  Ir  Ir20  1  0.652972  0.651463  0.250477  1
  Ir  Ir21  1  0.348537  0.347028  0.249523  1
  Ir  Ir22  1  0.345491  0.654509  0.750000  1
  Ir  Ir23  1  0.499699  0.999696  0.113295  1
  Ir  Ir24  1  0.499473  0.000358  0.615432  1
  Ir  Ir25  1  0.999642  0.500527  0.884568  1
  Ir  Ir26  1  0.000304  0.500301  0.386705  1
  Au  Au27  1  0.842082  0.157918  0.250000  1
  Au  Au28  1  0.843804  0.845277  0.750276  1
  Au  Au29  1  0.154723  0.156196  0.749724  1
  Au  Au30  1  0.156292  0.843708  0.250000  1
  Au  Au31  1  0.655716  0.344284  0.750000  1
