# generated using pymatgen
data_Sc10CdIn2Ni4Hg5
_symmetry_space_group_name_H-M   'P 1'
_cell_length_a   3.33999700
_cell_length_b   7.51128596
_cell_length_c   17.30898641
_cell_angle_alpha   90.14240997
_cell_angle_beta   90.00000000
_cell_angle_gamma   90.00000000
_symmetry_Int_Tables_number   1
_chemical_formula_structural   Sc10CdIn2Ni4Hg5
_chemical_formula_sum   'Sc10 Cd1 In2 Ni4 Hg5'
_cell_volume   434.24084246
_cell_formula_units_Z   1
loop_
 _symmetry_equiv_pos_site_id
 _symmetry_equiv_pos_as_xyz
  1  'x, y, z'
loop_
 _atom_site_type_symbol
 _atom_site_label
 _atom_site_symmetry_multiplicity
 _atom_site_fract_x
 _atom_site_fract_y
 _atom_site_fract_z
 _atom_site_occupancy
  Sc  Sc0  1  0.500000  0.123488  0.912449  1
  Sc  Sc1  1  0.500000  0.620236  0.588365  1
  Sc  Sc2  1  0.500000  0.380313  0.411669  1
  Sc  Sc3  1  0.500000  0.879670  0.087912  1
  Sc  Sc4  1  0.500000  0.999394  0.499215  1
  Sc  Sc5  1  0.500000  0.761649  0.777251  1
  Sc  Sc6  1  0.500000  0.746940  0.283345  1
  Sc  Sc7  1  0.500000  0.252288  0.717986  1
  Sc  Sc8  1  0.500000  0.497750  0.002749  1
  Sc  Sc9  1  0.500000  0.240000  0.220061  1
  Cd  Cd10  1  0.000000  0.433059  0.848046  1
  In  In11  1  0.000000  0.570867  0.152864  1
  In  In12  1  0.000000  0.792522  0.932154  1
  Ni  Ni13  1  0.000000  0.460295  0.303817  1
  Ni  Ni14  1  0.000000  0.539519  0.695243  1
  Ni  Ni15  1  0.000000  0.040988  0.805611  1
  Ni  Ni16  1  0.000000  0.955960  0.195718  1
  Hg  Hg17  1  0.000000  0.203174  0.067053  1
  Hg  Hg18  1  0.000000  0.704082  0.433467  1
  Hg  Hg19  1  0.000000  0.928017  0.649995  1
  Hg  Hg20  1  0.000000  0.074621  0.349064  1
  Hg  Hg21  1  0.000000  0.295166  0.565963  1
