# generated using pymatgen
data_Er9ScCd3Pt
_symmetry_space_group_name_H-M   'P 1'
_cell_length_a   9.43207600
_cell_length_b   9.43207563
_cell_length_c   9.70674000
_cell_angle_alpha   90.00000000
_cell_angle_beta   90.00000000
_cell_angle_gamma   120.00000130
_symmetry_Int_Tables_number   1
_chemical_formula_structural   Er9ScCd3Pt
_chemical_formula_sum   'Er18 Sc2 Cd6 Pt2'
_cell_volume   747.85704463
_cell_formula_units_Z   2
loop_
 _symmetry_equiv_pos_site_id
 _symmetry_equiv_pos_as_xyz
  1  'x, y, z'
loop_
 _atom_site_type_symbol
 _atom_site_label
 _atom_site_symmetry_multiplicity
 _atom_site_fract_x
 _atom_site_fract_y
 _atom_site_fract_z
 _atom_site_occupancy
  Er  Er0  1  0.207269  0.792731  0.444408  1
  Er  Er1  1  0.207269  0.414538  0.444408  1
  Er  Er2  1  0.585462  0.792731  0.444408  1
  Er  Er3  1  0.792731  0.207269  0.555592  1
  Er  Er4  1  0.792731  0.585462  0.555592  1
  Er  Er5  1  0.414538  0.207269  0.555592  1
  Er  Er6  1  0.792731  0.207269  0.944408  1
  Er  Er7  1  0.792731  0.585462  0.944408  1
  Er  Er8  1  0.414538  0.207269  0.944408  1
  Er  Er9  1  0.207269  0.792731  0.055592  1
  Er  Er10  1  0.207269  0.414538  0.055592  1
  Er  Er11  1  0.585462  0.792731  0.055592  1
  Er  Er12  1  0.542057  0.457943  0.250000  1
  Er  Er13  1  0.542057  0.084113  0.250000  1
  Er  Er14  1  0.915887  0.457943  0.250000  1
  Er  Er15  1  0.457943  0.542057  0.750000  1
  Er  Er16  1  0.457943  0.915887  0.750000  1
  Er  Er17  1  0.084113  0.542057  0.750000  1
  Sc  Sc18  1  0.000000  0.000000  0.500000  1
  Sc  Sc19  1  0.000000  0.000000  0.000000  1
  Cd  Cd20  1  0.889362  0.110638  0.250000  1
  Cd  Cd21  1  0.889362  0.778725  0.250000  1
  Cd  Cd22  1  0.221275  0.110638  0.250000  1
  Cd  Cd23  1  0.110638  0.889362  0.750000  1
  Cd  Cd24  1  0.110638  0.221275  0.750000  1
  Cd  Cd25  1  0.778725  0.889362  0.750000  1
  Pt  Pt26  1  0.333333  0.666667  0.250000  1
  Pt  Pt27  1  0.666667  0.333333  0.750000  1
