# generated using pymatgen
data_Cs3As2Au3
_symmetry_space_group_name_H-M   'P 1'
_cell_length_a   8.13689403
_cell_length_b   8.13689366
_cell_length_c   8.13689497
_cell_angle_alpha   49.27230999
_cell_angle_beta   49.27231357
_cell_angle_gamma   49.27230473
_symmetry_Int_Tables_number   1
_chemical_formula_structural   Cs3As2Au3
_chemical_formula_sum   'Cs3 As2 Au3'
_cell_volume   284.25212436
_cell_formula_units_Z   1
loop_
 _symmetry_equiv_pos_site_id
 _symmetry_equiv_pos_as_xyz
  1  'x, y, z'
loop_
 _atom_site_type_symbol
 _atom_site_label
 _atom_site_symmetry_multiplicity
 _atom_site_fract_x
 _atom_site_fract_y
 _atom_site_fract_z
 _atom_site_occupancy
  Cs  Cs0  1  0.500000  0.500000  0.500000  1
  Cs  Cs1  1  0.912815  0.912815  0.912815  1
  Cs  Cs2  1  0.087185  0.087185  0.087185  1
  As  As3  1  0.259205  0.259205  0.259205  1
  As  As4  1  0.740795  0.740795  0.740795  1
  Au  Au5  1  0.000000  0.500000  0.500000  1
  Au  Au6  1  0.500000  0.000000  0.500000  1
  Au  Au7  1  0.500000  0.500000  0.000000  1
