# generated using pymatgen
data_Dy4Lu(SiTe)2
_symmetry_space_group_name_H-M   'P 1'
_cell_length_a   8.50243100
_cell_length_b   8.50243143
_cell_length_c   7.82740100
_cell_angle_alpha   90.00000000
_cell_angle_beta   90.00000000
_cell_angle_gamma   125.39626790
_symmetry_Int_Tables_number   1
_chemical_formula_structural   Dy4Lu(SiTe)2
_chemical_formula_sum   'Dy8 Lu2 Si4 Te4'
_cell_volume   461.26408747
_cell_formula_units_Z   2
loop_
 _symmetry_equiv_pos_site_id
 _symmetry_equiv_pos_as_xyz
  1  'x, y, z'
loop_
 _atom_site_type_symbol
 _atom_site_label
 _atom_site_symmetry_multiplicity
 _atom_site_fract_x
 _atom_site_fract_y
 _atom_site_fract_z
 _atom_site_occupancy
  Dy  Dy0  1  0.039989  0.287942  0.335638  1
  Dy  Dy1  1  0.960011  0.712058  0.664362  1
  Dy  Dy2  1  0.460011  0.212058  0.835638  1
  Dy  Dy3  1  0.787942  0.539989  0.164362  1
  Dy  Dy4  1  0.539989  0.787942  0.164362  1
  Dy  Dy5  1  0.212058  0.460011  0.835638  1
  Dy  Dy6  1  0.712058  0.960011  0.664362  1
  Dy  Dy7  1  0.287942  0.039989  0.335638  1
  Lu  Lu8  1  0.000000  0.000000  0.000000  1
  Lu  Lu9  1  0.500000  0.500000  0.500000  1
  Si  Si10  1  0.361796  0.361796  0.135094  1
  Si  Si11  1  0.638204  0.638204  0.864906  1
  Si  Si12  1  0.138204  0.138204  0.635094  1
  Si  Si13  1  0.861796  0.861796  0.364906  1
  Te  Te14  1  0.796725  0.203275  0.000000  1
  Te  Te15  1  0.203275  0.796725  0.000000  1
  Te  Te16  1  0.703275  0.296725  0.500000  1
  Te  Te17  1  0.296725  0.703275  0.500000  1
