# generated using pymatgen
data_Ta2TiV9Si10
_symmetry_space_group_name_H-M   'P 1'
_cell_length_a   4.89250611
_cell_length_b   7.58619435
_cell_length_c   9.21092168
_cell_angle_alpha   65.68698264
_cell_angle_beta   74.59848433
_cell_angle_gamma   90.00001019
_symmetry_Int_Tables_number   1
_chemical_formula_structural   Ta2TiV9Si10
_chemical_formula_sum   'Ta2 Ti1 V9 Si10'
_cell_volume   298.02415588
_cell_formula_units_Z   1
loop_
 _symmetry_equiv_pos_site_id
 _symmetry_equiv_pos_as_xyz
  1  'x, y, z'
loop_
 _atom_site_type_symbol
 _atom_site_label
 _atom_site_symmetry_multiplicity
 _atom_site_fract_x
 _atom_site_fract_y
 _atom_site_fract_z
 _atom_site_occupancy
  Ta  Ta0  1  0.857966  0.741431  0.284069  1
  Ta  Ta1  1  0.642353  0.028136  0.715295  1
  Ti  Ti2  1  0.357726  0.973728  0.284545  1
  V  V3  1  0.438871  0.691175  0.620935  1
  V  V4  1  0.059544  0.310883  0.379809  1
  V  V5  1  0.560647  0.310883  0.379809  1
  V  V6  1  0.940193  0.691175  0.620935  1
  V  V7  1  0.435548  0.682211  0.128905  1
  V  V8  1  0.564384  0.317823  0.871233  1
  V  V9  1  0.936089  0.189046  0.127823  1
  V  V10  1  0.063841  0.809694  0.872317  1
  V  V11  1  0.142728  0.259960  0.714543  1
  Si  Si12  1  0.064718  0.474433  0.870564  1
  Si  Si13  1  0.937565  0.518393  0.124871  1
  Si  Si14  1  0.562479  0.645033  0.875040  1
  Si  Si15  1  0.436039  0.349467  0.127923  1
  Si  Si16  1  0.751958  0.002390  0.998181  1
  Si  Si17  1  0.249860  0.002390  0.998181  1
  Si  Si18  1  0.284458  0.578595  0.431085  1
  Si  Si19  1  0.712950  0.418932  0.574101  1
  Si  Si20  1  0.787002  0.992185  0.425996  1
  Si  Si21  1  0.213080  0.012035  0.573841  1
