# generated using pymatgen
data_Gd4ZnSi6Ir
_symmetry_space_group_name_H-M   'P 1'
_cell_length_a   8.12929100
_cell_length_b   8.12929117
_cell_length_c   8.16296200
_cell_angle_alpha   90.00000000
_cell_angle_beta   90.00000000
_cell_angle_gamma   119.99999526
_symmetry_Int_Tables_number   1
_chemical_formula_structural   Gd4ZnSi6Ir
_chemical_formula_sum   'Gd8 Zn2 Si12 Ir2'
_cell_volume   467.17949850
_cell_formula_units_Z   2
loop_
 _symmetry_equiv_pos_site_id
 _symmetry_equiv_pos_as_xyz
  1  'x, y, z'
loop_
 _atom_site_type_symbol
 _atom_site_label
 _atom_site_symmetry_multiplicity
 _atom_site_fract_x
 _atom_site_fract_y
 _atom_site_fract_z
 _atom_site_occupancy
  Gd  Gd0  1  0.502209  0.004419  0.243653  1
  Gd  Gd1  1  0.497791  0.995581  0.756347  1
  Gd  Gd2  1  0.995581  0.497791  0.243653  1
  Gd  Gd3  1  0.004419  0.502209  0.756347  1
  Gd  Gd4  1  0.502209  0.497791  0.243653  1
  Gd  Gd5  1  0.497791  0.502209  0.756347  1
  Gd  Gd6  1  0.000000  0.000000  0.249201  1
  Gd  Gd7  1  0.000000  0.000000  0.750799  1
  Zn  Zn8  1  0.666667  0.333333  0.511849  1
  Zn  Zn9  1  0.333333  0.666667  0.488151  1
  Si  Si10  1  0.166267  0.332535  0.003102  1
  Si  Si11  1  0.833733  0.667465  0.996898  1
  Si  Si12  1  0.667465  0.833733  0.003102  1
  Si  Si13  1  0.833873  0.667747  0.493472  1
  Si  Si14  1  0.332535  0.166267  0.996898  1
  Si  Si15  1  0.166127  0.332253  0.506528  1
  Si  Si16  1  0.166267  0.833733  0.003102  1
  Si  Si17  1  0.332253  0.166127  0.493472  1
  Si  Si18  1  0.833733  0.166267  0.996898  1
  Si  Si19  1  0.667747  0.833873  0.506528  1
  Si  Si20  1  0.833873  0.166127  0.493472  1
  Si  Si21  1  0.166127  0.833873  0.506528  1
  Ir  Ir22  1  0.333333  0.666667  0.003802  1
  Ir  Ir23  1  0.666667  0.333333  0.996198  1
