# generated using pymatgen
data_Rb16CrGe3Se16
_symmetry_space_group_name_H-M   'P 1'
_cell_length_a   8.51845323
_cell_length_b   10.16140100
_cell_length_c   14.91622100
_cell_angle_alpha   90.00000000
_cell_angle_beta   90.04147300
_cell_angle_gamma   90.00000000
_symmetry_Int_Tables_number   1
_chemical_formula_structural   Rb16CrGe3Se16
_chemical_formula_sum   'Rb16 Cr1 Ge3 Se16'
_cell_volume   1291.13908797
_cell_formula_units_Z   1
loop_
 _symmetry_equiv_pos_site_id
 _symmetry_equiv_pos_as_xyz
  1  'x, y, z'
loop_
 _atom_site_type_symbol
 _atom_site_label
 _atom_site_symmetry_multiplicity
 _atom_site_fract_x
 _atom_site_fract_y
 _atom_site_fract_z
 _atom_site_occupancy
  Rb  Rb0  1  0.999748  0.998618  0.999531  1
  Rb  Rb1  1  0.501322  0.999687  0.499786  1
  Rb  Rb2  1  0.999748  0.501382  0.999531  1
  Rb  Rb3  1  0.501322  0.500313  0.499786  1
  Rb  Rb4  1  0.994096  0.750000  0.420585  1
  Rb  Rb5  1  0.494756  0.250000  0.080600  1
  Rb  Rb6  1  0.000999  0.250000  0.579394  1
  Rb  Rb7  1  0.507621  0.750000  0.917723  1
  Rb  Rb8  1  0.835088  0.049938  0.276151  1
  Rb  Rb9  1  0.334609  0.949936  0.223948  1
  Rb  Rb10  1  0.167228  0.551118  0.722450  1
  Rb  Rb11  1  0.664684  0.447054  0.777431  1
  Rb  Rb12  1  0.167228  0.948882  0.722450  1
  Rb  Rb13  1  0.664684  0.052946  0.777431  1
  Rb  Rb14  1  0.835088  0.450062  0.276151  1
  Rb  Rb15  1  0.334609  0.550064  0.223948  1
  Cr  Cr16  1  0.764648  0.750000  0.665105  1
  Ge  Ge17  1  0.234905  0.250000  0.336396  1
  Ge  Ge18  1  0.734044  0.750000  0.164109  1
  Ge  Ge19  1  0.265382  0.250000  0.835281  1
  Se  Se20  1  0.983152  0.250000  0.826629  1
  Se  Se21  1  0.517584  0.250000  0.327499  1
  Se  Se22  1  0.489928  0.750000  0.672909  1
  Se  Se23  1  0.016454  0.750000  0.173181  1
  Se  Se24  1  0.645777  0.560121  0.085749  1
  Se  Se25  1  0.146962  0.440352  0.414245  1
  Se  Se26  1  0.352770  0.059903  0.913818  1
  Se  Se27  1  0.850302  0.935975  0.589234  1
  Se  Se28  1  0.352770  0.440097  0.913818  1
  Se  Se29  1  0.850302  0.564025  0.589234  1
  Se  Se30  1  0.645777  0.939879  0.085749  1
  Se  Se31  1  0.146962  0.059648  0.414245  1
  Se  Se32  1  0.629870  0.750000  0.315259  1
  Se  Se33  1  0.130191  0.250000  0.185248  1
  Se  Se34  1  0.369354  0.250000  0.684108  1
  Se  Se35  1  0.870034  0.750000  0.811281  1
