# generated using pymatgen
data_Tm7Cd(Co3Sn11)2
_symmetry_space_group_name_H-M   'P 1'
_cell_length_a   9.64113600
_cell_length_b   9.64113676
_cell_length_c   9.99010600
_cell_angle_alpha   90.00000000
_cell_angle_beta   90.00000000
_cell_angle_gamma   120.00000425
_symmetry_Int_Tables_number   1
_chemical_formula_structural   Tm7Cd(Co3Sn11)2
_chemical_formula_sum   'Tm7 Cd1 Co6 Sn22'
_cell_volume   804.18721073
_cell_formula_units_Z   1
loop_
 _symmetry_equiv_pos_site_id
 _symmetry_equiv_pos_as_xyz
  1  'x, y, z'
loop_
 _atom_site_type_symbol
 _atom_site_label
 _atom_site_symmetry_multiplicity
 _atom_site_fract_x
 _atom_site_fract_y
 _atom_site_fract_z
 _atom_site_occupancy
  Tm  Tm0  1  0.479730  0.520270  0.306054  1
  Tm  Tm1  1  0.520270  0.479730  0.693946  1
  Tm  Tm2  1  0.479730  0.959462  0.306054  1
  Tm  Tm3  1  0.520270  0.040538  0.693946  1
  Tm  Tm4  1  0.040538  0.520270  0.306054  1
  Tm  Tm5  1  0.959462  0.479730  0.693946  1
  Tm  Tm6  1  0.000000  0.000000  0.000000  1
  Cd  Cd7  1  0.000000  0.000000  0.500000  1
  Co  Co8  1  0.831704  0.168296  0.197158  1
  Co  Co9  1  0.168296  0.831704  0.802842  1
  Co  Co10  1  0.831704  0.663410  0.197158  1
  Co  Co11  1  0.168296  0.336590  0.802842  1
  Co  Co12  1  0.336590  0.168296  0.197158  1
  Co  Co13  1  0.663410  0.831704  0.802842  1
  Sn  Sn14  1  0.116888  0.883112  0.271231  1
  Sn  Sn15  1  0.883112  0.116888  0.728769  1
  Sn  Sn16  1  0.116888  0.233778  0.271231  1
  Sn  Sn17  1  0.883112  0.766222  0.728769  1
  Sn  Sn18  1  0.766222  0.883112  0.271231  1
  Sn  Sn19  1  0.233778  0.116888  0.728769  1
  Sn  Sn20  1  0.781961  0.218039  0.453767  1
  Sn  Sn21  1  0.218039  0.781961  0.546233  1
  Sn  Sn22  1  0.781961  0.563921  0.453767  1
  Sn  Sn23  1  0.218039  0.436079  0.546233  1
  Sn  Sn24  1  0.436079  0.218039  0.453767  1
  Sn  Sn25  1  0.563921  0.781961  0.546233  1
  Sn  Sn26  1  0.346072  0.000000  0.000000  1
  Sn  Sn27  1  0.653928  0.000000  0.000000  1
  Sn  Sn28  1  0.000000  0.346072  0.000000  1
  Sn  Sn29  1  0.000000  0.653928  0.000000  1
  Sn  Sn30  1  0.653928  0.653928  0.000000  1
  Sn  Sn31  1  0.346072  0.346072  0.000000  1
  Sn  Sn32  1  0.333333  0.666667  0.121770  1
  Sn  Sn33  1  0.666667  0.333333  0.878230  1
  Sn  Sn34  1  0.333333  0.666667  0.818574  1
  Sn  Sn35  1  0.666667  0.333333  0.181426  1
