# generated using pymatgen
data_Er6Zr4Sn5Te
_symmetry_space_group_name_H-M   'P 1'
_cell_length_a   8.81811800
_cell_length_b   8.80935250
_cell_length_c   6.09132700
_cell_angle_alpha   90.00000000
_cell_angle_beta   90.00000000
_cell_angle_gamma   120.03292051
_symmetry_Int_Tables_number   1
_chemical_formula_structural   Er6Zr4Sn5Te
_chemical_formula_sum   'Er6 Zr4 Sn5 Te1'
_cell_volume   409.65501604
_cell_formula_units_Z   1
loop_
 _symmetry_equiv_pos_site_id
 _symmetry_equiv_pos_as_xyz
  1  'x, y, z'
loop_
 _atom_site_type_symbol
 _atom_site_label
 _atom_site_symmetry_multiplicity
 _atom_site_fract_x
 _atom_site_fract_y
 _atom_site_fract_z
 _atom_site_occupancy
  Er  Er0  1  0.996209  0.756405  0.750000  1
  Er  Er1  1  0.002091  0.241660  0.250000  1
  Er  Er2  1  0.760430  0.758340  0.250000  1
  Er  Er3  1  0.759213  0.000000  0.750000  1
  Er  Er4  1  0.239804  0.243595  0.750000  1
  Er  Er5  1  0.243098  0.000000  0.250000  1
  Zr  Zr6  1  0.333478  0.666307  0.499236  1
  Zr  Zr7  1  0.667172  0.333693  0.000764  1
  Zr  Zr8  1  0.667172  0.333693  0.499236  1
  Zr  Zr9  1  0.333478  0.666307  0.000764  1
  Sn  Sn10  1  0.400977  0.400139  0.250000  1
  Sn  Sn11  1  0.000837  0.599861  0.250000  1
  Sn  Sn12  1  0.000157  0.401231  0.750000  1
  Sn  Sn13  1  0.598926  0.598769  0.750000  1
  Sn  Sn14  1  0.601053  0.000000  0.250000  1
  Te  Te15  1  0.395905  0.000000  0.750000  1
