# generated using pymatgen
data_UP2BrO8
_symmetry_space_group_name_H-M   'P 1'
_cell_length_a   5.59254737
_cell_length_b   5.60037722
_cell_length_c   9.25080959
_cell_angle_alpha   105.27876826
_cell_angle_beta   106.53265569
_cell_angle_gamma   59.93574705
_symmetry_Int_Tables_number   1
_chemical_formula_structural   UP2BrO8
_chemical_formula_sum   'U1 P2 Br1 O8'
_cell_volume   237.82322935
_cell_formula_units_Z   1
loop_
 _symmetry_equiv_pos_site_id
 _symmetry_equiv_pos_as_xyz
  1  'x, y, z'
loop_
 _atom_site_type_symbol
 _atom_site_label
 _atom_site_symmetry_multiplicity
 _atom_site_fract_x
 _atom_site_fract_y
 _atom_site_fract_z
 _atom_site_occupancy
  U  U0  1  0.000005  0.000003  0.999997  1
  P  P1  1  0.731686  0.719946  0.201972  1
  P  P2  1  0.268322  0.280061  0.798026  1
  Br  Br3  1  0.999960  0.999971  0.500011  1
  O  O4  1  0.852564  0.847833  0.128746  1
  O  O5  1  0.407281  0.854636  0.144462  1
  O  O6  1  0.851138  0.402842  0.138118  1
  O  O7  1  0.802546  0.761453  0.375465  1
  O  O8  1  0.197449  0.238478  0.624535  1
  O  O9  1  0.148857  0.597182  0.861850  1
  O  O10  1  0.592730  0.145395  0.855530  1
  O  O11  1  0.147466  0.152202  0.871287  1
