# generated using pymatgen
data_TbHo2Fe8Co
_symmetry_space_group_name_H-M   'P 1'
_cell_length_a   8.65644796
_cell_length_b   8.65644810
_cell_length_c   8.65644913
_cell_angle_alpha   34.23946682
_cell_angle_beta   34.23946533
_cell_angle_gamma   34.23946477
_symmetry_Int_Tables_number   1
_chemical_formula_structural   TbHo2Fe8Co
_chemical_formula_sum   'Tb1 Ho2 Fe8 Co1'
_cell_volume   183.11969582
_cell_formula_units_Z   1
loop_
 _symmetry_equiv_pos_site_id
 _symmetry_equiv_pos_as_xyz
  1  'x, y, z'
loop_
 _atom_site_type_symbol
 _atom_site_label
 _atom_site_symmetry_multiplicity
 _atom_site_fract_x
 _atom_site_fract_y
 _atom_site_fract_z
 _atom_site_occupancy
  Tb  Tb0  1  0.000000  0.000000  0.000000  1
  Ho  Ho1  1  0.141922  0.141922  0.141922  1
  Ho  Ho2  1  0.858078  0.858078  0.858078  1
  Fe  Fe3  1  0.332643  0.332643  0.332643  1
  Fe  Fe4  1  0.667357  0.667357  0.667357  1
  Fe  Fe5  1  0.082289  0.581467  0.581467  1
  Fe  Fe6  1  0.581467  0.581467  0.082289  1
  Fe  Fe7  1  0.581467  0.082289  0.581467  1
  Fe  Fe8  1  0.418533  0.917711  0.418533  1
  Fe  Fe9  1  0.917711  0.418533  0.418533  1
  Fe  Fe10  1  0.418533  0.418533  0.917711  1
  Co  Co11  1  0.500000  0.500000  0.500000  1
