# generated using pymatgen
data_YbEr(Si7Rh3)2
_symmetry_space_group_name_H-M   'P 1'
_cell_length_a   7.97348933
_cell_length_b   7.97348928
_cell_length_c   7.97349100
_cell_angle_alpha   57.10855502
_cell_angle_beta   57.10854667
_cell_angle_gamma   57.10854406
_symmetry_Int_Tables_number   1
_chemical_formula_structural   YbEr(Si7Rh3)2
_chemical_formula_sum   'Yb1 Er1 Si14 Rh6'
_cell_volume   334.56630388
_cell_formula_units_Z   1
loop_
 _symmetry_equiv_pos_site_id
 _symmetry_equiv_pos_as_xyz
  1  'x, y, z'
loop_
 _atom_site_type_symbol
 _atom_site_label
 _atom_site_symmetry_multiplicity
 _atom_site_fract_x
 _atom_site_fract_y
 _atom_site_fract_z
 _atom_site_occupancy
  Yb  Yb0  1  0.000000  0.000000  0.000000  1
  Er  Er1  1  0.500000  0.500000  0.500000  1
  Si  Si2  1  0.749960  0.749960  0.749960  1
  Si  Si3  1  0.250040  0.250040  0.250040  1
  Si  Si4  1  0.851541  0.065625  0.672845  1
  Si  Si5  1  0.672845  0.851541  0.065625  1
  Si  Si6  1  0.065625  0.672845  0.851541  1
  Si  Si7  1  0.649111  0.827845  0.433997  1
  Si  Si8  1  0.433997  0.649111  0.827845  1
  Si  Si9  1  0.827845  0.433997  0.649111  1
  Si  Si10  1  0.172155  0.566003  0.350889  1
  Si  Si11  1  0.566003  0.350889  0.172155  1
  Si  Si12  1  0.350889  0.172155  0.566003  1
  Si  Si13  1  0.934375  0.327155  0.148459  1
  Si  Si14  1  0.327155  0.148459  0.934375  1
  Si  Si15  1  0.148459  0.934375  0.327155  1
  Rh  Rh16  1  0.071977  0.430258  0.748970  1
  Rh  Rh17  1  0.251030  0.928023  0.569742  1
  Rh  Rh18  1  0.569742  0.251030  0.928023  1
  Rh  Rh19  1  0.928023  0.569742  0.251030  1
  Rh  Rh20  1  0.430258  0.748970  0.071977  1
  Rh  Rh21  1  0.748970  0.071977  0.430258  1
