# generated using pymatgen
data_Tb4MnFe10(P4Ir3)3
_symmetry_space_group_name_H-M   'P 1'
_cell_length_a   3.81528100
_cell_length_b   10.38276387
_cell_length_c   12.30730719
_cell_angle_alpha   90.04865543
_cell_angle_beta   90.00000000
_cell_angle_gamma   90.00000000
_symmetry_Int_Tables_number   1
_chemical_formula_structural   Tb4MnFe10(P4Ir3)3
_chemical_formula_sum   'Tb4 Mn1 Fe10 P12 Ir9'
_cell_volume   487.53117429
_cell_formula_units_Z   1
loop_
 _symmetry_equiv_pos_site_id
 _symmetry_equiv_pos_as_xyz
  1  'x, y, z'
loop_
 _atom_site_type_symbol
 _atom_site_label
 _atom_site_symmetry_multiplicity
 _atom_site_fract_x
 _atom_site_fract_y
 _atom_site_fract_z
 _atom_site_occupancy
  Tb  Tb0  1  0.250000  0.583513  0.714754  1
  Tb  Tb1  1  0.250000  0.916963  0.213721  1
  Tb  Tb2  1  0.750000  0.423843  0.286863  1
  Tb  Tb3  1  0.750000  0.076672  0.789538  1
  Mn  Mn4  1  0.750000  0.292912  0.007089  1
  Fe  Fe5  1  0.750000  0.774910  0.829391  1
  Fe  Fe6  1  0.750000  0.724424  0.329429  1
  Fe  Fe7  1  0.250000  0.873398  0.695896  1
  Fe  Fe8  1  0.250000  0.625023  0.194896  1
  Fe  Fe9  1  0.750000  0.119482  0.305073  1
  Fe  Fe10  1  0.750000  0.377544  0.803790  1
  Fe  Fe11  1  0.250000  0.460725  0.935679  1
  Fe  Fe12  1  0.250000  0.042168  0.439006  1
  Fe  Fe13  1  0.750000  0.543072  0.062594  1
  Fe  Fe14  1  0.750000  0.957619  0.563041  1
  P  P15  1  0.250000  0.435863  0.109418  1
  P  P16  1  0.250000  0.060169  0.613558  1
  P  P17  1  0.750000  0.569521  0.887332  1
  P  P18  1  0.750000  0.928729  0.387418  1
  P  P19  1  0.250000  0.272574  0.863703  1
  P  P20  1  0.250000  0.227667  0.362188  1
  P  P21  1  0.750000  0.725913  0.147598  1
  P  P22  1  0.750000  0.773353  0.648054  1
  P  P23  1  0.250000  0.608359  0.373788  1
  P  P24  1  0.250000  0.891326  0.875884  1
  P  P25  1  0.750000  0.404059  0.620774  1
  P  P26  1  0.750000  0.097220  0.119808  1
  Ir  Ir27  1  0.250000  0.708255  0.983623  1
  Ir  Ir28  1  0.250000  0.791449  0.483032  1
  Ir  Ir29  1  0.750000  0.214902  0.510305  1
  Ir  Ir30  1  0.250000  0.412463  0.474314  1
  Ir  Ir31  1  0.250000  0.090150  0.975412  1
  Ir  Ir32  1  0.750000  0.598968  0.522569  1
  Ir  Ir33  1  0.750000  0.899972  0.023944  1
  Ir  Ir34  1  0.250000  0.225110  0.173346  1
  Ir  Ir35  1  0.250000  0.271709  0.673164  1
