# generated using pymatgen
data_V8ZnGa3Sn8
_symmetry_space_group_name_H-M   'P 1'
_cell_length_a   9.83126129
_cell_length_b   9.83126079
_cell_length_c   6.75231102
_cell_angle_alpha   89.83985803
_cell_angle_beta   89.83985510
_cell_angle_gamma   146.71734771
_symmetry_Int_Tables_number   1
_chemical_formula_structural   V8ZnGa3Sn8
_chemical_formula_sum   'V8 Zn1 Ga3 Sn8'
_cell_volume   358.12971477
_cell_formula_units_Z   1
loop_
 _symmetry_equiv_pos_site_id
 _symmetry_equiv_pos_as_xyz
  1  'x, y, z'
loop_
 _atom_site_type_symbol
 _atom_site_label
 _atom_site_symmetry_multiplicity
 _atom_site_fract_x
 _atom_site_fract_y
 _atom_site_fract_z
 _atom_site_occupancy
  V  V0  1  0.573653  0.421918  0.470595  1
  V  V1  1  0.419171  0.572067  0.521948  1
  V  V2  1  0.078082  0.926347  0.029405  1
  V  V3  1  0.908550  0.591450  0.750000  1
  V  V4  1  0.407359  0.092641  0.750000  1
  V  V5  1  0.592583  0.907417  0.250000  1
  V  V6  1  0.927933  0.080829  0.978052  1
  V  V7  1  0.092774  0.407226  0.250000  1
  Zn  Zn8  1  0.766026  0.733974  0.750000  1
  Ga  Ga9  1  0.732991  0.767009  0.250000  1
  Ga  Ga10  1  0.233251  0.266749  0.250000  1
  Ga  Ga11  1  0.266875  0.233125  0.750000  1
  Sn  Sn12  1  0.722625  0.277384  0.422973  1
  Sn  Sn13  1  0.395519  0.613985  0.921075  1
  Sn  Sn14  1  0.276304  0.721484  0.576781  1
  Sn  Sn15  1  0.222616  0.777375  0.077027  1
  Sn  Sn16  1  0.778516  0.223696  0.923219  1
  Sn  Sn17  1  0.886015  0.104481  0.578925  1
  Sn  Sn18  1  0.612411  0.393253  0.073650  1
  Sn  Sn19  1  0.106747  0.887589  0.426350  1
