# generated using pymatgen
data_Nd3NiBr3
_symmetry_space_group_name_H-M   'P 1'
_cell_length_a   10.37201935
_cell_length_b   10.37292498
_cell_length_c   10.37292500
_cell_angle_alpha   109.47150437
_cell_angle_beta   109.47284925
_cell_angle_gamma   109.47285210
_symmetry_Int_Tables_number   1
_chemical_formula_structural   Nd3NiBr3
_chemical_formula_sum   'Nd12 Ni4 Br12'
_cell_volume   859.06278778
_cell_formula_units_Z   4
loop_
 _symmetry_equiv_pos_site_id
 _symmetry_equiv_pos_as_xyz
  1  'x, y, z'
loop_
 _atom_site_type_symbol
 _atom_site_label
 _atom_site_symmetry_multiplicity
 _atom_site_fract_x
 _atom_site_fract_y
 _atom_site_fract_z
 _atom_site_occupancy
  Nd  Nd0  1  0.466288  0.483144  0.233144  1
  Nd  Nd1  1  0.750000  0.233117  0.266883  1
  Nd  Nd2  1  0.750000  0.016883  0.483117  1
  Nd  Nd3  1  0.233108  0.466268  0.483153  1
  Nd  Nd4  1  0.266892  0.750046  0.233161  1
  Nd  Nd5  1  0.033712  0.266856  0.016856  1
  Nd  Nd6  1  0.016839  0.033714  0.266870  1
  Nd  Nd7  1  0.483161  0.750031  0.016874  1
  Nd  Nd8  1  0.483161  0.233130  0.466286  1
  Nd  Nd9  1  0.016839  0.483126  0.749969  1
  Nd  Nd10  1  0.266892  0.016847  0.033732  1
  Nd  Nd11  1  0.233108  0.266839  0.749954  1
  Ni  Ni12  1  0.250000  0.250007  0.249993  1
  Ni  Ni13  1  0.499993  0.999997  0.249997  1
  Ni  Ni14  1  0.000007  0.250003  0.500003  1
  Ni  Ni15  1  0.250000  0.499993  0.000007  1
  Br  Br16  1  0.250000  0.756700  0.743300  1
  Br  Br17  1  0.513397  0.506698  0.756698  1
  Br  Br18  1  0.986603  0.743302  0.993302  1
  Br  Br19  1  0.743295  0.249993  0.756695  1
  Br  Br20  1  0.993298  0.986601  0.743302  1
  Br  Br21  1  0.250000  0.993300  0.506700  1
  Br  Br22  1  0.756705  0.513400  0.506699  1
  Br  Br23  1  0.506702  0.250003  0.993302  1
  Br  Br24  1  0.756705  0.743305  0.250007  1
  Br  Br25  1  0.743295  0.993301  0.986600  1
  Br  Br26  1  0.993298  0.506698  0.249997  1
  Br  Br27  1  0.506702  0.756698  0.513399  1
