# generated using pymatgen
data_Zr3BeSi2Pd3
_symmetry_space_group_name_H-M   'P 1'
_cell_length_a   6.66256500
_cell_length_b   6.66256564
_cell_length_c   3.79922800
_cell_angle_alpha   90.00000000
_cell_angle_beta   90.00000000
_cell_angle_gamma   120.00000176
_symmetry_Int_Tables_number   1
_chemical_formula_structural   Zr3BeSi2Pd3
_chemical_formula_sum   'Zr3 Be1 Si2 Pd3'
_cell_volume   146.05248188
_cell_formula_units_Z   1
loop_
 _symmetry_equiv_pos_site_id
 _symmetry_equiv_pos_as_xyz
  1  'x, y, z'
loop_
 _atom_site_type_symbol
 _atom_site_label
 _atom_site_symmetry_multiplicity
 _atom_site_fract_x
 _atom_site_fract_y
 _atom_site_fract_z
 _atom_site_occupancy
  Zr  Zr0  1  0.406575  0.406575  0.500000  1
  Zr  Zr1  1  0.593425  0.000000  0.500000  1
  Zr  Zr2  1  0.000000  0.593425  0.500000  1
  Be  Be3  1  0.000000  0.000000  0.500000  1
  Si  Si4  1  0.666667  0.333333  0.000000  1
  Si  Si5  1  0.333333  0.666667  0.000000  1
  Pd  Pd6  1  0.752997  0.752997  0.000000  1
  Pd  Pd7  1  0.247003  0.000000  0.000000  1
  Pd  Pd8  1  0.000000  0.247003  0.000000  1
