# generated using pymatgen
data_DyHoTm2(Al3Rh)6
_symmetry_space_group_name_H-M   'P 1'
_cell_length_a   7.53881209
_cell_length_b   7.53983036
_cell_length_c   9.43926800
_cell_angle_alpha   90.00000000
_cell_angle_beta   90.00000000
_cell_angle_gamma   119.29833763
_symmetry_Int_Tables_number   1
_chemical_formula_structural   DyHoTm2(Al3Rh)6
_chemical_formula_sum   'Dy1 Ho1 Tm2 Al18 Rh6'
_cell_volume   467.90842544
_cell_formula_units_Z   1
loop_
 _symmetry_equiv_pos_site_id
 _symmetry_equiv_pos_as_xyz
  1  'x, y, z'
loop_
 _atom_site_type_symbol
 _atom_site_label
 _atom_site_symmetry_multiplicity
 _atom_site_fract_x
 _atom_site_fract_y
 _atom_site_fract_z
 _atom_site_occupancy
  Dy  Dy0  1  0.672230  0.994272  0.250000  1
  Ho  Ho1  1  0.994190  0.672119  0.250000  1
  Tm  Tm2  1  0.005786  0.327707  0.750000  1
  Tm  Tm3  1  0.327857  0.005852  0.750000  1
  Al  Al4  1  0.128396  0.128540  0.250000  1
  Al  Al5  1  0.871759  0.872015  0.750000  1
  Al  Al6  1  0.000864  0.335703  0.074912  1
  Al  Al7  1  0.999497  0.664017  0.923689  1
  Al  Al8  1  0.999497  0.664017  0.576311  1
  Al  Al9  1  0.335885  0.000887  0.424985  1
  Al  Al10  1  0.000864  0.335703  0.425088  1
  Al  Al11  1  0.664006  0.999551  0.575932  1
  Al  Al12  1  0.664006  0.999551  0.924068  1
  Al  Al13  1  0.335885  0.000887  0.075015  1
  Al  Al14  1  0.332481  0.332466  0.550757  1
  Al  Al15  1  0.667141  0.667243  0.450949  1
  Al  Al16  1  0.667141  0.667243  0.049051  1
  Al  Al17  1  0.332481  0.332466  0.949243  1
  Al  Al18  1  0.340000  0.550691  0.250000  1
  Al  Al19  1  0.660065  0.449336  0.750000  1
  Al  Al20  1  0.550514  0.339469  0.250000  1
  Al  Al21  1  0.449522  0.660290  0.750000  1
  Rh  Rh22  1  0.671979  0.327583  0.999438  1
  Rh  Rh23  1  0.327444  0.671912  0.999460  1
  Rh  Rh24  1  0.327444  0.671912  0.500540  1
  Rh  Rh25  1  0.671979  0.327583  0.500562  1
  Rh  Rh26  1  0.000542  0.000494  0.999175  1
  Rh  Rh27  1  0.000542  0.000494  0.500825  1
