# generated using pymatgen
data_Ca2Ce(PdPb)3
_symmetry_space_group_name_H-M   'P 1'
_cell_length_a   7.88539251
_cell_length_b   7.88539095
_cell_length_c   4.02430700
_cell_angle_alpha   90.00000000
_cell_angle_beta   90.00000000
_cell_angle_gamma   119.23325731
_symmetry_Int_Tables_number   1
_chemical_formula_structural   Ca2Ce(PdPb)3
_chemical_formula_sum   'Ca2 Ce1 Pd3 Pb3'
_cell_volume   218.35952739
_cell_formula_units_Z   1
loop_
 _symmetry_equiv_pos_site_id
 _symmetry_equiv_pos_as_xyz
  1  'x, y, z'
loop_
 _atom_site_type_symbol
 _atom_site_label
 _atom_site_symmetry_multiplicity
 _atom_site_fract_x
 _atom_site_fract_y
 _atom_site_fract_z
 _atom_site_occupancy
  Ca  Ca0  1  0.000894  0.599167  0.500000  1
  Ca  Ca1  1  0.599167  0.000894  0.500000  1
  Ce  Ce2  1  0.409704  0.409704  0.500000  1
  Pd  Pd3  1  0.006493  0.006493  0.500000  1
  Pd  Pd4  1  0.650074  0.334104  0.000000  1
  Pd  Pd5  1  0.334104  0.650074  0.000000  1
  Pb  Pb6  1  0.262785  0.992923  0.000000  1
  Pb  Pb7  1  0.743857  0.743857  0.000000  1
  Pb  Pb8  1  0.992923  0.262785  0.000000  1
