# generated using pymatgen
data_Tm4Sn6IrRh6
_symmetry_space_group_name_H-M   'P 1'
_cell_length_a   7.56513388
_cell_length_b   7.56511163
_cell_length_c   7.56511113
_cell_angle_alpha   109.40871301
_cell_angle_beta   109.50194694
_cell_angle_gamma   109.50194626
_symmetry_Int_Tables_number   1
_chemical_formula_structural   Tm4Sn6IrRh6
_chemical_formula_sum   'Tm4 Sn6 Ir1 Rh6'
_cell_volume   333.29649826
_cell_formula_units_Z   1
loop_
 _symmetry_equiv_pos_site_id
 _symmetry_equiv_pos_as_xyz
  1  'x, y, z'
loop_
 _atom_site_type_symbol
 _atom_site_label
 _atom_site_symmetry_multiplicity
 _atom_site_fract_x
 _atom_site_fract_y
 _atom_site_fract_z
 _atom_site_occupancy
  Tm  Tm0  1  0.998696  0.999348  0.499348  1
  Tm  Tm1  1  0.001304  0.500652  0.000652  1
  Tm  Tm2  1  0.500000  0.999346  0.000654  1
  Tm  Tm3  1  0.500000  0.500651  0.499349  1
  Sn  Sn4  1  0.686546  0.685974  0.999427  1
  Sn  Sn5  1  0.313454  0.000573  0.314026  1
  Sn  Sn6  1  0.000002  0.314342  0.314340  1
  Sn  Sn7  1  0.313448  0.312880  0.999424  1
  Sn  Sn8  1  0.686552  0.000576  0.687120  1
  Sn  Sn9  1  0.999998  0.685660  0.685658  1
  Ir  Ir10  1  0.500000  0.750001  0.249999  1
  Rh  Rh11  1  0.749909  0.249796  0.499889  1
  Rh  Rh12  1  0.749909  0.500107  0.250019  1
  Rh  Rh13  1  0.500000  0.250001  0.749999  1
  Rh  Rh14  1  0.250091  0.500111  0.750204  1
  Rh  Rh15  1  0.250091  0.749981  0.499893  1
  Rh  Rh16  1  0.000000  0.000001  0.999999  1
