# generated using pymatgen
data_Ac4InSn7Pt4
_symmetry_space_group_name_H-M   'P 1'
_cell_length_a   10.57085915
_cell_length_b   10.53856324
_cell_length_c   10.53856300
_cell_angle_alpha   153.69894544
_cell_angle_beta   124.41119025
_cell_angle_gamma   62.48875930
_symmetry_Int_Tables_number   1
_chemical_formula_structural   Ac4InSn7Pt4
_chemical_formula_sum   'Ac4 In1 Sn7 Pt4'
_cell_volume   425.93812623
_cell_formula_units_Z   1
loop_
 _symmetry_equiv_pos_site_id
 _symmetry_equiv_pos_as_xyz
  1  'x, y, z'
loop_
 _atom_site_type_symbol
 _atom_site_label
 _atom_site_symmetry_multiplicity
 _atom_site_fract_x
 _atom_site_fract_y
 _atom_site_fract_z
 _atom_site_occupancy
  Ac  Ac0  1  0.767890  0.000107  0.767781  1
  Ac  Ac1  1  0.234207  0.999749  0.234457  1
  Ac  Ac2  1  0.205281  0.206052  0.999229  1
  Ac  Ac3  1  0.794050  0.794590  0.999459  1
  In  In4  1  0.460830  0.805670  0.655159  1
  Sn  Sn5  1  0.417557  0.415797  0.001760  1
  Sn  Sn6  1  0.580027  0.579914  0.000114  1
  Sn  Sn7  1  0.923672  0.422110  0.501562  1
  Sn  Sn8  1  0.078775  0.579193  0.499583  1
  Sn  Sn9  1  0.853928  0.197459  0.656470  1
  Sn  Sn10  1  0.145779  0.801886  0.343893  1
  Sn  Sn11  1  0.537545  0.198514  0.339030  1
  Pt  Pt12  1  0.099001  0.351019  0.747984  1
  Pt  Pt13  1  0.897868  0.648217  0.249651  1
  Pt  Pt14  1  0.607718  0.352884  0.254834  1
  Pt  Pt15  1  0.395872  0.646835  0.749037  1
