# generated using pymatgen
data_Pr6Cr(SiS7)2
_symmetry_space_group_name_H-M   'P 1'
_cell_length_a   10.17783745
_cell_length_b   10.35449990
_cell_length_c   5.74815812
_cell_angle_alpha   89.57511849
_cell_angle_beta   90.06565873
_cell_angle_gamma   119.76929953
_symmetry_Int_Tables_number   1
_chemical_formula_structural   Pr6Cr(SiS7)2
_chemical_formula_sum   'Pr6 Cr1 Si2 S14'
_cell_volume   525.81757248
_cell_formula_units_Z   1
loop_
 _symmetry_equiv_pos_site_id
 _symmetry_equiv_pos_as_xyz
  1  'x, y, z'
loop_
 _atom_site_type_symbol
 _atom_site_label
 _atom_site_symmetry_multiplicity
 _atom_site_fract_x
 _atom_site_fract_y
 _atom_site_fract_z
 _atom_site_occupancy
  Pr  Pr0  1  0.435424  0.457990  0.752375  1
  Pr  Pr1  1  0.020298  0.566816  0.750899  1
  Pr  Pr2  1  0.542556  0.972413  0.748766  1
  Pr  Pr3  1  0.897566  0.209965  0.247025  1
  Pr  Pr4  1  0.313312  0.100865  0.244924  1
  Pr  Pr5  1  0.792772  0.694170  0.248479  1
  Cr  Cr6  1  0.664517  0.332044  0.510572  1
  Si  Si7  1  0.331305  0.666471  0.167602  1
  Si  Si8  1  0.001371  0.000107  0.660188  1
  S  S9  1  0.332243  0.664625  0.533394  1
  S  S10  1  0.001359  0.002108  0.026379  1
  S  S11  1  0.513924  0.416490  0.281514  1
  S  S12  1  0.901706  0.487180  0.281327  1
  S  S13  1  0.578702  0.077609  0.263315  1
  S  S14  1  0.822958  0.253709  0.740347  1
  S  S15  1  0.431519  0.176303  0.740484  1
  S  S16  1  0.753548  0.589581  0.759490  1
  S  S17  1  0.550944  0.737795  0.022393  1
  S  S18  1  0.188507  0.448561  0.026767  1
  S  S19  1  0.252712  0.807795  0.023117  1
  S  S20  1  0.781033  0.925871  0.517062  1
  S  S21  1  0.143822  0.218293  0.517851  1
  S  S22  1  0.081236  0.859904  0.519005  1
