# generated using pymatgen
data_Tb5IrPdO12
_symmetry_space_group_name_H-M   'P 1'
_cell_length_a   6.91731753
_cell_length_b   6.91731784
_cell_length_c   7.30175444
_cell_angle_alpha   74.52268318
_cell_angle_beta   74.52268051
_cell_angle_gamma   51.18612047
_symmetry_Int_Tables_number   1
_chemical_formula_structural   Tb5IrPdO12
_chemical_formula_sum   'Tb5 Ir1 Pd1 O12'
_cell_volume   260.04499706
_cell_formula_units_Z   1
loop_
 _symmetry_equiv_pos_site_id
 _symmetry_equiv_pos_as_xyz
  1  'x, y, z'
loop_
 _atom_site_type_symbol
 _atom_site_label
 _atom_site_symmetry_multiplicity
 _atom_site_fract_x
 _atom_site_fract_y
 _atom_site_fract_z
 _atom_site_occupancy
  Tb  Tb0  1  0.308872  0.292058  0.360317  1
  Tb  Tb1  1  0.707942  0.691128  0.639683  1
  Tb  Tb2  1  0.309889  0.304959  0.831109  1
  Tb  Tb3  1  0.695041  0.690111  0.168891  1
  Tb  Tb4  1  0.002421  0.997579  0.500000  1
  Ir  Ir5  1  0.241872  0.758128  0.000000  1
  Pd  Pd6  1  0.747677  0.252323  0.000000  1
  O  O7  1  0.904335  0.437509  0.915021  1
  O  O8  1  0.422596  0.901114  0.915603  1
  O  O9  1  0.098886  0.577404  0.084397  1
  O  O10  1  0.562491  0.095665  0.084979  1
  O  O11  1  0.101550  0.598276  0.570874  1
  O  O12  1  0.598877  0.092211  0.576235  1
  O  O13  1  0.907789  0.401123  0.423765  1
  O  O14  1  0.401724  0.898450  0.429126  1
  O  O15  1  0.998065  0.001338  0.818058  1
  O  O16  1  0.998662  0.001935  0.181942  1
  O  O17  1  0.495864  0.504553  0.812756  1
  O  O18  1  0.495447  0.504136  0.187244  1
