# generated using pymatgen
data_Dy12Ho5Tm3(CoBi2)4
_symmetry_space_group_name_H-M   'P 1'
_cell_length_a   7.99346121
_cell_length_b   8.88531124
_cell_length_c   12.44275678
_cell_angle_alpha   90.05786859
_cell_angle_beta   89.97943346
_cell_angle_gamma   89.98315140
_symmetry_Int_Tables_number   1
_chemical_formula_structural   Dy12Ho5Tm3(CoBi2)4
_chemical_formula_sum   'Dy12 Ho5 Tm3 Co4 Bi8'
_cell_volume   883.73867340
_cell_formula_units_Z   1
loop_
 _symmetry_equiv_pos_site_id
 _symmetry_equiv_pos_as_xyz
  1  'x, y, z'
loop_
 _atom_site_type_symbol
 _atom_site_label
 _atom_site_symmetry_multiplicity
 _atom_site_fract_x
 _atom_site_fract_y
 _atom_site_fract_z
 _atom_site_occupancy
  Dy  Dy0  1  0.848053  0.749627  0.801508  1
  Dy  Dy1  1  0.151971  0.250356  0.198404  1
  Dy  Dy2  1  0.348126  0.250267  0.698412  1
  Dy  Dy3  1  0.652282  0.749853  0.301358  1
  Dy  Dy4  1  0.380748  0.749869  0.687925  1
  Dy  Dy5  1  0.619968  0.250343  0.312366  1
  Dy  Dy6  1  0.880317  0.250672  0.812425  1
  Dy  Dy7  1  0.119655  0.749230  0.187472  1
  Dy  Dy8  1  0.949100  0.749488  0.502626  1
  Dy  Dy9  1  0.049295  0.250367  0.497434  1
  Dy  Dy10  1  0.449725  0.250754  0.997359  1
  Dy  Dy11  1  0.550293  0.749255  0.002592  1
  Ho  Ho12  1  0.674792  0.035957  0.563217  1
  Ho  Ho13  1  0.325266  0.965049  0.437054  1
  Ho  Ho14  1  0.174824  0.964575  0.936957  1
  Ho  Ho15  1  0.325484  0.535228  0.436886  1
  Ho  Ho16  1  0.825240  0.035216  0.063007  1
  Tm  Tm17  1  0.672617  0.463876  0.563176  1
  Tm  Tm18  1  0.827498  0.464223  0.062958  1
  Tm  Tm19  1  0.172521  0.535953  0.936987  1
  Co  Co20  1  0.561998  0.749507  0.507639  1
  Co  Co21  1  0.439916  0.250617  0.492686  1
  Co  Co22  1  0.060624  0.251014  0.992703  1
  Co  Co23  1  0.939293  0.748946  0.007261  1
  Bi  Bi24  1  0.568510  0.492411  0.826235  1
  Bi  Bi25  1  0.431789  0.507501  0.173631  1
  Bi  Bi26  1  0.068903  0.507623  0.673704  1
  Bi  Bi27  1  0.430544  0.992308  0.173706  1
  Bi  Bi28  1  0.930692  0.492258  0.325928  1
  Bi  Bi29  1  0.569631  0.007764  0.826477  1
  Bi  Bi30  1  0.930718  0.007608  0.326148  1
  Bi  Bi31  1  0.069607  0.992285  0.673758  1
