# generated using pymatgen
data_La(ZnAu2)2
_symmetry_space_group_name_H-M   'P 1'
_cell_length_a   5.71988650
_cell_length_b   5.71988609
_cell_length_c   5.71988631
_cell_angle_alpha   103.01483841
_cell_angle_beta   103.01483675
_cell_angle_gamma   123.33911466
_symmetry_Int_Tables_number   1
_chemical_formula_structural   La(ZnAu2)2
_chemical_formula_sum   'La1 Zn2 Au4'
_cell_volume   137.61549545
_cell_formula_units_Z   1
loop_
 _symmetry_equiv_pos_site_id
 _symmetry_equiv_pos_as_xyz
  1  'x, y, z'
loop_
 _atom_site_type_symbol
 _atom_site_label
 _atom_site_symmetry_multiplicity
 _atom_site_fract_x
 _atom_site_fract_y
 _atom_site_fract_z
 _atom_site_occupancy
  La  La0  1  0.000000  0.000000  0.000000  1
  Zn  Zn1  1  0.250000  0.750000  0.500000  1
  Zn  Zn2  1  0.750000  0.250000  0.500000  1
  Au  Au3  1  0.301604  0.301604  0.603208  1
  Au  Au4  1  0.698396  0.698396  0.396792  1
  Au  Au5  1  0.698396  0.301604  0.000000  1
  Au  Au6  1  0.301604  0.698396  0.000000  1
