# generated using pymatgen
data_La4PrNd5Ru4
_symmetry_space_group_name_H-M   'P 1'
_cell_length_a   9.06881607
_cell_length_b   9.07354694
_cell_length_c   7.33987461
_cell_angle_alpha   84.42754680
_cell_angle_beta   84.39191489
_cell_angle_gamma   43.17524396
_symmetry_Int_Tables_number   1
_chemical_formula_structural   La4PrNd5Ru4
_chemical_formula_sum   'La4 Pr1 Nd5 Ru4'
_cell_volume   410.98237833
_cell_formula_units_Z   1
loop_
 _symmetry_equiv_pos_site_id
 _symmetry_equiv_pos_as_xyz
  1  'x, y, z'
loop_
 _atom_site_type_symbol
 _atom_site_label
 _atom_site_symmetry_multiplicity
 _atom_site_fract_x
 _atom_site_fract_y
 _atom_site_fract_z
 _atom_site_occupancy
  La  La0  1  0.017101  0.794611  0.905099  1
  La  La1  1  0.205614  0.982710  0.594944  1
  La  La2  1  0.982618  0.205675  0.095129  1
  La  La3  1  0.794589  0.017118  0.404945  1
  Pr  Pr4  1  0.361674  0.207930  0.815853  1
  Nd  Nd5  1  0.791962  0.637978  0.683868  1
  Nd  Nd6  1  0.638216  0.791801  0.184090  1
  Nd  Nd7  1  0.207853  0.362047  0.316090  1
  Nd  Nd8  1  0.574793  0.425471  0.749970  1
  Nd  Nd9  1  0.425290  0.574713  0.249963  1
  Ru  Ru10  1  0.165519  0.611522  0.585426  1
  Ru  Ru11  1  0.388901  0.833964  0.914363  1
  Ru  Ru12  1  0.834401  0.388843  0.414342  1
  Ru  Ru13  1  0.611469  0.165617  0.085919  1
