# generated using pymatgen
data_Ca(OsO3)2
_symmetry_space_group_name_H-M   'P 1'
_cell_length_a   5.33074100
_cell_length_b   7.39660600
_cell_length_c   11.12124300
_cell_angle_alpha   90.00000000
_cell_angle_beta   90.00000000
_cell_angle_gamma   90.00000000
_symmetry_Int_Tables_number   1
_chemical_formula_structural   Ca(OsO3)2
_chemical_formula_sum   'Ca4 Os8 O24'
_cell_volume   438.50383715
_cell_formula_units_Z   4
loop_
 _symmetry_equiv_pos_site_id
 _symmetry_equiv_pos_as_xyz
  1  'x, y, z'
loop_
 _atom_site_type_symbol
 _atom_site_label
 _atom_site_symmetry_multiplicity
 _atom_site_fract_x
 _atom_site_fract_y
 _atom_site_fract_z
 _atom_site_occupancy
  Ca  Ca0  1  0.456841  0.750000  0.044260  1
  Ca  Ca1  1  0.956841  0.250000  0.455740  1
  Ca  Ca2  1  0.543159  0.250000  0.955740  1
  Ca  Ca3  1  0.043159  0.750000  0.544260  1
  Os  Os4  1  0.561399  0.499236  0.639203  1
  Os  Os5  1  0.061399  0.500764  0.860797  1
  Os  Os6  1  0.438601  0.999236  0.360797  1
  Os  Os7  1  0.938601  0.000764  0.139203  1
  Os  Os8  1  0.061399  0.999236  0.860797  1
  Os  Os9  1  0.561399  0.000764  0.639203  1
  Os  Os10  1  0.938601  0.499236  0.139203  1
  Os  Os11  1  0.438601  0.500764  0.360797  1
  O  O12  1  0.665660  0.250000  0.626381  1
  O  O13  1  0.165660  0.750000  0.873619  1
  O  O14  1  0.334340  0.750000  0.373619  1
  O  O15  1  0.834340  0.250000  0.126381  1
  O  O16  1  0.438047  0.750000  0.643733  1
  O  O17  1  0.938047  0.250000  0.856267  1
  O  O18  1  0.561953  0.250000  0.356267  1
  O  O19  1  0.061953  0.750000  0.143733  1
  O  O20  1  0.135012  0.439855  0.279880  1
  O  O21  1  0.635012  0.560145  0.220120  1
  O  O22  1  0.864988  0.939855  0.720120  1
  O  O23  1  0.364988  0.060145  0.779880  1
  O  O24  1  0.774684  0.958845  0.978468  1
  O  O25  1  0.274684  0.041155  0.521532  1
  O  O26  1  0.225316  0.458845  0.021532  1
  O  O27  1  0.725316  0.541155  0.478468  1
  O  O28  1  0.225316  0.041155  0.021532  1
  O  O29  1  0.725316  0.958845  0.478468  1
  O  O30  1  0.774684  0.541155  0.978468  1
  O  O31  1  0.274684  0.458845  0.521532  1
  O  O32  1  0.635012  0.939855  0.220120  1
  O  O33  1  0.135012  0.060145  0.279880  1
  O  O34  1  0.364988  0.439855  0.779880  1
  O  O35  1  0.864988  0.560145  0.720120  1
