# generated using pymatgen
data_Ac4BeSi5
_symmetry_space_group_name_H-M   'P 1'
_cell_length_a   4.07739000
_cell_length_b   4.72983970
_cell_length_c   13.12148293
_cell_angle_alpha   100.38331914
_cell_angle_beta   90.00000000
_cell_angle_gamma   90.00000000
_symmetry_Int_Tables_number   1
_chemical_formula_structural   Ac4BeSi5
_chemical_formula_sum   'Ac4 Be1 Si5'
_cell_volume   248.90906049
_cell_formula_units_Z   1
loop_
 _symmetry_equiv_pos_site_id
 _symmetry_equiv_pos_as_xyz
  1  'x, y, z'
loop_
 _atom_site_type_symbol
 _atom_site_label
 _atom_site_symmetry_multiplicity
 _atom_site_fract_x
 _atom_site_fract_y
 _atom_site_fract_z
 _atom_site_occupancy
  Ac  Ac0  1  0.750000  0.431090  0.862179  1
  Ac  Ac1  1  0.250000  0.569521  0.139042  1
  Ac  Ac2  1  0.750000  0.701953  0.403909  1
  Ac  Ac3  1  0.250000  0.298437  0.596872  1
  Be  Be4  1  0.750000  0.021257  0.042514  1
  Si  Si5  1  0.250000  0.981310  0.962619  1
  Si  Si6  1  0.750000  0.109688  0.219377  1
  Si  Si7  1  0.250000  0.887596  0.775191  1
  Si  Si8  1  0.750000  0.834040  0.668080  1
  Si  Si9  1  0.250000  0.165109  0.330218  1
