# generated using pymatgen
data_Tm4HgPt3Pb2
_symmetry_space_group_name_H-M   'P 1'
_cell_length_a   8.06090738
_cell_length_b   8.06090757
_cell_length_c   3.55938400
_cell_angle_alpha   90.00000000
_cell_angle_beta   90.00000000
_cell_angle_gamma   89.18819490
_symmetry_Int_Tables_number   1
_chemical_formula_structural   Tm4HgPt3Pb2
_chemical_formula_sum   'Tm4 Hg1 Pt3 Pb2'
_cell_volume   231.25925513
_cell_formula_units_Z   1
loop_
 _symmetry_equiv_pos_site_id
 _symmetry_equiv_pos_as_xyz
  1  'x, y, z'
loop_
 _atom_site_type_symbol
 _atom_site_label
 _atom_site_symmetry_multiplicity
 _atom_site_fract_x
 _atom_site_fract_y
 _atom_site_fract_z
 _atom_site_occupancy
  Tm  Tm0  1  0.328765  0.828765  0.500000  1
  Tm  Tm1  1  0.647517  0.147517  0.500000  1
  Tm  Tm2  1  0.193215  0.340230  0.500000  1
  Tm  Tm3  1  0.840230  0.693215  0.500000  1
  Hg  Hg4  1  0.872104  0.372104  0.000000  1
  Pt  Pt5  1  0.621511  0.868529  0.000000  1
  Pt  Pt6  1  0.368529  0.121511  0.000000  1
  Pt  Pt7  1  0.123297  0.623297  0.000000  1
  Pb  Pb8  1  0.500274  0.504559  0.000000  1
  Pb  Pb9  1  0.004559  0.000274  0.000000  1
