# generated using pymatgen
data_Nb3VRe2Si3
_symmetry_space_group_name_H-M   'P 1'
_cell_length_a   7.62550246
_cell_length_b   7.62550347
_cell_length_c   7.62550293
_cell_angle_alpha   126.52441619
_cell_angle_beta   128.57106051
_cell_angle_gamma   77.37024541
_symmetry_Int_Tables_number   1
_chemical_formula_structural   Nb3VRe2Si3
_chemical_formula_sum   'Nb6 V2 Re4 Si6'
_cell_volume   270.26519328
_cell_formula_units_Z   2
loop_
 _symmetry_equiv_pos_site_id
 _symmetry_equiv_pos_as_xyz
  1  'x, y, z'
loop_
 _atom_site_type_symbol
 _atom_site_label
 _atom_site_symmetry_multiplicity
 _atom_site_fract_x
 _atom_site_fract_y
 _atom_site_fract_z
 _atom_site_occupancy
  Nb  Nb0  1  0.554871  0.096722  0.041850  1
  Nb  Nb1  1  0.445129  0.486979  0.541850  1
  Nb  Nb2  1  0.945541  0.487138  0.041598  1
  Nb  Nb3  1  0.054459  0.096056  0.541598  1
  Nb  Nb4  1  0.750253  0.909119  0.658865  1
  Nb  Nb5  1  0.249747  0.908612  0.158865  1
  V  V6  1  0.500000  0.241195  0.741195  1
  V  V7  1  0.000000  0.241195  0.241195  1
  Re  Re8  1  0.128473  0.754640  0.626487  1
  Re  Re9  1  0.871527  0.498014  0.626167  1
  Re  Re10  1  0.628154  0.754640  0.126167  1
  Re  Re11  1  0.371846  0.498014  0.126487  1
  Si  Si12  1  0.750168  0.494947  0.244779  1
  Si  Si13  1  0.249832  0.494611  0.744779  1
  Si  Si14  1  0.332288  0.827121  0.495325  1
  Si  Si15  1  0.667712  0.163038  0.494833  1
  Si  Si16  1  0.831796  0.827121  0.994833  1
  Si  Si17  1  0.168204  0.163038  0.995325  1
