# generated using pymatgen
data_Dy2ZnBRh5
_symmetry_space_group_name_H-M   'P 1'
_cell_length_a   5.93426231
_cell_length_b   5.79590265
_cell_length_c   5.79590335
_cell_angle_alpha   61.58574436
_cell_angle_beta   59.20713123
_cell_angle_gamma   59.20713051
_symmetry_Int_Tables_number   1
_chemical_formula_structural   Dy2ZnBRh5
_chemical_formula_sum   'Dy2 Zn1 B1 Rh5'
_cell_volume   140.79476777
_cell_formula_units_Z   1
loop_
 _symmetry_equiv_pos_site_id
 _symmetry_equiv_pos_as_xyz
  1  'x, y, z'
loop_
 _atom_site_type_symbol
 _atom_site_label
 _atom_site_symmetry_multiplicity
 _atom_site_fract_x
 _atom_site_fract_y
 _atom_site_fract_z
 _atom_site_occupancy
  Dy  Dy0  1  0.251236  0.248764  0.248764  1
  Dy  Dy1  1  0.751236  0.748764  0.748764  1
  Zn  Zn2  1  0.716868  0.283133  0.283133  1
  B  B3  1  0.010731  0.989269  0.989269  1
  Rh  Rh4  1  0.252331  0.747670  0.250752  1
  Rh  Rh5  1  0.749248  0.747669  0.250753  1
  Rh  Rh6  1  0.252331  0.250752  0.747670  1
  Rh  Rh7  1  0.749248  0.250753  0.747669  1
  Rh  Rh8  1  0.266774  0.733227  0.733227  1
