# generated using pymatgen
data_Sm5(SiTe)2
_symmetry_space_group_name_H-M   'P 1'
_cell_length_a   8.71927400
_cell_length_b   8.71927451
_cell_length_c   7.96666300
_cell_angle_alpha   90.00000000
_cell_angle_beta   90.00000000
_cell_angle_gamma   125.86917551
_symmetry_Int_Tables_number   1
_chemical_formula_structural   Sm5(SiTe)2
_chemical_formula_sum   'Sm10 Si4 Te4'
_cell_volume   490.81011263
_cell_formula_units_Z   2
loop_
 _symmetry_equiv_pos_site_id
 _symmetry_equiv_pos_as_xyz
  1  'x, y, z'
loop_
 _atom_site_type_symbol
 _atom_site_label
 _atom_site_symmetry_multiplicity
 _atom_site_fract_x
 _atom_site_fract_y
 _atom_site_fract_z
 _atom_site_occupancy
  Sm  Sm0  1  0.041620  0.292875  0.333000  1
  Sm  Sm1  1  0.958380  0.707125  0.667000  1
  Sm  Sm2  1  0.458380  0.207125  0.833000  1
  Sm  Sm3  1  0.792875  0.541620  0.167000  1
  Sm  Sm4  1  0.541620  0.792875  0.167000  1
  Sm  Sm5  1  0.207125  0.458380  0.833000  1
  Sm  Sm6  1  0.707125  0.958380  0.667000  1
  Sm  Sm7  1  0.292875  0.041620  0.333000  1
  Sm  Sm8  1  0.000000  0.000000  0.000000  1
  Sm  Sm9  1  0.500000  0.500000  0.500000  1
  Si  Si10  1  0.371138  0.371138  0.126748  1
  Si  Si11  1  0.628862  0.628862  0.873252  1
  Si  Si12  1  0.128862  0.128862  0.626748  1
  Si  Si13  1  0.871138  0.871138  0.373252  1
  Te  Te14  1  0.794829  0.205171  0.000000  1
  Te  Te15  1  0.205171  0.794829  0.000000  1
  Te  Te16  1  0.705171  0.294829  0.500000  1
  Te  Te17  1  0.294829  0.705171  0.500000  1
