# generated using pymatgen
data_Li3Ce2ThPt3
_symmetry_space_group_name_H-M   'P 1'
_cell_length_a   7.30364710
_cell_length_b   7.33665394
_cell_length_c   4.09822300
_cell_angle_alpha   90.00000000
_cell_angle_beta   90.00000000
_cell_angle_gamma   120.14961920
_symmetry_Int_Tables_number   1
_chemical_formula_structural   Li3Ce2ThPt3
_chemical_formula_sum   'Li3 Ce2 Th1 Pt3'
_cell_volume   189.89227066
_cell_formula_units_Z   1
loop_
 _symmetry_equiv_pos_site_id
 _symmetry_equiv_pos_as_xyz
  1  'x, y, z'
loop_
 _atom_site_type_symbol
 _atom_site_label
 _atom_site_symmetry_multiplicity
 _atom_site_fract_x
 _atom_site_fract_y
 _atom_site_fract_z
 _atom_site_occupancy
  Li  Li0  1  0.766547  0.769251  0.000000  1
  Li  Li1  1  0.233453  0.002703  0.000000  1
  Li  Li2  1  0.000000  0.227011  0.000000  1
  Ce  Ce3  1  0.409247  0.408863  0.500000  1
  Ce  Ce4  1  0.590753  0.999616  0.500000  1
  Th  Th5  1  0.000000  0.593277  0.500000  1
  Pt  Pt6  1  0.671536  0.337462  0.000000  1
  Pt  Pt7  1  0.328464  0.665927  0.000000  1
  Pt  Pt8  1  0.000000  0.995889  0.500000  1
