# generated using pymatgen
data_Sr9Eu11Pt16
_symmetry_space_group_name_H-M   'P 1'
_cell_length_a   8.01153300
_cell_length_b   8.10671800
_cell_length_c   15.27749200
_cell_angle_alpha   90.00000000
_cell_angle_beta   90.00000000
_cell_angle_gamma   90.00000000
_symmetry_Int_Tables_number   1
_chemical_formula_structural   Sr9Eu11Pt16
_chemical_formula_sum   'Sr9 Eu11 Pt16'
_cell_volume   992.23092086
_cell_formula_units_Z   1
loop_
 _symmetry_equiv_pos_site_id
 _symmetry_equiv_pos_as_xyz
  1  'x, y, z'
loop_
 _atom_site_type_symbol
 _atom_site_label
 _atom_site_symmetry_multiplicity
 _atom_site_fract_x
 _atom_site_fract_y
 _atom_site_fract_z
 _atom_site_occupancy
  Sr  Sr0  1  0.824349  0.670501  0.380182  1
  Sr  Sr1  1  0.982797  0.178975  0.096954  1
  Sr  Sr2  1  0.480942  0.319267  0.399822  1
  Sr  Sr3  1  0.516951  0.679289  0.902402  1
  Sr  Sr4  1  0.018760  0.818884  0.600439  1
  Sr  Sr5  1  0.015663  0.820570  0.902844  1
  Sr  Sr6  1  0.516441  0.679229  0.598505  1
  Sr  Sr7  1  0.484068  0.320395  0.096969  1
  Sr  Sr8  1  0.982924  0.180396  0.402156  1
  Eu  Eu9  1  0.824859  0.669519  0.120978  1
  Eu  Eu10  1  0.324902  0.830381  0.377127  1
  Eu  Eu11  1  0.675170  0.169550  0.878502  1
  Eu  Eu12  1  0.176260  0.329802  0.623018  1
  Eu  Eu13  1  0.174232  0.331437  0.878800  1
  Eu  Eu14  1  0.675261  0.170078  0.622293  1
  Eu  Eu15  1  0.325968  0.831264  0.120665  1
  Eu  Eu16  1  0.664595  0.008028  0.249150  1
  Eu  Eu17  1  0.161963  0.491437  0.248611  1
  Eu  Eu18  1  0.836351  0.508218  0.751259  1
  Eu  Eu19  1  0.337088  0.991022  0.751036  1
  Pt  Pt20  1  0.034698  0.881983  0.245862  1
  Pt  Pt21  1  0.528267  0.619059  0.246617  1
  Pt  Pt22  1  0.468274  0.378354  0.750855  1
  Pt  Pt23  1  0.968213  0.121129  0.751201  1
  Pt  Pt24  1  0.777855  0.373304  0.246322  1
  Pt  Pt25  1  0.282239  0.124592  0.249535  1
  Pt  Pt26  1  0.719026  0.876251  0.750419  1
  Pt  Pt27  1  0.219551  0.623059  0.751291  1
  Pt  Pt28  1  0.844977  0.466870  0.955305  1
  Pt  Pt29  1  0.344222  0.031401  0.545932  1
  Pt  Pt30  1  0.654800  0.965846  0.043853  1
  Pt  Pt31  1  0.159991  0.530504  0.456953  1
  Pt  Pt32  1  0.151920  0.532347  0.045098  1
  Pt  Pt33  1  0.646137  0.977862  0.454563  1
  Pt  Pt34  1  0.347025  0.033361  0.954715  1
  Pt  Pt35  1  0.853261  0.465837  0.549766  1
