# generated using pymatgen
data_Ca2Ho2As6Rh7
_symmetry_space_group_name_H-M   'P 1'
_cell_length_a   7.27831487
_cell_length_b   7.27831524
_cell_length_c   7.27519069
_cell_angle_alpha   109.48498936
_cell_angle_beta   109.48499809
_cell_angle_gamma   109.46106997
_symmetry_Int_Tables_number   1
_chemical_formula_structural   Ca2Ho2As6Rh7
_chemical_formula_sum   'Ca2 Ho2 As6 Rh7'
_cell_volume   296.61349199
_cell_formula_units_Z   1
loop_
 _symmetry_equiv_pos_site_id
 _symmetry_equiv_pos_as_xyz
  1  'x, y, z'
loop_
 _atom_site_type_symbol
 _atom_site_label
 _atom_site_symmetry_multiplicity
 _atom_site_fract_x
 _atom_site_fract_y
 _atom_site_fract_z
 _atom_site_occupancy
  Ca  Ca0  1  0.500000  0.500000  0.500000  1
  Ca  Ca1  1  0.000000  0.000000  0.500000  1
  Ho  Ho2  1  0.000000  0.500000  0.000000  1
  Ho  Ho3  1  0.500000  0.000000  0.000000  1
  As  As4  1  0.678954  0.998621  0.677575  1
  As  As5  1  0.678621  0.678621  0.000000  1
  As  As6  1  0.321379  0.321379  0.000000  1
  As  As7  1  0.998621  0.678954  0.677575  1
  As  As8  1  0.001379  0.321046  0.322425  1
  As  As9  1  0.321046  0.001379  0.322425  1
  Rh  Rh10  1  0.496567  0.750150  0.246717  1
  Rh  Rh11  1  0.750000  0.250000  0.500000  1
  Rh  Rh12  1  0.250000  0.750000  0.500000  1
  Rh  Rh13  1  0.249850  0.503433  0.753283  1
  Rh  Rh14  1  0.000000  0.000000  0.000000  1
  Rh  Rh15  1  0.503433  0.249850  0.753283  1
  Rh  Rh16  1  0.750150  0.496567  0.246717  1
