# generated using pymatgen
data_LaErZn5Sn
_symmetry_space_group_name_H-M   'P 1'
_cell_length_a   8.49183902
_cell_length_b   8.49183810
_cell_length_c   9.08625600
_cell_angle_alpha   90.00000000
_cell_angle_beta   90.00000000
_cell_angle_gamma   149.67486605
_symmetry_Int_Tables_number   1
_chemical_formula_structural   LaErZn5Sn
_chemical_formula_sum   'La2 Er2 Zn10 Sn2'
_cell_volume   330.82569602
_cell_formula_units_Z   2
loop_
 _symmetry_equiv_pos_site_id
 _symmetry_equiv_pos_as_xyz
  1  'x, y, z'
loop_
 _atom_site_type_symbol
 _atom_site_label
 _atom_site_symmetry_multiplicity
 _atom_site_fract_x
 _atom_site_fract_y
 _atom_site_fract_z
 _atom_site_occupancy
  La  La0  1  0.000000  0.000000  0.500000  1
  La  La1  1  0.000000  0.000000  0.000000  1
  Er  Er2  1  0.205877  0.794123  0.250000  1
  Er  Er3  1  0.794123  0.205877  0.750000  1
  Zn  Zn4  1  0.811884  0.188116  0.389161  1
  Zn  Zn5  1  0.188116  0.811884  0.610839  1
  Zn  Zn6  1  0.811884  0.188116  0.110839  1
  Zn  Zn7  1  0.188116  0.811884  0.889161  1
  Zn  Zn8  1  0.659694  0.340306  0.483227  1
  Zn  Zn9  1  0.340306  0.659694  0.516773  1
  Zn  Zn10  1  0.659694  0.340306  0.016773  1
  Zn  Zn11  1  0.340306  0.659694  0.983227  1
  Zn  Zn12  1  0.394287  0.605713  0.250000  1
  Zn  Zn13  1  0.605713  0.394287  0.750000  1
  Sn  Sn14  1  0.559499  0.440501  0.250000  1
  Sn  Sn15  1  0.440501  0.559499  0.750000  1
