# generated using pymatgen
data_ErRe6SbO24
_symmetry_space_group_name_H-M   'P 1'
_cell_length_a   10.29585400
_cell_length_b   10.29585340
_cell_length_c   6.14662700
_cell_angle_alpha   90.00000000
_cell_angle_beta   90.00000000
_cell_angle_gamma   119.99999551
_symmetry_Int_Tables_number   1
_chemical_formula_structural   ErRe6SbO24
_chemical_formula_sum   'Er1 Re6 Sb1 O24'
_cell_volume   564.27685376
_cell_formula_units_Z   1
loop_
 _symmetry_equiv_pos_site_id
 _symmetry_equiv_pos_as_xyz
  1  'x, y, z'
loop_
 _atom_site_type_symbol
 _atom_site_label
 _atom_site_symmetry_multiplicity
 _atom_site_fract_x
 _atom_site_fract_y
 _atom_site_fract_z
 _atom_site_occupancy
  Er  Er0  1  0.666667  0.333333  0.750000  1
  Re  Re1  1  0.089871  0.396778  0.750000  1
  Re  Re2  1  0.399161  0.303419  0.250000  1
  Re  Re3  1  0.603222  0.693092  0.750000  1
  Re  Re4  1  0.904257  0.600839  0.250000  1
  Re  Re5  1  0.306908  0.910129  0.750000  1
  Re  Re6  1  0.696581  0.095743  0.250000  1
  Sb  Sb7  1  0.333333  0.666667  0.250000  1
  O  O8  1  0.487603  0.644772  0.516540  1
  O  O9  1  0.355228  0.842832  0.516540  1
  O  O10  1  0.837099  0.724527  0.250000  1
  O  O11  1  0.116577  0.845554  0.750000  1
  O  O12  1  0.275473  0.112573  0.250000  1
  O  O13  1  0.154446  0.271024  0.750000  1
  O  O14  1  0.514586  0.352246  0.016760  1
  O  O15  1  0.887427  0.162901  0.250000  1
  O  O16  1  0.100712  0.700203  0.250000  1
  O  O17  1  0.157168  0.512397  0.983460  1
  O  O18  1  0.157168  0.512397  0.516540  1
  O  O19  1  0.893218  0.300650  0.750000  1
  O  O20  1  0.299797  0.400509  0.250000  1
  O  O21  1  0.699350  0.592567  0.750000  1
  O  O22  1  0.837660  0.485414  0.483240  1
  O  O23  1  0.407433  0.106782  0.750000  1
  O  O24  1  0.647754  0.162340  0.016760  1
  O  O25  1  0.487603  0.644772  0.983460  1
  O  O26  1  0.355228  0.842832  0.983460  1
  O  O27  1  0.647754  0.162340  0.483240  1
  O  O28  1  0.514586  0.352246  0.483240  1
  O  O29  1  0.837660  0.485414  0.016760  1
  O  O30  1  0.728976  0.883423  0.750000  1
  O  O31  1  0.599491  0.899288  0.250000  1
