# generated using pymatgen
data_Zr2BeNi6
_symmetry_space_group_name_H-M   'P 1'
_cell_length_a   4.63197517
_cell_length_b   4.79413618
_cell_length_c   6.31309953
_cell_angle_alpha   81.52470993
_cell_angle_beta   83.07063539
_cell_angle_gamma   121.75733091
_symmetry_Int_Tables_number   1
_chemical_formula_structural   Zr2BeNi6
_chemical_formula_sum   'Zr2 Be1 Ni6'
_cell_volume   114.57879431
_cell_formula_units_Z   1
loop_
 _symmetry_equiv_pos_site_id
 _symmetry_equiv_pos_as_xyz
  1  'x, y, z'
loop_
 _atom_site_type_symbol
 _atom_site_label
 _atom_site_symmetry_multiplicity
 _atom_site_fract_x
 _atom_site_fract_y
 _atom_site_fract_z
 _atom_site_occupancy
  Zr  Zr0  1  0.607689  0.609365  0.226298  1
  Zr  Zr1  1  0.392311  0.390635  0.773702  1
  Be  Be2  1  0.500000  0.000000  0.500000  1
  Ni  Ni3  1  0.000000  0.000000  0.500000  1
  Ni  Ni4  1  0.301104  0.968765  0.159382  1
  Ni  Ni5  1  0.050149  0.711074  0.840070  1
  Ni  Ni6  1  0.698896  0.031235  0.840618  1
  Ni  Ni7  1  0.949851  0.288926  0.159930  1
  Ni  Ni8  1  0.000000  0.500000  0.500000  1
