# generated using pymatgen
data_Sr2Bi3SbPt4
_symmetry_space_group_name_H-M   'P 1'
_cell_length_a   4.98786670
_cell_length_b   4.74939600
_cell_length_c   10.85395457
_cell_angle_alpha   90.00000000
_cell_angle_beta   93.48370454
_cell_angle_gamma   90.00000000
_symmetry_Int_Tables_number   1
_chemical_formula_structural   Sr2Bi3SbPt4
_chemical_formula_sum   'Sr2 Bi3 Sb1 Pt4'
_cell_volume   256.64804108
_cell_formula_units_Z   1
loop_
 _symmetry_equiv_pos_site_id
 _symmetry_equiv_pos_as_xyz
  1  'x, y, z'
loop_
 _atom_site_type_symbol
 _atom_site_label
 _atom_site_symmetry_multiplicity
 _atom_site_fract_x
 _atom_site_fract_y
 _atom_site_fract_z
 _atom_site_occupancy
  Sr  Sr0  1  0.735744  0.249999  0.234632  1
  Sr  Sr1  1  0.251126  0.749999  0.764309  1
  Bi  Bi2  1  0.197864  0.749999  0.116225  1
  Bi  Bi3  1  0.749725  0.749999  0.496992  1
  Bi  Bi4  1  0.251452  0.249999  0.507692  1
  Sb  Sb5  1  0.807475  0.249999  0.886331  1
  Pt  Pt6  1  0.323513  0.249999  0.989769  1
  Pt  Pt7  1  0.237357  0.749999  0.368956  1
  Pt  Pt8  1  0.764562  0.249999  0.643885  1
  Pt  Pt9  1  0.681181  0.749999  0.991206  1
