# generated using pymatgen
data_La3Zn7Ni8
_symmetry_space_group_name_H-M   'P 1'
_cell_length_a   9.06223043
_cell_length_b   9.06223046
_cell_length_c   4.06008800
_cell_angle_alpha   90.00000000
_cell_angle_beta   90.00000000
_cell_angle_gamma   120.44855032
_symmetry_Int_Tables_number   1
_chemical_formula_structural   La3Zn7Ni8
_chemical_formula_sum   'La3 Zn7 Ni8'
_cell_volume   287.44550393
_cell_formula_units_Z   1
loop_
 _symmetry_equiv_pos_site_id
 _symmetry_equiv_pos_as_xyz
  1  'x, y, z'
loop_
 _atom_site_type_symbol
 _atom_site_label
 _atom_site_symmetry_multiplicity
 _atom_site_fract_x
 _atom_site_fract_y
 _atom_site_fract_z
 _atom_site_occupancy
  La  La0  1  0.671357  0.328643  0.500000  1
  La  La1  1  0.328643  0.671357  0.500000  1
  La  La2  1  0.000000  0.000000  0.000000  1
  Zn  Zn3  1  0.500000  0.500000  0.000000  1
  Zn  Zn4  1  0.695235  0.999470  0.500000  1
  Zn  Zn5  1  0.705434  0.705434  0.500000  1
  Zn  Zn6  1  0.000530  0.304765  0.500000  1
  Zn  Zn7  1  0.999470  0.695235  0.500000  1
  Zn  Zn8  1  0.304765  0.000530  0.500000  1
  Zn  Zn9  1  0.294566  0.294566  0.500000  1
  Ni  Ni10  1  0.000000  0.500000  0.000000  1
  Ni  Ni11  1  0.500000  0.000000  0.000000  1
  Ni  Ni12  1  0.818634  0.181366  0.000000  1
  Ni  Ni13  1  0.181366  0.818634  0.000000  1
  Ni  Ni14  1  0.634516  0.818507  0.000000  1
  Ni  Ni15  1  0.365484  0.181493  0.000000  1
  Ni  Ni16  1  0.181493  0.365484  0.000000  1
  Ni  Ni17  1  0.818507  0.634516  0.000000  1
