# generated using pymatgen
data_YbGd15(ErIr3)4
_symmetry_space_group_name_H-M   'P 1'
_cell_length_a   10.90826151
_cell_length_b   10.92817674
_cell_length_c   6.39282500
_cell_angle_alpha   89.89871682
_cell_angle_beta   90.13328262
_cell_angle_gamma   89.85386343
_symmetry_Int_Tables_number   1
_chemical_formula_structural   YbGd15(ErIr3)4
_chemical_formula_sum   'Yb1 Gd15 Er4 Ir12'
_cell_volume   762.06636954
_cell_formula_units_Z   1
loop_
 _symmetry_equiv_pos_site_id
 _symmetry_equiv_pos_as_xyz
  1  'x, y, z'
loop_
 _atom_site_type_symbol
 _atom_site_label
 _atom_site_symmetry_multiplicity
 _atom_site_fract_x
 _atom_site_fract_y
 _atom_site_fract_z
 _atom_site_occupancy
  Yb  Yb0  1  0.289419  0.088232  0.376573  1
  Gd  Gd1  1  0.289508  0.912993  0.880055  1
  Gd  Gd2  1  0.709418  0.086890  0.879746  1
  Gd  Gd3  1  0.710423  0.912544  0.380275  1
  Gd  Gd4  1  0.588041  0.790531  0.878847  1
  Gd  Gd5  1  0.584321  0.209752  0.379499  1
  Gd  Gd6  1  0.410472  0.792676  0.379425  1
  Gd  Gd7  1  0.411597  0.209498  0.880266  1
  Gd  Gd8  1  0.210893  0.412346  0.622022  1
  Gd  Gd9  1  0.211232  0.587566  0.121151  1
  Gd  Gd10  1  0.789717  0.411364  0.121315  1
  Gd  Gd11  1  0.790461  0.587626  0.620182  1
  Gd  Gd12  1  0.912586  0.709993  0.120750  1
  Gd  Gd13  1  0.912231  0.288973  0.622847  1
  Gd  Gd14  1  0.087934  0.709953  0.620862  1
  Gd  Gd15  1  0.089731  0.289144  0.122215  1
  Er  Er16  1  0.003058  0.000119  0.499117  1
  Er  Er17  1  0.998744  0.000611  0.999122  1
  Er  Er18  1  0.500495  0.500465  0.998031  1
  Er  Er19  1  0.500011  0.501437  0.497827  1
  Ir  Ir20  1  0.848967  0.151465  0.251401  1
  Ir  Ir21  1  0.849966  0.848002  0.748476  1
  Ir  Ir22  1  0.150308  0.151966  0.756228  1
  Ir  Ir23  1  0.148285  0.843816  0.245426  1
  Ir  Ir24  1  0.650564  0.347818  0.749181  1
  Ir  Ir25  1  0.651338  0.652046  0.249637  1
  Ir  Ir26  1  0.349070  0.352911  0.247327  1
  Ir  Ir27  1  0.347957  0.652524  0.748744  1
  Ir  Ir28  1  0.500961  0.999491  0.122907  1
  Ir  Ir29  1  0.501279  0.999122  0.624818  1
  Ir  Ir30  1  0.000583  0.499220  0.878022  1
  Ir  Ir31  1  0.000430  0.498909  0.377703  1
