# generated using pymatgen
data_La4ScCdSn2
_symmetry_space_group_name_H-M   'P 1'
_cell_length_a   9.40885522
_cell_length_b   9.40885583
_cell_length_c   9.40885568
_cell_angle_alpha   95.90409811
_cell_angle_beta   95.90409304
_cell_angle_gamma   142.58660934
_symmetry_Int_Tables_number   1
_chemical_formula_structural   La4ScCdSn2
_chemical_formula_sum   'La8 Sc2 Cd2 Sn4'
_cell_volume   479.32477945
_cell_formula_units_Z   2
loop_
 _symmetry_equiv_pos_site_id
 _symmetry_equiv_pos_as_xyz
  1  'x, y, z'
loop_
 _atom_site_type_symbol
 _atom_site_label
 _atom_site_symmetry_multiplicity
 _atom_site_fract_x
 _atom_site_fract_y
 _atom_site_fract_z
 _atom_site_occupancy
  La  La0  1  0.908591  0.228322  0.136913  1
  La  La1  1  0.228322  0.091409  0.319731  1
  La  La2  1  0.771678  0.908591  0.680269  1
  La  La3  1  0.091409  0.771678  0.863087  1
  La  La4  1  0.728322  0.408591  0.136913  1
  La  La5  1  0.271678  0.591409  0.863087  1
  La  La6  1  0.591409  0.728322  0.319731  1
  La  La7  1  0.408591  0.271678  0.680269  1
  Sc  Sc8  1  0.750000  0.250000  0.500000  1
  Sc  Sc9  1  0.250000  0.750000  0.500000  1
  Cd  Cd10  1  0.750000  0.750000  0.000000  1
  Cd  Cd11  1  0.250000  0.250000  0.000000  1
  Sn  Sn12  1  0.850854  0.649146  0.500000  1
  Sn  Sn13  1  0.649146  0.149146  0.798293  1
  Sn  Sn14  1  0.350854  0.850854  0.201707  1
  Sn  Sn15  1  0.149146  0.350854  0.500000  1
