# generated using pymatgen
data_Yb4Zr(SnO4)3
_symmetry_space_group_name_H-M   'P 1'
_cell_length_a   5.51638670
_cell_length_b   5.73918933
_cell_length_c   7.94713888
_cell_angle_alpha   89.66621431
_cell_angle_beta   89.87173242
_cell_angle_gamma   89.93770534
_symmetry_Int_Tables_number   1
_chemical_formula_structural   Yb4Zr(SnO4)3
_chemical_formula_sum   'Yb4 Zr1 Sn3 O12'
_cell_volume   251.59809530
_cell_formula_units_Z   1
loop_
 _symmetry_equiv_pos_site_id
 _symmetry_equiv_pos_as_xyz
  1  'x, y, z'
loop_
 _atom_site_type_symbol
 _atom_site_label
 _atom_site_symmetry_multiplicity
 _atom_site_fract_x
 _atom_site_fract_y
 _atom_site_fract_z
 _atom_site_occupancy
  Yb  Yb0  1  0.980383  0.058038  0.247695  1
  Yb  Yb1  1  0.485288  0.440113  0.751000  1
  Yb  Yb2  1  0.514712  0.559887  0.249000  1
  Yb  Yb3  1  0.019617  0.941962  0.752305  1
  Zr  Zr4  1  0.000000  0.500000  0.500000  1
  Sn  Sn5  1  0.500000  0.000000  0.000000  1
  Sn  Sn6  1  0.500000  0.000000  0.500000  1
  Sn  Sn7  1  0.000000  0.500000  0.000000  1
  O  O8  1  0.615951  0.044695  0.750892  1
  O  O9  1  0.196455  0.195834  0.558267  1
  O  O10  1  0.194532  0.197951  0.939221  1
  O  O11  1  0.693624  0.301499  0.060955  1
  O  O12  1  0.691111  0.301919  0.443500  1
  O  O13  1  0.109578  0.457430  0.247213  1
  O  O14  1  0.890422  0.542570  0.752787  1
  O  O15  1  0.308889  0.698081  0.556500  1
  O  O16  1  0.306376  0.698501  0.939045  1
  O  O17  1  0.805468  0.802049  0.060779  1
  O  O18  1  0.803545  0.804166  0.441733  1
  O  O19  1  0.384049  0.955305  0.249108  1
