# generated using pymatgen
data_Ni18Sn3AsS16
_symmetry_space_group_name_H-M   'P 1'
_cell_length_a   8.97600240
_cell_length_b   8.97600247
_cell_length_c   8.97600277
_cell_angle_alpha   110.79028303
_cell_angle_beta   110.79028230
_cell_angle_gamma   106.86412770
_symmetry_Int_Tables_number   1
_chemical_formula_structural   Ni18Sn3AsS16
_chemical_formula_sum   'Ni18 Sn3 As1 S16'
_cell_volume   555.84793047
_cell_formula_units_Z   1
loop_
 _symmetry_equiv_pos_site_id
 _symmetry_equiv_pos_as_xyz
  1  'x, y, z'
loop_
 _atom_site_type_symbol
 _atom_site_label
 _atom_site_symmetry_multiplicity
 _atom_site_fract_x
 _atom_site_fract_y
 _atom_site_fract_z
 _atom_site_occupancy
  Ni  Ni0  1  0.234702  0.234702  0.712760  1
  Ni  Ni1  1  0.234702  0.521942  0.000000  1
  Ni  Ni2  1  0.000000  0.500000  0.500000  1
  Ni  Ni3  1  0.295585  0.954225  0.000000  1
  Ni  Ni4  1  0.045775  0.704415  0.000000  1
  Ni  Ni5  1  0.045775  0.045775  0.341360  1
  Ni  Ni6  1  0.478058  0.765298  0.000000  1
  Ni  Ni7  1  0.954225  0.954225  0.658640  1
  Ni  Ni8  1  0.478058  0.478058  0.712760  1
  Ni  Ni9  1  0.295585  0.295585  0.341360  1
  Ni  Ni10  1  0.954225  0.295585  0.000000  1
  Ni  Ni11  1  0.521942  0.521942  0.287240  1
  Ni  Ni12  1  0.765298  0.765298  0.287240  1
  Ni  Ni13  1  0.521942  0.234702  0.000000  1
  Ni  Ni14  1  0.704415  0.704415  0.658640  1
  Ni  Ni15  1  0.500000  0.000000  0.500000  1
  Ni  Ni16  1  0.765298  0.478058  0.000000  1
  Ni  Ni17  1  0.704415  0.045775  0.000000  1
  Sn  Sn18  1  0.750000  0.250000  0.500000  1
  Sn  Sn19  1  0.250000  0.750000  0.500000  1
  Sn  Sn20  1  0.000000  0.000000  0.000000  1
  As  As21  1  0.500000  0.500000  0.000000  1
  S  S22  1  0.759847  0.528490  0.768643  1
  S  S23  1  0.471510  0.240153  0.231357  1
  S  S24  1  0.162484  0.348498  0.510981  1
  S  S25  1  0.837516  0.651502  0.489019  1
  S  S26  1  0.348498  0.837516  0.186014  1
  S  S27  1  0.837516  0.348498  0.186014  1
  S  S28  1  0.651502  0.837516  0.489019  1
  S  S29  1  0.162484  0.651502  0.813986  1
  S  S30  1  0.240153  0.008796  0.768643  1
  S  S31  1  0.348498  0.162484  0.510981  1
  S  S32  1  0.008796  0.240153  0.768643  1
  S  S33  1  0.240153  0.471510  0.231357  1
  S  S34  1  0.651502  0.162484  0.813986  1
  S  S35  1  0.991204  0.759847  0.231357  1
  S  S36  1  0.759847  0.991204  0.231357  1
  S  S37  1  0.528490  0.759847  0.768643  1
