# generated using pymatgen
data_YEr2(CdNi)2
_symmetry_space_group_name_H-M   'P 1'
_cell_length_a   10.72632607
_cell_length_b   10.72632575
_cell_length_c   3.66104400
_cell_angle_alpha   90.00000000
_cell_angle_beta   90.00000000
_cell_angle_gamma   158.68893704
_symmetry_Int_Tables_number   1
_chemical_formula_structural   YEr2(CdNi)2
_chemical_formula_sum   'Y1 Er2 Cd2 Ni2'
_cell_volume   153.08373058
_cell_formula_units_Z   1
loop_
 _symmetry_equiv_pos_site_id
 _symmetry_equiv_pos_as_xyz
  1  'x, y, z'
loop_
 _atom_site_type_symbol
 _atom_site_label
 _atom_site_symmetry_multiplicity
 _atom_site_fract_x
 _atom_site_fract_y
 _atom_site_fract_z
 _atom_site_occupancy
  Y  Y0  1  0.000000  0.000000  0.000000  1
  Er  Er1  1  0.824408  0.175592  0.000000  1
  Er  Er2  1  0.175592  0.824408  0.000000  1
  Cd  Cd3  1  0.413876  0.586124  0.500000  1
  Cd  Cd4  1  0.586124  0.413876  0.500000  1
  Ni  Ni5  1  0.281276  0.718724  0.500000  1
  Ni  Ni6  1  0.718724  0.281276  0.500000  1
