# generated using pymatgen
data_Hf8Nb2ZnCuSn6
_symmetry_space_group_name_H-M   'P 1'
_cell_length_a   8.55108000
_cell_length_b   8.55107992
_cell_length_c   5.76707200
_cell_angle_alpha   90.00000000
_cell_angle_beta   90.00000000
_cell_angle_gamma   119.99999255
_symmetry_Int_Tables_number   1
_chemical_formula_structural   Hf8Nb2ZnCuSn6
_chemical_formula_sum   'Hf8 Nb2 Zn1 Cu1 Sn6'
_cell_volume   365.19764891
_cell_formula_units_Z   1
loop_
 _symmetry_equiv_pos_site_id
 _symmetry_equiv_pos_as_xyz
  1  'x, y, z'
loop_
 _atom_site_type_symbol
 _atom_site_label
 _atom_site_symmetry_multiplicity
 _atom_site_fract_x
 _atom_site_fract_y
 _atom_site_fract_z
 _atom_site_occupancy
  Hf  Hf0  1  0.666667  0.333333  0.000000  1
  Hf  Hf1  1  0.333333  0.666667  0.500000  1
  Hf  Hf2  1  0.266016  0.999988  0.252513  1
  Hf  Hf3  1  0.266016  0.266028  0.747487  1
  Hf  Hf4  1  0.000012  0.733984  0.747487  1
  Hf  Hf5  1  0.000012  0.266028  0.252513  1
  Hf  Hf6  1  0.733972  0.733984  0.252513  1
  Hf  Hf7  1  0.733972  0.999988  0.747487  1
  Nb  Nb8  1  0.333333  0.666667  0.000000  1
  Nb  Nb9  1  0.666667  0.333333  0.500000  1
  Zn  Zn10  1  0.000000  0.000000  0.000000  1
  Cu  Cu11  1  0.000000  0.000000  0.500000  1
  Sn  Sn12  1  0.612432  0.000061  0.249673  1
  Sn  Sn13  1  0.612432  0.612372  0.750327  1
  Sn  Sn14  1  0.999939  0.387568  0.750327  1
  Sn  Sn15  1  0.999939  0.612372  0.249673  1
  Sn  Sn16  1  0.387628  0.387568  0.249673  1
  Sn  Sn17  1  0.387628  0.000061  0.750327  1
