# generated using pymatgen
data_Zr6Ti4Al4Ga8Rh7
_symmetry_space_group_name_H-M   'P 1'
_cell_length_a   8.78331619
_cell_length_b   8.78331726
_cell_length_c   8.78331800
_cell_angle_alpha   60.00000474
_cell_angle_beta   60.00000070
_cell_angle_gamma   60.00000451
_symmetry_Int_Tables_number   1
_chemical_formula_structural   Zr6Ti4Al4Ga8Rh7
_chemical_formula_sum   'Zr6 Ti4 Al4 Ga8 Rh7'
_cell_volume   479.13812441
_cell_formula_units_Z   1
loop_
 _symmetry_equiv_pos_site_id
 _symmetry_equiv_pos_as_xyz
  1  'x, y, z'
loop_
 _atom_site_type_symbol
 _atom_site_label
 _atom_site_symmetry_multiplicity
 _atom_site_fract_x
 _atom_site_fract_y
 _atom_site_fract_z
 _atom_site_occupancy
  Zr  Zr0  1  0.694233  0.694233  0.305767  1
  Zr  Zr1  1  0.305767  0.694233  0.305767  1
  Zr  Zr2  1  0.694233  0.305767  0.305767  1
  Zr  Zr3  1  0.305767  0.305767  0.694233  1
  Zr  Zr4  1  0.694233  0.305767  0.694233  1
  Zr  Zr5  1  0.305767  0.694233  0.694233  1
  Ti  Ti6  1  0.878426  0.878426  0.364724  1
  Ti  Ti7  1  0.878426  0.364724  0.878426  1
  Ti  Ti8  1  0.364724  0.878426  0.878426  1
  Ti  Ti9  1  0.878426  0.878426  0.878426  1
  Al  Al10  1  0.120434  0.120434  0.638699  1
  Al  Al11  1  0.120434  0.638699  0.120434  1
  Al  Al12  1  0.638699  0.120434  0.120434  1
  Al  Al13  1  0.120434  0.120434  0.120434  1
  Ga  Ga14  1  0.659508  0.659508  0.021474  1
  Ga  Ga15  1  0.659508  0.021474  0.659508  1
  Ga  Ga16  1  0.021474  0.659508  0.659508  1
  Ga  Ga17  1  0.659508  0.659508  0.659508  1
  Ga  Ga18  1  0.340430  0.340430  0.978714  1
  Ga  Ga19  1  0.340430  0.978714  0.340430  1
  Ga  Ga20  1  0.978714  0.340430  0.340430  1
  Ga  Ga21  1  0.340430  0.340430  0.340430  1
  Rh  Rh22  1  0.000000  0.000000  0.000000  1
  Rh  Rh23  1  0.998882  0.998882  0.501118  1
  Rh  Rh24  1  0.501118  0.998882  0.501118  1
  Rh  Rh25  1  0.998882  0.501118  0.501118  1
  Rh  Rh26  1  0.501118  0.501118  0.998882  1
  Rh  Rh27  1  0.998882  0.501118  0.998882  1
  Rh  Rh28  1  0.501118  0.998882  0.998882  1
