# generated using pymatgen
data_Tm3Si2(PPd5)4
_symmetry_space_group_name_H-M   'P 1'
_cell_length_a   8.68854486
_cell_length_b   8.68336454
_cell_length_c   8.68854400
_cell_angle_alpha   60.01971073
_cell_angle_beta   59.92923111
_cell_angle_gamma   60.01971721
_symmetry_Int_Tables_number   1
_chemical_formula_structural   Tm3Si2(PPd5)4
_chemical_formula_sum   'Tm3 Si2 P4 Pd20'
_cell_volume   463.40795083
_cell_formula_units_Z   1
loop_
 _symmetry_equiv_pos_site_id
 _symmetry_equiv_pos_as_xyz
  1  'x, y, z'
loop_
 _atom_site_type_symbol
 _atom_site_label
 _atom_site_symmetry_multiplicity
 _atom_site_fract_x
 _atom_site_fract_y
 _atom_site_fract_z
 _atom_site_occupancy
  Tm  Tm0  1  0.998550  0.000000  0.001450  1
  Tm  Tm1  1  0.751569  0.749865  0.748701  1
  Tm  Tm2  1  0.251299  0.250135  0.248431  1
  Si  Si3  1  0.734302  0.267386  0.265698  1
  Si  Si4  1  0.734302  0.732614  0.265698  1
  P  P5  1  0.737386  0.264584  0.733446  1
  P  P6  1  0.266554  0.735416  0.262614  1
  P  P7  1  0.265548  0.736338  0.734452  1
  P  P8  1  0.265548  0.263662  0.734452  1
  Pd  Pd9  1  0.342901  0.002399  0.000273  1
  Pd  Pd10  1  0.999238  0.656923  0.345475  1
  Pd  Pd11  1  0.345819  0.000000  0.654181  1
  Pd  Pd12  1  0.001602  0.654346  0.998398  1
  Pd  Pd13  1  0.654525  0.343077  0.000762  1
  Pd  Pd14  1  0.615188  0.617907  0.148997  1
  Pd  Pd15  1  0.382039  0.849598  0.384127  1
  Pd  Pd16  1  0.152106  0.616025  0.615842  1
  Pd  Pd17  1  0.654862  0.000000  0.345138  1
  Pd  Pd18  1  0.999727  0.345573  0.657099  1
  Pd  Pd19  1  0.654525  0.001635  0.000762  1
  Pd  Pd20  1  0.999238  0.998365  0.345475  1
  Pd  Pd21  1  0.615873  0.150402  0.617961  1
  Pd  Pd22  1  0.342901  0.654427  0.000273  1
  Pd  Pd23  1  0.382039  0.384237  0.384127  1
  Pd  Pd24  1  0.615873  0.615763  0.617961  1
  Pd  Pd25  1  0.384158  0.383975  0.847894  1
  Pd  Pd26  1  0.999727  0.997601  0.657099  1
  Pd  Pd27  1  0.851003  0.382093  0.384812  1
  Pd  Pd28  1  0.001602  0.345654  0.998398  1
