# generated using pymatgen
data_Ga4Tc3Ge2
_symmetry_space_group_name_H-M   'P 1'
_cell_length_a   4.80008018
_cell_length_b   4.80008065
_cell_length_c   6.65397593
_cell_angle_alpha   89.70328079
_cell_angle_beta   89.70327952
_cell_angle_gamma   119.90789915
_symmetry_Int_Tables_number   1
_chemical_formula_structural   Ga4Tc3Ge2
_chemical_formula_sum   'Ga4 Tc3 Ge2'
_cell_volume   132.88867150
_cell_formula_units_Z   1
loop_
 _symmetry_equiv_pos_site_id
 _symmetry_equiv_pos_as_xyz
  1  'x, y, z'
loop_
 _atom_site_type_symbol
 _atom_site_label
 _atom_site_symmetry_multiplicity
 _atom_site_fract_x
 _atom_site_fract_y
 _atom_site_fract_z
 _atom_site_occupancy
  Ga  Ga0  1  0.167120  0.832880  0.500000  1
  Ga  Ga1  1  0.333551  0.166118  0.169216  1
  Ga  Ga2  1  0.833882  0.666449  0.830784  1
  Ga  Ga3  1  0.828904  0.171096  0.500000  1
  Tc  Tc4  1  0.000753  0.498450  0.161646  1
  Tc  Tc5  1  0.501550  0.999247  0.838354  1
  Tc  Tc6  1  0.498818  0.501182  0.500000  1
  Ge  Ge7  1  0.668980  0.833171  0.169405  1
  Ge  Ge8  1  0.166829  0.331020  0.830595  1
