# generated using pymatgen
data_Rb12Na8Hf(TiP4)3
_symmetry_space_group_name_H-M   'P 1'
_cell_length_a   10.64469280
_cell_length_b   10.64469586
_cell_length_c   15.49076629
_cell_angle_alpha   90.01750957
_cell_angle_beta   90.01750816
_cell_angle_gamma   142.72719929
_symmetry_Int_Tables_number   1
_chemical_formula_structural   Rb12Na8Hf(TiP4)3
_chemical_formula_sum   'Rb12 Na8 Hf1 Ti3 P12'
_cell_volume   1062.99846559
_cell_formula_units_Z   1
loop_
 _symmetry_equiv_pos_site_id
 _symmetry_equiv_pos_as_xyz
  1  'x, y, z'
loop_
 _atom_site_type_symbol
 _atom_site_label
 _atom_site_symmetry_multiplicity
 _atom_site_fract_x
 _atom_site_fract_y
 _atom_site_fract_z
 _atom_site_occupancy
  Rb  Rb0  1  0.948453  0.608968  0.821593  1
  Rb  Rb1  1  0.557365  0.893063  0.325684  1
  Rb  Rb2  1  0.391032  0.051547  0.178407  1
  Rb  Rb3  1  0.056643  0.393430  0.175538  1
  Rb  Rb4  1  0.892897  0.556665  0.326337  1
  Rb  Rb5  1  0.443335  0.107103  0.673663  1
  Rb  Rb6  1  0.606570  0.943357  0.824462  1
  Rb  Rb7  1  0.277799  0.277843  0.317312  1
  Rb  Rb8  1  0.780246  0.781902  0.185771  1
  Rb  Rb9  1  0.218098  0.219754  0.814229  1
  Rb  Rb10  1  0.722157  0.722201  0.682688  1
  Rb  Rb11  1  0.106937  0.442635  0.674316  1
  Na  Na12  1  0.920190  0.079810  0.000000  1
  Na  Na13  1  0.579248  0.420752  0.500000  1
  Na  Na14  1  0.079687  0.920313  0.000000  1
  Na  Na15  1  0.420762  0.579238  0.500000  1
  Na  Na16  1  0.755254  0.244746  0.000000  1
  Na  Na17  1  0.745648  0.254352  0.500000  1
  Na  Na18  1  0.245191  0.754809  0.000000  1
  Na  Na19  1  0.254411  0.745589  0.500000  1
  Hf  Hf20  1  0.583818  0.416182  0.000000  1
  Ti  Ti21  1  0.916345  0.083655  0.500000  1
  Ti  Ti22  1  0.414712  0.585288  0.000000  1
  Ti  Ti23  1  0.083657  0.916343  0.500000  1
  P  P24  1  0.868595  0.558238  0.096544  1
  P  P25  1  0.441762  0.131405  0.903456  1
  P  P26  1  0.643165  0.947151  0.591475  1
  P  P27  1  0.947167  0.643136  0.591292  1
  P  P28  1  0.142634  0.447680  0.907927  1
  P  P29  1  0.552320  0.857366  0.092073  1
  P  P30  1  0.356864  0.052833  0.408708  1
  P  P31  1  0.189487  0.189542  0.581678  1
  P  P32  1  0.691711  0.697468  0.915031  1
  P  P33  1  0.302532  0.308289  0.084969  1
  P  P34  1  0.052849  0.356835  0.408525  1
  P  P35  1  0.810458  0.810513  0.418322  1
