# generated using pymatgen
data_PrGd2(InAg)3
_symmetry_space_group_name_H-M   'P 1'
_cell_length_a   7.81053300
_cell_length_b   7.76083550
_cell_length_c   4.35336500
_cell_angle_alpha   90.00000000
_cell_angle_beta   90.00000000
_cell_angle_gamma   119.78974738
_symmetry_Int_Tables_number   1
_chemical_formula_structural   PrGd2(InAg)3
_chemical_formula_sum   'Pr1 Gd2 In3 Ag3'
_cell_volume   229.01350077
_cell_formula_units_Z   1
loop_
 _symmetry_equiv_pos_site_id
 _symmetry_equiv_pos_as_xyz
  1  'x, y, z'
loop_
 _atom_site_type_symbol
 _atom_site_label
 _atom_site_symmetry_multiplicity
 _atom_site_fract_x
 _atom_site_fract_y
 _atom_site_fract_z
 _atom_site_occupancy
  Pr  Pr0  1  0.000000  0.585284  0.500000  1
  Gd  Gd1  1  0.414407  0.413170  0.500000  1
  Gd  Gd2  1  0.585593  0.998762  0.500000  1
  In  In3  1  0.748647  0.750090  0.000000  1
  In  In4  1  0.251353  0.001443  0.000000  1
  In  In5  1  0.000000  0.250085  0.000000  1
  Ag  Ag6  1  0.662277  0.330096  0.000000  1
  Ag  Ag7  1  0.337723  0.667819  0.000000  1
  Ag  Ag8  1  0.000000  0.003250  0.500000  1
