# generated using pymatgen
data_Tb8Ta9Nb3Si16
_symmetry_space_group_name_H-M   'P 1'
_cell_length_a   7.06037516
_cell_length_b   7.06154305
_cell_length_c   13.05789731
_cell_angle_alpha   90.00977875
_cell_angle_beta   89.96043124
_cell_angle_gamma   89.99179623
_symmetry_Int_Tables_number   1
_chemical_formula_structural   Tb8Ta9Nb3Si16
_chemical_formula_sum   'Tb8 Ta9 Nb3 Si16'
_cell_volume   651.02928388
_cell_formula_units_Z   1
loop_
 _symmetry_equiv_pos_site_id
 _symmetry_equiv_pos_as_xyz
  1  'x, y, z'
loop_
 _atom_site_type_symbol
 _atom_site_label
 _atom_site_symmetry_multiplicity
 _atom_site_fract_x
 _atom_site_fract_y
 _atom_site_fract_z
 _atom_site_occupancy
  Tb  Tb0  1  0.997754  0.340073  0.218028  1
  Tb  Tb1  1  0.001998  0.659844  0.718058  1
  Tb  Tb2  1  0.160059  0.497799  0.468092  1
  Tb  Tb3  1  0.501314  0.839853  0.032054  1
  Tb  Tb4  1  0.839934  0.502289  0.968042  1
  Tb  Tb5  1  0.498621  0.160042  0.532063  1
  Tb  Tb6  1  0.340083  0.998439  0.781921  1
  Tb  Tb7  1  0.660056  0.001150  0.281917  1
  Ta  Ta8  1  0.170318  0.170913  0.999653  1
  Ta  Ta9  1  0.830132  0.829690  0.500109  1
  Ta  Ta10  1  0.329598  0.669634  0.249875  1
  Ta  Ta11  1  0.670107  0.330239  0.750299  1
  Ta  Ta12  1  0.155155  0.991351  0.375879  1
  Ta  Ta13  1  0.844703  0.008557  0.875838  1
  Ta  Ta14  1  0.508311  0.655713  0.626229  1
  Ta  Ta15  1  0.344902  0.492376  0.874138  1
  Ta  Ta16  1  0.491314  0.344890  0.125867  1
  Nb  Nb17  1  0.655065  0.507057  0.374219  1
  Nb  Nb18  1  0.992883  0.155310  0.624343  1
  Nb  Nb19  1  0.007095  0.844998  0.124081  1
  Si  Si20  1  0.293383  0.043839  0.186445  1
  Si  Si21  1  0.706415  0.956497  0.686531  1
  Si  Si22  1  0.456241  0.793515  0.436586  1
  Si  Si23  1  0.205559  0.543458  0.063541  1
  Si  Si24  1  0.543904  0.206096  0.936435  1
  Si  Si25  1  0.794376  0.456677  0.563783  1
  Si  Si26  1  0.043718  0.294601  0.813787  1
  Si  Si27  1  0.956624  0.705521  0.313662  1
  Si  Si28  1  0.367517  0.295837  0.317102  1
  Si  Si29  1  0.632138  0.703949  0.817648  1
  Si  Si30  1  0.204159  0.867857  0.567157  1
  Si  Si31  1  0.131674  0.796467  0.932081  1
  Si  Si32  1  0.796130  0.132431  0.067153  1
  Si  Si33  1  0.868552  0.202755  0.432417  1
  Si  Si34  1  0.297301  0.368696  0.682624  1
  Si  Si35  1  0.702907  0.631582  0.182342  1
