# generated using pymatgen
data_Yb2Pd2PtO8
_symmetry_space_group_name_H-M   'P 1'
_cell_length_a   6.22841376
_cell_length_b   6.23251879
_cell_length_c   6.23251981
_cell_angle_alpha   59.86219246
_cell_angle_beta   60.18708199
_cell_angle_gamma   60.18707144
_symmetry_Int_Tables_number   1
_chemical_formula_structural   Yb2Pd2PtO8
_chemical_formula_sum   'Yb2 Pd2 Pt1 O8'
_cell_volume   171.37801472
_cell_formula_units_Z   1
loop_
 _symmetry_equiv_pos_site_id
 _symmetry_equiv_pos_as_xyz
  1  'x, y, z'
loop_
 _atom_site_type_symbol
 _atom_site_label
 _atom_site_symmetry_multiplicity
 _atom_site_fract_x
 _atom_site_fract_y
 _atom_site_fract_z
 _atom_site_occupancy
  Yb  Yb0  1  0.852274  0.854159  0.854159  1
  Yb  Yb1  1  0.147726  0.145841  0.145841  1
  Pd  Pd2  1  0.500000  0.000000  0.500000  1
  Pd  Pd3  1  0.500000  0.500000  0.000000  1
  Pt  Pt4  1  0.000000  0.500000  0.500000  1
  O  O5  1  0.602183  0.602123  0.602123  1
  O  O6  1  0.397817  0.397877  0.397877  1
  O  O7  1  0.111233  0.110106  0.559470  1
  O  O8  1  0.559690  0.110160  0.110160  1
  O  O9  1  0.111233  0.559470  0.110106  1
  O  O10  1  0.440310  0.889840  0.889840  1
  O  O11  1  0.888767  0.889894  0.440530  1
  O  O12  1  0.888767  0.440530  0.889894  1
