# generated using pymatgen
data_Tb2TmZr(Al3Ir)6
_symmetry_space_group_name_H-M   'P 1'
_cell_length_a   7.53535213
_cell_length_b   7.52723584
_cell_length_c   9.42227400
_cell_angle_alpha   90.00000000
_cell_angle_beta   90.00000000
_cell_angle_gamma   119.55529294
_symmetry_Int_Tables_number   1
_chemical_formula_structural   Tb2TmZr(Al3Ir)6
_chemical_formula_sum   'Tb2 Tm1 Zr1 Al18 Ir6'
_cell_volume   464.89426662
_cell_formula_units_Z   1
loop_
 _symmetry_equiv_pos_site_id
 _symmetry_equiv_pos_as_xyz
  1  'x, y, z'
loop_
 _atom_site_type_symbol
 _atom_site_label
 _atom_site_symmetry_multiplicity
 _atom_site_fract_x
 _atom_site_fract_y
 _atom_site_fract_z
 _atom_site_occupancy
  Tb  Tb0  1  0.005765  0.327360  0.750000  1
  Tb  Tb1  1  0.328775  0.006458  0.750000  1
  Tm  Tm2  1  0.671544  0.995837  0.250000  1
  Zr  Zr3  1  0.996738  0.672415  0.250000  1
  Al  Al4  1  0.125246  0.123067  0.250000  1
  Al  Al5  1  0.869600  0.868324  0.750000  1
  Al  Al6  1  0.999973  0.337594  0.079429  1
  Al  Al7  1  0.998833  0.664800  0.930081  1
  Al  Al8  1  0.998833  0.664800  0.569919  1
  Al  Al9  1  0.332942  0.998246  0.420353  1
  Al  Al10  1  0.999973  0.337594  0.420571  1
  Al  Al11  1  0.664348  0.997745  0.573456  1
  Al  Al12  1  0.664348  0.997745  0.926544  1
  Al  Al13  1  0.332942  0.998246  0.079647  1
  Al  Al14  1  0.334319  0.334414  0.549456  1
  Al  Al15  1  0.669086  0.667516  0.442944  1
  Al  Al16  1  0.669086  0.667516  0.057056  1
  Al  Al17  1  0.334319  0.334414  0.950544  1
  Al  Al18  1  0.336508  0.550481  0.250000  1
  Al  Al19  1  0.660817  0.452428  0.750000  1
  Al  Al20  1  0.555391  0.343789  0.250000  1
  Al  Al21  1  0.451267  0.659471  0.750000  1
  Ir  Ir22  1  0.672490  0.328235  0.001361  1
  Ir  Ir23  1  0.328384  0.672614  0.002132  1
  Ir  Ir24  1  0.328384  0.672614  0.497868  1
  Ir  Ir25  1  0.672490  0.328235  0.498639  1
  Ir  Ir26  1  0.998801  0.999019  0.001471  1
  Ir  Ir27  1  0.998801  0.999019  0.498529  1
