# generated using pymatgen
data_Tb3Er5Cd2IrRu
_symmetry_space_group_name_H-M   'P 1'
_cell_length_a   9.59989997
_cell_length_b   9.59989966
_cell_length_c   9.63234200
_cell_angle_alpha   59.88814571
_cell_angle_beta   59.88814680
_cell_angle_gamma   59.75425279
_symmetry_Int_Tables_number   1
_chemical_formula_structural   Tb3Er5Cd2IrRu
_chemical_formula_sum   'Tb6 Er10 Cd4 Ir2 Ru2'
_cell_volume   625.46587508
_cell_formula_units_Z   2
loop_
 _symmetry_equiv_pos_site_id
 _symmetry_equiv_pos_as_xyz
  1  'x, y, z'
loop_
 _atom_site_type_symbol
 _atom_site_label
 _atom_site_symmetry_multiplicity
 _atom_site_fract_x
 _atom_site_fract_y
 _atom_site_fract_z
 _atom_site_occupancy
  Tb  Tb0  1  0.189073  0.809178  0.812032  1
  Tb  Tb1  1  0.809178  0.189073  0.189717  1
  Tb  Tb2  1  0.809178  0.189073  0.812032  1
  Tb  Tb3  1  0.189073  0.809178  0.189717  1
  Tb  Tb4  1  0.810775  0.810775  0.189225  1
  Tb  Tb5  1  0.189944  0.189944  0.810056  1
  Er  Er6  1  0.597833  0.597833  0.597678  1
  Er  Er7  1  0.597833  0.597833  0.206658  1
  Er  Er8  1  0.597424  0.208552  0.597013  1
  Er  Er9  1  0.208552  0.597424  0.597013  1
  Er  Er10  1  0.062791  0.437533  0.438891  1
  Er  Er11  1  0.437533  0.062791  0.060784  1
  Er  Er12  1  0.437533  0.062791  0.438891  1
  Er  Er13  1  0.062791  0.437533  0.060784  1
  Er  Er14  1  0.437471  0.437471  0.062529  1
  Er  Er15  1  0.060557  0.060557  0.439443  1
  Cd  Cd16  1  0.830285  0.830285  0.830556  1
  Cd  Cd17  1  0.830285  0.830285  0.508875  1
  Cd  Cd18  1  0.830343  0.508026  0.830816  1
  Cd  Cd19  1  0.508026  0.830343  0.830816  1
  Ir  Ir20  1  0.393276  0.827081  0.389822  1
  Ir  Ir21  1  0.827081  0.393276  0.389822  1
  Ru  Ru22  1  0.391584  0.391584  0.388613  1
  Ru  Ru23  1  0.391584  0.391584  0.828220  1
