# generated using pymatgen
data_Nd4Sn3As3Rh7
_symmetry_space_group_name_H-M   'P 1'
_cell_length_a   7.57762149
_cell_length_b   7.57762217
_cell_length_c   7.66125700
_cell_angle_alpha   109.69496046
_cell_angle_beta   109.69496228
_cell_angle_gamma   109.24656102
_symmetry_Int_Tables_number   1
_chemical_formula_structural   Nd4Sn3As3Rh7
_chemical_formula_sum   'Nd4 Sn3 As3 Rh7'
_cell_volume   337.70486065
_cell_formula_units_Z   1
loop_
 _symmetry_equiv_pos_site_id
 _symmetry_equiv_pos_as_xyz
  1  'x, y, z'
loop_
 _atom_site_type_symbol
 _atom_site_label
 _atom_site_symmetry_multiplicity
 _atom_site_fract_x
 _atom_site_fract_y
 _atom_site_fract_z
 _atom_site_occupancy
  Nd  Nd0  1  0.000000  0.000000  0.445955  1
  Nd  Nd1  1  0.000000  0.523956  0.009835  1
  Nd  Nd2  1  0.523956  0.000000  0.009835  1
  Nd  Nd3  1  0.476044  0.476044  0.485879  1
  Sn  Sn4  1  0.293024  0.293024  0.978997  1
  Sn  Sn5  1  0.706976  0.000000  0.685973  1
  Sn  Sn6  1  0.000000  0.706976  0.685973  1
  As  As7  1  0.648546  0.648546  0.988385  1
  As  As8  1  0.351454  0.000000  0.339840  1
  As  As9  1  0.000000  0.351454  0.339840  1
  Rh  Rh10  1  0.756955  0.257372  0.503744  1
  Rh  Rh11  1  0.742628  0.499583  0.246372  1
  Rh  Rh12  1  0.500417  0.243045  0.746790  1
  Rh  Rh13  1  0.243045  0.500417  0.746790  1
  Rh  Rh14  1  0.257372  0.756955  0.503744  1
  Rh  Rh15  1  0.499583  0.742628  0.246372  1
  Rh  Rh16  1  0.000000  0.000000  0.035673  1
