# generated using pymatgen
data_Gd5W2C7
_symmetry_space_group_name_H-M   'P 1'
_cell_length_a   8.52906597
_cell_length_b   8.52906461
_cell_length_c   3.45537800
_cell_angle_alpha   90.00000000
_cell_angle_beta   90.00000000
_cell_angle_gamma   123.45260102
_symmetry_Int_Tables_number   1
_chemical_formula_structural   Gd5W2C7
_chemical_formula_sum   'Gd5 W2 C7'
_cell_volume   209.72133747
_cell_formula_units_Z   1
loop_
 _symmetry_equiv_pos_site_id
 _symmetry_equiv_pos_as_xyz
  1  'x, y, z'
loop_
 _atom_site_type_symbol
 _atom_site_label
 _atom_site_symmetry_multiplicity
 _atom_site_fract_x
 _atom_site_fract_y
 _atom_site_fract_z
 _atom_site_occupancy
  Gd  Gd0  1  0.500000  0.500000  0.000000  1
  Gd  Gd1  1  0.071501  0.329083  0.500000  1
  Gd  Gd2  1  0.928499  0.670917  0.500000  1
  Gd  Gd3  1  0.670917  0.928499  0.500000  1
  Gd  Gd4  1  0.329083  0.071501  0.500000  1
  W  W5  1  0.712490  0.287510  0.000000  1
  W  W6  1  0.287510  0.712490  0.000000  1
  C  C7  1  0.627361  0.372639  0.500000  1
  C  C8  1  0.372639  0.627361  0.500000  1
  C  C9  1  0.000000  0.000000  0.000000  1
  C  C10  1  0.167543  0.167543  0.000000  1
  C  C11  1  0.832457  0.832457  0.000000  1
  C  C12  1  0.000000  0.500000  0.000000  1
  C  C13  1  0.500000  0.000000  0.000000  1
