# generated using pymatgen
data_Fe3Co3(SiW2)2
_symmetry_space_group_name_H-M   'P 1'
_cell_length_a   4.75785500
_cell_length_b   4.75785536
_cell_length_c   7.55977000
_cell_angle_alpha   90.00000000
_cell_angle_beta   90.00000000
_cell_angle_gamma   119.99999056
_symmetry_Int_Tables_number   1
_chemical_formula_structural   Fe3Co3(SiW2)2
_chemical_formula_sum   'Fe3 Co3 Si2 W4'
_cell_volume   148.20460327
_cell_formula_units_Z   1
loop_
 _symmetry_equiv_pos_site_id
 _symmetry_equiv_pos_as_xyz
  1  'x, y, z'
loop_
 _atom_site_type_symbol
 _atom_site_label
 _atom_site_symmetry_multiplicity
 _atom_site_fract_x
 _atom_site_fract_y
 _atom_site_fract_z
 _atom_site_occupancy
  Fe  Fe0  1  0.829429  0.170571  0.250000  1
  Fe  Fe1  1  0.829429  0.658856  0.250000  1
  Fe  Fe2  1  0.341144  0.170571  0.250000  1
  Co  Co3  1  0.170684  0.829316  0.750000  1
  Co  Co4  1  0.170684  0.341367  0.750000  1
  Co  Co5  1  0.658633  0.829316  0.750000  1
  Si  Si6  1  0.000000  0.000000  0.507331  1
  Si  Si7  1  0.000000  0.000000  0.992669  1
  W  W8  1  0.333333  0.666667  0.440101  1
  W  W9  1  0.666667  0.333333  0.568665  1
  W  W10  1  0.666667  0.333333  0.931335  1
  W  W11  1  0.333333  0.666667  0.059899  1
