# generated using pymatgen
data_Tb2Yb2Al13Si5Ir6
_symmetry_space_group_name_H-M   'P 1'
_cell_length_a   7.49573480
_cell_length_b   7.46828992
_cell_length_c   9.39516637
_cell_angle_alpha   89.98178796
_cell_angle_beta   90.04184649
_cell_angle_gamma   119.92696031
_symmetry_Int_Tables_number   1
_chemical_formula_structural   Tb2Yb2Al13Si5Ir6
_chemical_formula_sum   'Tb2 Yb2 Al13 Si5 Ir6'
_cell_volume   455.81597414
_cell_formula_units_Z   1
loop_
 _symmetry_equiv_pos_site_id
 _symmetry_equiv_pos_as_xyz
  1  'x, y, z'
loop_
 _atom_site_type_symbol
 _atom_site_label
 _atom_site_symmetry_multiplicity
 _atom_site_fract_x
 _atom_site_fract_y
 _atom_site_fract_z
 _atom_site_occupancy
  Tb  Tb0  1  0.999879  0.663115  0.252778  1
  Tb  Tb1  1  0.005435  0.340013  0.749362  1
  Yb  Yb2  1  0.674713  0.007563  0.252207  1
  Yb  Yb3  1  0.320169  0.991453  0.745559  1
  Al  Al4  1  0.129361  0.127603  0.250271  1
  Al  Al5  1  0.871314  0.872461  0.750784  1
  Al  Al6  1  0.664217  0.996326  0.577662  1
  Al  Al7  1  0.661322  0.997281  0.924237  1
  Al  Al8  1  0.339678  0.003405  0.070888  1
  Al  Al9  1  0.337445  0.334655  0.558868  1
  Al  Al10  1  0.663715  0.669193  0.439592  1
  Al  Al11  1  0.663545  0.669067  0.059286  1
  Al  Al12  1  0.337248  0.331988  0.940986  1
  Al  Al13  1  0.337184  0.546348  0.250223  1
  Al  Al14  1  0.661088  0.450330  0.750629  1
  Al  Al15  1  0.546312  0.344155  0.249979  1
  Al  Al16  1  0.453286  0.657365  0.749560  1
  Si  Si17  1  0.000738  0.325790  0.068107  1
  Si  Si18  1  0.998564  0.672876  0.932612  1
  Si  Si19  1  0.991587  0.666761  0.571762  1
  Si  Si20  1  0.340187  0.006134  0.423690  1
  Si  Si21  1  0.002173  0.326538  0.430009  1
  Ir  Ir22  1  0.689081  0.338391  0.003032  1
  Ir  Ir23  1  0.310727  0.661162  0.999080  1
  Ir  Ir24  1  0.310927  0.670438  0.499876  1
  Ir  Ir25  1  0.682232  0.331620  0.497866  1
  Ir  Ir26  1  0.000916  0.999699  0.001100  1
  Ir  Ir27  1  0.006960  0.998272  0.499998  1
