# generated using pymatgen
data_Dy7Lu(ZnRh)2
_symmetry_space_group_name_H-M   'P 1'
_cell_length_a   9.46440175
_cell_length_b   9.48308535
_cell_length_c   9.45303265
_cell_angle_alpha   59.89478430
_cell_angle_beta   59.98323179
_cell_angle_gamma   59.93467012
_symmetry_Int_Tables_number   1
_chemical_formula_structural   Dy7Lu(ZnRh)2
_chemical_formula_sum   'Dy14 Lu2 Zn4 Rh4'
_cell_volume   599.07747655
_cell_formula_units_Z   2
loop_
 _symmetry_equiv_pos_site_id
 _symmetry_equiv_pos_as_xyz
  1  'x, y, z'
loop_
 _atom_site_type_symbol
 _atom_site_label
 _atom_site_symmetry_multiplicity
 _atom_site_fract_x
 _atom_site_fract_y
 _atom_site_fract_z
 _atom_site_occupancy
  Dy  Dy0  1  0.311041  0.690075  0.308810  1
  Dy  Dy1  1  0.934803  0.936311  0.563139  1
  Dy  Dy2  1  0.144139  0.147298  0.561265  1
  Dy  Dy3  1  0.564256  0.937146  0.561454  1
  Dy  Dy4  1  0.144412  0.147463  0.147418  1
  Dy  Dy5  1  0.309936  0.308072  0.691139  1
  Dy  Dy6  1  0.934803  0.565746  0.563139  1
  Dy  Dy7  1  0.563263  0.563540  0.937824  1
  Dy  Dy8  1  0.563263  0.935373  0.937824  1
  Dy  Dy9  1  0.933870  0.564273  0.937585  1
  Dy  Dy10  1  0.144412  0.560707  0.147418  1
  Dy  Dy11  1  0.309936  0.690853  0.691139  1
  Dy  Dy12  1  0.690381  0.310159  0.689303  1
  Dy  Dy13  1  0.566484  0.144634  0.144246  1
  Lu  Lu14  1  0.691228  0.309698  0.309043  1
  Lu  Lu15  1  0.691228  0.690031  0.309043  1
  Zn  Zn16  1  0.920787  0.919776  0.239659  1
  Zn  Zn17  1  0.239611  0.919758  0.920873  1
  Zn  Zn18  1  0.920481  0.239557  0.920742  1
  Zn  Zn19  1  0.920481  0.919219  0.920742  1
  Rh  Rh20  1  0.359648  0.355556  0.355940  1
  Rh  Rh21  1  0.926250  0.359282  0.355187  1
  Rh  Rh22  1  0.355639  0.356616  0.931130  1
  Rh  Rh23  1  0.359648  0.928857  0.355940  1
