# generated using pymatgen
data_TbNdTe3
_symmetry_space_group_name_H-M   'P 1'
_cell_length_a   4.40555300
_cell_length_b   11.83506300
_cell_length_c   12.20425700
_cell_angle_alpha   90.00000000
_cell_angle_beta   90.00000000
_cell_angle_gamma   90.00000000
_symmetry_Int_Tables_number   1
_chemical_formula_structural   TbNdTe3
_chemical_formula_sum   'Tb4 Nd4 Te12'
_cell_volume   636.32992709
_cell_formula_units_Z   4
loop_
 _symmetry_equiv_pos_site_id
 _symmetry_equiv_pos_as_xyz
  1  'x, y, z'
loop_
 _atom_site_type_symbol
 _atom_site_label
 _atom_site_symmetry_multiplicity
 _atom_site_fract_x
 _atom_site_fract_y
 _atom_site_fract_z
 _atom_site_occupancy
  Tb  Tb0  1  0.250000  0.188931  0.485003  1
  Tb  Tb1  1  0.250000  0.311069  0.985003  1
  Tb  Tb2  1  0.750000  0.811069  0.514997  1
  Tb  Tb3  1  0.750000  0.688931  0.014997  1
  Nd  Nd4  1  0.750000  0.503371  0.698213  1
  Nd  Nd5  1  0.750000  0.996629  0.198213  1
  Nd  Nd6  1  0.250000  0.496629  0.301787  1
  Nd  Nd7  1  0.250000  0.003371  0.801787  1
  Te  Te8  1  0.250000  0.626793  0.540816  1
  Te  Te9  1  0.250000  0.873207  0.040816  1
  Te  Te10  1  0.750000  0.373207  0.459184  1
  Te  Te11  1  0.750000  0.126793  0.959184  1
  Te  Te12  1  0.250000  0.298399  0.727385  1
  Te  Te13  1  0.250000  0.201601  0.227385  1
  Te  Te14  1  0.750000  0.701601  0.272615  1
  Te  Te15  1  0.750000  0.798399  0.772615  1
  Te  Te16  1  0.750000  0.054929  0.614630  1
  Te  Te17  1  0.750000  0.445071  0.114630  1
  Te  Te18  1  0.250000  0.945071  0.385370  1
  Te  Te19  1  0.250000  0.554929  0.885370  1
