# generated using pymatgen
data_Dy10Si5Bi
_symmetry_space_group_name_H-M   'P 1'
_cell_length_a   8.54100400
_cell_length_b   8.58489041
_cell_length_c   6.38037800
_cell_angle_alpha   90.00000000
_cell_angle_beta   90.00000000
_cell_angle_gamma   119.83103824
_symmetry_Int_Tables_number   1
_chemical_formula_structural   Dy10Si5Bi
_chemical_formula_sum   'Dy10 Si5 Bi1'
_cell_volume   405.84259259
_cell_formula_units_Z   1
loop_
 _symmetry_equiv_pos_site_id
 _symmetry_equiv_pos_as_xyz
  1  'x, y, z'
loop_
 _atom_site_type_symbol
 _atom_site_label
 _atom_site_symmetry_multiplicity
 _atom_site_fract_x
 _atom_site_fract_y
 _atom_site_fract_z
 _atom_site_occupancy
  Dy  Dy0  1  0.984555  0.744637  0.750000  1
  Dy  Dy1  1  0.998490  0.243549  0.250000  1
  Dy  Dy2  1  0.754941  0.756451  0.250000  1
  Dy  Dy3  1  0.767699  0.000000  0.750000  1
  Dy  Dy4  1  0.239918  0.255363  0.750000  1
  Dy  Dy5  1  0.240333  0.000000  0.250000  1
  Dy  Dy6  1  0.676764  0.345918  0.005158  1
  Dy  Dy7  1  0.330845  0.654082  0.494842  1
  Dy  Dy8  1  0.330845  0.654082  0.005158  1
  Dy  Dy9  1  0.676764  0.345918  0.494842  1
  Si  Si10  1  0.393079  0.390753  0.250000  1
  Si  Si11  1  0.002326  0.609247  0.250000  1
  Si  Si12  1  0.998760  0.394239  0.750000  1
  Si  Si13  1  0.604521  0.605761  0.750000  1
  Si  Si14  1  0.607270  0.000000  0.250000  1
  Bi  Bi15  1  0.392887  0.000000  0.750000  1
