# generated using pymatgen
data_Ho4TcB12Rh
_symmetry_space_group_name_H-M   'P 1'
_cell_length_a   3.67118700
_cell_length_b   9.12536770
_cell_length_c   11.51659738
_cell_angle_alpha   90.38444303
_cell_angle_beta   90.00000000
_cell_angle_gamma   90.00000000
_symmetry_Int_Tables_number   1
_chemical_formula_structural   Ho4TcB12Rh
_chemical_formula_sum   'Ho8 Tc2 B24 Rh2'
_cell_volume   385.80805223
_cell_formula_units_Z   2
loop_
 _symmetry_equiv_pos_site_id
 _symmetry_equiv_pos_as_xyz
  1  'x, y, z'
loop_
 _atom_site_type_symbol
 _atom_site_label
 _atom_site_symmetry_multiplicity
 _atom_site_fract_x
 _atom_site_fract_y
 _atom_site_fract_z
 _atom_site_occupancy
  Ho  Ho0  1  0.500000  0.318948  0.410789  1
  Ho  Ho1  1  0.500000  0.681052  0.589211  1
  Ho  Ho2  1  0.500000  0.172881  0.917266  1
  Ho  Ho3  1  0.500000  0.827119  0.082734  1
  Ho  Ho4  1  0.500000  0.441968  0.126808  1
  Ho  Ho5  1  0.500000  0.558032  0.873192  1
  Ho  Ho6  1  0.500000  0.053994  0.628404  1
  Ho  Ho7  1  0.500000  0.946006  0.371596  1
  Tc  Tc8  1  0.500000  0.139171  0.179887  1
  Tc  Tc9  1  0.500000  0.860829  0.820113  1
  B  B10  1  0.000000  0.108605  0.470744  1
  B  B11  1  0.000000  0.891395  0.529256  1
  B  B12  1  0.000000  0.393000  0.970262  1
  B  B13  1  0.000000  0.607000  0.029738  1
  B  B14  1  0.000000  0.132639  0.314798  1
  B  B15  1  0.000000  0.867361  0.685202  1
  B  B16  1  0.000000  0.367151  0.816531  1
  B  B17  1  0.000000  0.632849  0.183469  1
  B  B18  1  0.000000  0.053099  0.067534  1
  B  B19  1  0.000000  0.946901  0.932466  1
  B  B20  1  0.000000  0.445678  0.565932  1
  B  B21  1  0.000000  0.554322  0.434068  1
  B  B22  1  0.000000  0.483763  0.287680  1
  B  B23  1  0.000000  0.516237  0.712320  1
  B  B24  1  0.000000  0.016430  0.786894  1
  B  B25  1  0.000000  0.983570  0.213106  1
  B  B26  1  0.000000  0.247964  0.081097  1
  B  B27  1  0.000000  0.752036  0.918903  1
  B  B28  1  0.000000  0.251110  0.578576  1
  B  B29  1  0.000000  0.748890  0.421424  1
  B  B30  1  0.000000  0.293007  0.234605  1
  B  B31  1  0.000000  0.706993  0.765395  1
  B  B32  1  0.000000  0.208330  0.734696  1
  B  B33  1  0.000000  0.791670  0.265304  1
  Rh  Rh34  1  0.500000  0.361873  0.678478  1
  Rh  Rh35  1  0.500000  0.638127  0.321522  1
