# generated using pymatgen
data_Tb2Ho2LuPb4
_symmetry_space_group_name_H-M   'P 1'
_cell_length_a   8.16530700
_cell_length_b   8.25323700
_cell_length_c   15.60104400
_cell_angle_alpha   90.00000000
_cell_angle_beta   90.00000000
_cell_angle_gamma   90.00000000
_symmetry_Int_Tables_number   1
_chemical_formula_structural   Tb2Ho2LuPb4
_chemical_formula_sum   'Tb8 Ho8 Lu4 Pb16'
_cell_volume   1051.35769142
_cell_formula_units_Z   4
loop_
 _symmetry_equiv_pos_site_id
 _symmetry_equiv_pos_as_xyz
  1  'x, y, z'
loop_
 _atom_site_type_symbol
 _atom_site_label
 _atom_site_symmetry_multiplicity
 _atom_site_fract_x
 _atom_site_fract_y
 _atom_site_fract_z
 _atom_site_occupancy
  Tb  Tb0  1  0.534646  0.323025  0.900377  1
  Tb  Tb1  1  0.034646  0.176975  0.599623  1
  Tb  Tb2  1  0.465354  0.676975  0.400377  1
  Tb  Tb3  1  0.965354  0.823025  0.099623  1
  Tb  Tb4  1  0.465354  0.676975  0.099623  1
  Tb  Tb5  1  0.965354  0.823025  0.400377  1
  Tb  Tb6  1  0.534646  0.323025  0.599623  1
  Tb  Tb7  1  0.034646  0.176975  0.900377  1
  Ho  Ho8  1  0.375985  0.841209  0.878920  1
  Ho  Ho9  1  0.875985  0.658791  0.621080  1
  Ho  Ho10  1  0.624015  0.158791  0.378920  1
  Ho  Ho11  1  0.124015  0.341209  0.121080  1
  Ho  Ho12  1  0.624015  0.158791  0.121080  1
  Ho  Ho13  1  0.124015  0.341209  0.378920  1
  Ho  Ho14  1  0.375985  0.841209  0.621080  1
  Ho  Ho15  1  0.875985  0.658791  0.878920  1
  Lu  Lu16  1  0.207774  0.504749  0.750000  1
  Lu  Lu17  1  0.707774  0.995251  0.750000  1
  Lu  Lu18  1  0.792226  0.495251  0.250000  1
  Lu  Lu19  1  0.292226  0.004749  0.250000  1
  Pb  Pb20  1  0.283067  0.034224  0.043366  1
  Pb  Pb21  1  0.783067  0.465776  0.456634  1
  Pb  Pb22  1  0.716933  0.965776  0.543366  1
  Pb  Pb23  1  0.216933  0.534224  0.956634  1
  Pb  Pb24  1  0.716933  0.965776  0.956634  1
  Pb  Pb25  1  0.216933  0.534224  0.543366  1
  Pb  Pb26  1  0.283067  0.034224  0.456634  1
  Pb  Pb27  1  0.783067  0.465776  0.043366  1
  Pb  Pb28  1  0.570397  0.627346  0.750000  1
  Pb  Pb29  1  0.070397  0.872654  0.750000  1
  Pb  Pb30  1  0.429603  0.372654  0.250000  1
  Pb  Pb31  1  0.929603  0.127346  0.250000  1
  Pb  Pb32  1  0.345879  0.153592  0.750000  1
  Pb  Pb33  1  0.845879  0.346408  0.750000  1
  Pb  Pb34  1  0.654121  0.846408  0.250000  1
  Pb  Pb35  1  0.154121  0.653592  0.250000  1
