# generated using pymatgen
data_Dy8LuSc10Si16Ag
_symmetry_space_group_name_H-M   'P 1'
_cell_length_a   7.05880449
_cell_length_b   7.41867919
_cell_length_c   14.08590144
_cell_angle_alpha   89.98732958
_cell_angle_beta   89.97421175
_cell_angle_gamma   89.98217757
_symmetry_Int_Tables_number   1
_chemical_formula_structural   Dy8LuSc10Si16Ag
_chemical_formula_sum   'Dy8 Lu1 Sc10 Si16 Ag1'
_cell_volume   737.63635705
_cell_formula_units_Z   1
loop_
 _symmetry_equiv_pos_site_id
 _symmetry_equiv_pos_as_xyz
  1  'x, y, z'
loop_
 _atom_site_type_symbol
 _atom_site_label
 _atom_site_symmetry_multiplicity
 _atom_site_fract_x
 _atom_site_fract_y
 _atom_site_fract_z
 _atom_site_occupancy
  Dy  Dy0  1  0.011258  0.175387  0.096592  1
  Dy  Dy1  1  0.989887  0.814638  0.901519  1
  Dy  Dy2  1  0.483940  0.673766  0.901842  1
  Dy  Dy3  1  0.989645  0.814201  0.599351  1
  Dy  Dy4  1  0.510902  0.323486  0.096664  1
  Dy  Dy5  1  0.011127  0.175153  0.403264  1
  Dy  Dy6  1  0.511373  0.323651  0.402488  1
  Dy  Dy7  1  0.484377  0.674432  0.598815  1
  Lu  Lu8  1  0.325396  0.183938  0.625585  1
  Sc  Sc9  1  0.838798  0.497354  0.249979  1
  Sc  Sc10  1  0.340195  0.002874  0.249844  1
  Sc  Sc11  1  0.657900  0.996778  0.750579  1
  Sc  Sc12  1  0.671470  0.823150  0.374377  1
  Sc  Sc13  1  0.170518  0.678819  0.372836  1
  Sc  Sc14  1  0.671357  0.823666  0.125069  1
  Sc  Sc15  1  0.835077  0.327550  0.626593  1
  Sc  Sc16  1  0.325841  0.182888  0.873961  1
  Sc  Sc17  1  0.836681  0.327530  0.874057  1
  Sc  Sc18  1  0.170566  0.678387  0.126147  1
  Si  Si19  1  0.025263  0.098186  0.752493  1
  Si  Si20  1  0.968992  0.886863  0.249732  1
  Si  Si21  1  0.467719  0.616841  0.249755  1
  Si  Si22  1  0.540135  0.387508  0.751982  1
  Si  Si23  1  0.287411  0.881005  0.751501  1
  Si  Si24  1  0.713749  0.127067  0.249935  1
  Si  Si25  1  0.212757  0.372686  0.249746  1
  Si  Si26  1  0.777150  0.629415  0.750480  1
  Si  Si27  1  0.156884  0.465000  0.529627  1
  Si  Si28  1  0.842125  0.536076  0.461298  1
  Si  Si29  1  0.345721  0.962841  0.460058  1
  Si  Si30  1  0.843297  0.535574  0.038300  1
  Si  Si31  1  0.662277  0.032513  0.538912  1
  Si  Si32  1  0.161046  0.460164  0.968673  1
  Si  Si33  1  0.656972  0.033732  0.959907  1
  Si  Si34  1  0.345006  0.965308  0.037458  1
  Ag  Ag35  1  0.157186  0.511571  0.750583  1
