# generated using pymatgen
data_Dy8Nb5Si16W7
_symmetry_space_group_name_H-M   'P 1'
_cell_length_a   6.76675241
_cell_length_b   6.98559983
_cell_length_c   13.19741871
_cell_angle_alpha   89.96244441
_cell_angle_beta   90.00038402
_cell_angle_gamma   90.07397565
_symmetry_Int_Tables_number   1
_chemical_formula_structural   Dy8Nb5Si16W7
_chemical_formula_sum   'Dy8 Nb5 Si16 W7'
_cell_volume   623.83901211
_cell_formula_units_Z   1
loop_
 _symmetry_equiv_pos_site_id
 _symmetry_equiv_pos_as_xyz
  1  'x, y, z'
loop_
 _atom_site_type_symbol
 _atom_site_label
 _atom_site_symmetry_multiplicity
 _atom_site_fract_x
 _atom_site_fract_y
 _atom_site_fract_z
 _atom_site_occupancy
  Dy  Dy0  1  0.500238  0.329285  0.093000  1
  Dy  Dy1  1  0.000390  0.170905  0.405823  1
  Dy  Dy2  1  0.500718  0.669384  0.594866  1
  Dy  Dy3  1  0.000578  0.830196  0.905939  1
  Dy  Dy4  1  0.501559  0.670279  0.905601  1
  Dy  Dy5  1  0.000540  0.830087  0.594767  1
  Dy  Dy6  1  0.499947  0.329361  0.405678  1
  Dy  Dy7  1  0.000123  0.171104  0.093702  1
  Nb  Nb8  1  0.668627  0.830116  0.374567  1
  Nb  Nb9  1  0.166622  0.667624  0.373839  1
  Nb  Nb10  1  0.665184  0.831979  0.124470  1
  Nb  Nb11  1  0.834103  0.333129  0.874817  1
  Nb  Nb12  1  0.333121  0.168965  0.626614  1
  Si  Si13  1  0.800426  0.631872  0.749981  1
  Si  Si14  1  0.299621  0.868550  0.750526  1
  Si  Si15  1  0.200180  0.368070  0.249187  1
  Si  Si16  1  0.700866  0.133030  0.249535  1
  Si  Si17  1  0.533600  0.375362  0.751033  1
  Si  Si18  1  0.033241  0.125427  0.750160  1
  Si  Si19  1  0.464395  0.622791  0.248567  1
  Si  Si20  1  0.967950  0.875579  0.248285  1
  Si  Si21  1  0.665601  0.042728  0.544992  1
  Si  Si22  1  0.166071  0.458311  0.956752  1
  Si  Si23  1  0.333819  0.957524  0.041804  1
  Si  Si24  1  0.836319  0.539074  0.459596  1
  Si  Si25  1  0.337387  0.960067  0.456685  1
  Si  Si26  1  0.841178  0.540874  0.044410  1
  Si  Si27  1  0.658838  0.040053  0.954315  1
  Si  Si28  1  0.158416  0.460270  0.545667  1
  W  W29  1  0.660363  0.006947  0.750231  1
  W  W30  1  0.161241  0.494190  0.750963  1
  W  W31  1  0.338923  0.992821  0.248387  1
  W  W32  1  0.839464  0.506863  0.249054  1
  W  W33  1  0.830603  0.333102  0.626765  1
  W  W34  1  0.330214  0.167136  0.875081  1
  W  W35  1  0.169534  0.666950  0.124340  1
