# generated using pymatgen
data_Ce2MnAl20Rh3
_symmetry_space_group_name_H-M   'P 1'
_cell_length_a   6.84710146
_cell_length_b   6.86787351
_cell_length_c   9.14998333
_cell_angle_alpha   90.27112490
_cell_angle_beta   90.22919809
_cell_angle_gamma   97.44999557
_symmetry_Int_Tables_number   1
_chemical_formula_structural   Ce2MnAl20Rh3
_chemical_formula_sum   'Ce2 Mn1 Al20 Rh3'
_cell_volume   426.63657834
_cell_formula_units_Z   1
loop_
 _symmetry_equiv_pos_site_id
 _symmetry_equiv_pos_as_xyz
  1  'x, y, z'
loop_
 _atom_site_type_symbol
 _atom_site_label
 _atom_site_symmetry_multiplicity
 _atom_site_fract_x
 _atom_site_fract_y
 _atom_site_fract_z
 _atom_site_occupancy
  Ce  Ce0  1  0.873556  0.118738  0.747634  1
  Ce  Ce1  1  0.126444  0.881262  0.252366  1
  Mn  Mn2  1  0.500000  0.000000  0.500000  1
  Al  Al3  1  0.408886  0.135716  0.745936  1
  Al  Al4  1  0.138622  0.406039  0.250906  1
  Al  Al5  1  0.591114  0.864284  0.254064  1
  Al  Al6  1  0.861378  0.593961  0.749094  1
  Al  Al7  1  0.519384  0.776252  0.743955  1
  Al  Al8  1  0.773317  0.521228  0.250295  1
  Al  Al9  1  0.480616  0.223748  0.256045  1
  Al  Al10  1  0.226683  0.478772  0.749705  1
  Al  Al11  1  0.837129  0.155791  0.399756  1
  Al  Al12  1  0.162871  0.844209  0.600244  1
  Al  Al13  1  0.842021  0.158338  0.103137  1
  Al  Al14  1  0.157979  0.841662  0.896863  1
  Al  Al15  1  0.621139  0.377694  0.946418  1
  Al  Al16  1  0.378861  0.622306  0.053582  1
  Al  Al17  1  0.618966  0.372366  0.550361  1
  Al  Al18  1  0.381034  0.627634  0.449639  1
  Al  Al19  1  0.776158  0.777102  0.000893  1
  Al  Al20  1  0.773227  0.780950  0.501831  1
  Al  Al21  1  0.223842  0.222898  0.999107  1
  Al  Al22  1  0.226773  0.219050  0.498169  1
  Rh  Rh23  1  0.500000  0.000000  0.000000  1
  Rh  Rh24  1  0.000000  0.500000  0.000000  1
  Rh  Rh25  1  0.000000  0.500000  0.500000  1
