# generated using pymatgen
data_KBa4Fe6(Co2P5)2
_symmetry_space_group_name_H-M   'P 1'
_cell_length_a   8.67287869
_cell_length_b   8.67333344
_cell_length_c   8.67284112
_cell_angle_alpha   121.77532635
_cell_angle_beta   121.77579723
_cell_angle_gamma   86.95907435
_symmetry_Int_Tables_number   1
_chemical_formula_structural   KBa4Fe6(Co2P5)2
_chemical_formula_sum   'K1 Ba4 Fe6 Co4 P10'
_cell_volume   448.21303895
_cell_formula_units_Z   1
loop_
 _symmetry_equiv_pos_site_id
 _symmetry_equiv_pos_as_xyz
  1  'x, y, z'
loop_
 _atom_site_type_symbol
 _atom_site_label
 _atom_site_symmetry_multiplicity
 _atom_site_fract_x
 _atom_site_fract_y
 _atom_site_fract_z
 _atom_site_occupancy
  K  K0  1  0.000268  0.000086  0.000035  1
  Ba  Ba1  1  0.391738  0.802267  0.194597  1
  Ba  Ba2  1  0.802515  0.608358  0.410761  1
  Ba  Ba3  1  0.197388  0.391330  0.589167  1
  Ba  Ba4  1  0.608096  0.197933  0.805475  1
  Fe  Fe5  1  0.549636  0.849525  0.899895  1
  Fe  Fe6  1  0.650363  0.548679  0.699152  1
  Fe  Fe7  1  0.050106  0.349765  0.899845  1
  Fe  Fe8  1  0.449882  0.151634  0.101337  1
  Fe  Fe9  1  0.851020  0.949931  0.301157  1
  Fe  Fe10  1  0.248742  0.749998  0.498595  1
  Co  Co11  1  0.949305  0.649571  0.099194  1
  Co  Co12  1  0.349698  0.450632  0.299917  1
  Co  Co13  1  0.750241  0.249367  0.499885  1
  Co  Co14  1  0.150920  0.050833  0.700957  1
  P  P15  1  0.940335  0.539674  0.799295  1
  P  P16  1  0.341117  0.341286  0.000571  1
  P  P17  1  0.739311  0.138639  0.197445  1
  P  P18  1  0.140553  0.940425  0.400305  1
  P  P19  1  0.540713  0.741949  0.602375  1
  P  P20  1  0.657519  0.660128  0.998898  1
  P  P21  1  0.059407  0.460313  0.200223  1
  P  P22  1  0.459816  0.259902  0.400558  1
  P  P23  1  0.859757  0.059128  0.599582  1
  P  P24  1  0.261555  0.858648  0.800781  1
