# generated using pymatgen
data_Gd6LuPI12
_symmetry_space_group_name_H-M   'P 1'
_cell_length_a   9.71590291
_cell_length_b   9.71590355
_cell_length_c   9.71590300
_cell_angle_alpha   107.66227567
_cell_angle_beta   107.66228305
_cell_angle_gamma   107.66226949
_symmetry_Int_Tables_number   1
_chemical_formula_structural   Gd6LuPI12
_chemical_formula_sum   'Gd6 Lu1 P1 I12'
_cell_volume   749.59997413
_cell_formula_units_Z   1
loop_
 _symmetry_equiv_pos_site_id
 _symmetry_equiv_pos_as_xyz
  1  'x, y, z'
loop_
 _atom_site_type_symbol
 _atom_site_label
 _atom_site_symmetry_multiplicity
 _atom_site_fract_x
 _atom_site_fract_y
 _atom_site_fract_z
 _atom_site_occupancy
  Gd  Gd0  1  0.804910  0.530900  0.600695  1
  Gd  Gd1  1  0.530900  0.600695  0.804910  1
  Gd  Gd2  1  0.195090  0.469100  0.399305  1
  Gd  Gd3  1  0.469100  0.399305  0.195090  1
  Gd  Gd4  1  0.600695  0.804910  0.530900  1
  Gd  Gd5  1  0.399305  0.195090  0.469100  1
  Lu  Lu6  1  0.000000  0.000000  0.000000  1
  P  P7  1  0.500000  0.500000  0.500000  1
  I  I8  1  0.730650  0.185059  0.576068  1
  I  I9  1  0.970757  0.892253  0.663564  1
  I  I10  1  0.576068  0.730650  0.185059  1
  I  I11  1  0.107747  0.336436  0.029243  1
  I  I12  1  0.663564  0.970757  0.892253  1
  I  I13  1  0.892253  0.663564  0.970757  1
  I  I14  1  0.029243  0.107747  0.336436  1
  I  I15  1  0.814941  0.423932  0.269350  1
  I  I16  1  0.336436  0.029243  0.107747  1
  I  I17  1  0.269350  0.814941  0.423932  1
  I  I18  1  0.185059  0.576068  0.730650  1
  I  I19  1  0.423932  0.269350  0.814941  1
