# generated using pymatgen
data_Sr8Y3Er(GaO5)4
_symmetry_space_group_name_H-M   'P 1'
_cell_length_a   5.96672520
_cell_length_b   7.63902993
_cell_length_c   12.48895060
_cell_angle_alpha   91.44484610
_cell_angle_beta   90.01937296
_cell_angle_gamma   90.02164214
_symmetry_Int_Tables_number   1
_chemical_formula_structural   Sr8Y3Er(GaO5)4
_chemical_formula_sum   'Sr8 Y3 Er1 Ga4 O20'
_cell_volume   569.06521209
_cell_formula_units_Z   1
loop_
 _symmetry_equiv_pos_site_id
 _symmetry_equiv_pos_as_xyz
  1  'x, y, z'
loop_
 _atom_site_type_symbol
 _atom_site_label
 _atom_site_symmetry_multiplicity
 _atom_site_fract_x
 _atom_site_fract_y
 _atom_site_fract_z
 _atom_site_occupancy
  Sr  Sr0  1  0.772064  0.486384  0.330538  1
  Sr  Sr1  1  0.727554  0.987045  0.829576  1
  Sr  Sr2  1  0.228101  0.512482  0.669487  1
  Sr  Sr3  1  0.272322  0.013462  0.170245  1
  Sr  Sr4  1  0.771641  0.985649  0.368106  1
  Sr  Sr5  1  0.728222  0.484864  0.866803  1
  Sr  Sr6  1  0.228762  0.015507  0.632243  1
  Sr  Sr7  1  0.271764  0.514885  0.132705  1
  Y  Y8  1  0.744612  0.770998  0.119795  1
  Y  Y9  1  0.244694  0.729101  0.380431  1
  Y  Y10  1  0.255466  0.229108  0.879822  1
  Er  Er11  1  0.756392  0.270115  0.620536  1
  Ga  Ga12  1  0.719846  0.742117  0.580207  1
  Ga  Ga13  1  0.780282  0.242121  0.080054  1
  Ga  Ga14  1  0.280315  0.258150  0.420870  1
  Ga  Ga15  1  0.219621  0.757933  0.919842  1
  O  O16  1  0.788428  0.972193  0.627907  1
  O  O17  1  0.710589  0.470551  0.128553  1
  O  O18  1  0.211205  0.029628  0.371854  1
  O  O19  1  0.289306  0.529236  0.871381  1
  O  O20  1  0.716229  0.068357  0.177469  1
  O  O21  1  0.783187  0.565562  0.676050  1
  O  O22  1  0.283733  0.932160  0.822570  1
  O  O23  1  0.216900  0.431604  0.323102  1
  O  O24  1  0.540887  0.747055  0.275621  1
  O  O25  1  0.959479  0.247178  0.774080  1
  O  O26  1  0.462039  0.252997  0.723732  1
  O  O27  1  0.040984  0.752845  0.224486  1
  O  O28  1  0.597642  0.212603  0.959563  1
  O  O29  1  0.902359  0.713130  0.459899  1
  O  O30  1  0.402135  0.787422  0.040158  1
  O  O31  1  0.093910  0.286944  0.540252  1
  O  O32  1  0.089812  0.236685  0.046395  1
  O  O33  1  0.410124  0.737097  0.546968  1
  O  O34  1  0.909929  0.763156  0.952881  1
  O  O35  1  0.589464  0.263679  0.455821  1
