# generated using pymatgen
data_Nd8DySc3(CuS5)4
_symmetry_space_group_name_H-M   'P 1'
_cell_length_a   11.48405450
_cell_length_b   3.88745100
_cell_length_c   16.88932587
_cell_angle_alpha   90.00000000
_cell_angle_beta   90.22523114
_cell_angle_gamma   90.00000000
_symmetry_Int_Tables_number   1
_chemical_formula_structural   Nd8DySc3(CuS5)4
_chemical_formula_sum   'Nd8 Dy1 Sc3 Cu4 S20'
_cell_volume   753.99615712
_cell_formula_units_Z   1
loop_
 _symmetry_equiv_pos_site_id
 _symmetry_equiv_pos_as_xyz
  1  'x, y, z'
loop_
 _atom_site_type_symbol
 _atom_site_label
 _atom_site_symmetry_multiplicity
 _atom_site_fract_x
 _atom_site_fract_y
 _atom_site_fract_z
 _atom_site_occupancy
  Nd  Nd0  1  0.357915  0.250000  0.105249  1
  Nd  Nd1  1  0.009560  0.250000  0.177862  1
  Nd  Nd2  1  0.511956  0.250000  0.323350  1
  Nd  Nd3  1  0.860238  0.250000  0.398393  1
  Nd  Nd4  1  0.141199  0.749999  0.600424  1
  Nd  Nd5  1  0.491859  0.749999  0.674955  1
  Nd  Nd6  1  0.986851  0.749999  0.821420  1
  Nd  Nd7  1  0.642178  0.749999  0.899310  1
  Dy  Dy8  1  0.306179  0.250000  0.863291  1
  Sc  Sc9  1  0.694197  0.749999  0.137889  1
  Sc  Sc10  1  0.194770  0.749999  0.362554  1
  Sc  Sc11  1  0.807599  0.250000  0.636423  1
  Cu  Cu12  1  0.822726  0.250000  0.021669  1
  Cu  Cu13  1  0.325407  0.250000  0.477619  1
  Cu  Cu14  1  0.676825  0.749999  0.520464  1
  Cu  Cu15  1  0.171480  0.749999  0.980589  1
  S  S16  1  0.616257  0.250000  0.036315  1
  S  S17  1  0.894876  0.749999  0.078217  1
  S  S18  1  0.176766  0.749999  0.115240  1
  S  S19  1  0.485836  0.749999  0.197088  1
  S  S20  1  0.750253  0.250000  0.228976  1
  S  S21  1  0.250097  0.250000  0.271860  1
  S  S22  1  0.985538  0.749999  0.304590  1
  S  S23  1  0.679214  0.749999  0.385889  1
  S  S24  1  0.396842  0.749999  0.421908  1
  S  S25  1  0.117564  0.250000  0.463879  1
  S  S26  1  0.884543  0.749999  0.534480  1
  S  S27  1  0.605596  0.250000  0.576297  1
  S  S28  1  0.323773  0.250000  0.611886  1
  S  S29  1  0.014669  0.250000  0.694496  1
  S  S30  1  0.753030  0.749999  0.727325  1
  S  S31  1  0.243519  0.749999  0.764824  1
  S  S32  1  0.522994  0.250000  0.801402  1
  S  S33  1  0.819972  0.250000  0.886722  1
  S  S34  1  0.094290  0.250000  0.926254  1
  S  S35  1  0.383435  0.749999  0.970893  1
