# generated using pymatgen
data_YbY(Ga2Ag)2
_symmetry_space_group_name_H-M   'P 1'
_cell_length_a   4.36196800
_cell_length_b   6.99878091
_cell_length_c   10.34837810
_cell_angle_alpha   90.86031347
_cell_angle_beta   90.00000000
_cell_angle_gamma   90.00000000
_symmetry_Int_Tables_number   1
_chemical_formula_structural   YbY(Ga2Ag)2
_chemical_formula_sum   'Yb2 Y2 Ga8 Ag4'
_cell_volume   315.88441739
_cell_formula_units_Z   2
loop_
 _symmetry_equiv_pos_site_id
 _symmetry_equiv_pos_as_xyz
  1  'x, y, z'
loop_
 _atom_site_type_symbol
 _atom_site_label
 _atom_site_symmetry_multiplicity
 _atom_site_fract_x
 _atom_site_fract_y
 _atom_site_fract_z
 _atom_site_occupancy
  Yb  Yb0  1  0.750000  0.723800  0.328610  1
  Yb  Yb1  1  0.250000  0.276200  0.671390  1
  Y  Y2  1  0.250000  0.777449  0.827831  1
  Y  Y3  1  0.750000  0.222551  0.172169  1
  Ga  Ga4  1  0.250000  0.701883  0.534797  1
  Ga  Ga5  1  0.750000  0.298117  0.465203  1
  Ga  Ga6  1  0.750000  0.795880  0.036206  1
  Ga  Ga7  1  0.250000  0.204120  0.963794  1
  Ga  Ga8  1  0.250000  0.926262  0.151013  1
  Ga  Ga9  1  0.750000  0.073738  0.848987  1
  Ga  Ga10  1  0.750000  0.572110  0.651548  1
  Ga  Ga11  1  0.250000  0.427890  0.348452  1
  Ag  Ag12  1  0.250000  0.542653  0.099428  1
  Ag  Ag13  1  0.750000  0.457347  0.900572  1
  Ag  Ag14  1  0.750000  0.959773  0.598685  1
  Ag  Ag15  1  0.250000  0.040227  0.401315  1
