# generated using pymatgen
data_Tm4Sc4B24Mo3Ir
_symmetry_space_group_name_H-M   'P 1'
_cell_length_a   3.52782500
_cell_length_b   9.06573928
_cell_length_c   11.43660362
_cell_angle_alpha   90.06100552
_cell_angle_beta   90.00000000
_cell_angle_gamma   90.00000000
_symmetry_Int_Tables_number   1
_chemical_formula_structural   Tm4Sc4B24Mo3Ir
_chemical_formula_sum   'Tm4 Sc4 B24 Mo3 Ir1'
_cell_volume   365.76915746
_cell_formula_units_Z   1
loop_
 _symmetry_equiv_pos_site_id
 _symmetry_equiv_pos_as_xyz
  1  'x, y, z'
loop_
 _atom_site_type_symbol
 _atom_site_label
 _atom_site_symmetry_multiplicity
 _atom_site_fract_x
 _atom_site_fract_y
 _atom_site_fract_z
 _atom_site_occupancy
  Tm  Tm0  1  0.500000  0.317762  0.415137  1
  Tm  Tm1  1  0.500000  0.680372  0.587987  1
  Tm  Tm2  1  0.500000  0.179348  0.913178  1
  Tm  Tm3  1  0.500000  0.822416  0.083384  1
  Sc  Sc4  1  0.500000  0.443250  0.127389  1
  Sc  Sc5  1  0.500000  0.555265  0.872761  1
  Sc  Sc6  1  0.500000  0.053866  0.627195  1
  Sc  Sc7  1  0.500000  0.945417  0.371635  1
  B  B8  1  0.000000  0.095516  0.473274  1
  B  B9  1  0.000000  0.900757  0.525400  1
  B  B10  1  0.000000  0.403073  0.974184  1
  B  B11  1  0.000000  0.597712  0.028145  1
  B  B12  1  0.000000  0.129241  0.319906  1
  B  B13  1  0.000000  0.870115  0.680316  1
  B  B14  1  0.000000  0.371419  0.818804  1
  B  B15  1  0.000000  0.629787  0.182236  1
  B  B16  1  0.000000  0.052976  0.065924  1
  B  B17  1  0.000000  0.948036  0.935116  1
  B  B18  1  0.000000  0.448411  0.563602  1
  B  B19  1  0.000000  0.555811  0.433297  1
  B  B20  1  0.000000  0.482391  0.286595  1
  B  B21  1  0.000000  0.521920  0.714027  1
  B  B22  1  0.000000  0.021777  0.784979  1
  B  B23  1  0.000000  0.977937  0.214410  1
  B  B24  1  0.000000  0.255850  0.079740  1
  B  B25  1  0.000000  0.744107  0.921675  1
  B  B26  1  0.000000  0.242994  0.578491  1
  B  B27  1  0.000000  0.753447  0.419286  1
  B  B28  1  0.000000  0.298118  0.237338  1
  B  B29  1  0.000000  0.702448  0.764214  1
  B  B30  1  0.000000  0.203282  0.735938  1
  B  B31  1  0.000000  0.793932  0.264336  1
  Mo  Mo32  1  0.500000  0.141151  0.182928  1
  Mo  Mo33  1  0.500000  0.859392  0.818979  1
  Mo  Mo34  1  0.500000  0.360047  0.679440  1
  Ir  Ir35  1  0.500000  0.640658  0.318755  1
