# generated using pymatgen
data_Lu12AlCo2Si2Sn
_symmetry_space_group_name_H-M   'P 1'
_cell_length_a   8.24361242
_cell_length_b   8.24361236
_cell_length_c   8.24361188
_cell_angle_alpha   113.06934274
_cell_angle_beta   111.69298923
_cell_angle_gamma   103.79932585
_symmetry_Int_Tables_number   1
_chemical_formula_structural   Lu12AlCo2Si2Sn
_chemical_formula_sum   'Lu12 Al1 Co2 Si2 Sn1'
_cell_volume   428.05564044
_cell_formula_units_Z   1
loop_
 _symmetry_equiv_pos_site_id
 _symmetry_equiv_pos_as_xyz
  1  'x, y, z'
loop_
 _atom_site_type_symbol
 _atom_site_label
 _atom_site_symmetry_multiplicity
 _atom_site_fract_x
 _atom_site_fract_y
 _atom_site_fract_z
 _atom_site_occupancy
  Lu  Lu0  1  0.439275  0.240825  0.198448  1
  Lu  Lu1  1  0.560725  0.759175  0.801552  1
  Lu  Lu2  1  0.042376  0.240825  0.801552  1
  Lu  Lu3  1  0.957624  0.759175  0.198448  1
  Lu  Lu4  1  0.184110  0.285775  0.469888  1
  Lu  Lu5  1  0.815890  0.714225  0.530112  1
  Lu  Lu6  1  0.184110  0.714225  0.898335  1
  Lu  Lu7  1  0.815890  0.285775  0.101665  1
  Lu  Lu8  1  0.305252  0.617318  0.312067  1
  Lu  Lu9  1  0.694748  0.382682  0.687933  1
  Lu  Lu10  1  0.305252  0.993185  0.687933  1
  Lu  Lu11  1  0.694748  0.006815  0.312067  1
  Al  Al12  1  0.000000  0.000000  0.000000  1
  Co  Co13  1  0.109524  0.609524  0.500000  1
  Co  Co14  1  0.890476  0.390476  0.500000  1
  Si  Si15  1  0.353496  0.000000  0.353496  1
  Si  Si16  1  0.646504  0.000000  0.646504  1
  Sn  Sn17  1  0.500000  0.500000  0.000000  1
