# generated using pymatgen
data_Nd2ScBiO7
_symmetry_space_group_name_H-M   'P 1'
_cell_length_a   7.72665404
_cell_length_b   7.65232655
_cell_length_c   7.65232563
_cell_angle_alpha   59.66960273
_cell_angle_beta   59.67817018
_cell_angle_gamma   59.67816843
_symmetry_Int_Tables_number   1
_chemical_formula_structural   Nd2ScBiO7
_chemical_formula_sum   'Nd4 Sc2 Bi2 O14'
_cell_volume   317.57625646
_cell_formula_units_Z   2
loop_
 _symmetry_equiv_pos_site_id
 _symmetry_equiv_pos_as_xyz
  1  'x, y, z'
loop_
 _atom_site_type_symbol
 _atom_site_label
 _atom_site_symmetry_multiplicity
 _atom_site_fract_x
 _atom_site_fract_y
 _atom_site_fract_z
 _atom_site_occupancy
  Nd  Nd0  1  0.625000  0.125000  0.125000  1
  Nd  Nd1  1  0.125000  0.125000  0.125000  1
  Nd  Nd2  1  0.125000  0.625000  0.125000  1
  Nd  Nd3  1  0.125000  0.125000  0.625000  1
  Sc  Sc4  1  0.625000  0.625000  0.125000  1
  Sc  Sc5  1  0.625000  0.125000  0.625000  1
  Bi  Bi6  1  0.625000  0.625000  0.625000  1
  Bi  Bi7  1  0.125000  0.625000  0.625000  1
  O  O8  1  0.711802  0.288198  0.288198  1
  O  O9  1  0.715821  0.709022  0.288170  1
  O  O10  1  0.286987  0.709022  0.288170  1
  O  O11  1  0.000914  0.999086  0.999086  1
  O  O12  1  0.715821  0.288170  0.709022  1
  O  O13  1  0.964331  0.535669  0.535669  1
  O  O14  1  0.285669  0.714331  0.714331  1
  O  O15  1  0.534179  0.961830  0.540978  1
  O  O16  1  0.249086  0.250914  0.250914  1
  O  O17  1  0.963013  0.540978  0.961830  1
  O  O18  1  0.534179  0.540978  0.961830  1
  O  O19  1  0.963013  0.961830  0.540978  1
  O  O20  1  0.538198  0.961802  0.961802  1
  O  O21  1  0.286987  0.288170  0.709022  1
