# generated using pymatgen
data_La16Mg3CdTc3Pt
_symmetry_space_group_name_H-M   'P 1'
_cell_length_a   10.06532900
_cell_length_b   10.19714631
_cell_length_c   10.19714700
_cell_angle_alpha   60.00000099
_cell_angle_beta   59.56582913
_cell_angle_gamma   59.56582929
_symmetry_Int_Tables_number   1
_chemical_formula_structural   La16Mg3CdTc3Pt
_chemical_formula_sum   'La16 Mg3 Cd1 Tc3 Pt1'
_cell_volume   735.17184230
_cell_formula_units_Z   1
loop_
 _symmetry_equiv_pos_site_id
 _symmetry_equiv_pos_as_xyz
  1  'x, y, z'
loop_
 _atom_site_type_symbol
 _atom_site_label
 _atom_site_symmetry_multiplicity
 _atom_site_fract_x
 _atom_site_fract_y
 _atom_site_fract_z
 _atom_site_occupancy
  La  La0  1  0.591666  0.598733  0.598733  1
  La  La1  1  0.591666  0.598733  0.210868  1
  La  La2  1  0.591666  0.210868  0.598733  1
  La  La3  1  0.217571  0.594143  0.594143  1
  La  La4  1  0.070845  0.437603  0.437603  1
  La  La5  1  0.439023  0.062610  0.062610  1
  La  La6  1  0.439023  0.062610  0.435758  1
  La  La7  1  0.070845  0.437603  0.053949  1
  La  La8  1  0.439023  0.435758  0.062610  1
  La  La9  1  0.070845  0.053949  0.437603  1
  La  La10  1  0.193040  0.807639  0.807639  1
  La  La11  1  0.806355  0.190924  0.190924  1
  La  La12  1  0.806355  0.190924  0.811797  1
  La  La13  1  0.193040  0.807639  0.191681  1
  La  La14  1  0.806355  0.811797  0.190924  1
  La  La15  1  0.193040  0.191681  0.807639  1
  Mg  Mg16  1  0.827333  0.828311  0.828311  1
  Mg  Mg17  1  0.827333  0.828311  0.516044  1
  Mg  Mg18  1  0.827333  0.516044  0.828311  1
  Cd  Cd19  1  0.512695  0.829102  0.829102  1
  Tc  Tc20  1  0.384944  0.384913  0.384913  1
  Tc  Tc21  1  0.384944  0.384913  0.845229  1
  Tc  Tc22  1  0.384944  0.845229  0.384913  1
  Pt  Pt23  1  0.830120  0.389960  0.389960  1
