# generated using pymatgen
data_UI3Br2
_symmetry_space_group_name_H-M   'P 1'
_cell_length_a   7.77579150
_cell_length_b   8.40773228
_cell_length_c   11.49490478
_cell_angle_alpha   109.45347328
_cell_angle_beta   92.37134887
_cell_angle_gamma   116.10540314
_symmetry_Int_Tables_number   1
_chemical_formula_structural   UI3Br2
_chemical_formula_sum   'U2 I6 Br4'
_cell_volume   620.44194505
_cell_formula_units_Z   2
loop_
 _symmetry_equiv_pos_site_id
 _symmetry_equiv_pos_as_xyz
  1  'x, y, z'
loop_
 _atom_site_type_symbol
 _atom_site_label
 _atom_site_symmetry_multiplicity
 _atom_site_fract_x
 _atom_site_fract_y
 _atom_site_fract_z
 _atom_site_occupancy
  U  U0  1  0.108738  0.208250  0.211709  1
  U  U1  1  0.891262  0.791750  0.788291  1
  I  I2  1  0.936847  0.183882  0.425405  1
  I  I3  1  0.063153  0.816118  0.574595  1
  I  I4  1  0.244516  0.186290  0.958547  1
  I  I5  1  0.755484  0.813710  0.041453  1
  I  I6  1  0.107902  0.612806  0.845094  1
  I  I7  1  0.892098  0.387194  0.154906  1
  Br  Br8  1  0.705810  0.976377  0.753556  1
  Br  Br9  1  0.294190  0.023623  0.246444  1
  Br  Br10  1  0.577401  0.452501  0.670450  1
  Br  Br11  1  0.422599  0.547499  0.329550  1
