# generated using pymatgen
data_RbCl23
_symmetry_space_group_name_H-M   'P 1'
_cell_length_a   6.12547855
_cell_length_b   10.34559965
_cell_length_c   16.90424100
_cell_angle_alpha   90.01344670
_cell_angle_beta   82.19265319
_cell_angle_gamma   92.58161465
_symmetry_Int_Tables_number   1
_chemical_formula_structural   RbCl23
_chemical_formula_sum   'Rb1 Cl23'
_cell_volume   1060.22537652
_cell_formula_units_Z   1
loop_
 _symmetry_equiv_pos_site_id
 _symmetry_equiv_pos_as_xyz
  1  'x, y, z'
loop_
 _atom_site_type_symbol
 _atom_site_label
 _atom_site_symmetry_multiplicity
 _atom_site_fract_x
 _atom_site_fract_y
 _atom_site_fract_z
 _atom_site_occupancy
  Rb  Rb0  1  0.417632  0.115841  0.420104  1
  Cl  Cl1  1  0.320374  0.804544  0.387581  1
  Cl  Cl2  1  0.180755  0.355444  0.105452  1
  Cl  Cl3  1  0.890683  0.256996  0.484408  1
  Cl  Cl4  1  0.105540  0.867006  0.491797  1
  Cl  Cl5  1  0.353038  0.277988  0.007902  1
  Cl  Cl6  1  0.760619  0.641180  0.000379  1
  Cl  Cl7  1  0.071162  0.366296  0.395410  1
  Cl  Cl8  1  0.650738  0.537799  0.293813  1
  Cl  Cl9  1  0.718655  0.173689  0.232361  1
  Cl  Cl10  1  0.219667  0.813576  0.194537  1
  Cl  Cl11  1  0.671926  0.687001  0.682212  1
  Cl  Cl12  1  0.361797  0.252204  0.601791  1
  Cl  Cl13  1  0.297674  0.962182  0.836700  1
  Cl  Cl14  1  0.621265  0.176497  0.865217  1
  Cl  Cl15  1  0.061052  0.745614  0.104220  1
  Cl  Cl16  1  0.874580  0.936125  0.614893  1
  Cl  Cl17  1  0.606268  0.113615  0.603811  1
  Cl  Cl18  1  0.860053  0.673174  0.884476  1
  Cl  Cl19  1  0.893197  0.283301  0.883429  1
  Cl  Cl20  1  0.468236  0.456672  0.213615  1
  Cl  Cl21  1  0.932835  0.027856  0.227272  1
  Cl  Cl22  1  0.541371  0.514517  0.725554  1
  Cl  Cl23  1  0.120884  0.960885  0.743071  1
