# generated using pymatgen
data_Y5InPb2Cl
_symmetry_space_group_name_H-M   'P 1'
_cell_length_a   9.17177300
_cell_length_b   9.18476730
_cell_length_c   6.70306700
_cell_angle_alpha   90.00030549
_cell_angle_beta   89.99987770
_cell_angle_gamma   119.95315978
_symmetry_Int_Tables_number   1
_chemical_formula_structural   Y5InPb2Cl
_chemical_formula_sum   'Y10 In2 Pb4 Cl2'
_cell_volume   489.24955346
_cell_formula_units_Z   2
loop_
 _symmetry_equiv_pos_site_id
 _symmetry_equiv_pos_as_xyz
  1  'x, y, z'
loop_
 _atom_site_type_symbol
 _atom_site_label
 _atom_site_symmetry_multiplicity
 _atom_site_fract_x
 _atom_site_fract_y
 _atom_site_fract_z
 _atom_site_occupancy
  Y  Y0  1  0.668929  0.336123  0.997617  1
  Y  Y1  1  0.332806  0.663877  0.997617  1
  Y  Y2  1  0.741391  0.741419  0.249996  1
  Y  Y3  1  0.257617  0.000001  0.249999  1
  Y  Y4  1  0.999975  0.258585  0.250001  1
  Y  Y5  1  0.668929  0.336123  0.502383  1
  Y  Y6  1  0.332810  0.663880  0.502382  1
  Y  Y7  1  0.258227  0.262542  0.749998  1
  Y  Y8  1  0.742490  0.999996  0.750003  1
  Y  Y9  1  0.995682  0.737455  0.750003  1
  In  In10  1  0.999600  0.391738  0.749999  1
  In  In11  1  0.607857  0.608254  0.750000  1
  Pb  Pb12  1  0.608305  0.000001  0.249998  1
  Pb  Pb13  1  0.000919  0.608241  0.250000  1
  Pb  Pb14  1  0.392684  0.391765  0.249999  1
  Pb  Pb15  1  0.390007  0.000000  0.750001  1
  Cl  Cl16  1  0.000888  0.000001  0.001411  1
  Cl  Cl17  1  0.000887  0.000000  0.498588  1
