# generated using pymatgen
data_La2Nd4Al21Si3Os8
_symmetry_space_group_name_H-M   'P 1'
_cell_length_a   8.81764300
_cell_length_b   8.83427083
_cell_length_c   9.76213688
_cell_angle_alpha   90.04236189
_cell_angle_beta   90.00000000
_cell_angle_gamma   119.93776069
_symmetry_Int_Tables_number   1
_chemical_formula_structural   La2Nd4Al21Si3Os8
_chemical_formula_sum   'La2 Nd4 Al21 Si3 Os8'
_cell_volume   658.97755119
_cell_formula_units_Z   1
loop_
 _symmetry_equiv_pos_site_id
 _symmetry_equiv_pos_as_xyz
  1  'x, y, z'
loop_
 _atom_site_type_symbol
 _atom_site_label
 _atom_site_symmetry_multiplicity
 _atom_site_fract_x
 _atom_site_fract_y
 _atom_site_fract_z
 _atom_site_occupancy
  La  La0  1  0.193095  0.386191  0.248767  1
  La  La1  1  0.806750  0.613501  0.751308  1
  Nd  Nd2  1  0.614404  0.807872  0.248814  1
  Nd  Nd3  1  0.386088  0.192257  0.751639  1
  Nd  Nd4  1  0.193466  0.807872  0.248814  1
  Nd  Nd5  1  0.806169  0.192257  0.751639  1
  Al  Al6  1  0.333771  0.667542  0.484400  1
  Al  Al7  1  0.164064  0.328127  0.573379  1
  Al  Al8  1  0.834965  0.669930  0.424944  1
  Al  Al9  1  0.671557  0.836764  0.571857  1
  Al  Al10  1  0.835284  0.670568  0.075394  1
  Al  Al11  1  0.330827  0.164542  0.426429  1
  Al  Al12  1  0.164825  0.329650  0.924234  1
  Al  Al13  1  0.165208  0.836764  0.571857  1
  Al  Al14  1  0.330678  0.164594  0.074039  1
  Al  Al15  1  0.833715  0.164542  0.426429  1
  Al  Al16  1  0.669553  0.835578  0.925687  1
  Al  Al17  1  0.833916  0.164594  0.074039  1
  Al  Al18  1  0.166026  0.835578  0.925687  1
  Al  Al19  1  0.564456  0.128911  0.249333  1
  Al  Al20  1  0.436154  0.872307  0.748218  1
  Al  Al21  1  0.870653  0.436310  0.249272  1
  Al  Al22  1  0.128024  0.562926  0.748464  1
  Al  Al23  1  0.565658  0.436310  0.249272  1
  Al  Al24  1  0.434902  0.562926  0.748464  1
  Al  Al25  1  0.999843  0.999685  0.249216  1
  Al  Al26  1  0.000154  0.000308  0.749293  1
  Si  Si27  1  0.334320  0.668640  0.029282  1
  Si  Si28  1  0.665772  0.331543  0.968677  1
  Si  Si29  1  0.665385  0.330770  0.532627  1
  Os  Os30  1  0.499768  0.999537  0.998948  1
  Os  Os31  1  0.000800  0.500515  0.999120  1
  Os  Os32  1  0.503932  0.007863  0.500928  1
  Os  Os33  1  0.499715  0.500515  0.999120  1
  Os  Os34  1  0.991621  0.495880  0.501094  1
  Os  Os35  1  0.504259  0.495880  0.501094  1
  Os  Os36  1  0.000115  0.000230  0.999138  1
  Os  Os37  1  0.000110  0.000220  0.499074  1
