# generated using pymatgen
data_Tb6Y2Sc12Si15Au
_symmetry_space_group_name_H-M   'P 1'
_cell_length_a   7.14010099
_cell_length_b   7.39248832
_cell_length_c   14.09224783
_cell_angle_alpha   89.89626900
_cell_angle_beta   89.67858699
_cell_angle_gamma   90.17836668
_symmetry_Int_Tables_number   1
_chemical_formula_structural   Tb6Y2Sc12Si15Au
_chemical_formula_sum   'Tb6 Y2 Sc12 Si15 Au1'
_cell_volume   743.81616126
_cell_formula_units_Z   1
loop_
 _symmetry_equiv_pos_site_id
 _symmetry_equiv_pos_as_xyz
  1  'x, y, z'
loop_
 _atom_site_type_symbol
 _atom_site_label
 _atom_site_symmetry_multiplicity
 _atom_site_fract_x
 _atom_site_fract_y
 _atom_site_fract_z
 _atom_site_occupancy
  Tb  Tb0  1  0.486895  0.676052  0.903176  1
  Tb  Tb1  1  0.987955  0.828555  0.597746  1
  Tb  Tb2  1  0.512469  0.324414  0.096803  1
  Tb  Tb3  1  0.010668  0.173754  0.399727  1
  Tb  Tb4  1  0.510656  0.324736  0.400473  1
  Tb  Tb5  1  0.490871  0.675904  0.599363  1
  Y  Y6  1  0.012424  0.175076  0.097689  1
  Y  Y7  1  0.987311  0.825348  0.903334  1
  Sc  Sc8  1  0.162398  0.500849  0.751211  1
  Sc  Sc9  1  0.837738  0.498886  0.250649  1
  Sc  Sc10  1  0.338196  0.000251  0.249209  1
  Sc  Sc11  1  0.663727  0.996699  0.750983  1
  Sc  Sc12  1  0.338081  0.175993  0.625846  1
  Sc  Sc13  1  0.667063  0.823521  0.373691  1
  Sc  Sc14  1  0.168942  0.673663  0.373410  1
  Sc  Sc15  1  0.670600  0.824113  0.124979  1
  Sc  Sc16  1  0.827915  0.325543  0.625356  1
  Sc  Sc17  1  0.328544  0.175305  0.875950  1
  Sc  Sc18  1  0.830231  0.322480  0.875913  1
  Sc  Sc19  1  0.169357  0.676813  0.125071  1
  Si  Si20  1  0.035179  0.120054  0.750665  1
  Si  Si21  1  0.966542  0.882639  0.249329  1
  Si  Si22  1  0.466562  0.617290  0.248459  1
  Si  Si23  1  0.535145  0.383520  0.752288  1
  Si  Si24  1  0.284627  0.875193  0.750864  1
  Si  Si25  1  0.713256  0.126656  0.248794  1
  Si  Si26  1  0.214570  0.372487  0.248223  1
  Si  Si27  1  0.787008  0.625947  0.752443  1
  Si  Si28  1  0.835807  0.537745  0.459264  1
  Si  Si29  1  0.341970  0.962926  0.460157  1
  Si  Si30  1  0.844558  0.535785  0.039027  1
  Si  Si31  1  0.656780  0.036279  0.538002  1
  Si  Si32  1  0.155063  0.464107  0.961486  1
  Si  Si33  1  0.656341  0.035051  0.960809  1
  Si  Si34  1  0.343516  0.964218  0.039429  1
  Au  Au35  1  0.161032  0.462150  0.540181  1
