# generated using pymatgen
data_Tm4Co5P12Ru11Rh4
_symmetry_space_group_name_H-M   'P 1'
_cell_length_a   3.81741900
_cell_length_b   10.67680363
_cell_length_c   12.25954803
_cell_angle_alpha   89.91363858
_cell_angle_beta   90.00000000
_cell_angle_gamma   90.00000000
_symmetry_Int_Tables_number   1
_chemical_formula_structural   Tm4Co5P12Ru11Rh4
_chemical_formula_sum   'Tm4 Co5 P12 Ru11 Rh4'
_cell_volume   499.67204433
_cell_formula_units_Z   1
loop_
 _symmetry_equiv_pos_site_id
 _symmetry_equiv_pos_as_xyz
  1  'x, y, z'
loop_
 _atom_site_type_symbol
 _atom_site_label
 _atom_site_symmetry_multiplicity
 _atom_site_fract_x
 _atom_site_fract_y
 _atom_site_fract_z
 _atom_site_occupancy
  Tm  Tm0  1  0.250000  0.582186  0.706604  1
  Tm  Tm1  1  0.250000  0.915039  0.206079  1
  Tm  Tm2  1  0.750000  0.415637  0.294240  1
  Tm  Tm3  1  0.750000  0.086816  0.793322  1
  Co  Co4  1  0.750000  0.387543  0.801506  1
  Co  Co5  1  0.250000  0.461142  0.932230  1
  Co  Co6  1  0.250000  0.039483  0.437864  1
  Co  Co7  1  0.750000  0.535599  0.059771  1
  Co  Co8  1  0.750000  0.963945  0.563784  1
  P  P9  1  0.250000  0.423895  0.108857  1
  P  P10  1  0.250000  0.079104  0.612308  1
  P  P11  1  0.750000  0.567907  0.885600  1
  P  P12  1  0.750000  0.924086  0.392622  1
  P  P13  1  0.250000  0.269687  0.870514  1
  P  P14  1  0.250000  0.233606  0.372662  1
  P  P15  1  0.750000  0.725341  0.128265  1
  P  P16  1  0.750000  0.771220  0.628746  1
  P  P17  1  0.250000  0.595097  0.392842  1
  P  P18  1  0.250000  0.903418  0.887879  1
  P  P19  1  0.750000  0.400678  0.613699  1
  P  P20  1  0.750000  0.103971  0.107687  1
  Ru  Ru21  1  0.250000  0.711073  0.985317  1
  Ru  Ru22  1  0.250000  0.792539  0.483227  1
  Ru  Ru23  1  0.750000  0.291342  0.008891  1
  Ru  Ru24  1  0.750000  0.209485  0.516548  1
  Ru  Ru25  1  0.250000  0.405183  0.488470  1
  Ru  Ru26  1  0.250000  0.093734  0.986558  1
  Ru  Ru27  1  0.750000  0.595454  0.516860  1
  Ru  Ru28  1  0.250000  0.228225  0.177977  1
  Ru  Ru29  1  0.250000  0.276825  0.682311  1
  Ru  Ru30  1  0.250000  0.886947  0.698388  1
  Ru  Ru31  1  0.250000  0.612242  0.198547  1
  Rh  Rh32  1  0.750000  0.904618  0.017527  1
  Rh  Rh33  1  0.750000  0.766845  0.821350  1
  Rh  Rh34  1  0.750000  0.730417  0.320861  1
  Rh  Rh35  1  0.750000  0.109671  0.300092  1
