# generated using pymatgen
data_Ho8Si16(MoW3)3
_symmetry_space_group_name_H-M   'P 1'
_cell_length_a   6.76369312
_cell_length_b   6.92937020
_cell_length_c   12.89328679
_cell_angle_alpha   90.03009879
_cell_angle_beta   90.02658617
_cell_angle_gamma   89.93953304
_symmetry_Int_Tables_number   1
_chemical_formula_structural   Ho8Si16(MoW3)3
_chemical_formula_sum   'Ho8 Si16 Mo3 W9'
_cell_volume   604.28380303
_cell_formula_units_Z   1
loop_
 _symmetry_equiv_pos_site_id
 _symmetry_equiv_pos_as_xyz
  1  'x, y, z'
loop_
 _atom_site_type_symbol
 _atom_site_label
 _atom_site_symmetry_multiplicity
 _atom_site_fract_x
 _atom_site_fract_y
 _atom_site_fract_z
 _atom_site_occupancy
  Ho  Ho0  1  0.496169  0.332015  0.093603  1
  Ho  Ho1  1  0.995454  0.167766  0.406506  1
  Ho  Ho2  1  0.503786  0.668012  0.593345  1
  Ho  Ho3  1  0.003813  0.832202  0.906236  1
  Ho  Ho4  1  0.504423  0.667410  0.906286  1
  Ho  Ho5  1  0.004399  0.832307  0.593520  1
  Ho  Ho6  1  0.495138  0.332282  0.406431  1
  Ho  Ho7  1  0.995761  0.167494  0.093538  1
  Si  Si8  1  0.802774  0.632966  0.749537  1
  Si  Si9  1  0.302917  0.866969  0.750494  1
  Si  Si10  1  0.196935  0.366938  0.249844  1
  Si  Si11  1  0.697614  0.133864  0.250231  1
  Si  Si12  1  0.535548  0.369411  0.750898  1
  Si  Si13  1  0.035387  0.130533  0.749217  1
  Si  Si14  1  0.463911  0.629965  0.249971  1
  Si  Si15  1  0.965186  0.870012  0.249266  1
  Si  Si16  1  0.662354  0.042981  0.546845  1
  Si  Si17  1  0.161214  0.457686  0.952516  1
  Si  Si18  1  0.339245  0.957225  0.047472  1
  Si  Si19  1  0.837633  0.542315  0.453113  1
  Si  Si20  1  0.338203  0.958009  0.453720  1
  Si  Si21  1  0.839308  0.541564  0.047244  1
  Si  Si22  1  0.660501  0.041950  0.952977  1
  Si  Si23  1  0.161115  0.458058  0.546878  1
  Mo  Mo24  1  0.830740  0.337418  0.624788  1
  Mo  Mo25  1  0.330137  0.162508  0.875643  1
  Mo  Mo26  1  0.169148  0.663446  0.125042  1
  W  W27  1  0.665981  0.999854  0.749504  1
  W  W28  1  0.166295  0.500340  0.749733  1
  W  W29  1  0.334877  0.999517  0.250982  1
  W  W30  1  0.833385  0.499796  0.250464  1
  W  W31  1  0.669090  0.837342  0.374422  1
  W  W32  1  0.167545  0.664049  0.373891  1
  W  W33  1  0.669070  0.836614  0.125549  1
  W  W34  1  0.832349  0.335185  0.873647  1
  W  W35  1  0.332596  0.163997  0.626647  1
