# generated using pymatgen
data_RbHoCr2O8
_symmetry_space_group_name_H-M   'P 1'
_cell_length_a   5.77429300
_cell_length_b   5.77429325
_cell_length_c   7.94167600
_cell_angle_alpha   90.00000000
_cell_angle_beta   90.00000000
_cell_angle_gamma   119.99999286
_symmetry_Int_Tables_number   1
_chemical_formula_structural   RbHoCr2O8
_chemical_formula_sum   'Rb1 Ho1 Cr2 O8'
_cell_volume   229.31923311
_cell_formula_units_Z   1
loop_
 _symmetry_equiv_pos_site_id
 _symmetry_equiv_pos_as_xyz
  1  'x, y, z'
loop_
 _atom_site_type_symbol
 _atom_site_label
 _atom_site_symmetry_multiplicity
 _atom_site_fract_x
 _atom_site_fract_y
 _atom_site_fract_z
 _atom_site_occupancy
  Rb  Rb0  1  0.000000  0.000000  0.500000  1
  Ho  Ho1  1  0.000000  0.000000  0.000000  1
  Cr  Cr2  1  0.666667  0.333332  0.246190  1
  Cr  Cr3  1  0.333333  0.666667  0.753810  1
  O  O4  1  0.349534  0.174766  0.176752  1
  O  O5  1  0.825233  0.174766  0.176752  1
  O  O6  1  0.825234  0.650467  0.176752  1
  O  O7  1  0.666667  0.333332  0.450454  1
  O  O8  1  0.333333  0.666667  0.549546  1
  O  O9  1  0.174767  0.349535  0.823248  1
  O  O10  1  0.174767  0.825233  0.823248  1
  O  O11  1  0.650466  0.825233  0.823248  1
