# generated using pymatgen
data_Ce3Er2(Co2Sn5)2
_symmetry_space_group_name_H-M   'P 1'
_cell_length_a   13.89013700
_cell_length_b   13.89013700
_cell_length_c   4.51094400
_cell_angle_alpha   90.00000000
_cell_angle_beta   90.00000000
_cell_angle_gamma   90.00000000
_symmetry_Int_Tables_number   1
_chemical_formula_structural   Ce3Er2(Co2Sn5)2
_chemical_formula_sum   'Ce6 Er4 Co8 Sn20'
_cell_volume   870.32306701
_cell_formula_units_Z   2
loop_
 _symmetry_equiv_pos_site_id
 _symmetry_equiv_pos_as_xyz
  1  'x, y, z'
loop_
 _atom_site_type_symbol
 _atom_site_label
 _atom_site_symmetry_multiplicity
 _atom_site_fract_x
 _atom_site_fract_y
 _atom_site_fract_z
 _atom_site_occupancy
  Ce  Ce0  1  0.000000  0.000000  0.000000  1
  Ce  Ce1  1  0.500000  0.500000  0.000000  1
  Ce  Ce2  1  0.891212  0.608788  0.500000  1
  Ce  Ce3  1  0.108788  0.391212  0.500000  1
  Ce  Ce4  1  0.391212  0.891212  0.500000  1
  Ce  Ce5  1  0.608788  0.108788  0.500000  1
  Er  Er6  1  0.178337  0.678337  0.500000  1
  Er  Er7  1  0.821663  0.321663  0.500000  1
  Er  Er8  1  0.678337  0.821663  0.500000  1
  Er  Er9  1  0.321663  0.178337  0.500000  1
  Co  Co10  1  0.256127  0.533702  0.000000  1
  Co  Co11  1  0.743873  0.466298  0.000000  1
  Co  Co12  1  0.756127  0.966298  0.000000  1
  Co  Co13  1  0.243873  0.033702  0.000000  1
  Co  Co14  1  0.466298  0.256127  0.000000  1
  Co  Co15  1  0.533702  0.743873  0.000000  1
  Co  Co16  1  0.033702  0.756127  0.000000  1
  Co  Co17  1  0.966298  0.243873  0.000000  1
  Sn  Sn18  1  0.350530  0.698889  0.000000  1
  Sn  Sn19  1  0.649470  0.301111  0.000000  1
  Sn  Sn20  1  0.850530  0.801111  0.000000  1
  Sn  Sn21  1  0.149470  0.198889  0.000000  1
  Sn  Sn22  1  0.301111  0.350530  0.000000  1
  Sn  Sn23  1  0.698889  0.649470  0.000000  1
  Sn  Sn24  1  0.198889  0.850530  0.000000  1
  Sn  Sn25  1  0.801111  0.149470  0.000000  1
  Sn  Sn26  1  0.332900  0.510971  0.500000  1
  Sn  Sn27  1  0.667100  0.489029  0.500000  1
  Sn  Sn28  1  0.832900  0.989029  0.500000  1
  Sn  Sn29  1  0.167100  0.010971  0.500000  1
  Sn  Sn30  1  0.489029  0.332900  0.500000  1
  Sn  Sn31  1  0.510971  0.667100  0.500000  1
  Sn  Sn32  1  0.010971  0.832900  0.500000  1
  Sn  Sn33  1  0.989029  0.167100  0.500000  1
  Sn  Sn34  1  0.073255  0.573255  0.000000  1
  Sn  Sn35  1  0.926745  0.426745  0.000000  1
  Sn  Sn36  1  0.573255  0.926745  0.000000  1
  Sn  Sn37  1  0.426745  0.073255  0.000000  1
