# generated using pymatgen
data_Tb6Ho2Ti12Si15Sn
_symmetry_space_group_name_H-M   'P 1'
_cell_length_a   7.12142051
_cell_length_b   7.08559353
_cell_length_c   13.04354608
_cell_angle_alpha   89.99668557
_cell_angle_beta   89.75050301
_cell_angle_gamma   89.93336928
_symmetry_Int_Tables_number   1
_chemical_formula_structural   Tb6Ho2Ti12Si15Sn
_chemical_formula_sum   'Tb6 Ho2 Ti12 Si15 Sn1'
_cell_volume   658.16401056
_cell_formula_units_Z   1
loop_
 _symmetry_equiv_pos_site_id
 _symmetry_equiv_pos_as_xyz
  1  'x, y, z'
loop_
 _atom_site_type_symbol
 _atom_site_label
 _atom_site_symmetry_multiplicity
 _atom_site_fract_x
 _atom_site_fract_y
 _atom_site_fract_z
 _atom_site_occupancy
  Tb  Tb0  1  0.502441  0.160326  0.216926  1
  Tb  Tb1  1  0.840269  0.496976  0.282346  1
  Tb  Tb2  1  0.160070  0.510141  0.785672  1
  Tb  Tb3  1  0.661638  0.996111  0.968587  1
  Tb  Tb4  1  0.993661  0.347421  0.527705  1
  Tb  Tb5  1  0.998574  0.659826  0.034100  1
  Ho  Ho6  1  0.343235  0.998649  0.461638  1
  Ho  Ho7  1  0.506469  0.835050  0.717965  1
  Ti  Ti8  1  0.326456  0.326719  0.001085  1
  Ti  Ti9  1  0.174028  0.826158  0.249841  1
  Ti  Ti10  1  0.816151  0.175009  0.751747  1
  Ti  Ti11  1  0.672320  0.673324  0.499704  1
  Ti  Ti12  1  0.153543  0.007929  0.883514  1
  Ti  Ti13  1  0.491850  0.651529  0.127183  1
  Ti  Ti14  1  0.514887  0.353259  0.626660  1
  Ti  Ti15  1  0.654478  0.492816  0.875085  1
  Ti  Ti16  1  0.346790  0.509638  0.372659  1
  Ti  Ti17  1  0.846386  0.991595  0.376326  1
  Ti  Ti18  1  0.010332  0.152421  0.123021  1
  Ti  Ti19  1  0.979139  0.834965  0.618320  1
  Si  Si20  1  0.372239  0.702674  0.936201  1
  Si  Si21  1  0.626169  0.297125  0.433611  1
  Si  Si22  1  0.702961  0.370842  0.065713  1
  Si  Si23  1  0.297998  0.630791  0.565260  1
  Si  Si24  1  0.798075  0.871345  0.185060  1
  Si  Si25  1  0.129184  0.201651  0.314768  1
  Si  Si26  1  0.870998  0.800670  0.815158  1
  Si  Si27  1  0.292024  0.952069  0.067001  1
  Si  Si28  1  0.548824  0.789410  0.314117  1
  Si  Si29  1  0.459301  0.210468  0.819893  1
  Si  Si30  1  0.792601  0.545285  0.686587  1
  Si  Si31  1  0.209983  0.452575  0.185094  1
  Si  Si32  1  0.706008  0.047551  0.564767  1
  Si  Si33  1  0.952547  0.290956  0.935024  1
  Si  Si34  1  0.048688  0.711895  0.432685  1
  Sn  Sn35  1  0.199683  0.124829  0.678976  1
