# generated using pymatgen
data_Tb5PrAl24Ru7Pt
_symmetry_space_group_name_H-M   'P 1'
_cell_length_a   8.83795666
_cell_length_b   8.84976383
_cell_length_c   9.61104134
_cell_angle_alpha   89.99391630
_cell_angle_beta   89.91543322
_cell_angle_gamma   119.85175613
_symmetry_Int_Tables_number   1
_chemical_formula_structural   Tb5PrAl24Ru7Pt
_chemical_formula_sum   'Tb5 Pr1 Al24 Ru7 Pt1'
_cell_volume   651.97472960
_cell_formula_units_Z   1
loop_
 _symmetry_equiv_pos_site_id
 _symmetry_equiv_pos_as_xyz
  1  'x, y, z'
loop_
 _atom_site_type_symbol
 _atom_site_label
 _atom_site_symmetry_multiplicity
 _atom_site_fract_x
 _atom_site_fract_y
 _atom_site_fract_z
 _atom_site_occupancy
  Tb  Tb0  1  0.193898  0.385387  0.250717  1
  Tb  Tb1  1  0.806155  0.615012  0.749113  1
  Tb  Tb2  1  0.612544  0.806444  0.251642  1
  Tb  Tb3  1  0.386744  0.193469  0.748357  1
  Tb  Tb4  1  0.193868  0.808898  0.250583  1
  Pr  Pr5  1  0.807588  0.190739  0.750006  1
  Al  Al6  1  0.338538  0.669473  0.018022  1
  Al  Al7  1  0.660225  0.331002  0.984836  1
  Al  Al8  1  0.666095  0.334023  0.514856  1
  Al  Al9  1  0.333319  0.666740  0.482174  1
  Al  Al10  1  0.164530  0.326499  0.574983  1
  Al  Al11  1  0.837748  0.674819  0.423141  1
  Al  Al12  1  0.673054  0.834935  0.575539  1
  Al  Al13  1  0.833342  0.676157  0.078274  1
  Al  Al14  1  0.325758  0.162975  0.422675  1
  Al  Al15  1  0.168511  0.324684  0.923425  1
  Al  Al16  1  0.162219  0.837250  0.575490  1
  Al  Al17  1  0.324790  0.162557  0.078351  1
  Al  Al18  1  0.837911  0.163001  0.421498  1
  Al  Al19  1  0.674040  0.835287  0.923513  1
  Al  Al20  1  0.833201  0.157152  0.079725  1
  Al  Al21  1  0.166603  0.842566  0.923327  1
  Al  Al22  1  0.560967  0.122680  0.249730  1
  Al  Al23  1  0.435832  0.874994  0.750416  1
  Al  Al24  1  0.875547  0.438307  0.252999  1
  Al  Al25  1  0.126814  0.564811  0.746601  1
  Al  Al26  1  0.561404  0.439130  0.249644  1
  Al  Al27  1  0.438624  0.560876  0.750358  1
  Al  Al28  1  0.000450  0.000631  0.250188  1
  Al  Al29  1  0.001394  0.997515  0.749827  1
  Ru  Ru30  1  0.498411  0.999072  0.001318  1
  Ru  Ru31  1  0.498586  0.999164  0.498879  1
  Ru  Ru32  1  0.499691  0.500391  0.000443  1
  Ru  Ru33  1  0.001058  0.501701  0.498777  1
  Ru  Ru34  1  0.499849  0.500276  0.499558  1
  Ru  Ru35  1  0.000034  0.999860  0.000212  1
  Ru  Ru36  1  0.999984  0.000025  0.499803  1
  Pt  Pt37  1  0.000674  0.501496  0.000997  1
