# generated using pymatgen
data_La3ZnIn2
_symmetry_space_group_name_H-M   'P 1'
_cell_length_a   3.84144500
_cell_length_b   3.84144500
_cell_length_c   12.00793800
_cell_angle_alpha   90.00000000
_cell_angle_beta   90.00000000
_cell_angle_gamma   90.00000000
_symmetry_Int_Tables_number   1
_chemical_formula_structural   La3ZnIn2
_chemical_formula_sum   'La3 Zn1 In2'
_cell_volume   177.19753494
_cell_formula_units_Z   1
loop_
 _symmetry_equiv_pos_site_id
 _symmetry_equiv_pos_as_xyz
  1  'x, y, z'
loop_
 _atom_site_type_symbol
 _atom_site_label
 _atom_site_symmetry_multiplicity
 _atom_site_fract_x
 _atom_site_fract_y
 _atom_site_fract_z
 _atom_site_occupancy
  La  La0  1  0.000000  0.000000  0.000000  1
  La  La1  1  0.000000  0.000000  0.351066  1
  La  La2  1  0.000000  0.000000  0.648934  1
  Zn  Zn3  1  0.500000  0.500000  0.500000  1
  In  In4  1  0.500000  0.500000  0.176423  1
  In  In5  1  0.500000  0.500000  0.823577  1
