# generated using pymatgen
data_Y3Th(TcC2)2
_symmetry_space_group_name_H-M   'P 1'
_cell_length_a   5.18936000
_cell_length_b   6.64464800
_cell_length_c   9.86910100
_cell_angle_alpha   90.00000000
_cell_angle_beta   90.00000000
_cell_angle_gamma   90.00000000
_symmetry_Int_Tables_number   1
_chemical_formula_structural   Y3Th(TcC2)2
_chemical_formula_sum   'Y6 Th2 Tc4 C8'
_cell_volume   340.30111544
_cell_formula_units_Z   2
loop_
 _symmetry_equiv_pos_site_id
 _symmetry_equiv_pos_as_xyz
  1  'x, y, z'
loop_
 _atom_site_type_symbol
 _atom_site_label
 _atom_site_symmetry_multiplicity
 _atom_site_fract_x
 _atom_site_fract_y
 _atom_site_fract_z
 _atom_site_occupancy
  Y  Y0  1  0.750000  0.671556  0.445527  1
  Y  Y1  1  0.250000  0.828444  0.945527  1
  Y  Y2  1  0.750000  0.178655  0.054493  1
  Y  Y3  1  0.250000  0.321345  0.554493  1
  Y  Y4  1  0.250000  0.469328  0.210956  1
  Y  Y5  1  0.750000  0.030672  0.710956  1
  Th  Th6  1  0.750000  0.528587  0.786816  1
  Th  Th7  1  0.250000  0.971413  0.286816  1
  Tc  Tc8  1  0.250000  0.276322  0.864409  1
  Tc  Tc9  1  0.250000  0.775870  0.636274  1
  Tc  Tc10  1  0.750000  0.223678  0.364409  1
  Tc  Tc11  1  0.750000  0.724130  0.136274  1
  C  C12  1  0.250000  0.676874  0.450406  1
  C  C13  1  0.250000  0.544454  0.760083  1
  C  C14  1  0.750000  0.455861  0.239730  1
  C  C15  1  0.750000  0.823126  0.950406  1
  C  C16  1  0.250000  0.044139  0.739730  1
  C  C17  1  0.250000  0.174133  0.051306  1
  C  C18  1  0.750000  0.325867  0.551306  1
  C  C19  1  0.750000  0.955546  0.260083  1
