# generated using pymatgen
data_Er8Ti5Si16Mo6W
_symmetry_space_group_name_H-M   'P 1'
_cell_length_a   6.92386229
_cell_length_b   6.91528387
_cell_length_c   12.79987615
_cell_angle_alpha   89.88301779
_cell_angle_beta   90.02492658
_cell_angle_gamma   90.02596997
_symmetry_Int_Tables_number   1
_chemical_formula_structural   Er8Ti5Si16Mo6W
_chemical_formula_sum   'Er8 Ti5 Si16 Mo6 W1'
_cell_volume   612.86272937
_cell_formula_units_Z   1
loop_
 _symmetry_equiv_pos_site_id
 _symmetry_equiv_pos_as_xyz
  1  'x, y, z'
loop_
 _atom_site_type_symbol
 _atom_site_label
 _atom_site_symmetry_multiplicity
 _atom_site_fract_x
 _atom_site_fract_y
 _atom_site_fract_z
 _atom_site_occupancy
  Er  Er0  1  0.340925  0.002542  0.467381  1
  Er  Er1  1  0.498427  0.840615  0.718944  1
  Er  Er2  1  0.501159  0.159992  0.218776  1
  Er  Er3  1  0.839785  0.497320  0.280765  1
  Er  Er4  1  0.159870  0.501714  0.782639  1
  Er  Er5  1  0.659577  0.998420  0.968441  1
  Er  Er6  1  0.001978  0.339883  0.531733  1
  Er  Er7  1  0.996938  0.661218  0.031017  1
  Ti  Ti8  1  0.329913  0.330409  0.999295  1
  Ti  Ti9  1  0.168734  0.829610  0.250060  1
  Ti  Ti10  1  0.829112  0.171027  0.750491  1
  Ti  Ti11  1  0.669667  0.667093  0.499299  1
  Ti  Ti12  1  0.994908  0.841037  0.626133  1
  Si  Si13  1  0.203176  0.129679  0.683008  1
  Si  Si14  1  0.370972  0.702500  0.933145  1
  Si  Si15  1  0.630996  0.298603  0.433218  1
  Si  Si16  1  0.699897  0.370119  0.067097  1
  Si  Si17  1  0.299850  0.629524  0.566191  1
  Si  Si18  1  0.797833  0.870641  0.182989  1
  Si  Si19  1  0.127717  0.201186  0.317075  1
  Si  Si20  1  0.871630  0.799205  0.816922  1
  Si  Si21  1  0.289897  0.959371  0.063058  1
  Si  Si22  1  0.540306  0.789457  0.312705  1
  Si  Si23  1  0.459046  0.210508  0.812663  1
  Si  Si24  1  0.790652  0.542013  0.687516  1
  Si  Si25  1  0.209529  0.458994  0.186730  1
  Si  Si26  1  0.710209  0.041771  0.563406  1
  Si  Si27  1  0.958549  0.291243  0.937312  1
  Si  Si28  1  0.043008  0.709472  0.437236  1
  Mo  Mo29  1  0.492614  0.658771  0.123954  1
  Mo  Mo30  1  0.507138  0.341111  0.623452  1
  Mo  Mo31  1  0.657929  0.492479  0.877819  1
  Mo  Mo32  1  0.342417  0.504075  0.374861  1
  Mo  Mo33  1  0.839951  0.991219  0.373129  1
  Mo  Mo34  1  0.005790  0.158699  0.126580  1
  W  W35  1  0.159907  0.008485  0.874959  1
