# generated using pymatgen
data_Na4HoMoO6
_symmetry_space_group_name_H-M   'P 1'
_cell_length_a   5.71286732
_cell_length_b   5.71287873
_cell_length_c   5.80170013
_cell_angle_alpha   99.35524031
_cell_angle_beta   99.35570954
_cell_angle_gamma   120.26534904
_symmetry_Int_Tables_number   1
_chemical_formula_structural   Na4HoMoO6
_chemical_formula_sum   'Na4 Ho1 Mo1 O6'
_cell_volume   154.58286877
_cell_formula_units_Z   1
loop_
 _symmetry_equiv_pos_site_id
 _symmetry_equiv_pos_as_xyz
  1  'x, y, z'
loop_
 _atom_site_type_symbol
 _atom_site_label
 _atom_site_symmetry_multiplicity
 _atom_site_fract_x
 _atom_site_fract_y
 _atom_site_fract_z
 _atom_site_occupancy
  Na  Na0  1  0.501926  0.498075  0.000000  1
  Na  Na1  1  0.997802  0.002183  0.500002  1
  Na  Na2  1  0.658748  0.341242  0.499984  1
  Na  Na3  1  0.341967  0.658059  0.500002  1
  Ho  Ho4  1  0.163018  0.836953  0.999994  1
  Mo  Mo5  1  0.833292  0.166709  0.000005  1
  O  O6  1  0.607483  0.958554  0.202497  1
  O  O7  1  0.195375  0.219905  0.217080  1
  O  O8  1  0.926350  0.547516  0.215373  1
  O  O9  1  0.452493  0.073666  0.784641  1
  O  O10  1  0.780108  0.804632  0.782923  1
  O  O11  1  0.041439  0.392505  0.797503  1
