# generated using pymatgen
data_Lu5Fe18P12Rh
_symmetry_space_group_name_H-M   'P 1'
_cell_length_a   11.87139900
_cell_length_b   11.87139865
_cell_length_c   3.65935900
_cell_angle_alpha   90.00000000
_cell_angle_beta   90.00000000
_cell_angle_gamma   119.99999818
_symmetry_Int_Tables_number   1
_chemical_formula_structural   Lu5Fe18P12Rh
_chemical_formula_sum   'Lu5 Fe18 P12 Rh1'
_cell_volume   446.62131787
_cell_formula_units_Z   1
loop_
 _symmetry_equiv_pos_site_id
 _symmetry_equiv_pos_as_xyz
  1  'x, y, z'
loop_
 _atom_site_type_symbol
 _atom_site_label
 _atom_site_symmetry_multiplicity
 _atom_site_fract_x
 _atom_site_fract_y
 _atom_site_fract_z
 _atom_site_occupancy
  Lu  Lu0  1  0.333333  0.666667  0.500000  1
  Lu  Lu1  1  0.666667  0.333333  0.500000  1
  Lu  Lu2  1  0.188827  0.000000  0.000000  1
  Lu  Lu3  1  0.000000  0.188827  0.000000  1
  Lu  Lu4  1  0.811173  0.811173  0.000000  1
  Fe  Fe5  1  0.198322  0.381157  0.500000  1
  Fe  Fe6  1  0.618843  0.817165  0.500000  1
  Fe  Fe7  1  0.182835  0.801678  0.500000  1
  Fe  Fe8  1  0.817165  0.618843  0.500000  1
  Fe  Fe9  1  0.801678  0.182835  0.500000  1
  Fe  Fe10  1  0.381157  0.198322  0.500000  1
  Fe  Fe11  1  0.555972  0.000000  0.500000  1
  Fe  Fe12  1  0.000000  0.555972  0.500000  1
  Fe  Fe13  1  0.444028  0.444028  0.500000  1
  Fe  Fe14  1  0.122493  0.482742  0.000000  1
  Fe  Fe15  1  0.517258  0.639751  0.000000  1
  Fe  Fe16  1  0.360249  0.877507  0.000000  1
  Fe  Fe17  1  0.639751  0.517258  0.000000  1
  Fe  Fe18  1  0.877507  0.360249  0.000000  1
  Fe  Fe19  1  0.482742  0.122493  0.000000  1
  Fe  Fe20  1  0.712850  0.000000  0.000000  1
  Fe  Fe21  1  0.000000  0.712850  0.000000  1
  Fe  Fe22  1  0.287150  0.287150  0.000000  1
  P  P23  1  0.370070  0.000000  0.500000  1
  P  P24  1  0.000000  0.370070  0.500000  1
  P  P25  1  0.629930  0.629930  0.500000  1
  P  P26  1  0.313757  0.481024  0.000000  1
  P  P27  1  0.518976  0.832733  0.000000  1
  P  P28  1  0.167267  0.686243  0.000000  1
  P  P29  1  0.832733  0.518976  0.000000  1
  P  P30  1  0.686243  0.167267  0.000000  1
  P  P31  1  0.481024  0.313757  0.000000  1
  P  P32  1  0.808056  0.000000  0.500000  1
  P  P33  1  0.000000  0.808056  0.500000  1
  P  P34  1  0.191944  0.191944  0.500000  1
  Rh  Rh35  1  0.000000  0.000000  0.500000  1
