# generated using pymatgen
data_Zr16Co3Ni(PtN)4
_symmetry_space_group_name_H-M   'P 1'
_cell_length_a   8.73822443
_cell_length_b   8.73461874
_cell_length_c   8.73461900
_cell_angle_alpha   60.00000280
_cell_angle_beta   60.01365170
_cell_angle_gamma   60.01366019
_symmetry_Int_Tables_number   1
_chemical_formula_structural   Zr16Co3Ni(PtN)4
_chemical_formula_sum   'Zr16 Co3 Ni1 Pt4 N4'
_cell_volume   471.50438602
_cell_formula_units_Z   1
loop_
 _symmetry_equiv_pos_site_id
 _symmetry_equiv_pos_as_xyz
  1  'x, y, z'
loop_
 _atom_site_type_symbol
 _atom_site_label
 _atom_site_symmetry_multiplicity
 _atom_site_fract_x
 _atom_site_fract_y
 _atom_site_fract_z
 _atom_site_occupancy
  Zr  Zr0  1  0.076425  0.641192  0.641192  1
  Zr  Zr1  1  0.642194  0.078646  0.639580  1
  Zr  Zr2  1  0.642194  0.639580  0.078646  1
  Zr  Zr3  1  0.642194  0.639580  0.639580  1
  Zr  Zr4  1  0.815303  0.815245  0.184726  1
  Zr  Zr5  1  0.181269  0.187523  0.815604  1
  Zr  Zr6  1  0.815303  0.184726  0.815245  1
  Zr  Zr7  1  0.181269  0.815604  0.187523  1
  Zr  Zr8  1  0.181269  0.815604  0.815604  1
  Zr  Zr9  1  0.815303  0.184726  0.184726  1
  Zr  Zr10  1  0.434429  0.434450  0.065560  1
  Zr  Zr11  1  0.066162  0.065792  0.434023  1
  Zr  Zr12  1  0.434429  0.065560  0.434450  1
  Zr  Zr13  1  0.066162  0.434023  0.065792  1
  Zr  Zr14  1  0.066162  0.434023  0.434023  1
  Zr  Zr15  1  0.434429  0.065560  0.065560  1
  Co  Co16  1  0.852608  0.442865  0.852264  1
  Co  Co17  1  0.852608  0.852264  0.442865  1
  Co  Co18  1  0.852608  0.852264  0.852264  1
  Ni  Ni19  1  0.445974  0.851342  0.851342  1
  Pt  Pt20  1  0.753380  0.415539  0.415539  1
  Pt  Pt21  1  0.415531  0.753320  0.415574  1
  Pt  Pt22  1  0.415531  0.415574  0.753320  1
  Pt  Pt23  1  0.415531  0.415574  0.415574  1
  N  N24  1  0.624192  0.125269  0.125269  1
  N  N25  1  0.125848  0.624058  0.125047  1
  N  N26  1  0.125848  0.125047  0.624058  1
  N  N27  1  0.125848  0.125047  0.125047  1
