# generated using pymatgen
data_PrCdCu4
_symmetry_space_group_name_H-M   'P 1'
_cell_length_a   5.21933054
_cell_length_b   5.21933080
_cell_length_c   5.21933100
_cell_angle_alpha   60.00000504
_cell_angle_beta   60.00000345
_cell_angle_gamma   60.00000389
_symmetry_Int_Tables_number   1
_chemical_formula_structural   PrCdCu4
_chemical_formula_sum   'Pr1 Cd1 Cu4'
_cell_volume   100.53783007
_cell_formula_units_Z   1
loop_
 _symmetry_equiv_pos_site_id
 _symmetry_equiv_pos_as_xyz
  1  'x, y, z'
loop_
 _atom_site_type_symbol
 _atom_site_label
 _atom_site_symmetry_multiplicity
 _atom_site_fract_x
 _atom_site_fract_y
 _atom_site_fract_z
 _atom_site_occupancy
  Pr  Pr0  1  0.750000  0.750000  0.750000  1
  Cd  Cd1  1  0.000000  0.000000  0.000000  1
  Cu  Cu2  1  0.373337  0.879990  0.373337  1
  Cu  Cu3  1  0.373337  0.373337  0.373337  1
  Cu  Cu4  1  0.879990  0.373337  0.373337  1
  Cu  Cu5  1  0.373337  0.373337  0.879990  1
