# generated using pymatgen
data_Tb13Dy3In4OsRh3
_symmetry_space_group_name_H-M   'P 1'
_cell_length_a   9.71288108
_cell_length_b   9.71093426
_cell_length_c   9.70809744
_cell_angle_alpha   59.72909884
_cell_angle_beta   59.75094042
_cell_angle_gamma   59.80461059
_symmetry_Int_Tables_number   1
_chemical_formula_structural   Tb13Dy3In4OsRh3
_chemical_formula_sum   'Tb13 Dy3 In4 Os1 Rh3'
_cell_volume   643.97649821
_cell_formula_units_Z   1
loop_
 _symmetry_equiv_pos_site_id
 _symmetry_equiv_pos_as_xyz
  1  'x, y, z'
loop_
 _atom_site_type_symbol
 _atom_site_label
 _atom_site_symmetry_multiplicity
 _atom_site_fract_x
 _atom_site_fract_y
 _atom_site_fract_z
 _atom_site_occupancy
  Tb  Tb0  1  0.688688  0.310355  0.310901  1
  Tb  Tb1  1  0.690561  0.690709  0.313239  1
  Tb  Tb2  1  0.310624  0.688590  0.311037  1
  Tb  Tb3  1  0.936711  0.936720  0.563849  1
  Tb  Tb4  1  0.149972  0.150001  0.547102  1
  Tb  Tb5  1  0.558263  0.944566  0.558463  1
  Tb  Tb6  1  0.151903  0.151834  0.151266  1
  Tb  Tb7  1  0.311179  0.311040  0.688446  1
  Tb  Tb8  1  0.944253  0.558448  0.558728  1
  Tb  Tb9  1  0.558293  0.558205  0.944559  1
  Tb  Tb10  1  0.563607  0.937002  0.936239  1
  Tb  Tb11  1  0.936825  0.563818  0.936071  1
  Tb  Tb12  1  0.149991  0.546924  0.149865  1
  Dy  Dy13  1  0.312925  0.690527  0.690863  1
  Dy  Dy14  1  0.690608  0.312743  0.691100  1
  Dy  Dy15  1  0.546688  0.150050  0.149896  1
  In  In16  1  0.918015  0.918212  0.247368  1
  In  In17  1  0.247569  0.918160  0.918076  1
  In  In18  1  0.917938  0.247580  0.918161  1
  In  In19  1  0.917453  0.918238  0.918128  1
  Os  Os20  1  0.358080  0.357168  0.356907  1
  Rh  Rh21  1  0.923043  0.357685  0.358485  1
  Rh  Rh22  1  0.358727  0.357972  0.923152  1
  Rh  Rh23  1  0.358081  0.923452  0.358096  1
