# generated using pymatgen
data_Er3Tm(B4Ir)4
_symmetry_space_group_name_H-M   'P 1'
_cell_length_a   3.55860200
_cell_length_b   5.95150015
_cell_length_c   11.54621100
_cell_angle_alpha   90.01384962
_cell_angle_beta   90.00000000
_cell_angle_gamma   90.00000000
_symmetry_Int_Tables_number   1
_chemical_formula_structural   Er3Tm(B4Ir)4
_chemical_formula_sum   'Er3 Tm1 B16 Ir4'
_cell_volume   244.53743046
_cell_formula_units_Z   1
loop_
 _symmetry_equiv_pos_site_id
 _symmetry_equiv_pos_as_xyz
  1  'x, y, z'
loop_
 _atom_site_type_symbol
 _atom_site_label
 _atom_site_symmetry_multiplicity
 _atom_site_fract_x
 _atom_site_fract_y
 _atom_site_fract_z
 _atom_site_occupancy
  Er  Er0  1  0.500000  0.131707  0.148495  1
  Er  Er1  1  0.500000  0.868253  0.851466  1
  Er  Er2  1  0.500000  0.631768  0.351550  1
  Tm  Tm3  1  0.500000  0.368331  0.648480  1
  B  B4  1  0.000000  0.476024  0.193000  1
  B  B5  1  0.000000  0.523839  0.806756  1
  B  B6  1  0.000000  0.975988  0.307161  1
  B  B7  1  0.000000  0.024374  0.692884  1
  B  B8  1  0.000000  0.291890  0.312116  1
  B  B9  1  0.000000  0.707451  0.687834  1
  B  B10  1  0.000000  0.791918  0.187985  1
  B  B11  1  0.000000  0.208139  0.811783  1
  B  B12  1  0.000000  0.364360  0.470362  1
  B  B13  1  0.000000  0.635568  0.530052  1
  B  B14  1  0.000000  0.864214  0.029801  1
  B  B15  1  0.000000  0.135899  0.970080  1
  B  B16  1  0.000000  0.387290  0.046836  1
  B  B17  1  0.000000  0.612678  0.952998  1
  B  B18  1  0.000000  0.887315  0.453292  1
  B  B19  1  0.000000  0.113139  0.547094  1
  Ir  Ir20  1  0.500000  0.144238  0.403403  1
  Ir  Ir21  1  0.500000  0.855780  0.596998  1
  Ir  Ir22  1  0.500000  0.643858  0.096773  1
  Ir  Ir23  1  0.500000  0.355978  0.902803  1
