# generated using pymatgen
data_Dy3ScGa2(B2Ru5)2
_symmetry_space_group_name_H-M   'P 1'
_cell_length_a   9.52803326
_cell_length_b   9.52803326
_cell_length_c   3.09828900
_cell_angle_alpha   90.00000000
_cell_angle_beta   90.00000000
_cell_angle_gamma   89.20507158
_symmetry_Int_Tables_number   1
_chemical_formula_structural   Dy3ScGa2(B2Ru5)2
_chemical_formula_sum   'Dy3 Sc1 Ga2 B4 Ru10'
_cell_volume   281.24619370
_cell_formula_units_Z   1
loop_
 _symmetry_equiv_pos_site_id
 _symmetry_equiv_pos_as_xyz
  1  'x, y, z'
loop_
 _atom_site_type_symbol
 _atom_site_label
 _atom_site_symmetry_multiplicity
 _atom_site_fract_x
 _atom_site_fract_y
 _atom_site_fract_z
 _atom_site_occupancy
  Dy  Dy0  1  0.676635  0.175674  0.000000  1
  Dy  Dy1  1  0.324326  0.823365  0.000000  1
  Dy  Dy2  1  0.174990  0.325010  0.000000  1
  Sc  Sc3  1  0.825857  0.674143  0.000000  1
  Ga  Ga4  1  0.001588  0.004798  0.000000  1
  Ga  Ga5  1  0.495202  0.498412  0.000000  1
  B  B6  1  0.118606  0.625378  0.000000  1
  B  B7  1  0.874622  0.381394  0.000000  1
  B  B8  1  0.628148  0.871852  0.000000  1
  B  B9  1  0.379194  0.120806  0.000000  1
  Ru  Ru10  1  0.219249  0.069311  0.500000  1
  Ru  Ru11  1  0.788134  0.920588  0.500000  1
  Ru  Ru12  1  0.060814  0.784478  0.500000  1
  Ru  Ru13  1  0.715522  0.439186  0.500000  1
  Ru  Ru14  1  0.929564  0.220625  0.500000  1
  Ru  Ru15  1  0.279375  0.570436  0.500000  1
  Ru  Ru16  1  0.579412  0.711866  0.500000  1
  Ru  Ru17  1  0.430689  0.280751  0.500000  1
  Ru  Ru18  1  0.503422  0.996578  0.500000  1
  Ru  Ru19  1  0.994649  0.505351  0.500000  1
