# generated using pymatgen
data_TaAlI8
_symmetry_space_group_name_H-M   'P 1'
_cell_length_a   11.25148454
_cell_length_b   11.25148436
_cell_length_c   10.01200700
_cell_angle_alpha   90.00000000
_cell_angle_beta   90.00000000
_cell_angle_gamma   128.28813238
_symmetry_Int_Tables_number   1
_chemical_formula_structural   TaAlI8
_chemical_formula_sum   'Ta2 Al2 I16'
_cell_volume   994.85030699
_cell_formula_units_Z   2
loop_
 _symmetry_equiv_pos_site_id
 _symmetry_equiv_pos_as_xyz
  1  'x, y, z'
loop_
 _atom_site_type_symbol
 _atom_site_label
 _atom_site_symmetry_multiplicity
 _atom_site_fract_x
 _atom_site_fract_y
 _atom_site_fract_z
 _atom_site_occupancy
  Ta  Ta0  1  0.611437  0.388563  0.250000  1
  Ta  Ta1  1  0.388563  0.611437  0.750000  1
  Al  Al2  1  0.812830  0.187170  0.250000  1
  Al  Al3  1  0.187170  0.812830  0.750000  1
  I  I4  1  0.526143  0.070738  0.250000  1
  I  I5  1  0.070738  0.526143  0.750000  1
  I  I6  1  0.473857  0.929262  0.750000  1
  I  I7  1  0.929262  0.473857  0.250000  1
  I  I8  1  0.630837  0.369163  0.982767  1
  I  I9  1  0.369163  0.630837  0.017233  1
  I  I10  1  0.630837  0.369163  0.517233  1
  I  I11  1  0.369163  0.630837  0.482767  1
  I  I12  1  0.320248  0.260654  0.250000  1
  I  I13  1  0.260654  0.320248  0.750000  1
  I  I14  1  0.679752  0.739346  0.750000  1
  I  I15  1  0.739346  0.679752  0.250000  1
  I  I16  1  0.880585  0.119415  0.461370  1
  I  I17  1  0.119415  0.880585  0.538630  1
  I  I18  1  0.880585  0.119415  0.038630  1
  I  I19  1  0.119415  0.880585  0.961370  1
