# generated using pymatgen
data_La2ZrRuF14
_symmetry_space_group_name_H-M   'P 1'
_cell_length_a   5.86231900
_cell_length_b   9.40127380
_cell_length_c   12.56413784
_cell_angle_alpha   62.88130214
_cell_angle_beta   90.00000000
_cell_angle_gamma   90.00000000
_symmetry_Int_Tables_number   1
_chemical_formula_structural   La2ZrRuF14
_chemical_formula_sum   'La4 Zr2 Ru2 F28'
_cell_volume   616.32548009
_cell_formula_units_Z   2
loop_
 _symmetry_equiv_pos_site_id
 _symmetry_equiv_pos_as_xyz
  1  'x, y, z'
loop_
 _atom_site_type_symbol
 _atom_site_label
 _atom_site_symmetry_multiplicity
 _atom_site_fract_x
 _atom_site_fract_y
 _atom_site_fract_z
 _atom_site_occupancy
  La  La0  1  0.757754  0.810818  0.261625  1
  La  La1  1  0.257754  0.189182  0.238375  1
  La  La2  1  0.242553  0.191654  0.726688  1
  La  La3  1  0.742553  0.808346  0.773312  1
  Zr  Zr4  1  0.246893  0.726090  0.543057  1
  Zr  Zr5  1  0.746893  0.273910  0.956943  1
  Ru  Ru6  1  0.754599  0.273947  0.455242  1
  Ru  Ru7  1  0.254599  0.726053  0.044758  1
  F  F8  1  0.960053  0.714425  0.453556  1
  F  F9  1  0.460053  0.285575  0.046444  1
  F  F10  1  0.030148  0.285542  0.542426  1
  F  F11  1  0.530148  0.714458  0.957574  1
  F  F12  1  0.056913  0.708661  0.923996  1
  F  F13  1  0.556913  0.291339  0.576004  1
  F  F14  1  0.952859  0.290742  0.080929  1
  F  F15  1  0.452859  0.709258  0.419071  1
  F  F16  1  0.736612  0.516703  0.859091  1
  F  F17  1  0.236612  0.483297  0.640909  1
  F  F18  1  0.260643  0.497988  0.136499  1
  F  F19  1  0.760643  0.502012  0.363501  1
  F  F20  1  0.739881  0.031722  0.053214  1
  F  F21  1  0.239881  0.968278  0.446786  1
  F  F22  1  0.257690  0.952764  0.954815  1
  F  F23  1  0.757690  0.047236  0.545185  1
  F  F24  1  0.044245  0.747661  0.668602  1
  F  F25  1  0.544245  0.252339  0.831398  1
  F  F26  1  0.949878  0.255943  0.333386  1
  F  F27  1  0.449878  0.744057  0.166614  1
  F  F28  1  0.025134  0.264492  0.861989  1
  F  F29  1  0.525134  0.735508  0.638011  1
  F  F30  1  0.983663  0.731767  0.135806  1
  F  F31  1  0.483663  0.268233  0.364194  1
  F  F32  1  0.081279  0.971982  0.233229  1
  F  F33  1  0.581279  0.028018  0.266771  1
  F  F34  1  0.919204  0.030033  0.768323  1
  F  F35  1  0.419204  0.969967  0.731677  1
