# generated using pymatgen
data_Tb3Lu7(Bi3C)2
_symmetry_space_group_name_H-M   'P 1'
_cell_length_a   9.08740500
_cell_length_b   9.08740561
_cell_length_c   6.38248600
_cell_angle_alpha   90.00000000
_cell_angle_beta   90.00000000
_cell_angle_gamma   120.00000142
_symmetry_Int_Tables_number   1
_chemical_formula_structural   Tb3Lu7(Bi3C)2
_chemical_formula_sum   'Tb3 Lu7 Bi6 C2'
_cell_volume   456.45744292
_cell_formula_units_Z   1
loop_
 _symmetry_equiv_pos_site_id
 _symmetry_equiv_pos_as_xyz
  1  'x, y, z'
loop_
 _atom_site_type_symbol
 _atom_site_label
 _atom_site_symmetry_multiplicity
 _atom_site_fract_x
 _atom_site_fract_y
 _atom_site_fract_z
 _atom_site_occupancy
  Tb  Tb0  1  0.666667  0.333333  0.500000  1
  Tb  Tb1  1  0.333333  0.666667  0.500000  1
  Tb  Tb2  1  0.333333  0.666667  0.000000  1
  Lu  Lu3  1  0.666667  0.333333  0.000000  1
  Lu  Lu4  1  0.797138  0.797515  0.249892  1
  Lu  Lu5  1  0.202485  0.999623  0.249892  1
  Lu  Lu6  1  0.000377  0.202862  0.249892  1
  Lu  Lu7  1  0.202485  0.202862  0.750108  1
  Lu  Lu8  1  0.797138  0.999623  0.750108  1
  Lu  Lu9  1  0.000377  0.797515  0.750108  1
  Bi  Bi10  1  0.398682  0.396799  0.247987  1
  Bi  Bi11  1  0.603201  0.001882  0.247987  1
  Bi  Bi12  1  0.998118  0.601318  0.247987  1
  Bi  Bi13  1  0.603201  0.601318  0.752013  1
  Bi  Bi14  1  0.398682  0.001882  0.752013  1
  Bi  Bi15  1  0.998118  0.396799  0.752013  1
  C  C16  1  0.000000  0.000000  0.500000  1
  C  C17  1  0.000000  0.000000  0.000000  1
