# generated using pymatgen
data_MgU3Si6Ru7
_symmetry_space_group_name_H-M   'P 1'
_cell_length_a   7.04455692
_cell_length_b   7.04288390
_cell_length_c   7.04455688
_cell_angle_alpha   109.46641404
_cell_angle_beta   109.47602576
_cell_angle_gamma   109.46640434
_symmetry_Int_Tables_number   1
_chemical_formula_structural   MgU3Si6Ru7
_chemical_formula_sum   'Mg1 U3 Si6 Ru7'
_cell_volume   269.06785572
_cell_formula_units_Z   1
loop_
 _symmetry_equiv_pos_site_id
 _symmetry_equiv_pos_as_xyz
  1  'x, y, z'
loop_
 _atom_site_type_symbol
 _atom_site_label
 _atom_site_symmetry_multiplicity
 _atom_site_fract_x
 _atom_site_fract_y
 _atom_site_fract_z
 _atom_site_occupancy
  Mg  Mg0  1  0.000000  0.500000  0.000000  1
  U  U1  1  0.000000  0.000000  0.500000  1
  U  U2  1  0.500000  0.000000  0.000000  1
  U  U3  1  0.500000  0.500000  0.500000  1
  Si  Si4  1  0.693388  0.683996  0.000000  1
  Si  Si5  1  0.306612  0.990609  0.306612  1
  Si  Si6  1  0.000000  0.316004  0.306612  1
  Si  Si7  1  0.306612  0.316004  0.000000  1
  Si  Si8  1  0.693388  0.009391  0.693388  1
  Si  Si9  1  0.000000  0.683996  0.693388  1
  Ru  Ru10  1  0.749565  0.249565  0.499130  1
  Ru  Ru11  1  0.749565  0.500000  0.250435  1
  Ru  Ru12  1  0.499130  0.249565  0.749565  1
  Ru  Ru13  1  0.250435  0.500000  0.749565  1
  Ru  Ru14  1  0.250435  0.750435  0.500870  1
  Ru  Ru15  1  0.500870  0.750435  0.250435  1
  Ru  Ru16  1  0.000000  0.000000  0.000000  1
