# generated using pymatgen
data_Cs3Cu(AgP)2
_symmetry_space_group_name_H-M   'P 1'
_cell_length_a   8.00846163
_cell_length_b   8.00846115
_cell_length_c   7.93955031
_cell_angle_alpha   47.57490074
_cell_angle_beta   47.57491564
_cell_angle_gamma   48.52498183
_symmetry_Int_Tables_number   1
_chemical_formula_structural   Cs3Cu(AgP)2
_chemical_formula_sum   'Cs3 Cu1 Ag2 P2'
_cell_volume   256.61867721
_cell_formula_units_Z   1
loop_
 _symmetry_equiv_pos_site_id
 _symmetry_equiv_pos_as_xyz
  1  'x, y, z'
loop_
 _atom_site_type_symbol
 _atom_site_label
 _atom_site_symmetry_multiplicity
 _atom_site_fract_x
 _atom_site_fract_y
 _atom_site_fract_z
 _atom_site_occupancy
  Cs  Cs0  1  0.911525  0.911525  0.898268  1
  Cs  Cs1  1  0.500000  0.500000  0.500000  1
  Cs  Cs2  1  0.088475  0.088475  0.101732  1
  Cu  Cu3  1  0.500000  0.500000  0.000000  1
  Ag  Ag4  1  0.000000  0.500000  0.500000  1
  Ag  Ag5  1  0.500000  0.000000  0.500000  1
  P  P6  1  0.277942  0.277942  0.233870  1
  P  P7  1  0.722058  0.722058  0.766130  1
