# generated using pymatgen
data_Y4Al4Pd2RuRh
_symmetry_space_group_name_H-M   'P 1'
_cell_length_a   4.32102500
_cell_length_b   6.94378056
_cell_length_c   7.91423233
_cell_angle_alpha   90.14499071
_cell_angle_beta   90.00000000
_cell_angle_gamma   90.00000000
_symmetry_Int_Tables_number   1
_chemical_formula_structural   Y4Al4Pd2RuRh
_chemical_formula_sum   'Y4 Al4 Pd2 Ru1 Rh1'
_cell_volume   237.45984037
_cell_formula_units_Z   1
loop_
 _symmetry_equiv_pos_site_id
 _symmetry_equiv_pos_as_xyz
  1  'x, y, z'
loop_
 _atom_site_type_symbol
 _atom_site_label
 _atom_site_symmetry_multiplicity
 _atom_site_fract_x
 _atom_site_fract_y
 _atom_site_fract_z
 _atom_site_occupancy
  Y  Y0  1  0.250000  0.034905  0.323472  1
  Y  Y1  1  0.250000  0.534820  0.177568  1
  Y  Y2  1  0.750000  0.975551  0.682702  1
  Y  Y3  1  0.750000  0.470481  0.813673  1
  Al  Al4  1  0.250000  0.138629  0.934988  1
  Al  Al5  1  0.250000  0.638759  0.564733  1
  Al  Al6  1  0.750000  0.857231  0.059978  1
  Al  Al7  1  0.750000  0.355564  0.441240  1
  Pd  Pd8  1  0.750000  0.727705  0.379469  1
  Pd  Pd9  1  0.750000  0.228302  0.119232  1
  Ru  Ru10  1  0.250000  0.267612  0.617955  1
  Rh  Rh11  1  0.250000  0.770443  0.884989  1
