# generated using pymatgen
data_YbI31
_symmetry_space_group_name_H-M   'P 1'
_cell_length_a   9.16918000
_cell_length_b   10.38510117
_cell_length_c   20.67628600
_cell_angle_alpha   85.30545102
_cell_angle_beta   90.00000000
_cell_angle_gamma   90.00000000
_symmetry_Int_Tables_number   1
_chemical_formula_structural   YbI31
_chemical_formula_sum   'Yb1 I31'
_cell_volume   1962.24996806
_cell_formula_units_Z   1
loop_
 _symmetry_equiv_pos_site_id
 _symmetry_equiv_pos_as_xyz
  1  'x, y, z'
loop_
 _atom_site_type_symbol
 _atom_site_label
 _atom_site_symmetry_multiplicity
 _atom_site_fract_x
 _atom_site_fract_y
 _atom_site_fract_z
 _atom_site_occupancy
  Yb  Yb0  1  0.750000  0.763509  0.198532  1
  I  I1  1  0.750000  0.399951  0.285943  1
  I  I2  1  0.250000  0.683054  0.673595  1
  I  I3  1  0.250000  0.145898  0.831385  1
  I  I4  1  0.250000  0.267885  0.127307  1
  I  I5  1  0.750000  0.984534  0.751812  1
  I  I6  1  0.750000  0.978690  0.292293  1
  I  I7  1  0.501340  0.587296  0.193923  1
  I  I8  1  0.250000  0.555944  0.395987  1
  I  I9  1  0.501011  0.812731  0.606211  1
  I  I10  1  0.250000  0.743680  0.821186  1
  I  I11  1  0.250000  0.116064  0.423377  1
  I  I12  1  0.750000  0.736720  0.361435  1
  I  I13  1  0.500467  0.267929  0.889537  1
  I  I14  1  0.250000  0.774178  0.953957  1
  I  I15  1  0.750000  0.206595  0.179677  1
  I  I16  1  0.504821  0.260981  0.355321  1
  I  I17  1  0.750000  0.242036  0.676617  1
  I  I18  1  0.250000  0.823991  0.401627  1
  I  I19  1  0.995179  0.260981  0.355321  1
  I  I20  1  0.750000  0.937979  0.540486  1
  I  I21  1  0.998660  0.587296  0.193923  1
  I  I22  1  0.250000  0.999261  0.179132  1
  I  I23  1  0.750000  0.010452  0.091935  1
  I  I24  1  0.750000  0.720300  0.810096  1
  I  I25  1  0.750000  0.484268  0.735505  1
  I  I26  1  0.250000  0.478454  0.027279  1
  I  I27  1  0.998989  0.812731  0.606211  1
  I  I28  1  0.750000  0.392711  0.947204  1
  I  I29  1  0.250000  0.415677  0.540610  1
  I  I30  1  0.250000  0.280286  0.663040  1
  I  I31  1  0.999533  0.267929  0.889537  1
