# generated using pymatgen
data_Hf4MnVRh10
_symmetry_space_group_name_H-M   'P 1'
_cell_length_a   4.14024800
_cell_length_b   5.57185110
_cell_length_c   10.85273810
_cell_angle_alpha   89.86052313
_cell_angle_beta   90.00000000
_cell_angle_gamma   90.00000000
_symmetry_Int_Tables_number   1
_chemical_formula_structural   Hf4MnVRh10
_chemical_formula_sum   'Hf4 Mn1 V1 Rh10'
_cell_volume   250.35939512
_cell_formula_units_Z   1
loop_
 _symmetry_equiv_pos_site_id
 _symmetry_equiv_pos_as_xyz
  1  'x, y, z'
loop_
 _atom_site_type_symbol
 _atom_site_label
 _atom_site_symmetry_multiplicity
 _atom_site_fract_x
 _atom_site_fract_y
 _atom_site_fract_z
 _atom_site_occupancy
  Hf  Hf0  1  0.500000  0.179084  0.638924  1
  Hf  Hf1  1  0.500000  0.820916  0.361076  1
  Hf  Hf2  1  0.500000  0.667038  0.856211  1
  Hf  Hf3  1  0.500000  0.332962  0.143789  1
  Mn  Mn4  1  0.000000  0.500000  0.500000  1
  V  V5  1  0.000000  0.000000  0.000000  1
  Rh  Rh6  1  0.500000  0.178969  0.898851  1
  Rh  Rh7  1  0.500000  0.821031  0.101149  1
  Rh  Rh8  1  0.500000  0.691016  0.609611  1
  Rh  Rh9  1  0.500000  0.308984  0.390389  1
  Rh  Rh10  1  0.000000  0.422472  0.743341  1
  Rh  Rh11  1  0.000000  0.577528  0.256659  1
  Rh  Rh12  1  0.000000  0.000000  0.500000  1
  Rh  Rh13  1  0.000000  0.500000  0.000000  1
  Rh  Rh14  1  0.000000  0.077276  0.237084  1
  Rh  Rh15  1  0.000000  0.922724  0.762916  1
