# generated using pymatgen
data_La3Ho(WN3)4
_symmetry_space_group_name_H-M   'P 1'
_cell_length_a   7.37292202
_cell_length_b   7.37292110
_cell_length_c   6.31389600
_cell_angle_alpha   75.73690499
_cell_angle_beta   75.73690682
_cell_angle_gamma   83.83070493
_symmetry_Int_Tables_number   1
_chemical_formula_structural   La3Ho(WN3)4
_chemical_formula_sum   'La3 Ho1 W4 N12'
_cell_volume   321.98955065
_cell_formula_units_Z   1
loop_
 _symmetry_equiv_pos_site_id
 _symmetry_equiv_pos_as_xyz
  1  'x, y, z'
loop_
 _atom_site_type_symbol
 _atom_site_label
 _atom_site_symmetry_multiplicity
 _atom_site_fract_x
 _atom_site_fract_y
 _atom_site_fract_z
 _atom_site_occupancy
  La  La0  1  0.693408  0.306592  0.750000  1
  La  La1  1  0.088623  0.911377  0.750000  1
  La  La2  1  0.308276  0.691724  0.250000  1
  Ho  Ho3  1  0.906965  0.093035  0.250000  1
  W  W4  1  0.380005  0.199862  0.252135  1
  W  W5  1  0.621922  0.799857  0.739984  1
  W  W6  1  0.800138  0.619995  0.247865  1
  W  W7  1  0.200143  0.378078  0.760016  1
  N  N8  1  0.617819  0.112740  0.159520  1
  N  N9  1  0.363966  0.325831  0.494322  1
  N  N10  1  0.000130  0.221632  0.865324  1
  N  N11  1  0.388079  0.884435  0.850853  1
  N  N12  1  0.778368  0.999870  0.634676  1
  N  N13  1  0.115565  0.611921  0.649147  1
  N  N14  1  0.887260  0.382181  0.340480  1
  N  N15  1  0.624362  0.657187  0.515042  1
  N  N16  1  0.674169  0.636034  0.005678  1
  N  N17  1  0.342813  0.375638  0.984958  1
  N  N18  1  0.992566  0.784579  0.160755  1
  N  N19  1  0.215421  0.007434  0.339245  1
