# generated using pymatgen
data_Tb4Mn9Fe7(P3W)4
_symmetry_space_group_name_H-M   'P 1'
_cell_length_a   3.68618800
_cell_length_b   10.56067655
_cell_length_c   12.21130014
_cell_angle_alpha   89.89429129
_cell_angle_beta   90.00000000
_cell_angle_gamma   90.00000000
_symmetry_Int_Tables_number   1
_chemical_formula_structural   Tb4Mn9Fe7(P3W)4
_chemical_formula_sum   'Tb4 Mn9 Fe7 P12 W4'
_cell_volume   475.36848754
_cell_formula_units_Z   1
loop_
 _symmetry_equiv_pos_site_id
 _symmetry_equiv_pos_as_xyz
  1  'x, y, z'
loop_
 _atom_site_type_symbol
 _atom_site_label
 _atom_site_symmetry_multiplicity
 _atom_site_fract_x
 _atom_site_fract_y
 _atom_site_fract_z
 _atom_site_occupancy
  Tb  Tb0  1  0.250000  0.581418  0.710168  1
  Tb  Tb1  1  0.250000  0.917486  0.210392  1
  Tb  Tb2  1  0.750000  0.417380  0.289999  1
  Tb  Tb3  1  0.750000  0.084417  0.791484  1
  Mn  Mn4  1  0.250000  0.407335  0.492935  1
  Mn  Mn5  1  0.250000  0.092990  0.993645  1
  Mn  Mn6  1  0.750000  0.590867  0.505949  1
  Mn  Mn7  1  0.750000  0.907754  0.007649  1
  Mn  Mn8  1  0.250000  0.217731  0.175935  1
  Mn  Mn9  1  0.250000  0.283777  0.675749  1
  Mn  Mn10  1  0.750000  0.782381  0.823349  1
  Mn  Mn11  1  0.750000  0.717330  0.323917  1
  Mn  Mn12  1  0.250000  0.877362  0.697985  1
  Fe  Fe13  1  0.250000  0.622987  0.198537  1
  Fe  Fe14  1  0.750000  0.122856  0.301723  1
  Fe  Fe15  1  0.750000  0.377327  0.801595  1
  Fe  Fe16  1  0.250000  0.463367  0.935016  1
  Fe  Fe17  1  0.250000  0.037145  0.435015  1
  Fe  Fe18  1  0.750000  0.537049  0.065067  1
  Fe  Fe19  1  0.750000  0.962641  0.565794  1
  P  P20  1  0.250000  0.428664  0.113360  1
  P  P21  1  0.250000  0.074828  0.613037  1
  P  P22  1  0.750000  0.571695  0.886625  1
  P  P23  1  0.750000  0.928613  0.386901  1
  P  P24  1  0.250000  0.269527  0.866458  1
  P  P25  1  0.250000  0.231282  0.365999  1
  P  P26  1  0.750000  0.731608  0.133324  1
  P  P27  1  0.750000  0.763774  0.631314  1
  P  P28  1  0.250000  0.591609  0.384401  1
  P  P29  1  0.250000  0.908137  0.886136  1
  P  P30  1  0.750000  0.407703  0.615062  1
  P  P31  1  0.750000  0.092126  0.115837  1
  W  W32  1  0.250000  0.704257  0.988198  1
  W  W33  1  0.250000  0.794643  0.486680  1
  W  W34  1  0.750000  0.295539  0.012579  1
  W  W35  1  0.750000  0.204395  0.512186  1
