# generated using pymatgen
data_Tb16Ho4Sn15Sb
_symmetry_space_group_name_H-M   'P 1'
_cell_length_a   8.06552959
_cell_length_b   8.18955852
_cell_length_c   15.47744328
_cell_angle_alpha   90.03799347
_cell_angle_beta   90.28310858
_cell_angle_gamma   90.01525759
_symmetry_Int_Tables_number   1
_chemical_formula_structural   Tb16Ho4Sn15Sb
_chemical_formula_sum   'Tb16 Ho4 Sn15 Sb1'
_cell_volume   1022.32077801
_cell_formula_units_Z   1
loop_
 _symmetry_equiv_pos_site_id
 _symmetry_equiv_pos_as_xyz
  1  'x, y, z'
loop_
 _atom_site_type_symbol
 _atom_site_label
 _atom_site_symmetry_multiplicity
 _atom_site_fract_x
 _atom_site_fract_y
 _atom_site_fract_z
 _atom_site_occupancy
  Tb  Tb0  1  0.369059  0.836379  0.879013  1
  Tb  Tb1  1  0.867627  0.663451  0.621914  1
  Tb  Tb2  1  0.632409  0.163315  0.377869  1
  Tb  Tb3  1  0.131092  0.337342  0.121681  1
  Tb  Tb4  1  0.632326  0.163718  0.121057  1
  Tb  Tb5  1  0.132869  0.336629  0.377861  1
  Tb  Tb6  1  0.367544  0.836643  0.621861  1
  Tb  Tb7  1  0.867970  0.663494  0.878333  1
  Tb  Tb8  1  0.522412  0.322367  0.901482  1
  Tb  Tb9  1  0.020209  0.179605  0.597771  1
  Tb  Tb10  1  0.479860  0.679368  0.402078  1
  Tb  Tb11  1  0.976535  0.820696  0.098698  1
  Tb  Tb12  1  0.479447  0.678255  0.097977  1
  Tb  Tb13  1  0.979797  0.820419  0.402072  1
  Tb  Tb14  1  0.520300  0.320391  0.597815  1
  Tb  Tb15  1  0.020173  0.179601  0.901420  1
  Ho  Ho16  1  0.198326  0.501808  0.749803  1
  Ho  Ho17  1  0.698115  0.997848  0.750431  1
  Ho  Ho18  1  0.801492  0.498127  0.250373  1
  Ho  Ho19  1  0.301787  0.001600  0.251029  1
  Sn  Sn20  1  0.792460  0.464840  0.457502  1
  Sn  Sn21  1  0.707657  0.964736  0.542325  1
  Sn  Sn22  1  0.209139  0.534257  0.957666  1
  Sn  Sn23  1  0.711807  0.965712  0.957463  1
  Sn  Sn24  1  0.207656  0.535019  0.542297  1
  Sn  Sn25  1  0.292613  0.035054  0.457516  1
  Sn  Sn26  1  0.791524  0.465637  0.042654  1
  Sn  Sn27  1  0.565273  0.619041  0.749930  1
  Sn  Sn28  1  0.065694  0.881239  0.750737  1
  Sn  Sn29  1  0.434963  0.380904  0.249282  1
  Sn  Sn30  1  0.934804  0.118675  0.249251  1
  Sn  Sn31  1  0.329271  0.146812  0.750005  1
  Sn  Sn32  1  0.829030  0.353187  0.749873  1
  Sn  Sn33  1  0.670085  0.853029  0.249865  1
  Sn  Sn34  1  0.170576  0.647187  0.249760  1
  Sb  Sb35  1  0.288097  0.033614  0.043336  1
