# generated using pymatgen
data_SrLiCd(P3Pd10)2
_symmetry_space_group_name_H-M   'P 1'
_cell_length_a   8.64225356
_cell_length_b   8.64225307
_cell_length_c   8.64225300
_cell_angle_alpha   59.99999644
_cell_angle_beta   59.99999831
_cell_angle_gamma   60.00000143
_symmetry_Int_Tables_number   1
_chemical_formula_structural   SrLiCd(P3Pd10)2
_chemical_formula_sum   'Sr1 Li1 Cd1 P6 Pd20'
_cell_volume   456.42134804
_cell_formula_units_Z   1
loop_
 _symmetry_equiv_pos_site_id
 _symmetry_equiv_pos_as_xyz
  1  'x, y, z'
loop_
 _atom_site_type_symbol
 _atom_site_label
 _atom_site_symmetry_multiplicity
 _atom_site_fract_x
 _atom_site_fract_y
 _atom_site_fract_z
 _atom_site_occupancy
  Sr  Sr0  1  0.250000  0.250000  0.250000  1
  Li  Li1  1  0.000000  0.000000  0.000000  1
  Cd  Cd2  1  0.750000  0.750000  0.750000  1
  P  P3  1  0.738179  0.261821  0.261821  1
  P  P4  1  0.738179  0.738179  0.261821  1
  P  P5  1  0.738179  0.261821  0.738179  1
  P  P6  1  0.261821  0.738179  0.261821  1
  P  P7  1  0.261821  0.738179  0.738179  1
  P  P8  1  0.261821  0.261821  0.738179  1
  Pd  Pd9  1  0.344552  0.998572  0.998572  1
  Pd  Pd10  1  0.998572  0.658304  0.344552  1
  Pd  Pd11  1  0.344552  0.998572  0.658304  1
  Pd  Pd12  1  0.998572  0.658304  0.998572  1
  Pd  Pd13  1  0.658304  0.344552  0.998572  1
  Pd  Pd14  1  0.618968  0.618968  0.143096  1
  Pd  Pd15  1  0.391099  0.826704  0.391099  1
  Pd  Pd16  1  0.143096  0.618968  0.618968  1
  Pd  Pd17  1  0.658304  0.998572  0.344552  1
  Pd  Pd18  1  0.998572  0.344552  0.658304  1
  Pd  Pd19  1  0.658304  0.998572  0.998572  1
  Pd  Pd20  1  0.998572  0.998572  0.344552  1
  Pd  Pd21  1  0.618968  0.143096  0.618968  1
  Pd  Pd22  1  0.344552  0.658304  0.998572  1
  Pd  Pd23  1  0.391099  0.391099  0.391099  1
  Pd  Pd24  1  0.618968  0.618968  0.618968  1
  Pd  Pd25  1  0.391099  0.391099  0.826704  1
  Pd  Pd26  1  0.998572  0.998572  0.658304  1
  Pd  Pd27  1  0.826704  0.391099  0.391099  1
  Pd  Pd28  1  0.998572  0.344552  0.998572  1
