# generated using pymatgen
data_YHo2(B3Ir4)2
_symmetry_space_group_name_H-M   'P 1'
_cell_length_a   10.00443951
_cell_length_b   9.18194937
_cell_length_c   5.56760805
_cell_angle_alpha   81.44041634
_cell_angle_beta   65.17096286
_cell_angle_gamma   33.38862786
_symmetry_Int_Tables_number   1
_chemical_formula_structural   YHo2(B3Ir4)2
_chemical_formula_sum   'Y1 Ho2 B6 Ir8'
_cell_volume   233.66538472
_cell_formula_units_Z   1
loop_
 _symmetry_equiv_pos_site_id
 _symmetry_equiv_pos_as_xyz
  1  'x, y, z'
loop_
 _atom_site_type_symbol
 _atom_site_label
 _atom_site_symmetry_multiplicity
 _atom_site_fract_x
 _atom_site_fract_y
 _atom_site_fract_z
 _atom_site_occupancy
  Y  Y0  1  0.821465  0.821465  0.178535  1
  Ho  Ho1  1  0.000016  0.000016  0.999984  1
  Ho  Ho2  1  0.178520  0.178520  0.821480  1
  B  B3  1  0.824953  0.524462  0.475538  1
  B  B4  1  0.175050  0.475521  0.524479  1
  B  B5  1  0.475521  0.175050  0.824950  1
  B  B6  1  0.671549  0.328441  0.671559  1
  B  B7  1  0.524462  0.824953  0.175047  1
  B  B8  1  0.328441  0.671549  0.328451  1
  Ir  Ir9  1  0.414323  0.414323  0.585677  1
  Ir  Ir10  1  0.587133  0.587133  0.912867  1
  Ir  Ir11  1  0.087133  0.087133  0.412867  1
  Ir  Ir12  1  0.912901  0.912901  0.587099  1
  Ir  Ir13  1  0.585727  0.585727  0.414273  1
  Ir  Ir14  1  0.249952  0.249952  0.250048  1
  Ir  Ir15  1  0.412901  0.412901  0.087099  1
  Ir  Ir16  1  0.749952  0.749952  0.750048  1
