# generated using pymatgen
data_TbPt4Au
_symmetry_space_group_name_H-M   'P 1'
_cell_length_a   5.36318932
_cell_length_b   5.36318987
_cell_length_c   5.36319000
_cell_angle_alpha   59.99999922
_cell_angle_beta   59.99999581
_cell_angle_gamma   59.99999350
_symmetry_Int_Tables_number   1
_chemical_formula_structural   TbPt4Au
_chemical_formula_sum   'Tb1 Pt4 Au1'
_cell_volume   109.08234051
_cell_formula_units_Z   1
loop_
 _symmetry_equiv_pos_site_id
 _symmetry_equiv_pos_as_xyz
  1  'x, y, z'
loop_
 _atom_site_type_symbol
 _atom_site_label
 _atom_site_symmetry_multiplicity
 _atom_site_fract_x
 _atom_site_fract_y
 _atom_site_fract_z
 _atom_site_occupancy
  Tb  Tb0  1  0.250000  0.250000  0.250000  1
  Pt  Pt1  1  0.123526  0.625491  0.625491  1
  Pt  Pt2  1  0.625491  0.625491  0.625491  1
  Pt  Pt3  1  0.625491  0.625491  0.123526  1
  Pt  Pt4  1  0.625491  0.123526  0.625491  1
  Au  Au5  1  0.000000  0.000000  0.000000  1
