# generated using pymatgen
data_Yb3Ce2Pr7Ru4
_symmetry_space_group_name_H-M   'P 1'
_cell_length_a   6.54233599
_cell_length_b   7.45030613
_cell_length_c   9.81452085
_cell_angle_alpha   89.65722822
_cell_angle_beta   89.34566581
_cell_angle_gamma   86.78692509
_symmetry_Int_Tables_number   1
_chemical_formula_structural   Yb3Ce2Pr7Ru4
_chemical_formula_sum   'Yb3 Ce2 Pr7 Ru4'
_cell_volume   477.59335612
_cell_formula_units_Z   1
loop_
 _symmetry_equiv_pos_site_id
 _symmetry_equiv_pos_as_xyz
  1  'x, y, z'
loop_
 _atom_site_type_symbol
 _atom_site_label
 _atom_site_symmetry_multiplicity
 _atom_site_fract_x
 _atom_site_fract_y
 _atom_site_fract_z
 _atom_site_occupancy
  Yb  Yb0  1  0.165467  0.324646  0.568057  1
  Yb  Yb1  1  0.834031  0.678430  0.431557  1
  Yb  Yb2  1  0.674831  0.170820  0.434738  1
  Ce  Ce3  1  0.835367  0.938779  0.750656  1
  Ce  Ce4  1  0.158717  0.060272  0.249568  1
  Pr  Pr5  1  0.670422  0.170139  0.068911  1
  Pr  Pr6  1  0.363397  0.542953  0.248661  1
  Pr  Pr7  1  0.838188  0.672224  0.070709  1
  Pr  Pr8  1  0.163975  0.326790  0.931797  1
  Pr  Pr9  1  0.329453  0.831322  0.934145  1
  Pr  Pr10  1  0.639597  0.458049  0.750961  1
  Pr  Pr11  1  0.323650  0.828163  0.564269  1
  Ru  Ru12  1  0.985452  0.346271  0.244147  1
  Ru  Ru13  1  0.503252  0.102389  0.746796  1
  Ru  Ru14  1  0.493658  0.895998  0.251859  1
  Ru  Ru15  1  0.020543  0.652755  0.753170  1
