# generated using pymatgen
data_HoTm5Fe7Co16
_symmetry_space_group_name_H-M   'P 1'
_cell_length_a   8.33676391
_cell_length_b   8.33430681
_cell_length_c   8.33431233
_cell_angle_alpha   60.01620367
_cell_angle_beta   59.98907951
_cell_angle_gamma   59.98911071
_symmetry_Int_Tables_number   1
_chemical_formula_structural   HoTm5Fe7Co16
_chemical_formula_sum   'Ho1 Tm5 Fe7 Co16'
_cell_volume   409.45228107
_cell_formula_units_Z   1
loop_
 _symmetry_equiv_pos_site_id
 _symmetry_equiv_pos_as_xyz
  1  'x, y, z'
loop_
 _atom_site_type_symbol
 _atom_site_label
 _atom_site_symmetry_multiplicity
 _atom_site_fract_x
 _atom_site_fract_y
 _atom_site_fract_z
 _atom_site_occupancy
  Ho  Ho0  1  0.710978  0.289060  0.289002  1
  Tm  Tm1  1  0.288413  0.711632  0.711588  1
  Tm  Tm2  1  0.288209  0.711821  0.288325  1
  Tm  Tm3  1  0.288158  0.288323  0.711826  1
  Tm  Tm4  1  0.711688  0.288361  0.711800  1
  Tm  Tm5  1  0.711639  0.711795  0.288363  1
  Fe  Fe6  1  0.500077  0.999911  0.999913  1
  Fe  Fe7  1  0.999997  0.499979  0.500023  1
  Fe  Fe8  1  0.000293  0.500335  0.999614  1
  Fe  Fe9  1  0.000311  0.999631  0.500339  1
  Fe  Fe10  1  0.499720  0.999616  0.500362  1
  Fe  Fe11  1  0.499759  0.500358  0.999599  1
  Fe  Fe12  1  0.000198  0.999837  0.999792  1
  Co  Co13  1  0.323287  0.323620  0.323638  1
  Co  Co14  1  0.323587  0.323621  0.029200  1
  Co  Co15  1  0.029459  0.323616  0.323635  1
  Co  Co16  1  0.323580  0.029203  0.323631  1
  Co  Co17  1  0.676432  0.676462  0.676483  1
  Co  Co18  1  0.676432  0.676759  0.970356  1
  Co  Co19  1  0.676425  0.970356  0.676773  1
  Co  Co20  1  0.970614  0.676458  0.676479  1
  Co  Co21  1  0.123140  0.122461  0.122459  1
  Co  Co22  1  0.122646  0.122604  0.632106  1
  Co  Co23  1  0.631935  0.122463  0.122461  1
  Co  Co24  1  0.122650  0.632095  0.122606  1
  Co  Co25  1  0.877355  0.877313  0.877311  1
  Co  Co26  1  0.877497  0.876818  0.368187  1
  Co  Co27  1  0.877500  0.368179  0.876819  1
  Co  Co28  1  0.368021  0.877313  0.877311  1
