# generated using pymatgen
data_Tb12Si(BBr4)3
_symmetry_space_group_name_H-M   'P 1'
_cell_length_a   9.93499081
_cell_length_b   9.93499088
_cell_length_c   9.93499067
_cell_angle_alpha   109.81829718
_cell_angle_beta   109.81829909
_cell_angle_gamma   109.81829239
_symmetry_Int_Tables_number   1
_chemical_formula_structural   Tb12Si(BBr4)3
_chemical_formula_sum   'Tb12 Si1 B3 Br12'
_cell_volume   745.02633319
_cell_formula_units_Z   1
loop_
 _symmetry_equiv_pos_site_id
 _symmetry_equiv_pos_as_xyz
  1  'x, y, z'
loop_
 _atom_site_type_symbol
 _atom_site_label
 _atom_site_symmetry_multiplicity
 _atom_site_fract_x
 _atom_site_fract_y
 _atom_site_fract_z
 _atom_site_occupancy
  Tb  Tb0  1  0.468952  0.494848  0.225438  1
  Tb  Tb1  1  0.750000  0.228332  0.271668  1
  Tb  Tb2  1  0.750000  0.019751  0.480249  1
  Tb  Tb3  1  0.225438  0.468952  0.494848  1
  Tb  Tb4  1  0.271668  0.750000  0.228332  1
  Tb  Tb5  1  0.031048  0.274562  0.005152  1
  Tb  Tb6  1  0.005152  0.031048  0.274562  1
  Tb  Tb7  1  0.480249  0.750000  0.019751  1
  Tb  Tb8  1  0.494848  0.225438  0.468952  1
  Tb  Tb9  1  0.019751  0.480249  0.750000  1
  Tb  Tb10  1  0.274562  0.005152  0.031048  1
  Tb  Tb11  1  0.228332  0.271668  0.750000  1
  Si  Si12  1  0.250000  0.250000  0.250000  1
  B  B13  1  0.500709  0.999291  0.250000  1
  B  B14  1  0.999291  0.250000  0.500709  1
  B  B15  1  0.250000  0.500709  0.999291  1
  Br  Br16  1  0.250000  0.757454  0.742546  1
  Br  Br17  1  0.512530  0.506833  0.757698  1
  Br  Br18  1  0.987470  0.742302  0.993167  1
  Br  Br19  1  0.742546  0.250000  0.757454  1
  Br  Br20  1  0.993167  0.987470  0.742302  1
  Br  Br21  1  0.250000  0.993430  0.506570  1
  Br  Br22  1  0.757698  0.512530  0.506833  1
  Br  Br23  1  0.506570  0.250000  0.993430  1
  Br  Br24  1  0.757454  0.742546  0.250000  1
  Br  Br25  1  0.742302  0.993167  0.987470  1
  Br  Br26  1  0.993430  0.506570  0.250000  1
  Br  Br27  1  0.506833  0.757698  0.512530  1
