# generated using pymatgen
data_Ho24CdTe11
_symmetry_space_group_name_H-M   'P 1'
_cell_length_a   4.07052000
_cell_length_b   11.58134767
_cell_length_c   22.18884400
_cell_angle_alpha   89.98049795
_cell_angle_beta   90.00000000
_cell_angle_gamma   90.00000000
_symmetry_Int_Tables_number   1
_chemical_formula_structural   Ho24CdTe11
_chemical_formula_sum   'Ho24 Cd1 Te11'
_cell_volume   1046.02880459
_cell_formula_units_Z   1
loop_
 _symmetry_equiv_pos_site_id
 _symmetry_equiv_pos_as_xyz
  1  'x, y, z'
loop_
 _atom_site_type_symbol
 _atom_site_label
 _atom_site_symmetry_multiplicity
 _atom_site_fract_x
 _atom_site_fract_y
 _atom_site_fract_z
 _atom_site_occupancy
  Ho  Ho0  1  0.250000  0.150743  0.390982  1
  Ho  Ho1  1  0.750000  0.848880  0.608923  1
  Ho  Ho2  1  0.750000  0.650116  0.109043  1
  Ho  Ho3  1  0.250000  0.349043  0.891725  1
  Ho  Ho4  1  0.250000  0.455306  0.339933  1
  Ho  Ho5  1  0.750000  0.544258  0.660150  1
  Ho  Ho6  1  0.750000  0.954986  0.158456  1
  Ho  Ho7  1  0.250000  0.043726  0.840976  1
  Ho  Ho8  1  0.250000  0.734059  0.232063  1
  Ho  Ho9  1  0.750000  0.265095  0.767005  1
  Ho  Ho10  1  0.750000  0.235795  0.267065  1
  Ho  Ho11  1  0.250000  0.765355  0.733044  1
  Ho  Ho12  1  0.250000  0.116415  0.034487  1
  Ho  Ho13  1  0.750000  0.883890  0.966021  1
  Ho  Ho14  1  0.750000  0.614870  0.465497  1
  Ho  Ho15  1  0.250000  0.384676  0.534294  1
  Ho  Ho16  1  0.250000  0.414233  0.147067  1
  Ho  Ho17  1  0.750000  0.585208  0.852565  1
  Ho  Ho18  1  0.750000  0.913959  0.352743  1
  Ho  Ho19  1  0.250000  0.085273  0.646926  1
  Ho  Ho20  1  0.250000  0.612614  0.982892  1
  Ho  Ho21  1  0.750000  0.387474  0.017100  1
  Ho  Ho22  1  0.750000  0.112974  0.517313  1
  Ho  Ho23  1  0.250000  0.887235  0.482738  1
  Cd  Cd24  1  0.250000  0.849892  0.070429  1
  Te  Te25  1  0.750000  0.151067  0.930449  1
  Te  Te26  1  0.750000  0.350163  0.431062  1
  Te  Te27  1  0.250000  0.650108  0.568884  1
  Te  Te28  1  0.250000  0.710799  0.372808  1
  Te  Te29  1  0.750000  0.288611  0.627264  1
  Te  Te30  1  0.750000  0.214430  0.128006  1
  Te  Te31  1  0.250000  0.787437  0.872176  1
  Te  Te32  1  0.250000  0.021403  0.260673  1
  Te  Te33  1  0.750000  0.979220  0.739443  1
  Te  Te34  1  0.750000  0.521593  0.238978  1
  Te  Te35  1  0.250000  0.479095  0.760814  1
