# generated using pymatgen
data_CaNdAl20(RuRh)2
_symmetry_space_group_name_H-M   'P 1'
_cell_length_a   6.87591742
_cell_length_b   6.88526600
_cell_length_c   9.18518400
_cell_angle_alpha   90.00000000
_cell_angle_beta   90.00000000
_cell_angle_gamma   96.94907921
_symmetry_Int_Tables_number   1
_chemical_formula_structural   CaNdAl20(RuRh)2
_chemical_formula_sum   'Ca1 Nd1 Al20 Ru2 Rh2'
_cell_volume   431.65538465
_cell_formula_units_Z   1
loop_
 _symmetry_equiv_pos_site_id
 _symmetry_equiv_pos_as_xyz
  1  'x, y, z'
loop_
 _atom_site_type_symbol
 _atom_site_label
 _atom_site_symmetry_multiplicity
 _atom_site_fract_x
 _atom_site_fract_y
 _atom_site_fract_z
 _atom_site_occupancy
  Ca  Ca0  1  0.872739  0.123800  0.750000  1
  Nd  Nd1  1  0.126160  0.876960  0.250000  1
  Al  Al2  1  0.620569  0.375778  0.549302  1
  Al  Al3  1  0.380435  0.623051  0.448727  1
  Al  Al4  1  0.380435  0.623051  0.051273  1
  Al  Al5  1  0.620569  0.375778  0.950698  1
  Al  Al6  1  0.226774  0.225791  0.499581  1
  Al  Al7  1  0.772201  0.775787  0.501697  1
  Al  Al8  1  0.772201  0.775787  0.998303  1
  Al  Al9  1  0.226774  0.225791  0.000419  1
  Al  Al10  1  0.841095  0.157157  0.101229  1
  Al  Al11  1  0.159672  0.841546  0.897973  1
  Al  Al12  1  0.159672  0.841546  0.602027  1
  Al  Al13  1  0.841095  0.157157  0.398771  1
  Al  Al14  1  0.857062  0.588635  0.750000  1
  Al  Al15  1  0.141370  0.410173  0.250000  1
  Al  Al16  1  0.411906  0.141112  0.750000  1
  Al  Al17  1  0.590295  0.860521  0.250000  1
  Al  Al18  1  0.223736  0.478904  0.750000  1
  Al  Al19  1  0.775123  0.517818  0.250000  1
  Al  Al20  1  0.520740  0.779999  0.750000  1
  Al  Al21  1  0.482866  0.221739  0.250000  1
  Ru  Ru22  1  0.498631  0.999877  0.999849  1
  Ru  Ru23  1  0.498631  0.999877  0.500151  1
  Rh  Rh24  1  0.999624  0.501184  0.500103  1
  Rh  Rh25  1  0.999624  0.501184  0.999897  1
