# generated using pymatgen
data_AcNd2Zn10Cd
_symmetry_space_group_name_H-M   'P 1'
_cell_length_a   4.61172327
_cell_length_b   8.52178626
_cell_length_c   8.52178656
_cell_angle_alpha   62.93662064
_cell_angle_beta   74.30095758
_cell_angle_gamma   74.30096126
_symmetry_Int_Tables_number   1
_chemical_formula_structural   AcNd2Zn10Cd
_chemical_formula_sum   'Ac1 Nd2 Zn10 Cd1'
_cell_volume   282.83072511
_cell_formula_units_Z   1
loop_
 _symmetry_equiv_pos_site_id
 _symmetry_equiv_pos_as_xyz
  1  'x, y, z'
loop_
 _atom_site_type_symbol
 _atom_site_label
 _atom_site_symmetry_multiplicity
 _atom_site_fract_x
 _atom_site_fract_y
 _atom_site_fract_z
 _atom_site_occupancy
  Ac  Ac0  1  0.000000  0.000000  0.000000  1
  Nd  Nd1  1  0.699146  0.300854  0.300854  1
  Nd  Nd2  1  0.300854  0.699146  0.699146  1
  Zn  Zn3  1  0.659892  0.699028  0.981189  1
  Zn  Zn4  1  0.340108  0.300972  0.018811  1
  Zn  Zn5  1  0.659892  0.981189  0.699028  1
  Zn  Zn6  1  0.340108  0.018811  0.300972  1
  Zn  Zn7  1  0.500000  0.691470  0.308530  1
  Zn  Zn8  1  0.500000  0.308530  0.691470  1
  Zn  Zn9  1  0.848534  0.428748  0.874184  1
  Zn  Zn10  1  0.151466  0.571252  0.125816  1
  Zn  Zn11  1  0.848534  0.874184  0.428748  1
  Zn  Zn12  1  0.151466  0.125816  0.571252  1
  Cd  Cd13  1  0.000000  0.500000  0.500000  1
