# generated using pymatgen
data_Ca2Eu(CoH6)2
_symmetry_space_group_name_H-M   'P 1'
_cell_length_a   4.81735600
_cell_length_b   4.81735715
_cell_length_c   8.05581500
_cell_angle_alpha   90.00000000
_cell_angle_beta   90.00000000
_cell_angle_gamma   119.99999212
_symmetry_Int_Tables_number   1
_chemical_formula_structural   Ca2Eu(CoH6)2
_chemical_formula_sum   'Ca2 Eu1 Co2 H12'
_cell_volume   161.90405909
_cell_formula_units_Z   1
loop_
 _symmetry_equiv_pos_site_id
 _symmetry_equiv_pos_as_xyz
  1  'x, y, z'
loop_
 _atom_site_type_symbol
 _atom_site_label
 _atom_site_symmetry_multiplicity
 _atom_site_fract_x
 _atom_site_fract_y
 _atom_site_fract_z
 _atom_site_occupancy
  Ca  Ca0  1  0.666667  0.333333  0.362521  1
  Ca  Ca1  1  0.333333  0.666667  0.637479  1
  Eu  Eu2  1  0.000000  0.000000  0.000000  1
  Co  Co3  1  0.666667  0.333333  0.746172  1
  Co  Co4  1  0.333333  0.666667  0.253828  1
  H  H5  1  0.181321  0.818679  0.363742  1
  H  H6  1  0.637359  0.818679  0.363742  1
  H  H7  1  0.181321  0.362641  0.363742  1
  H  H8  1  0.818679  0.181321  0.636258  1
  H  H9  1  0.362641  0.181321  0.636258  1
  H  H10  1  0.818679  0.637359  0.636258  1
  H  H11  1  0.518506  0.037011  0.861332  1
  H  H12  1  0.518506  0.481494  0.861332  1
  H  H13  1  0.962989  0.481494  0.861332  1
  H  H14  1  0.481494  0.962989  0.138668  1
  H  H15  1  0.481494  0.518506  0.138668  1
  H  H16  1  0.037011  0.518506  0.138668  1
