# generated using pymatgen
data_Na3Li3Dy2(P3Ir4)4
_symmetry_space_group_name_H-M   'P 1'
_cell_length_a   12.68602800
_cell_length_b   12.68602791
_cell_length_c   3.94542900
_cell_angle_alpha   90.00000000
_cell_angle_beta   90.00000000
_cell_angle_gamma   119.99999501
_symmetry_Int_Tables_number   1
_chemical_formula_structural   Na3Li3Dy2(P3Ir4)4
_chemical_formula_sum   'Na3 Li3 Dy2 P12 Ir16'
_cell_volume   549.89049683
_cell_formula_units_Z   1
loop_
 _symmetry_equiv_pos_site_id
 _symmetry_equiv_pos_as_xyz
  1  'x, y, z'
loop_
 _atom_site_type_symbol
 _atom_site_label
 _atom_site_symmetry_multiplicity
 _atom_site_fract_x
 _atom_site_fract_y
 _atom_site_fract_z
 _atom_site_occupancy
  Na  Na0  1  0.000000  0.814423  0.000000  1
  Na  Na1  1  0.185577  0.185577  0.000000  1
  Na  Na2  1  0.814423  0.000000  0.000000  1
  Li  Li3  1  0.000000  0.441933  0.500000  1
  Li  Li4  1  0.558067  0.558067  0.500000  1
  Li  Li5  1  0.441933  0.000000  0.500000  1
  Dy  Dy6  1  0.333333  0.666667  0.500000  1
  Dy  Dy7  1  0.666667  0.333333  0.500000  1
  P  P8  1  0.000000  0.630910  0.500000  1
  P  P9  1  0.369090  0.369090  0.500000  1
  P  P10  1  0.630910  0.000000  0.500000  1
  P  P11  1  0.520778  0.692388  0.000000  1
  P  P12  1  0.307612  0.828390  0.000000  1
  P  P13  1  0.171610  0.479222  0.000000  1
  P  P14  1  0.479222  0.171610  0.000000  1
  P  P15  1  0.692388  0.520778  0.000000  1
  P  P16  1  0.828390  0.307612  0.000000  1
  P  P17  1  0.000000  0.178086  0.500000  1
  P  P18  1  0.821914  0.821914  0.500000  1
  P  P19  1  0.178086  0.000000  0.500000  1
  Ir  Ir20  1  0.505789  0.870210  0.000000  1
  Ir  Ir21  1  0.129790  0.635580  0.000000  1
  Ir  Ir22  1  0.364420  0.494211  0.000000  1
  Ir  Ir23  1  0.494211  0.364420  0.000000  1
  Ir  Ir24  1  0.870210  0.505789  0.000000  1
  Ir  Ir25  1  0.635580  0.129790  0.000000  1
  Ir  Ir26  1  0.000000  0.276416  0.000000  1
  Ir  Ir27  1  0.723584  0.723584  0.000000  1
  Ir  Ir28  1  0.276416  0.000000  0.000000  1
  Ir  Ir29  1  0.624355  0.805264  0.500000  1
  Ir  Ir30  1  0.194736  0.819092  0.500000  1
  Ir  Ir31  1  0.180908  0.375645  0.500000  1
  Ir  Ir32  1  0.375645  0.180908  0.500000  1
  Ir  Ir33  1  0.805264  0.624355  0.500000  1
  Ir  Ir34  1  0.819092  0.194736  0.500000  1
  Ir  Ir35  1  0.000000  0.000000  0.500000  1
