# generated using pymatgen
data_Ta3Ni16(B3Rh2)2
_symmetry_space_group_name_H-M   'P 1'
_cell_length_a   7.62892624
_cell_length_b   7.62892593
_cell_length_c   7.62892600
_cell_angle_alpha   59.99999972
_cell_angle_beta   60.00000105
_cell_angle_gamma   60.00000187
_symmetry_Int_Tables_number   1
_chemical_formula_structural   Ta3Ni16(B3Rh2)2
_chemical_formula_sum   'Ta3 Ni16 B6 Rh4'
_cell_volume   313.96065598
_cell_formula_units_Z   1
loop_
 _symmetry_equiv_pos_site_id
 _symmetry_equiv_pos_as_xyz
  1  'x, y, z'
loop_
 _atom_site_type_symbol
 _atom_site_label
 _atom_site_symmetry_multiplicity
 _atom_site_fract_x
 _atom_site_fract_y
 _atom_site_fract_z
 _atom_site_occupancy
  Ta  Ta0  1  0.000000  0.000000  0.000000  1
  Ta  Ta1  1  0.750000  0.750000  0.750000  1
  Ta  Ta2  1  0.250000  0.250000  0.250000  1
  Ni  Ni3  1  0.378728  0.378728  0.863816  1
  Ni  Ni4  1  0.378728  0.863816  0.378728  1
  Ni  Ni5  1  0.863816  0.378728  0.378728  1
  Ni  Ni6  1  0.378728  0.378728  0.378728  1
  Ni  Ni7  1  0.003138  0.003138  0.336435  1
  Ni  Ni8  1  0.657289  0.003138  0.336435  1
  Ni  Ni9  1  0.003138  0.657289  0.336435  1
  Ni  Ni10  1  0.657289  0.336435  0.003138  1
  Ni  Ni11  1  0.003138  0.336435  0.003138  1
  Ni  Ni12  1  0.003138  0.336435  0.657289  1
  Ni  Ni13  1  0.336435  0.657289  0.003138  1
  Ni  Ni14  1  0.336435  0.003138  0.657289  1
  Ni  Ni15  1  0.336435  0.003138  0.003138  1
  Ni  Ni16  1  0.003138  0.003138  0.657289  1
  Ni  Ni17  1  0.003138  0.657289  0.003138  1
  Ni  Ni18  1  0.657289  0.003138  0.003138  1
  B  B19  1  0.735731  0.735731  0.264269  1
  B  B20  1  0.264269  0.735731  0.264269  1
  B  B21  1  0.735731  0.264269  0.264269  1
  B  B22  1  0.264269  0.264269  0.735731  1
  B  B23  1  0.735731  0.264269  0.735731  1
  B  B24  1  0.264269  0.735731  0.735731  1
  Rh  Rh25  1  0.615204  0.615204  0.154387  1
  Rh  Rh26  1  0.615204  0.154387  0.615204  1
  Rh  Rh27  1  0.154387  0.615204  0.615204  1
  Rh  Rh28  1  0.615204  0.615204  0.615204  1
