# generated using pymatgen
data_YHoPa2(B4Os)4
_symmetry_space_group_name_H-M   'P 1'
_cell_length_a   3.58597000
_cell_length_b   5.98902710
_cell_length_c   11.60769602
_cell_angle_alpha   89.87036412
_cell_angle_beta   90.00000000
_cell_angle_gamma   90.00000000
_symmetry_Int_Tables_number   1
_chemical_formula_structural   YHoPa2(B4Os)4
_chemical_formula_sum   'Y1 Ho1 Pa2 B16 Os4'
_cell_volume   249.29171475
_cell_formula_units_Z   1
loop_
 _symmetry_equiv_pos_site_id
 _symmetry_equiv_pos_as_xyz
  1  'x, y, z'
loop_
 _atom_site_type_symbol
 _atom_site_label
 _atom_site_symmetry_multiplicity
 _atom_site_fract_x
 _atom_site_fract_y
 _atom_site_fract_z
 _atom_site_occupancy
  Y  Y0  1  0.000000  0.128949  0.147982  1
  Ho  Ho1  1  0.000000  0.871044  0.851990  1
  Pa  Pa2  1  0.000000  0.628958  0.349115  1
  Pa  Pa3  1  0.000000  0.371046  0.650923  1
  B  B4  1  0.500000  0.789671  0.186123  1
  B  B5  1  0.500000  0.209930  0.813902  1
  B  B6  1  0.500000  0.290759  0.312553  1
  B  B7  1  0.500000  0.709358  0.687615  1
  B  B8  1  0.500000  0.863278  0.030644  1
  B  B9  1  0.500000  0.136441  0.969033  1
  B  B10  1  0.500000  0.365923  0.467591  1
  B  B11  1  0.500000  0.634072  0.532425  1
  B  B12  1  0.500000  0.887378  0.453464  1
  B  B13  1  0.500000  0.112613  0.546545  1
  B  B14  1  0.500000  0.386801  0.045434  1
  B  B15  1  0.500000  0.613632  0.954376  1
  B  B16  1  0.500000  0.973120  0.308142  1
  B  B17  1  0.500000  0.026717  0.692046  1
  B  B18  1  0.500000  0.471667  0.190071  1
  B  B19  1  0.500000  0.528666  0.809958  1
  Os  Os20  1  0.000000  0.640183  0.095111  1
  Os  Os21  1  0.000000  0.359756  0.904681  1
  Os  Os22  1  0.000000  0.141915  0.404752  1
  Os  Os23  1  0.000000  0.858120  0.595524  1
