# generated using pymatgen
data_La12Sm8Si15Pd
_symmetry_space_group_name_H-M   'P 1'
_cell_length_a   7.99183957
_cell_length_b   8.01078469
_cell_length_c   14.87042804
_cell_angle_alpha   89.80621456
_cell_angle_beta   89.33234753
_cell_angle_gamma   90.05537366
_symmetry_Int_Tables_number   1
_chemical_formula_structural   La12Sm8Si15Pd
_chemical_formula_sum   'La12 Sm8 Si15 Pd1'
_cell_volume   951.94771598
_cell_formula_units_Z   1
loop_
 _symmetry_equiv_pos_site_id
 _symmetry_equiv_pos_as_xyz
  1  'x, y, z'
loop_
 _atom_site_type_symbol
 _atom_site_label
 _atom_site_symmetry_multiplicity
 _atom_site_fract_x
 _atom_site_fract_y
 _atom_site_fract_z
 _atom_site_occupancy
  La  La0  1  0.989950  0.630077  0.047484  1
  La  La1  1  0.018570  0.358635  0.539816  1
  La  La2  1  0.631882  0.986469  0.956148  1
  La  La3  1  0.133175  0.508463  0.796152  1
  La  La4  1  0.853314  0.481204  0.288750  1
  La  La5  1  0.502150  0.127509  0.202472  1
  La  La6  1  0.496616  0.870124  0.703040  1
  La  La7  1  0.375438  0.019000  0.457476  1
  La  La8  1  0.701839  0.694414  0.496727  1
  La  La9  1  0.817762  0.184411  0.749799  1
  La  La10  1  0.175247  0.803648  0.263618  1
  La  La11  1  0.304658  0.311872  0.999105  1
  Sm  Sm12  1  0.370363  0.486016  0.377166  1
  Sm  Sm13  1  0.853992  0.019772  0.366715  1
  Sm  Sm14  1  0.987585  0.132530  0.127043  1
  Sm  Sm15  1  0.021969  0.869908  0.624860  1
  Sm  Sm16  1  0.634806  0.511723  0.875681  1
  Sm  Sm17  1  0.496003  0.372074  0.625180  1
  Sm  Sm18  1  0.503566  0.629450  0.125054  1
  Sm  Sm19  1  0.132362  0.988736  0.875271  1
  Si  Si20  1  0.921028  0.288658  0.942547  1
  Si  Si21  1  0.714060  0.078777  0.557933  1
  Si  Si22  1  0.211418  0.422357  0.193876  1
  Si  Si23  1  0.794681  0.577550  0.691200  1
  Si  Si24  1  0.429362  0.210783  0.807241  1
  Si  Si25  1  0.568609  0.787724  0.306392  1
  Si  Si26  1  0.284159  0.923214  0.060307  1
  Si  Si27  1  0.844741  0.794933  0.807584  1
  Si  Si28  1  0.155281  0.207289  0.310914  1
  Si  Si29  1  0.787782  0.839994  0.188971  1
  Si  Si30  1  0.305193  0.661461  0.556059  1
  Si  Si31  1  0.701247  0.340089  0.057198  1
  Si  Si32  1  0.661656  0.300630  0.444771  1
  Si  Si33  1  0.338886  0.702766  0.944491  1
  Si  Si34  1  0.211172  0.160452  0.691953  1
  Pd  Pd35  1  0.069480  0.717290  0.441002  1
