# generated using pymatgen
data_TbCeRu2F14
_symmetry_space_group_name_H-M   'P 1'
_cell_length_a   5.66107305
_cell_length_b   5.94457449
_cell_length_c   8.12957500
_cell_angle_alpha   101.71173111
_cell_angle_beta   89.90338479
_cell_angle_gamma   90.01854185
_symmetry_Int_Tables_number   1
_chemical_formula_structural   TbCeRu2F14
_chemical_formula_sum   'Tb1 Ce1 Ru2 F14'
_cell_volume   267.88589953
_cell_formula_units_Z   1
loop_
 _symmetry_equiv_pos_site_id
 _symmetry_equiv_pos_as_xyz
  1  'x, y, z'
loop_
 _atom_site_type_symbol
 _atom_site_label
 _atom_site_symmetry_multiplicity
 _atom_site_fract_x
 _atom_site_fract_y
 _atom_site_fract_z
 _atom_site_occupancy
  Tb  Tb0  1  0.200965  0.336261  0.309326  1
  Ce  Ce1  1  0.701597  0.663804  0.689504  1
  Ru  Ru2  1  0.710655  0.808361  0.223675  1
  Ru  Ru3  1  0.210174  0.192617  0.776124  1
  F  F4  1  0.883775  0.438627  0.475411  1
  F  F5  1  0.382462  0.551320  0.522863  1
  F  F6  1  0.401407  0.918548  0.775299  1
  F  F7  1  0.927820  0.061567  0.226408  1
  F  F8  1  0.926993  0.995645  0.767484  1
  F  F9  1  0.448948  0.028705  0.237566  1
  F  F10  1  0.020309  0.473476  0.790008  1
  F  F11  1  0.498570  0.547356  0.210032  1
  F  F12  1  0.702597  0.758326  0.977304  1
  F  F13  1  0.204790  0.243918  0.017689  1
  F  F14  1  0.718906  0.871402  0.472888  1
  F  F15  1  0.217259  0.130270  0.532541  1
  F  F16  1  0.506778  0.371733  0.786253  1
  F  F17  1  0.988718  0.608066  0.209625  1
