# generated using pymatgen
data_Er12Tc2Ni3Bi
_symmetry_space_group_name_H-M   'P 1'
_cell_length_a   8.30519499
_cell_length_b   8.31550431
_cell_length_c   8.30519492
_cell_angle_alpha   110.96246419
_cell_angle_beta   111.80806559
_cell_angle_gamma   105.66223421
_symmetry_Int_Tables_number   1
_chemical_formula_structural   Er12Tc2Ni3Bi
_chemical_formula_sum   'Er12 Tc2 Ni3 Bi1'
_cell_volume   440.32942376
_cell_formula_units_Z   1
loop_
 _symmetry_equiv_pos_site_id
 _symmetry_equiv_pos_as_xyz
  1  'x, y, z'
loop_
 _atom_site_type_symbol
 _atom_site_label
 _atom_site_symmetry_multiplicity
 _atom_site_fract_x
 _atom_site_fract_y
 _atom_site_fract_z
 _atom_site_occupancy
  Er  Er0  1  0.270746  0.182248  0.453009  1
  Er  Er1  1  0.724816  0.821109  0.545870  1
  Er  Er2  1  0.275239  0.821109  0.096293  1
  Er  Er3  1  0.729239  0.182248  0.911502  1
  Er  Er4  1  0.621550  0.308360  0.301654  1
  Er  Er5  1  0.378474  0.680249  0.686745  1
  Er  Er6  1  0.006706  0.308360  0.686809  1
  Er  Er7  1  0.993503  0.680249  0.301775  1
  Er  Er8  1  0.223526  0.414321  0.190795  1
  Er  Er9  1  0.779052  0.581902  0.802850  1
  Er  Er10  1  0.220771  0.023470  0.802701  1
  Er  Er11  1  0.776436  0.967313  0.190877  1
  Tc  Tc12  1  0.000061  0.374903  0.374842  1
  Tc  Tc13  1  0.999997  0.999756  0.999759  1
  Ni  Ni14  1  0.999522  0.650814  0.651292  1
  Ni  Ni15  1  0.385242  0.888590  0.503348  1
  Ni  Ni16  1  0.615094  0.116355  0.501261  1
  Bi  Bi17  1  0.500024  0.498641  0.998617  1
