# generated using pymatgen
data_Ca(Cd2Ag)4
_symmetry_space_group_name_H-M   'P 1'
_cell_length_a   7.56613161
_cell_length_b   7.56613119
_cell_length_c   7.56613244
_cell_angle_alpha   98.60110691
_cell_angle_beta   98.60111089
_cell_angle_gamma   134.49853321
_symmetry_Int_Tables_number   1
_chemical_formula_structural   Ca(Cd2Ag)4
_chemical_formula_sum   'Ca1 Cd8 Ag4'
_cell_volume   284.90359560
_cell_formula_units_Z   1
loop_
 _symmetry_equiv_pos_site_id
 _symmetry_equiv_pos_as_xyz
  1  'x, y, z'
loop_
 _atom_site_type_symbol
 _atom_site_label
 _atom_site_symmetry_multiplicity
 _atom_site_fract_x
 _atom_site_fract_y
 _atom_site_fract_z
 _atom_site_occupancy
  Ca  Ca0  1  0.000000  0.000000  0.000000  1
  Cd  Cd1  1  0.000000  0.343391  0.343391  1
  Cd  Cd2  1  0.000000  0.656609  0.656609  1
  Cd  Cd3  1  0.656609  0.000000  0.656609  1
  Cd  Cd4  1  0.343391  0.000000  0.343391  1
  Cd  Cd5  1  0.500000  0.283467  0.783467  1
  Cd  Cd6  1  0.500000  0.716533  0.216533  1
  Cd  Cd7  1  0.716533  0.500000  0.216533  1
  Cd  Cd8  1  0.283467  0.500000  0.783467  1
  Ag  Ag9  1  0.000000  0.000000  0.500000  1
  Ag  Ag10  1  0.500000  0.500000  0.500000  1
  Ag  Ag11  1  0.500000  0.000000  0.000000  1
  Ag  Ag12  1  0.000000  0.500000  0.000000  1
