# generated using pymatgen
data_K5(ZnAg)3
_symmetry_space_group_name_H-M   'P 1'
_cell_length_a   16.79479416
_cell_length_b   16.79479430
_cell_length_c   5.41816700
_cell_angle_alpha   90.00000000
_cell_angle_beta   90.00000000
_cell_angle_gamma   164.85283758
_symmetry_Int_Tables_number   1
_chemical_formula_structural   K5(ZnAg)3
_chemical_formula_sum   'K5 Zn3 Ag3'
_cell_volume   399.33717375
_cell_formula_units_Z   1
loop_
 _symmetry_equiv_pos_site_id
 _symmetry_equiv_pos_as_xyz
  1  'x, y, z'
loop_
 _atom_site_type_symbol
 _atom_site_label
 _atom_site_symmetry_multiplicity
 _atom_site_fract_x
 _atom_site_fract_y
 _atom_site_fract_z
 _atom_site_occupancy
  K  K0  1  0.000533  0.999467  0.000000  1
  K  K1  1  0.612542  0.387456  0.000000  1
  K  K2  1  0.387143  0.612855  0.000000  1
  K  K3  1  0.805589  0.194409  0.500001  1
  K  K4  1  0.194653  0.805345  0.500001  1
  Zn  Zn5  1  0.730427  0.269571  0.000000  1
  Zn  Zn6  1  0.921743  0.078256  0.500001  1
  Zn  Zn7  1  0.540218  0.459780  0.500001  1
  Ag  Ag8  1  0.269188  0.730810  0.000000  1
  Ag  Ag9  1  0.459554  0.540444  0.500001  1
  Ag  Ag10  1  0.078400  0.921599  0.500001  1
