# generated using pymatgen
data_Y6Er10Cd4IrPd3
_symmetry_space_group_name_H-M   'P 1'
_cell_length_a   9.66940184
_cell_length_b   9.64415144
_cell_length_c   9.64415200
_cell_angle_alpha   59.99999809
_cell_angle_beta   60.08634402
_cell_angle_gamma   60.08634635
_symmetry_Int_Tables_number   1
_chemical_formula_structural   Y6Er10Cd4IrPd3
_chemical_formula_sum   'Y6 Er10 Cd4 Ir1 Pd3'
_cell_volume   636.76361925
_cell_formula_units_Z   1
loop_
 _symmetry_equiv_pos_site_id
 _symmetry_equiv_pos_as_xyz
  1  'x, y, z'
loop_
 _atom_site_type_symbol
 _atom_site_label
 _atom_site_symmetry_multiplicity
 _atom_site_fract_x
 _atom_site_fract_y
 _atom_site_fract_z
 _atom_site_occupancy
  Y  Y0  1  0.934347  0.565676  0.565676  1
  Y  Y1  1  0.566900  0.935328  0.935328  1
  Y  Y2  1  0.566900  0.935328  0.562444  1
  Y  Y3  1  0.934347  0.565676  0.934301  1
  Y  Y4  1  0.566900  0.562444  0.935328  1
  Y  Y5  1  0.934347  0.934301  0.565676  1
  Er  Er6  1  0.355879  0.349141  0.349141  1
  Er  Er7  1  0.355879  0.349141  0.945839  1
  Er  Er8  1  0.355879  0.945839  0.349141  1
  Er  Er9  1  0.938418  0.353861  0.353861  1
  Er  Er10  1  0.808335  0.187428  0.187428  1
  Er  Er11  1  0.188799  0.811633  0.811633  1
  Er  Er12  1  0.188799  0.811633  0.187935  1
  Er  Er13  1  0.808335  0.187428  0.816808  1
  Er  Er14  1  0.188799  0.187935  0.811633  1
  Er  Er15  1  0.808335  0.816808  0.187428  1
  Cd  Cd16  1  0.581365  0.581776  0.581776  1
  Cd  Cd17  1  0.581365  0.581776  0.255085  1
  Cd  Cd18  1  0.581365  0.255085  0.581776  1
  Cd  Cd19  1  0.256306  0.581232  0.581232  1
  Ir  Ir20  1  0.570967  0.143011  0.143011  1
  Pd  Pd21  1  0.142480  0.144639  0.144639  1
  Pd  Pd22  1  0.142480  0.144639  0.568243  1
  Pd  Pd23  1  0.142480  0.568243  0.144639  1
