# generated using pymatgen
data_VCo2Rh3O8
_symmetry_space_group_name_H-M   'P 1'
_cell_length_a   6.00064964
_cell_length_b   6.15718445
_cell_length_c   6.15537760
_cell_angle_alpha   120.13271873
_cell_angle_beta   120.49370491
_cell_angle_gamma   90.28803492
_symmetry_Int_Tables_number   1
_chemical_formula_structural   VCo2Rh3O8
_chemical_formula_sum   'V1 Co2 Rh3 O8'
_cell_volume   158.85580011
_cell_formula_units_Z   1
loop_
 _symmetry_equiv_pos_site_id
 _symmetry_equiv_pos_as_xyz
  1  'x, y, z'
loop_
 _atom_site_type_symbol
 _atom_site_label
 _atom_site_symmetry_multiplicity
 _atom_site_fract_x
 _atom_site_fract_y
 _atom_site_fract_z
 _atom_site_occupancy
  V  V0  1  0.000148  0.500020  0.500107  1
  Co  Co1  1  0.867092  0.122494  0.744492  1
  Co  Co2  1  0.132875  0.877494  0.255485  1
  Rh  Rh3  1  0.499978  0.999936  0.999963  1
  Rh  Rh4  1  0.499975  0.500027  0.500062  1
  Rh  Rh5  1  0.499953  0.500037  0.999907  1
  O  O6  1  0.743906  0.262273  0.020616  1
  O  O7  1  0.745137  0.261788  0.484558  1
  O  O8  1  0.281663  0.259741  0.021359  1
  O  O9  1  0.743382  0.723726  0.482165  1
  O  O10  1  0.256606  0.276249  0.517817  1
  O  O11  1  0.718340  0.740259  0.978647  1
  O  O12  1  0.254858  0.738220  0.515427  1
  O  O13  1  0.256086  0.737735  0.979396  1
