# generated using pymatgen
data_Ho4As6Ru6Pt
_symmetry_space_group_name_H-M   'P 1'
_cell_length_a   7.24705584
_cell_length_b   7.24705612
_cell_length_c   7.24705522
_cell_angle_alpha   109.71671046
_cell_angle_beta   108.98135875
_cell_angle_gamma   109.71670275
_symmetry_Int_Tables_number   1
_chemical_formula_structural   Ho4As6Ru6Pt
_chemical_formula_sum   'Ho4 As6 Ru6 Pt1'
_cell_volume   292.98076822
_cell_formula_units_Z   1
loop_
 _symmetry_equiv_pos_site_id
 _symmetry_equiv_pos_as_xyz
  1  'x, y, z'
loop_
 _atom_site_type_symbol
 _atom_site_label
 _atom_site_symmetry_multiplicity
 _atom_site_fract_x
 _atom_site_fract_y
 _atom_site_fract_z
 _atom_site_occupancy
  Ho  Ho0  1  0.999998  0.999997  0.499998  1
  Ho  Ho1  1  0.500002  0.000003  0.000002  1
  Ho  Ho2  1  0.999998  0.500000  0.000002  1
  Ho  Ho3  1  0.500002  0.500000  0.499998  1
  As  As4  1  0.320130  0.000000  0.320130  1
  As  As5  1  0.006943  0.315318  0.322260  1
  As  As6  1  0.006943  0.684682  0.691625  1
  As  As7  1  0.308375  0.315318  0.993057  1
  As  As8  1  0.677740  0.684682  0.993057  1
  As  As9  1  0.679870  0.000000  0.679870  1
  Ru  Ru10  1  0.497651  0.748736  0.246387  1
  Ru  Ru11  1  0.497651  0.251264  0.748915  1
  Ru  Ru12  1  0.753613  0.251264  0.502349  1
  Ru  Ru13  1  0.251085  0.748736  0.502349  1
  Ru  Ru14  1  0.250000  0.500000  0.750000  1
  Ru  Ru15  1  0.000000  0.000000  0.000000  1
  Pt  Pt16  1  0.750000  0.500000  0.250000  1
