# generated using pymatgen
data_LuTaNb5Cl18
_symmetry_space_group_name_H-M   'P 1'
_cell_length_a   10.11780188
_cell_length_b   10.11903953
_cell_length_c   10.11603986
_cell_angle_alpha   55.98957064
_cell_angle_beta   55.98213818
_cell_angle_gamma   55.96225394
_symmetry_Int_Tables_number   1
_chemical_formula_structural   LuTaNb5Cl18
_chemical_formula_sum   'Lu1 Ta1 Nb5 Cl18'
_cell_volume   664.10759531
_cell_formula_units_Z   1
loop_
 _symmetry_equiv_pos_site_id
 _symmetry_equiv_pos_as_xyz
  1  'x, y, z'
loop_
 _atom_site_type_symbol
 _atom_site_label
 _atom_site_symmetry_multiplicity
 _atom_site_fract_x
 _atom_site_fract_y
 _atom_site_fract_z
 _atom_site_occupancy
  Lu  Lu0  1  0.999063  0.999862  0.000466  1
  Ta  Ta1  1  0.407609  0.299083  0.650835  1
  Nb  Nb2  1  0.349185  0.592628  0.700918  1
  Nb  Nb3  1  0.701220  0.349266  0.592261  1
  Nb  Nb4  1  0.299056  0.651151  0.407404  1
  Nb  Nb5  1  0.651082  0.407815  0.298729  1
  Nb  Nb6  1  0.592710  0.701520  0.348680  1
  Cl  Cl7  1  0.567404  0.159893  0.443895  1
  Cl  Cl8  1  0.223876  0.368260  0.909353  1
  Cl  Cl9  1  0.910930  0.222707  0.369608  1
  Cl  Cl10  1  0.369512  0.910680  0.222968  1
  Cl  Cl11  1  0.777149  0.630172  0.089273  1
  Cl  Cl12  1  0.089066  0.777267  0.630418  1
  Cl  Cl13  1  0.707647  0.959510  0.157156  1
  Cl  Cl14  1  0.959355  0.157060  0.707760  1
  Cl  Cl15  1  0.157315  0.707663  0.959338  1
  Cl  Cl16  1  0.293729  0.042700  0.841034  1
  Cl  Cl17  1  0.040698  0.842685  0.292336  1
  Cl  Cl18  1  0.842769  0.292102  0.040781  1
  Cl  Cl19  1  0.558320  0.430964  0.840453  1
  Cl  Cl20  1  0.161256  0.439683  0.570273  1
  Cl  Cl21  1  0.441665  0.569007  0.159558  1
  Cl  Cl22  1  0.430876  0.840175  0.558491  1
  Cl  Cl23  1  0.840297  0.558129  0.431133  1
  Cl  Cl24  1  0.628212  0.090019  0.776878  1
