# generated using pymatgen
data_KDySiS4
_symmetry_space_group_name_H-M   'P 1'
_cell_length_a   6.65049800
_cell_length_b   6.42429995
_cell_length_c   8.72751420
_cell_angle_alpha   72.21259952
_cell_angle_beta   90.00000000
_cell_angle_gamma   90.00000000
_symmetry_Int_Tables_number   1
_chemical_formula_structural   KDySiS4
_chemical_formula_sum   'K2 Dy2 Si2 S8'
_cell_volume   355.05625241
_cell_formula_units_Z   2
loop_
 _symmetry_equiv_pos_site_id
 _symmetry_equiv_pos_as_xyz
  1  'x, y, z'
loop_
 _atom_site_type_symbol
 _atom_site_label
 _atom_site_symmetry_multiplicity
 _atom_site_fract_x
 _atom_site_fract_y
 _atom_site_fract_z
 _atom_site_occupancy
  K  K0  1  0.978080  0.729789  0.065102  1
  K  K1  1  0.478080  0.270211  0.934898  1
  Dy  Dy2  1  0.499089  0.230013  0.450715  1
  Dy  Dy3  1  0.999089  0.769987  0.549285  1
  Si  Si4  1  0.462325  0.780456  0.326650  1
  Si  Si5  1  0.962325  0.219544  0.673350  1
  S  S6  1  0.463759  0.584344  0.172067  1
  S  S7  1  0.231015  0.022504  0.280621  1
  S  S8  1  0.727338  0.978030  0.300295  1
  S  S9  1  0.905394  0.421501  0.433673  1
  S  S10  1  0.405394  0.578499  0.566327  1
  S  S11  1  0.227338  0.021970  0.699705  1
  S  S12  1  0.731015  0.977496  0.719379  1
  S  S13  1  0.963759  0.415656  0.827933  1
