# generated using pymatgen
data_Cs3GaSe2S
_symmetry_space_group_name_H-M   'P 1'
_cell_length_a   13.95360800
_cell_length_b   8.68862723
_cell_length_c   11.26168738
_cell_angle_alpha   52.85264450
_cell_angle_beta   90.00000000
_cell_angle_gamma   90.00000000
_symmetry_Int_Tables_number   1
_chemical_formula_structural   Cs3GaSe2S
_chemical_formula_sum   'Cs12 Ga4 Se8 S4'
_cell_volume   1088.29301297
_cell_formula_units_Z   4
loop_
 _symmetry_equiv_pos_site_id
 _symmetry_equiv_pos_as_xyz
  1  'x, y, z'
loop_
 _atom_site_type_symbol
 _atom_site_label
 _atom_site_symmetry_multiplicity
 _atom_site_fract_x
 _atom_site_fract_y
 _atom_site_fract_z
 _atom_site_occupancy
  Cs  Cs0  1  0.921587  0.361575  0.382988  1
  Cs  Cs1  1  0.421587  0.638425  0.117012  1
  Cs  Cs2  1  0.078413  0.638425  0.617012  1
  Cs  Cs3  1  0.578413  0.361575  0.882988  1
  Cs  Cs4  1  0.195413  0.130562  0.585397  1
  Cs  Cs5  1  0.695413  0.869438  0.914603  1
  Cs  Cs6  1  0.804587  0.869438  0.414603  1
  Cs  Cs7  1  0.304587  0.130562  0.085397  1
  Cs  Cs8  1  0.628826  0.376301  0.485968  1
  Cs  Cs9  1  0.128826  0.623699  0.014032  1
  Cs  Cs10  1  0.371174  0.623699  0.514032  1
  Cs  Cs11  1  0.871174  0.376301  0.985968  1
  Ga  Ga12  1  0.945274  0.064270  0.847672  1
  Ga  Ga13  1  0.445274  0.935730  0.652328  1
  Ga  Ga14  1  0.054726  0.935730  0.152328  1
  Ga  Ga15  1  0.554726  0.064270  0.347672  1
  Se  Se16  1  0.659938  0.344692  0.196519  1
  Se  Se17  1  0.159938  0.655308  0.303481  1
  Se  Se18  1  0.340062  0.655308  0.803481  1
  Se  Se19  1  0.840062  0.344692  0.696519  1
  Se  Se20  1  0.554024  0.889237  0.242604  1
  Se  Se21  1  0.054024  0.110763  0.257396  1
  Se  Se22  1  0.445976  0.110763  0.757396  1
  Se  Se23  1  0.945976  0.889237  0.742604  1
  S  S24  1  0.401377  0.129585  0.395336  1
  S  S25  1  0.901377  0.870415  0.104664  1
  S  S26  1  0.598623  0.870415  0.604664  1
  S  S27  1  0.098623  0.129585  0.895336  1
