# generated using pymatgen
data_TaNb9Si5Sn
_symmetry_space_group_name_H-M   'P 1'
_cell_length_a   7.65162705
_cell_length_b   7.65162582
_cell_length_c   7.65162701
_cell_angle_alpha   128.00009185
_cell_angle_beta   128.00008359
_cell_angle_gamma   76.62488269
_symmetry_Int_Tables_number   1
_chemical_formula_structural   TaNb9Si5Sn
_chemical_formula_sum   'Ta1 Nb9 Si5 Sn1'
_cell_volume   270.19374142
_cell_formula_units_Z   1
loop_
 _symmetry_equiv_pos_site_id
 _symmetry_equiv_pos_as_xyz
  1  'x, y, z'
loop_
 _atom_site_type_symbol
 _atom_site_label
 _atom_site_symmetry_multiplicity
 _atom_site_fract_x
 _atom_site_fract_y
 _atom_site_fract_z
 _atom_site_occupancy
  Ta  Ta0  1  0.497962  0.497962  0.000000  1
  Nb  Nb1  1  0.026204  0.197955  0.516401  1
  Nb  Nb2  1  0.681553  0.509803  0.483599  1
  Nb  Nb3  1  0.509803  0.026204  0.828249  1
  Nb  Nb4  1  0.197955  0.681553  0.171751  1
  Nb  Nb5  1  0.989508  0.817780  0.515063  1
  Nb  Nb6  1  0.302716  0.474445  0.484937  1
  Nb  Nb7  1  0.474445  0.989508  0.171729  1
  Nb  Nb8  1  0.817780  0.302716  0.828271  1
  Nb  Nb9  1  0.001794  0.001794  0.000000  1
  Si  Si10  1  0.249989  0.249989  0.000000  1
  Si  Si11  1  0.369708  0.130317  0.500011  1
  Si  Si12  1  0.630305  0.869696  0.499989  1
  Si  Si13  1  0.869696  0.369708  0.239391  1
  Si  Si14  1  0.130317  0.630305  0.760609  1
  Sn  Sn15  1  0.750264  0.750264  0.000000  1
