# generated using pymatgen
data_La5Nd11Cd4RuPt3
_symmetry_space_group_name_H-M   'P 1'
_cell_length_a   10.07488379
_cell_length_b   10.10415919
_cell_length_c   10.10415833
_cell_angle_alpha   59.73499810
_cell_angle_beta   59.80376100
_cell_angle_gamma   59.80376867
_symmetry_Int_Tables_number   1
_chemical_formula_structural   La5Nd11Cd4RuPt3
_chemical_formula_sum   'La5 Nd11 Cd4 Ru1 Pt3'
_cell_volume   723.70014323
_cell_formula_units_Z   1
loop_
 _symmetry_equiv_pos_site_id
 _symmetry_equiv_pos_as_xyz
  1  'x, y, z'
loop_
 _atom_site_type_symbol
 _atom_site_label
 _atom_site_symmetry_multiplicity
 _atom_site_fract_x
 _atom_site_fract_y
 _atom_site_fract_z
 _atom_site_occupancy
  La  La0  1  0.350003  0.351334  0.351334  1
  La  La1  1  0.346916  0.346945  0.951934  1
  La  La2  1  0.346916  0.951934  0.346945  1
  La  La3  1  0.952094  0.347544  0.347544  1
  La  La4  1  0.819119  0.187850  0.187850  1
  Nd  Nd5  1  0.189422  0.809270  0.809270  1
  Nd  Nd6  1  0.189907  0.815116  0.188461  1
  Nd  Nd7  1  0.809316  0.189467  0.808294  1
  Nd  Nd8  1  0.189907  0.188461  0.815116  1
  Nd  Nd9  1  0.809316  0.808294  0.189467  1
  Nd  Nd10  1  0.936045  0.564800  0.564800  1
  Nd  Nd11  1  0.560630  0.936158  0.936158  1
  Nd  Nd12  1  0.564017  0.935884  0.565338  1
  Nd  Nd13  1  0.936815  0.561070  0.935677  1
  Nd  Nd14  1  0.564017  0.565338  0.935884  1
  Nd  Nd15  1  0.936815  0.935677  0.561070  1
  Cd  Cd16  1  0.580147  0.580035  0.580035  1
  Cd  Cd17  1  0.580001  0.581386  0.257416  1
  Cd  Cd18  1  0.580001  0.257416  0.581386  1
  Cd  Cd19  1  0.257291  0.580509  0.580509  1
  Ru  Ru20  1  0.139520  0.144358  0.144358  1
  Pt  Pt21  1  0.144075  0.143782  0.573232  1
  Pt  Pt22  1  0.144075  0.573232  0.143782  1
  Pt  Pt23  1  0.573634  0.144139  0.144139  1
