# generated using pymatgen
data_CaErLu2(B6Os)2
_symmetry_space_group_name_H-M   'P 1'
_cell_length_a   3.60959300
_cell_length_b   9.08947576
_cell_length_c   11.48859400
_cell_angle_alpha   89.85284874
_cell_angle_beta   90.00000000
_cell_angle_gamma   90.00000000
_symmetry_Int_Tables_number   1
_chemical_formula_structural   CaErLu2(B6Os)2
_chemical_formula_sum   'Ca2 Er2 Lu4 B24 Os4'
_cell_volume   376.93157664
_cell_formula_units_Z   2
loop_
 _symmetry_equiv_pos_site_id
 _symmetry_equiv_pos_as_xyz
  1  'x, y, z'
loop_
 _atom_site_type_symbol
 _atom_site_label
 _atom_site_symmetry_multiplicity
 _atom_site_fract_x
 _atom_site_fract_y
 _atom_site_fract_z
 _atom_site_occupancy
  Ca  Ca0  1  0.000000  0.323155  0.414713  1
  Ca  Ca1  1  0.000000  0.676845  0.585287  1
  Er  Er2  1  0.000000  0.821542  0.086180  1
  Er  Er3  1  0.000000  0.178458  0.913820  1
  Lu  Lu4  1  0.000000  0.942692  0.370371  1
  Lu  Lu5  1  0.000000  0.057308  0.629629  1
  Lu  Lu6  1  0.000000  0.443351  0.129399  1
  Lu  Lu7  1  0.000000  0.556649  0.870601  1
  B  B8  1  0.500000  0.554435  0.431813  1
  B  B9  1  0.500000  0.445565  0.568187  1
  B  B10  1  0.500000  0.053731  0.066357  1
  B  B11  1  0.500000  0.946269  0.933643  1
  B  B12  1  0.500000  0.749824  0.417143  1
  B  B13  1  0.500000  0.250176  0.582857  1
  B  B14  1  0.500000  0.249564  0.080748  1
  B  B15  1  0.500000  0.750436  0.919252  1
  B  B16  1  0.500000  0.792504  0.263840  1
  B  B17  1  0.500000  0.207496  0.736159  1
  B  B18  1  0.500000  0.291163  0.233606  1
  B  B19  1  0.500000  0.708837  0.766395  1
  B  B20  1  0.500000  0.631073  0.183919  1
  B  B21  1  0.500000  0.368927  0.816081  1
  B  B22  1  0.500000  0.129877  0.314000  1
  B  B23  1  0.500000  0.870123  0.686000  1
  B  B24  1  0.500000  0.982224  0.211726  1
  B  B25  1  0.500000  0.017776  0.788274  1
  B  B26  1  0.500000  0.483398  0.286622  1
  B  B27  1  0.500000  0.516602  0.713378  1
  B  B28  1  0.500000  0.601870  0.027873  1
  B  B29  1  0.500000  0.398130  0.972127  1
  B  B30  1  0.500000  0.097587  0.473151  1
  B  B31  1  0.500000  0.902413  0.526849  1
  Os  Os32  1  0.000000  0.641086  0.317124  1
  Os  Os33  1  0.000000  0.358914  0.682876  1
  Os  Os34  1  0.000000  0.137069  0.177746  1
  Os  Os35  1  0.000000  0.862931  0.822254  1
