# generated using pymatgen
data_PrSmY4CoI10
_symmetry_space_group_name_H-M   'P 1'
_cell_length_a   7.78553693
_cell_length_b   9.80143112
_cell_length_c   9.76766051
_cell_angle_alpha   106.86185083
_cell_angle_beta   96.30644322
_cell_angle_gamma   105.05830963
_symmetry_Int_Tables_number   1
_chemical_formula_structural   PrSmY4CoI10
_chemical_formula_sum   'Pr1 Sm1 Y4 Co1 I10'
_cell_volume   674.85042077
_cell_formula_units_Z   1
loop_
 _symmetry_equiv_pos_site_id
 _symmetry_equiv_pos_as_xyz
  1  'x, y, z'
loop_
 _atom_site_type_symbol
 _atom_site_label
 _atom_site_symmetry_multiplicity
 _atom_site_fract_x
 _atom_site_fract_y
 _atom_site_fract_z
 _atom_site_occupancy
  Pr  Pr0  1  0.886750  0.958028  0.232120  1
  Sm  Sm1  1  0.111811  0.041286  0.771372  1
  Y  Y2  1  0.030113  0.718193  0.914529  1
  Y  Y3  1  0.970210  0.281911  0.083728  1
  Y  Y4  1  0.657310  0.877788  0.836938  1
  Y  Y5  1  0.343406  0.122772  0.162326  1
  Co  Co6  1  0.000023  0.999869  0.999638  1
  I  I7  1  0.651240  0.552731  0.730032  1
  I  I8  1  0.348432  0.447346  0.270055  1
  I  I9  1  0.740095  0.912661  0.543913  1
  I  I10  1  0.265688  0.089415  0.460346  1
  I  I11  1  0.084710  0.373490  0.821099  1
  I  I12  1  0.916197  0.621744  0.176453  1
  I  I13  1  0.448002  0.815573  0.089628  1
  I  I14  1  0.547373  0.182662  0.907970  1
  I  I15  1  0.224548  0.743118  0.657114  1
  I  I16  1  0.774092  0.261414  0.342738  1
