# generated using pymatgen
data_Dy8Zr11Si16Tc
_symmetry_space_group_name_H-M   'P 1'
_cell_length_a   7.05950308
_cell_length_b   7.28373286
_cell_length_c   13.89712300
_cell_angle_alpha   90.00000000
_cell_angle_beta   90.00000000
_cell_angle_gamma   89.94055837
_symmetry_Int_Tables_number   1
_chemical_formula_structural   Dy8Zr11Si16Tc
_chemical_formula_sum   'Dy8 Zr11 Si16 Tc1'
_cell_volume   714.58321224
_cell_formula_units_Z   1
loop_
 _symmetry_equiv_pos_site_id
 _symmetry_equiv_pos_as_xyz
  1  'x, y, z'
loop_
 _atom_site_type_symbol
 _atom_site_label
 _atom_site_symmetry_multiplicity
 _atom_site_fract_x
 _atom_site_fract_y
 _atom_site_fract_z
 _atom_site_occupancy
  Dy  Dy0  1  0.012949  0.176801  0.094799  1
  Dy  Dy1  1  0.989488  0.822639  0.900527  1
  Dy  Dy2  1  0.486199  0.673839  0.901352  1
  Dy  Dy3  1  0.989488  0.822639  0.599473  1
  Dy  Dy4  1  0.513656  0.323705  0.095696  1
  Dy  Dy5  1  0.012949  0.176801  0.405201  1
  Dy  Dy6  1  0.513656  0.323705  0.404304  1
  Dy  Dy7  1  0.486199  0.673839  0.598648  1
  Zr  Zr8  1  0.844545  0.500868  0.250000  1
  Zr  Zr9  1  0.343173  0.997870  0.250000  1
  Zr  Zr10  1  0.656105  0.002010  0.750000  1
  Zr  Zr11  1  0.326385  0.178029  0.626146  1
  Zr  Zr12  1  0.670845  0.823708  0.375611  1
  Zr  Zr13  1  0.171510  0.676539  0.376895  1
  Zr  Zr14  1  0.670845  0.823708  0.124389  1
  Zr  Zr15  1  0.829286  0.326451  0.626829  1
  Zr  Zr16  1  0.326385  0.178029  0.873854  1
  Zr  Zr17  1  0.829286  0.326451  0.873171  1
  Zr  Zr18  1  0.171510  0.676539  0.123105  1
  Si  Si19  1  0.033584  0.117217  0.750000  1
  Si  Si20  1  0.967189  0.880726  0.250000  1
  Si  Si21  1  0.467434  0.616346  0.250000  1
  Si  Si22  1  0.523348  0.388519  0.750000  1
  Si  Si23  1  0.283466  0.865804  0.750000  1
  Si  Si24  1  0.718715  0.128383  0.250000  1
  Si  Si25  1  0.216773  0.371442  0.250000  1
  Si  Si26  1  0.792569  0.626762  0.750000  1
  Si  Si27  1  0.154705  0.468878  0.545468  1
  Si  Si28  1  0.842883  0.534227  0.461727  1
  Si  Si29  1  0.344709  0.969030  0.460256  1
  Si  Si30  1  0.842883  0.534227  0.038273  1
  Si  Si31  1  0.657399  0.032805  0.541029  1
  Si  Si32  1  0.154705  0.468878  0.954532  1
  Si  Si33  1  0.657399  0.032805  0.958971  1
  Si  Si34  1  0.344709  0.969030  0.039744  1
  Tc  Tc35  1  0.153071  0.490754  0.750000  1
