# generated using pymatgen
data_Ce2Fe5P6Ru5
_symmetry_space_group_name_H-M   'P 1'
_cell_length_a   3.78606000
_cell_length_b   10.57071900
_cell_length_c   12.13539500
_cell_angle_alpha   90.00000000
_cell_angle_beta   90.00000000
_cell_angle_gamma   90.00000000
_symmetry_Int_Tables_number   1
_chemical_formula_structural   Ce2Fe5P6Ru5
_chemical_formula_sum   'Ce4 Fe10 P12 Ru10'
_cell_volume   485.67521078
_cell_formula_units_Z   2
loop_
 _symmetry_equiv_pos_site_id
 _symmetry_equiv_pos_as_xyz
  1  'x, y, z'
loop_
 _atom_site_type_symbol
 _atom_site_label
 _atom_site_symmetry_multiplicity
 _atom_site_fract_x
 _atom_site_fract_y
 _atom_site_fract_z
 _atom_site_occupancy
  Ce  Ce0  1  0.250000  0.585462  0.708782  1
  Ce  Ce1  1  0.250000  0.914538  0.208782  1
  Ce  Ce2  1  0.750000  0.421999  0.293297  1
  Ce  Ce3  1  0.750000  0.078001  0.793297  1
  Fe  Fe4  1  0.750000  0.773566  0.826361  1
  Fe  Fe5  1  0.750000  0.726434  0.326361  1
  Fe  Fe6  1  0.250000  0.881097  0.698510  1
  Fe  Fe7  1  0.250000  0.618903  0.198510  1
  Fe  Fe8  1  0.750000  0.113805  0.301568  1
  Fe  Fe9  1  0.750000  0.386195  0.801568  1
  Fe  Fe10  1  0.250000  0.463267  0.934724  1
  Fe  Fe11  1  0.250000  0.036733  0.434724  1
  Fe  Fe12  1  0.750000  0.536593  0.064729  1
  Fe  Fe13  1  0.750000  0.963407  0.564729  1
  P  P14  1  0.250000  0.431357  0.110358  1
  P  P15  1  0.250000  0.068643  0.610358  1
  P  P16  1  0.750000  0.575072  0.888748  1
  P  P17  1  0.750000  0.924928  0.388748  1
  P  P18  1  0.250000  0.275317  0.866428  1
  P  P19  1  0.250000  0.224683  0.366428  1
  P  P20  1  0.750000  0.721536  0.141203  1
  P  P21  1  0.750000  0.778464  0.641203  1
  P  P22  1  0.250000  0.611819  0.385059  1
  P  P23  1  0.250000  0.888181  0.885059  1
  P  P24  1  0.750000  0.396914  0.611340  1
  P  P25  1  0.750000  0.103086  0.111340  1
  Ru  Ru26  1  0.250000  0.700924  0.985105  1
  Ru  Ru27  1  0.250000  0.799076  0.485105  1
  Ru  Ru28  1  0.750000  0.295637  0.009414  1
  Ru  Ru29  1  0.750000  0.204363  0.509414  1
  Ru  Ru30  1  0.250000  0.407811  0.482403  1
  Ru  Ru31  1  0.250000  0.092189  0.982403  1
  Ru  Ru32  1  0.750000  0.601417  0.516446  1
  Ru  Ru33  1  0.750000  0.898583  0.016446  1
  Ru  Ru34  1  0.250000  0.226670  0.175528  1
  Ru  Ru35  1  0.250000  0.273330  0.675528  1
