# generated using pymatgen
data_La4Nd8Ru(RhBr4)3
_symmetry_space_group_name_H-M   'P 1'
_cell_length_a   10.50005891
_cell_length_b   10.50425205
_cell_length_c   10.50425161
_cell_angle_alpha   108.17803713
_cell_angle_beta   110.04312317
_cell_angle_gamma   110.04312786
_symmetry_Int_Tables_number   1
_chemical_formula_structural   La4Nd8Ru(RhBr4)3
_chemical_formula_sum   'La4 Nd8 Ru1 Rh3 Br12'
_cell_volume   893.27171805
_cell_formula_units_Z   1
loop_
 _symmetry_equiv_pos_site_id
 _symmetry_equiv_pos_as_xyz
  1  'x, y, z'
loop_
 _atom_site_type_symbol
 _atom_site_label
 _atom_site_symmetry_multiplicity
 _atom_site_fract_x
 _atom_site_fract_y
 _atom_site_fract_z
 _atom_site_occupancy
  La  La0  1  0.750000  0.233445  0.266555  1
  La  La1  1  0.750000  0.015804  0.484196  1
  La  La2  1  0.466498  0.480356  0.235470  1
  La  La3  1  0.033502  0.264530  0.019644  1
  Nd  Nd4  1  0.266990  0.754321  0.235210  1
  Nd  Nd5  1  0.481476  0.745752  0.012466  1
  Nd  Nd6  1  0.234815  0.468883  0.485362  1
  Nd  Nd7  1  0.021125  0.031042  0.262688  1
  Nd  Nd8  1  0.233010  0.264790  0.745679  1
  Nd  Nd9  1  0.018524  0.487534  0.754248  1
  Nd  Nd10  1  0.478875  0.237312  0.468958  1
  Nd  Nd11  1  0.265185  0.014638  0.031117  1
  Ru  Ru12  1  0.250000  0.252635  0.247365  1
  Rh  Rh13  1  0.503355  0.001406  0.251611  1
  Rh  Rh14  1  0.250000  0.499788  0.000212  1
  Rh  Rh15  1  0.996645  0.248389  0.498594  1
  Br  Br16  1  0.250000  0.994058  0.505942  1
  Br  Br17  1  0.512083  0.506313  0.756331  1
  Br  Br18  1  0.250000  0.755209  0.744791  1
  Br  Br19  1  0.987917  0.743669  0.993687  1
  Br  Br20  1  0.998531  0.509389  0.253352  1
  Br  Br21  1  0.743862  0.990550  0.989508  1
  Br  Br22  1  0.754942  0.746001  0.246934  1
  Br  Br23  1  0.501495  0.754836  0.510858  1
  Br  Br24  1  0.501469  0.246648  0.990611  1
  Br  Br25  1  0.756138  0.510492  0.509450  1
  Br  Br26  1  0.745058  0.253066  0.753999  1
  Br  Br27  1  0.998505  0.989142  0.745164  1
