# generated using pymatgen
data_LuTiCo4As3
_symmetry_space_group_name_H-M   'P 1'
_cell_length_a   3.76963500
_cell_length_b   10.79009300
_cell_length_c   12.35727100
_cell_angle_alpha   90.00000000
_cell_angle_beta   90.00000000
_cell_angle_gamma   90.00000000
_symmetry_Int_Tables_number   1
_chemical_formula_structural   LuTiCo4As3
_chemical_formula_sum   'Lu4 Ti4 Co16 As12'
_cell_volume   502.62844182
_cell_formula_units_Z   4
loop_
 _symmetry_equiv_pos_site_id
 _symmetry_equiv_pos_as_xyz
  1  'x, y, z'
loop_
 _atom_site_type_symbol
 _atom_site_label
 _atom_site_symmetry_multiplicity
 _atom_site_fract_x
 _atom_site_fract_y
 _atom_site_fract_z
 _atom_site_occupancy
  Lu  Lu0  1  0.250000  0.579163  0.706458  1
  Lu  Lu1  1  0.250000  0.920837  0.206458  1
  Lu  Lu2  1  0.750000  0.420837  0.293542  1
  Lu  Lu3  1  0.750000  0.079163  0.793542  1
  Ti  Ti4  1  0.250000  0.700489  0.991505  1
  Ti  Ti5  1  0.250000  0.799511  0.491505  1
  Ti  Ti6  1  0.750000  0.299511  0.008495  1
  Ti  Ti7  1  0.750000  0.200489  0.508495  1
  Co  Co8  1  0.250000  0.405537  0.487871  1
  Co  Co9  1  0.250000  0.094463  0.987871  1
  Co  Co10  1  0.750000  0.594463  0.512129  1
  Co  Co11  1  0.750000  0.905537  0.012129  1
  Co  Co12  1  0.250000  0.216911  0.175528  1
  Co  Co13  1  0.250000  0.283089  0.675528  1
  Co  Co14  1  0.750000  0.783089  0.824472  1
  Co  Co15  1  0.750000  0.716911  0.324472  1
  Co  Co16  1  0.250000  0.885143  0.699109  1
  Co  Co17  1  0.250000  0.614857  0.199109  1
  Co  Co18  1  0.750000  0.114857  0.300891  1
  Co  Co19  1  0.750000  0.385143  0.800891  1
  Co  Co20  1  0.250000  0.464443  0.933462  1
  Co  Co21  1  0.250000  0.035557  0.433462  1
  Co  Co22  1  0.750000  0.535557  0.066538  1
  Co  Co23  1  0.750000  0.964443  0.566538  1
  As  As24  1  0.250000  0.419036  0.118356  1
  As  As25  1  0.250000  0.080964  0.618356  1
  As  As26  1  0.750000  0.580964  0.881644  1
  As  As27  1  0.750000  0.919036  0.381644  1
  As  As28  1  0.250000  0.264128  0.862632  1
  As  As29  1  0.250000  0.235872  0.362632  1
  As  As30  1  0.750000  0.735872  0.137368  1
  As  As31  1  0.750000  0.764128  0.637368  1
  As  As32  1  0.250000  0.591934  0.389290  1
  As  As33  1  0.250000  0.908066  0.889290  1
  As  As34  1  0.750000  0.408066  0.610710  1
  As  As35  1  0.750000  0.091934  0.110710  1
