# generated using pymatgen
data_Y5Al2GeC4
_symmetry_space_group_name_H-M   'P 1'
_cell_length_a   10.81175700
_cell_length_b   10.81175700
_cell_length_c   3.53633100
_cell_angle_alpha   90.00000000
_cell_angle_beta   90.00000000
_cell_angle_gamma   90.00000000
_symmetry_Int_Tables_number   1
_chemical_formula_structural   Y5Al2GeC4
_chemical_formula_sum   'Y10 Al4 Ge2 C8'
_cell_volume   413.37619216
_cell_formula_units_Z   2
loop_
 _symmetry_equiv_pos_site_id
 _symmetry_equiv_pos_as_xyz
  1  'x, y, z'
loop_
 _atom_site_type_symbol
 _atom_site_label
 _atom_site_symmetry_multiplicity
 _atom_site_fract_x
 _atom_site_fract_y
 _atom_site_fract_z
 _atom_site_occupancy
  Y  Y0  1  0.550983  0.725873  0.500000  1
  Y  Y1  1  0.449017  0.274127  0.500000  1
  Y  Y2  1  0.050983  0.774127  0.500000  1
  Y  Y3  1  0.949017  0.225873  0.500000  1
  Y  Y4  1  0.274127  0.550983  0.500000  1
  Y  Y5  1  0.725873  0.449017  0.500000  1
  Y  Y6  1  0.225873  0.050983  0.500000  1
  Y  Y7  1  0.774127  0.949017  0.500000  1
  Y  Y8  1  0.500000  0.000000  0.000000  1
  Y  Y9  1  0.000000  0.500000  0.000000  1
  Al  Al10  1  0.703536  0.203536  0.000000  1
  Al  Al11  1  0.296464  0.796464  0.000000  1
  Al  Al12  1  0.203536  0.296464  0.000000  1
  Al  Al13  1  0.796464  0.703536  0.000000  1
  Ge  Ge14  1  0.500000  0.500000  0.000000  1
  Ge  Ge15  1  0.000000  0.000000  0.000000  1
  C  C16  1  0.634284  0.134284  0.500000  1
  C  C17  1  0.365716  0.865716  0.500000  1
  C  C18  1  0.134284  0.365716  0.500000  1
  C  C19  1  0.865716  0.634284  0.500000  1
  C  C20  1  0.163302  0.663302  0.000000  1
  C  C21  1  0.836698  0.336698  0.000000  1
  C  C22  1  0.663302  0.836698  0.000000  1
  C  C23  1  0.336698  0.163302  0.000000  1
