# generated using pymatgen
data_TbHoEr8(In2Pt)4
_symmetry_space_group_name_H-M   'P 1'
_cell_length_a   3.60299800
_cell_length_b   8.12972017
_cell_length_c   18.19452638
_cell_angle_alpha   90.02332343
_cell_angle_beta   90.00000000
_cell_angle_gamma   90.00000000
_symmetry_Int_Tables_number   1
_chemical_formula_structural   TbHoEr8(In2Pt)4
_chemical_formula_sum   'Tb1 Ho1 Er8 In8 Pt4'
_cell_volume   532.94247818
_cell_formula_units_Z   1
loop_
 _symmetry_equiv_pos_site_id
 _symmetry_equiv_pos_as_xyz
  1  'x, y, z'
loop_
 _atom_site_type_symbol
 _atom_site_label
 _atom_site_symmetry_multiplicity
 _atom_site_fract_x
 _atom_site_fract_y
 _atom_site_fract_z
 _atom_site_occupancy
  Tb  Tb0  1  0.000000  0.500000  0.500000  1
  Ho  Ho1  1  0.000000  0.000000  0.000000  1
  Er  Er2  1  0.000000  0.116914  0.414516  1
  Er  Er3  1  0.000000  0.883086  0.585484  1
  Er  Er4  1  0.000000  0.383382  0.914597  1
  Er  Er5  1  0.000000  0.616618  0.085403  1
  Er  Er6  1  0.000000  0.243018  0.220384  1
  Er  Er7  1  0.000000  0.756982  0.779616  1
  Er  Er8  1  0.000000  0.256869  0.720452  1
  Er  Er9  1  0.000000  0.743131  0.279548  1
  In  In10  1  0.500000  0.423080  0.350736  1
  In  In11  1  0.500000  0.576920  0.649264  1
  In  In12  1  0.500000  0.076714  0.851186  1
  In  In13  1  0.500000  0.923286  0.148814  1
  In  In14  1  0.500000  0.292874  0.066585  1
  In  In15  1  0.500000  0.707126  0.933415  1
  In  In16  1  0.500000  0.206162  0.566847  1
  In  In17  1  0.500000  0.793838  0.433153  1
  Pt  Pt18  1  0.500000  0.025092  0.303423  1
  Pt  Pt19  1  0.500000  0.974908  0.696577  1
  Pt  Pt20  1  0.500000  0.474893  0.803569  1
  Pt  Pt21  1  0.500000  0.525107  0.196431  1
