# generated using pymatgen
data_Tb18Dy2Co3TcBi8
_symmetry_space_group_name_H-M   'P 1'
_cell_length_a   8.03508922
_cell_length_b   8.94710424
_cell_length_c   12.46644637
_cell_angle_alpha   89.98761744
_cell_angle_beta   90.22833810
_cell_angle_gamma   89.97654730
_symmetry_Int_Tables_number   1
_chemical_formula_structural   Tb18Dy2Co3TcBi8
_chemical_formula_sum   'Tb18 Dy2 Co3 Tc1 Bi8'
_cell_volume   896.21535025
_cell_formula_units_Z   1
loop_
 _symmetry_equiv_pos_site_id
 _symmetry_equiv_pos_as_xyz
  1  'x, y, z'
loop_
 _atom_site_type_symbol
 _atom_site_label
 _atom_site_symmetry_multiplicity
 _atom_site_fract_x
 _atom_site_fract_y
 _atom_site_fract_z
 _atom_site_occupancy
  Tb  Tb0  1  0.846568  0.750059  0.798315  1
  Tb  Tb1  1  0.150822  0.249931  0.198955  1
  Tb  Tb2  1  0.348091  0.249788  0.699740  1
  Tb  Tb3  1  0.651582  0.750095  0.294695  1
  Tb  Tb4  1  0.381090  0.750242  0.693695  1
  Tb  Tb5  1  0.618323  0.249704  0.308899  1
  Tb  Tb6  1  0.881029  0.249951  0.809755  1
  Tb  Tb7  1  0.117139  0.750021  0.188113  1
  Tb  Tb8  1  0.948282  0.750224  0.503875  1
  Tb  Tb9  1  0.050200  0.249839  0.496135  1
  Tb  Tb10  1  0.451987  0.249975  0.997106  1
  Tb  Tb11  1  0.548813  0.750032  0.003191  1
  Tb  Tb12  1  0.176076  0.965496  0.936840  1
  Tb  Tb13  1  0.324301  0.533354  0.437919  1
  Tb  Tb14  1  0.822622  0.036723  0.063073  1
  Tb  Tb15  1  0.678823  0.456571  0.565089  1
  Tb  Tb16  1  0.822630  0.463333  0.063047  1
  Tb  Tb17  1  0.176086  0.534462  0.936884  1
  Dy  Dy18  1  0.677951  0.043596  0.564910  1
  Dy  Dy19  1  0.325217  0.966630  0.438055  1
  Co  Co20  1  0.429342  0.249633  0.489324  1
  Co  Co21  1  0.060628  0.250027  0.991479  1
  Co  Co22  1  0.937030  0.749966  0.007084  1
  Tc  Tc23  1  0.575909  0.750343  0.512454  1
  Bi  Bi24  1  0.572331  0.492015  0.827203  1
  Bi  Bi25  1  0.425857  0.507422  0.173194  1
  Bi  Bi26  1  0.073784  0.507822  0.673910  1
  Bi  Bi27  1  0.425788  0.992554  0.173300  1
  Bi  Bi28  1  0.927735  0.492423  0.326356  1
  Bi  Bi29  1  0.572430  0.007999  0.827103  1
  Bi  Bi30  1  0.928067  0.007553  0.326477  1
  Bi  Bi31  1  0.073467  0.992221  0.673820  1
