# generated using pymatgen
data_Hf12Co5Tc6Os
_symmetry_space_group_name_H-M   'P 1'
_cell_length_a   4.54818700
_cell_length_b   6.46349000
_cell_length_c   13.66472500
_cell_angle_alpha   89.99991375
_cell_angle_beta   89.99829639
_cell_angle_gamma   90.00002146
_symmetry_Int_Tables_number   1
_chemical_formula_structural   Hf12Co5Tc6Os
_chemical_formula_sum   'Hf12 Co5 Tc6 Os1'
_cell_volume   401.70412339
_cell_formula_units_Z   1
loop_
 _symmetry_equiv_pos_site_id
 _symmetry_equiv_pos_as_xyz
  1  'x, y, z'
loop_
 _atom_site_type_symbol
 _atom_site_label
 _atom_site_symmetry_multiplicity
 _atom_site_fract_x
 _atom_site_fract_y
 _atom_site_fract_z
 _atom_site_occupancy
  Hf  Hf0  1  0.500002  0.250883  0.000000  1
  Hf  Hf1  1  0.500000  0.749117  0.000000  1
  Hf  Hf2  1  0.999763  0.251193  0.167342  1
  Hf  Hf3  1  0.999762  0.748808  0.167342  1
  Hf  Hf4  1  0.499756  0.249360  0.333537  1
  Hf  Hf5  1  0.499756  0.750641  0.333537  1
  Hf  Hf6  1  0.000001  0.250344  0.500000  1
  Hf  Hf7  1  0.999999  0.749657  0.500000  1
  Hf  Hf8  1  0.500244  0.249360  0.666463  1
  Hf  Hf9  1  0.500244  0.750641  0.666463  1
  Hf  Hf10  1  0.000237  0.251193  0.832657  1
  Hf  Hf11  1  0.000236  0.748808  0.832657  1
  Co  Co12  1  0.499656  0.500000  0.167483  1
  Co  Co13  1  0.999662  0.000000  0.333521  1
  Co  Co14  1  0.500001  0.500000  0.500000  1
  Co  Co15  1  0.000338  0.000000  0.666479  1
  Co  Co16  1  0.500344  0.500000  0.832517  1
  Tc  Tc17  1  0.000000  0.500000  0.000000  1
  Tc  Tc18  1  0.499736  0.000000  0.169097  1
  Tc  Tc19  1  0.999698  0.500000  0.334540  1
  Tc  Tc20  1  0.500001  0.000000  0.500000  1
  Tc  Tc21  1  0.000302  0.500000  0.665460  1
  Tc  Tc22  1  0.500264  0.000000  0.830903  1
  Os  Os23  1  0.000000  0.000000  0.000000  1
