# generated using pymatgen
data_Yb8As5Br
_symmetry_space_group_name_H-M   'P 1'
_cell_length_a   7.73969209
_cell_length_b   7.73969185
_cell_length_c   7.73969201
_cell_angle_alpha   109.40608239
_cell_angle_beta   109.60157646
_cell_angle_gamma   109.40608280
_symmetry_Int_Tables_number   1
_chemical_formula_structural   Yb8As5Br
_chemical_formula_sum   'Yb8 As5 Br1'
_cell_volume   356.90074022
_cell_formula_units_Z   1
loop_
 _symmetry_equiv_pos_site_id
 _symmetry_equiv_pos_as_xyz
  1  'x, y, z'
loop_
 _atom_site_type_symbol
 _atom_site_label
 _atom_site_symmetry_multiplicity
 _atom_site_fract_x
 _atom_site_fract_y
 _atom_site_fract_z
 _atom_site_occupancy
  Yb  Yb0  1  0.152313  0.507016  0.995292  1
  Yb  Yb1  1  0.484399  0.990310  0.617814  1
  Yb  Yb2  1  0.382186  0.366585  0.372496  1
  Yb  Yb3  1  0.005911  0.133415  0.515601  1
  Yb  Yb4  1  0.854703  0.842979  0.847687  1
  Yb  Yb5  1  0.004708  0.657021  0.511724  1
  Yb  Yb6  1  0.627504  0.509690  0.994089  1
  Yb  Yb7  1  0.488276  0.992984  0.145297  1
  As  As8  1  0.111467  0.865951  0.242243  1
  As  As9  1  0.376292  0.634049  0.745517  1
  As  As10  1  0.254483  0.130775  0.888533  1
  As  As11  1  0.757757  0.369225  0.623708  1
  As  As12  1  0.625000  0.750000  0.375000  1
  Br  Br13  1  0.875000  0.250000  0.125000  1
