# generated using pymatgen
data_Re5TcPdRh
_symmetry_space_group_name_H-M   'P 1'
_cell_length_a   5.57487501
_cell_length_b   5.57487536
_cell_length_c   4.41305300
_cell_angle_alpha   90.00000000
_cell_angle_beta   90.00000000
_cell_angle_gamma   119.99278877
_symmetry_Int_Tables_number   1
_chemical_formula_structural   Re5TcPdRh
_chemical_formula_sum   'Re5 Tc1 Pd1 Rh1'
_cell_volume   118.78774155
_cell_formula_units_Z   1
loop_
 _symmetry_equiv_pos_site_id
 _symmetry_equiv_pos_as_xyz
  1  'x, y, z'
loop_
 _atom_site_type_symbol
 _atom_site_label
 _atom_site_symmetry_multiplicity
 _atom_site_fract_x
 _atom_site_fract_y
 _atom_site_fract_z
 _atom_site_occupancy
  Re  Re0  1  0.160898  0.318749  0.250000  1
  Re  Re1  1  0.681251  0.839102  0.250000  1
  Re  Re2  1  0.840678  0.680634  0.750000  1
  Re  Re3  1  0.319366  0.159322  0.750000  1
  Re  Re4  1  0.840477  0.159523  0.750000  1
  Tc  Tc5  1  0.159084  0.840916  0.250000  1
  Pd  Pd6  1  0.332405  0.667595  0.750000  1
  Rh  Rh7  1  0.665842  0.334158  0.250000  1
