# generated using pymatgen
data_Na10HfSnP6
_symmetry_space_group_name_H-M   'P 1'
_cell_length_a   7.45958100
_cell_length_b   8.31402362
_cell_length_c   15.80713013
_cell_angle_alpha   57.84239877
_cell_angle_beta   90.00000000
_cell_angle_gamma   90.00000000
_symmetry_Int_Tables_number   1
_chemical_formula_structural   Na10HfSnP6
_chemical_formula_sum   'Na20 Hf2 Sn2 P12'
_cell_volume   829.94716559
_cell_formula_units_Z   2
loop_
 _symmetry_equiv_pos_site_id
 _symmetry_equiv_pos_as_xyz
  1  'x, y, z'
loop_
 _atom_site_type_symbol
 _atom_site_label
 _atom_site_symmetry_multiplicity
 _atom_site_fract_x
 _atom_site_fract_y
 _atom_site_fract_z
 _atom_site_occupancy
  Na  Na0  1  0.493692  0.090267  0.238815  1
  Na  Na1  1  0.993692  0.909733  0.261185  1
  Na  Na2  1  0.505796  0.911684  0.759021  1
  Na  Na3  1  0.005796  0.088316  0.740979  1
  Na  Na4  1  0.040884  0.411847  0.412203  1
  Na  Na5  1  0.540884  0.588153  0.087797  1
  Na  Na6  1  0.966107  0.589224  0.587809  1
  Na  Na7  1  0.466107  0.410776  0.912191  1
  Na  Na8  1  0.517330  0.253301  0.409135  1
  Na  Na9  1  0.017330  0.746699  0.090865  1
  Na  Na10  1  0.477373  0.749165  0.589817  1
  Na  Na11  1  0.977373  0.250835  0.910183  1
  Na  Na12  1  0.658164  0.991847  0.083734  1
  Na  Na13  1  0.158164  0.008153  0.416266  1
  Na  Na14  1  0.339347  0.003385  0.919312  1
  Na  Na15  1  0.839347  0.996615  0.580688  1
  Na  Na16  1  0.853701  0.316552  0.260693  1
  Na  Na17  1  0.353701  0.683448  0.239307  1
  Na  Na18  1  0.144376  0.686505  0.742608  1
  Na  Na19  1  0.644376  0.313495  0.757392  1
  Hf  Hf20  1  0.639542  0.651617  0.417280  1
  Hf  Hf21  1  0.139542  0.348383  0.082720  1
  Sn  Sn22  1  0.358785  0.343726  0.585686  1
  Sn  Sn23  1  0.858785  0.656274  0.914314  1
  P  P24  1  0.711063  0.332049  0.573288  1
  P  P25  1  0.211063  0.667951  0.926712  1
  P  P26  1  0.298833  0.671085  0.423965  1
  P  P27  1  0.798833  0.328915  0.076035  1
  P  P28  1  0.761256  0.931268  0.419980  1
  P  P29  1  0.261256  0.068732  0.080020  1
  P  P30  1  0.236555  0.063967  0.580305  1
  P  P31  1  0.736555  0.936033  0.919695  1
  P  P32  1  0.737795  0.639796  0.269065  1
  P  P33  1  0.237795  0.360204  0.230935  1
  P  P34  1  0.259402  0.364797  0.732950  1
  P  P35  1  0.759402  0.635203  0.767050  1
