# generated using pymatgen
data_Tb5Nd3Cd2OsPt
_symmetry_space_group_name_H-M   'P 1'
_cell_length_a   9.79801479
_cell_length_b   9.79801445
_cell_length_c   9.84441400
_cell_angle_alpha   59.84321658
_cell_angle_beta   59.84321771
_cell_angle_gamma   59.86485136
_symmetry_Int_Tables_number   1
_chemical_formula_structural   Tb5Nd3Cd2OsPt
_chemical_formula_sum   'Tb10 Nd6 Cd4 Os2 Pt2'
_cell_volume   666.00018132
_cell_formula_units_Z   2
loop_
 _symmetry_equiv_pos_site_id
 _symmetry_equiv_pos_as_xyz
  1  'x, y, z'
loop_
 _atom_site_type_symbol
 _atom_site_label
 _atom_site_symmetry_multiplicity
 _atom_site_fract_x
 _atom_site_fract_y
 _atom_site_fract_z
 _atom_site_occupancy
  Tb  Tb0  1  0.348561  0.348561  0.351850  1
  Tb  Tb1  1  0.348561  0.348561  0.951028  1
  Tb  Tb2  1  0.344826  0.958143  0.348516  1
  Tb  Tb3  1  0.958143  0.344826  0.348516  1
  Tb  Tb4  1  0.816202  0.186421  0.189570  1
  Tb  Tb5  1  0.186421  0.816202  0.807808  1
  Tb  Tb6  1  0.186421  0.816202  0.189570  1
  Tb  Tb7  1  0.816202  0.186421  0.807808  1
  Tb  Tb8  1  0.187255  0.187255  0.812745  1
  Tb  Tb9  1  0.808931  0.808931  0.191069  1
  Nd  Nd10  1  0.940751  0.553763  0.563515  1
  Nd  Nd11  1  0.553763  0.940751  0.941971  1
  Nd  Nd12  1  0.553763  0.940751  0.563515  1
  Nd  Nd13  1  0.940751  0.553763  0.941971  1
  Nd  Nd14  1  0.560964  0.560964  0.939036  1
  Nd  Nd15  1  0.942142  0.942142  0.557858  1
  Cd  Cd16  1  0.579211  0.579211  0.580042  1
  Cd  Cd17  1  0.579211  0.579211  0.261538  1
  Cd  Cd18  1  0.580110  0.259660  0.580116  1
  Cd  Cd19  1  0.259660  0.580110  0.580116  1
  Os  Os20  1  0.143994  0.143994  0.137011  1
  Os  Os21  1  0.143994  0.143994  0.575000  1
  Pt  Pt22  1  0.144448  0.575720  0.139916  1
  Pt  Pt23  1  0.575720  0.144448  0.139916  1
