# generated using pymatgen
data_Sc8Si4IrPt13
_symmetry_space_group_name_H-M   'P 1'
_cell_length_a   4.02678800
_cell_length_b   6.54190935
_cell_length_c   16.31644001
_cell_angle_alpha   90.31301144
_cell_angle_beta   90.00000000
_cell_angle_gamma   90.00000000
_symmetry_Int_Tables_number   1
_chemical_formula_structural   Sc8Si4IrPt13
_chemical_formula_sum   'Sc8 Si4 Ir1 Pt13'
_cell_volume   429.81564089
_cell_formula_units_Z   1
loop_
 _symmetry_equiv_pos_site_id
 _symmetry_equiv_pos_as_xyz
  1  'x, y, z'
loop_
 _atom_site_type_symbol
 _atom_site_label
 _atom_site_symmetry_multiplicity
 _atom_site_fract_x
 _atom_site_fract_y
 _atom_site_fract_z
 _atom_site_occupancy
  Sc  Sc0  1  0.000000  0.281288  0.458567  1
  Sc  Sc1  1  0.000000  0.712857  0.536495  1
  Sc  Sc2  1  0.000000  0.785840  0.039769  1
  Sc  Sc3  1  0.000000  0.214883  0.961286  1
  Sc  Sc4  1  0.000000  0.532192  0.292008  1
  Sc  Sc5  1  0.000000  0.475084  0.708630  1
  Sc  Sc6  1  0.000000  0.028110  0.212341  1
  Sc  Sc7  1  0.000000  0.972254  0.790590  1
  Si  Si8  1  0.500000  0.841901  0.307506  1
  Si  Si9  1  0.500000  0.159687  0.692443  1
  Si  Si10  1  0.500000  0.339684  0.194110  1
  Si  Si11  1  0.500000  0.661207  0.807120  1
  Ir  Ir12  1  0.000000  0.902852  0.380891  1
  Pt  Pt13  1  0.000000  0.091909  0.617541  1
  Pt  Pt14  1  0.000000  0.408102  0.118060  1
  Pt  Pt15  1  0.000000  0.591379  0.882165  1
  Pt  Pt16  1  0.500000  0.597872  0.421815  1
  Pt  Pt17  1  0.500000  0.402865  0.578642  1
  Pt  Pt18  1  0.500000  0.094794  0.079745  1
  Pt  Pt19  1  0.500000  0.906130  0.920861  1
  Pt  Pt20  1  0.500000  0.500353  0.000251  1
  Pt  Pt21  1  0.500000  0.999976  0.498516  1
  Pt  Pt22  1  0.500000  0.214035  0.333273  1
  Pt  Pt23  1  0.500000  0.784746  0.667555  1
  Pt  Pt24  1  0.500000  0.714472  0.168244  1
  Pt  Pt25  1  0.500000  0.285527  0.831578  1
