# generated using pymatgen
data_Lu12Co4AgRu
_symmetry_space_group_name_H-M   'P 1'
_cell_length_a   8.09130669
_cell_length_b   8.09130732
_cell_length_c   8.09130638
_cell_angle_alpha   111.18584677
_cell_angle_beta   111.40546750
_cell_angle_gamma   105.88099862
_symmetry_Int_Tables_number   1
_chemical_formula_structural   Lu12Co4AgRu
_chemical_formula_sum   'Lu12 Co4 Ag1 Ru1'
_cell_volume   406.59488737
_cell_formula_units_Z   1
loop_
 _symmetry_equiv_pos_site_id
 _symmetry_equiv_pos_as_xyz
  1  'x, y, z'
loop_
 _atom_site_type_symbol
 _atom_site_label
 _atom_site_symmetry_multiplicity
 _atom_site_fract_x
 _atom_site_fract_y
 _atom_site_fract_z
 _atom_site_occupancy
  Lu  Lu0  1  0.417053  0.223433  0.193620  1
  Lu  Lu1  1  0.582947  0.776567  0.806380  1
  Lu  Lu2  1  0.029812  0.223433  0.806380  1
  Lu  Lu3  1  0.970188  0.776567  0.193620  1
  Lu  Lu4  1  0.183552  0.278816  0.462368  1
  Lu  Lu5  1  0.816448  0.721184  0.537632  1
  Lu  Lu6  1  0.183552  0.721184  0.904737  1
  Lu  Lu7  1  0.816448  0.278816  0.095263  1
  Lu  Lu8  1  0.312983  0.621080  0.308096  1
  Lu  Lu9  1  0.687017  0.378920  0.691904  1
  Lu  Lu10  1  0.312983  0.004887  0.691904  1
  Lu  Lu11  1  0.687017  0.995113  0.308096  1
  Co  Co12  1  0.371591  0.000000  0.371591  1
  Co  Co13  1  0.628409  0.000000  0.628409  1
  Co  Co14  1  0.112993  0.612993  0.500000  1
  Co  Co15  1  0.887007  0.387007  0.500000  1
  Ag  Ag16  1  0.500000  0.500000  0.000000  1
  Ru  Ru17  1  0.000000  0.000000  0.000000  1
