# generated using pymatgen
data_Li4OsO6
_symmetry_space_group_name_H-M   'P 1'
_cell_length_a   5.02150646
_cell_length_b   5.02150597
_cell_length_c   5.21172681
_cell_angle_alpha   77.33727288
_cell_angle_beta   77.33728188
_cell_angle_gamma   115.71108878
_symmetry_Int_Tables_number   1
_chemical_formula_structural   Li4OsO6
_chemical_formula_sum   'Li4 Os1 O6'
_cell_volume   107.88853285
_cell_formula_units_Z   1
loop_
 _symmetry_equiv_pos_site_id
 _symmetry_equiv_pos_as_xyz
  1  'x, y, z'
loop_
 _atom_site_type_symbol
 _atom_site_label
 _atom_site_symmetry_multiplicity
 _atom_site_fract_x
 _atom_site_fract_y
 _atom_site_fract_z
 _atom_site_occupancy
  Li  Li0  1  0.818181  0.181819  0.500000  1
  Li  Li1  1  0.341392  0.658608  0.000000  1
  Li  Li2  1  0.658608  0.341392  0.000000  1
  Li  Li3  1  0.181819  0.818181  0.500000  1
  Os  Os4  1  0.000000  0.000000  0.000000  1
  O  O5  1  0.383472  0.067280  0.768843  1
  O  O6  1  0.932720  0.616528  0.231157  1
  O  O7  1  0.067280  0.383472  0.768843  1
  O  O8  1  0.616528  0.932720  0.231157  1
  O  O9  1  0.789936  0.789936  0.785100  1
  O  O10  1  0.210064  0.210064  0.214900  1
