# generated using pymatgen
data_Hf6CoTc6As5
_symmetry_space_group_name_H-M   'P 1'
_cell_length_a   7.75719242
_cell_length_b   7.75943117
_cell_length_c   7.75719339
_cell_angle_alpha   127.31195946
_cell_angle_beta   124.42739881
_cell_angle_gamma   80.11674164
_symmetry_Int_Tables_number   1
_chemical_formula_structural   Hf6CoTc6As5
_chemical_formula_sum   'Hf6 Co1 Tc6 As5'
_cell_volume   295.71847668
_cell_formula_units_Z   1
loop_
 _symmetry_equiv_pos_site_id
 _symmetry_equiv_pos_as_xyz
  1  'x, y, z'
loop_
 _atom_site_type_symbol
 _atom_site_label
 _atom_site_symmetry_multiplicity
 _atom_site_fract_x
 _atom_site_fract_y
 _atom_site_fract_z
 _atom_site_occupancy
  Hf  Hf0  1  0.435417  0.626140  0.690724  1
  Hf  Hf1  1  0.542488  0.253437  0.210950  1
  Hf  Hf2  1  0.749928  0.850405  0.600477  1
  Hf  Hf3  1  0.250426  0.873123  0.122696  1
  Hf  Hf4  1  0.065014  0.255580  0.690566  1
  Hf  Hf5  1  0.956295  0.665394  0.209100  1
  Co  Co6  1  0.250653  0.246689  0.496038  1
  Tc  Tc7  1  0.511494  0.504463  0.015712  1
  Tc  Tc8  1  0.988752  0.504463  0.492969  1
  Tc  Tc9  1  0.108808  0.252989  0.110398  1
  Tc  Tc10  1  0.859691  0.001395  0.112411  1
  Tc  Tc11  1  0.388983  0.001395  0.641704  1
  Tc  Tc12  1  0.642590  0.252989  0.644181  1
  As  As13  1  0.748886  0.256971  0.008084  1
  As  As14  1  0.331358  0.586775  0.251453  1
  As  As15  1  0.665503  0.920309  0.251916  1
  As  As16  1  0.168394  0.920309  0.754805  1
  As  As17  1  0.835322  0.586775  0.755417  1
