# generated using pymatgen
data_Tb8Al(Si4Pd)3
_symmetry_space_group_name_H-M   'P 1'
_cell_length_a   8.17900500
_cell_length_b   8.17900429
_cell_length_c   8.16457800
_cell_angle_alpha   90.00000000
_cell_angle_beta   90.00000000
_cell_angle_gamma   120.00000691
_symmetry_Int_Tables_number   1
_chemical_formula_structural   Tb8Al(Si4Pd)3
_chemical_formula_sum   'Tb8 Al1 Si12 Pd3'
_cell_volume   473.00447939
_cell_formula_units_Z   1
loop_
 _symmetry_equiv_pos_site_id
 _symmetry_equiv_pos_as_xyz
  1  'x, y, z'
loop_
 _atom_site_type_symbol
 _atom_site_label
 _atom_site_symmetry_multiplicity
 _atom_site_fract_x
 _atom_site_fract_y
 _atom_site_fract_z
 _atom_site_occupancy
  Tb  Tb0  1  0.501802  0.003602  0.251051  1
  Tb  Tb1  1  0.499088  0.998178  0.749823  1
  Tb  Tb2  1  0.996398  0.498198  0.251051  1
  Tb  Tb3  1  0.001822  0.500912  0.749823  1
  Tb  Tb4  1  0.501802  0.498198  0.251051  1
  Tb  Tb5  1  0.499088  0.500912  0.749823  1
  Tb  Tb6  1  0.000000  0.000000  0.250057  1
  Tb  Tb7  1  0.000000  0.000000  0.749457  1
  Al  Al8  1  0.333333  0.666667  0.007933  1
  Si  Si9  1  0.163129  0.326259  0.997329  1
  Si  Si10  1  0.832341  0.664682  0.002097  1
  Si  Si11  1  0.673741  0.836871  0.997329  1
  Si  Si12  1  0.834116  0.668231  0.501553  1
  Si  Si13  1  0.335318  0.167659  0.002097  1
  Si  Si14  1  0.165716  0.331432  0.498811  1
  Si  Si15  1  0.163129  0.836871  0.997329  1
  Si  Si16  1  0.331769  0.165884  0.501553  1
  Si  Si17  1  0.832341  0.167659  0.002097  1
  Si  Si18  1  0.668568  0.834284  0.498811  1
  Si  Si19  1  0.834116  0.165884  0.501553  1
  Si  Si20  1  0.165716  0.834284  0.498811  1
  Pd  Pd21  1  0.666667  0.333333  0.993375  1
  Pd  Pd22  1  0.666667  0.333333  0.501744  1
  Pd  Pd23  1  0.333333  0.666667  0.495439  1
