# generated using pymatgen
data_V13SiAs2
_symmetry_space_group_name_H-M   'P 1'
_cell_length_a   4.74051800
_cell_length_b   4.73223300
_cell_length_c   9.50326300
_cell_angle_alpha   90.00000000
_cell_angle_beta   90.00000000
_cell_angle_gamma   90.00000000
_symmetry_Int_Tables_number   1
_chemical_formula_structural   V13SiAs2
_chemical_formula_sum   'V13 Si1 As2'
_cell_volume   213.18893896
_cell_formula_units_Z   1
loop_
 _symmetry_equiv_pos_site_id
 _symmetry_equiv_pos_as_xyz
  1  'x, y, z'
loop_
 _atom_site_type_symbol
 _atom_site_label
 _atom_site_symmetry_multiplicity
 _atom_site_fract_x
 _atom_site_fract_y
 _atom_site_fract_z
 _atom_site_occupancy
  V  V0  1  0.500000  0.500000  0.500000  1
  V  V1  1  0.500000  0.000000  0.623008  1
  V  V2  1  0.500000  0.000000  0.125870  1
  V  V3  1  0.744440  0.500000  0.248874  1
  V  V4  1  0.744440  0.500000  0.751126  1
  V  V5  1  0.000000  0.746589  0.500000  1
  V  V6  1  0.000000  0.748254  0.000000  1
  V  V7  1  0.500000  0.000000  0.376992  1
  V  V8  1  0.500000  0.000000  0.874130  1
  V  V9  1  0.255560  0.500000  0.248874  1
  V  V10  1  0.255560  0.500000  0.751126  1
  V  V11  1  0.000000  0.253411  0.500000  1
  V  V12  1  0.000000  0.251746  0.000000  1
  Si  Si13  1  0.500000  0.500000  0.000000  1
  As  As14  1  0.000000  0.000000  0.249160  1
  As  As15  1  0.000000  0.000000  0.750840  1
