# generated using pymatgen
data_CaTb2Y(Ga2Ag)4
_symmetry_space_group_name_H-M   'P 1'
_cell_length_a   4.38890600
_cell_length_b   7.02019516
_cell_length_c   10.33457859
_cell_angle_alpha   89.61941720
_cell_angle_beta   90.00000000
_cell_angle_gamma   90.00000000
_symmetry_Int_Tables_number   1
_chemical_formula_structural   CaTb2Y(Ga2Ag)4
_chemical_formula_sum   'Ca1 Tb2 Y1 Ga8 Ag4'
_cell_volume   318.41143515
_cell_formula_units_Z   1
loop_
 _symmetry_equiv_pos_site_id
 _symmetry_equiv_pos_as_xyz
  1  'x, y, z'
loop_
 _atom_site_type_symbol
 _atom_site_label
 _atom_site_symmetry_multiplicity
 _atom_site_fract_x
 _atom_site_fract_y
 _atom_site_fract_z
 _atom_site_occupancy
  Ca  Ca0  1  0.250000  0.776856  0.826964  1
  Tb  Tb1  1  0.750000  0.721147  0.328268  1
  Tb  Tb2  1  0.250000  0.280825  0.672806  1
  Y  Y3  1  0.750000  0.220337  0.171885  1
  Ga  Ga4  1  0.250000  0.927743  0.156206  1
  Ga  Ga5  1  0.750000  0.074426  0.849272  1
  Ga  Ga6  1  0.750000  0.571317  0.649159  1
  Ga  Ga7  1  0.250000  0.425358  0.345019  1
  Ga  Ga8  1  0.250000  0.701849  0.534471  1
  Ga  Ga9  1  0.750000  0.293018  0.461965  1
  Ga  Ga10  1  0.750000  0.797335  0.037560  1
  Ga  Ga11  1  0.250000  0.205401  0.964713  1
  Ag  Ag12  1  0.250000  0.545195  0.098191  1
  Ag  Ag13  1  0.750000  0.458023  0.902533  1
  Ag  Ag14  1  0.750000  0.957065  0.597758  1
  Ag  Ag15  1  0.250000  0.044104  0.403230  1
