# generated using pymatgen
data_Th6Al6Ir5Au
_symmetry_space_group_name_H-M   'P 1'
_cell_length_a   7.25489100
_cell_length_b   7.25489133
_cell_length_c   8.36701800
_cell_angle_alpha   90.00000000
_cell_angle_beta   90.00000000
_cell_angle_gamma   120.00000306
_symmetry_Int_Tables_number   1
_chemical_formula_structural   Th6Al6Ir5Au
_chemical_formula_sum   'Th6 Al6 Ir5 Au1'
_cell_volume   381.38457578
_cell_formula_units_Z   1
loop_
 _symmetry_equiv_pos_site_id
 _symmetry_equiv_pos_as_xyz
  1  'x, y, z'
loop_
 _atom_site_type_symbol
 _atom_site_label
 _atom_site_symmetry_multiplicity
 _atom_site_fract_x
 _atom_site_fract_y
 _atom_site_fract_z
 _atom_site_occupancy
  Th  Th0  1  0.586777  0.005300  0.743751  1
  Th  Th1  1  0.994700  0.581477  0.743751  1
  Th  Th2  1  0.418523  0.413223  0.743751  1
  Th  Th3  1  0.994194  0.581349  0.256244  1
  Th  Th4  1  0.587155  0.005806  0.256244  1
  Th  Th5  1  0.418651  0.412845  0.256244  1
  Al  Al6  1  0.775989  0.766707  0.999886  1
  Al  Al7  1  0.233293  0.009281  0.999886  1
  Al  Al8  1  0.990719  0.224011  0.999886  1
  Al  Al9  1  0.768760  0.771474  0.499975  1
  Al  Al10  1  0.228526  0.997287  0.499975  1
  Al  Al11  1  0.002713  0.231240  0.499975  1
  Ir  Ir12  1  0.000000  0.000000  0.749644  1
  Ir  Ir13  1  0.000000  0.000000  0.250201  1
  Ir  Ir14  1  0.666667  0.333333  0.999726  1
  Ir  Ir15  1  0.666667  0.333333  0.500318  1
  Ir  Ir16  1  0.333333  0.666667  0.499873  1
  Au  Au17  1  0.333333  0.666667  0.000671  1
