# generated using pymatgen
data_Ca4PrIr2
_symmetry_space_group_name_H-M   'P 1'
_cell_length_a   8.73995782
_cell_length_b   8.73995777
_cell_length_c   7.51916180
_cell_angle_alpha   82.98613651
_cell_angle_beta   82.98613830
_cell_angle_gamma   44.95257240
_symmetry_Int_Tables_number   1
_chemical_formula_structural   Ca4PrIr2
_chemical_formula_sum   'Ca8 Pr2 Ir4'
_cell_volume   402.24232271
_cell_formula_units_Z   2
loop_
 _symmetry_equiv_pos_site_id
 _symmetry_equiv_pos_as_xyz
  1  'x, y, z'
loop_
 _atom_site_type_symbol
 _atom_site_label
 _atom_site_symmetry_multiplicity
 _atom_site_fract_x
 _atom_site_fract_y
 _atom_site_fract_z
 _atom_site_occupancy
  Ca  Ca0  1  0.015551  0.808124  0.915806  1
  Ca  Ca1  1  0.191876  0.984449  0.584194  1
  Ca  Ca2  1  0.984449  0.191876  0.084194  1
  Ca  Ca3  1  0.808124  0.015551  0.415806  1
  Ca  Ca4  1  0.357963  0.204015  0.820299  1
  Ca  Ca5  1  0.795985  0.642037  0.679701  1
  Ca  Ca6  1  0.642037  0.795985  0.179701  1
  Ca  Ca7  1  0.204015  0.357963  0.320299  1
  Pr  Pr8  1  0.565947  0.434053  0.750000  1
  Pr  Pr9  1  0.434053  0.565947  0.250000  1
  Ir  Ir10  1  0.184121  0.600283  0.577821  1
  Ir  Ir11  1  0.399717  0.815879  0.922179  1
  Ir  Ir12  1  0.815879  0.399717  0.422179  1
  Ir  Ir13  1  0.600283  0.184121  0.077821  1
