# generated using pymatgen
data_Tb4ErZn2Bi
_symmetry_space_group_name_H-M   'P 1'
_cell_length_a   8.63347694
_cell_length_b   8.63347740
_cell_length_c   8.63347798
_cell_angle_alpha   123.20556931
_cell_angle_beta   123.20556620
_cell_angle_gamma   84.53204331
_symmetry_Int_Tables_number   1
_chemical_formula_structural   Tb4ErZn2Bi
_chemical_formula_sum   'Tb8 Er2 Zn4 Bi2'
_cell_volume   430.84046809
_cell_formula_units_Z   2
loop_
 _symmetry_equiv_pos_site_id
 _symmetry_equiv_pos_as_xyz
  1  'x, y, z'
loop_
 _atom_site_type_symbol
 _atom_site_label
 _atom_site_symmetry_multiplicity
 _atom_site_fract_x
 _atom_site_fract_y
 _atom_site_fract_z
 _atom_site_occupancy
  Tb  Tb0  1  0.509879  0.009879  0.804261  1
  Tb  Tb1  1  0.205618  0.705618  0.195739  1
  Tb  Tb2  1  0.009879  0.205618  0.500000  1
  Tb  Tb3  1  0.705618  0.509879  0.500000  1
  Tb  Tb4  1  0.490121  0.990121  0.195739  1
  Tb  Tb5  1  0.794382  0.294382  0.804261  1
  Tb  Tb6  1  0.990121  0.794382  0.500000  1
  Tb  Tb7  1  0.294382  0.490121  0.500000  1
  Er  Er8  1  0.500000  0.500000  0.000000  1
  Er  Er9  1  0.000000  0.000000  0.000000  1
  Zn  Zn10  1  0.141193  0.641193  0.782387  1
  Zn  Zn11  1  0.858807  0.358807  0.217613  1
  Zn  Zn12  1  0.641193  0.858807  0.500000  1
  Zn  Zn13  1  0.358807  0.141193  0.500000  1
  Bi  Bi14  1  0.250000  0.250000  0.000000  1
  Bi  Bi15  1  0.750000  0.750000  0.000000  1
