# generated using pymatgen
data_Tm19Th(Ir3Ru)3
_symmetry_space_group_name_H-M   'P 1'
_cell_length_a   10.73845937
_cell_length_b   10.71770648
_cell_length_c   6.35588969
_cell_angle_alpha   90.11662087
_cell_angle_beta   89.82538040
_cell_angle_gamma   89.95259367
_symmetry_Int_Tables_number   1
_chemical_formula_structural   Tm19Th(Ir3Ru)3
_chemical_formula_sum   'Tm19 Th1 Ir9 Ru3'
_cell_volume   731.50469987
_cell_formula_units_Z   1
loop_
 _symmetry_equiv_pos_site_id
 _symmetry_equiv_pos_as_xyz
  1  'x, y, z'
loop_
 _atom_site_type_symbol
 _atom_site_label
 _atom_site_symmetry_multiplicity
 _atom_site_fract_x
 _atom_site_fract_y
 _atom_site_fract_z
 _atom_site_occupancy
  Tm  Tm0  1  0.293518  0.911490  0.877200  1
  Tm  Tm1  1  0.706850  0.086042  0.878639  1
  Tm  Tm2  1  0.707165  0.912819  0.377302  1
  Tm  Tm3  1  0.586804  0.793087  0.878168  1
  Tm  Tm4  1  0.591531  0.208262  0.376952  1
  Tm  Tm5  1  0.415480  0.789308  0.376535  1
  Tm  Tm6  1  0.415790  0.208151  0.877327  1
  Tm  Tm7  1  0.207563  0.413778  0.624690  1
  Tm  Tm8  1  0.206690  0.586690  0.120291  1
  Tm  Tm9  1  0.792458  0.413581  0.120311  1
  Tm  Tm10  1  0.792089  0.587025  0.624121  1
  Tm  Tm11  1  0.912721  0.707354  0.120920  1
  Tm  Tm12  1  0.912837  0.292287  0.622892  1
  Tm  Tm13  1  0.086437  0.707512  0.625219  1
  Tm  Tm14  1  0.084438  0.294005  0.119924  1
  Tm  Tm15  1  0.996162  0.998722  0.500451  1
  Tm  Tm16  1  0.999787  0.999773  0.999871  1
  Tm  Tm17  1  0.500237  0.500635  0.000085  1
  Tm  Tm18  1  0.501179  0.499685  0.500920  1
  Th  Th19  1  0.294276  0.086653  0.377480  1
  Ir  Ir20  1  0.847137  0.153777  0.248814  1
  Ir  Ir21  1  0.846364  0.847031  0.750864  1
  Ir  Ir22  1  0.152923  0.152630  0.747326  1
  Ir  Ir23  1  0.153282  0.847555  0.251549  1
  Ir  Ir24  1  0.653447  0.347417  0.750150  1
  Ir  Ir25  1  0.652875  0.652622  0.249294  1
  Ir  Ir26  1  0.346750  0.347877  0.250920  1
  Ir  Ir27  1  0.347489  0.652367  0.749937  1
  Ir  Ir28  1  0.999669  0.500753  0.377280  1
  Ru  Ru29  1  0.496918  0.000622  0.126178  1
  Ru  Ru30  1  0.499591  0.000285  0.622434  1
  Ru  Ru31  1  0.999544  0.500207  0.875950  1
