# generated using pymatgen
data_Ho9Cd5Pt4
_symmetry_space_group_name_H-M   'P 1'
_cell_length_a   10.98329500
_cell_length_b   10.98329500
_cell_length_c   3.68388200
_cell_angle_alpha   90.00000000
_cell_angle_beta   90.00000000
_cell_angle_gamma   90.00000000
_symmetry_Int_Tables_number   1
_chemical_formula_structural   Ho9Cd5Pt4
_chemical_formula_sum   'Ho9 Cd5 Pt4'
_cell_volume   444.39688654
_cell_formula_units_Z   1
loop_
 _symmetry_equiv_pos_site_id
 _symmetry_equiv_pos_as_xyz
  1  'x, y, z'
loop_
 _atom_site_type_symbol
 _atom_site_label
 _atom_site_symmetry_multiplicity
 _atom_site_fract_x
 _atom_site_fract_y
 _atom_site_fract_z
 _atom_site_occupancy
  Ho  Ho0  1  0.327519  0.327519  0.500000  1
  Ho  Ho1  1  0.672481  0.672481  0.500000  1
  Ho  Ho2  1  0.327519  0.672481  0.500000  1
  Ho  Ho3  1  0.672481  0.327519  0.500000  1
  Ho  Ho4  1  0.000000  0.285769  0.500000  1
  Ho  Ho5  1  0.000000  0.714231  0.500000  1
  Ho  Ho6  1  0.285769  0.000000  0.500000  1
  Ho  Ho7  1  0.714231  0.000000  0.500000  1
  Ho  Ho8  1  0.000000  0.000000  0.000000  1
  Cd  Cd9  1  0.500000  0.143755  0.000000  1
  Cd  Cd10  1  0.500000  0.856245  0.000000  1
  Cd  Cd11  1  0.143755  0.500000  0.000000  1
  Cd  Cd12  1  0.856245  0.500000  0.000000  1
  Cd  Cd13  1  0.500000  0.500000  0.000000  1
  Pt  Pt14  1  0.189614  0.189614  0.000000  1
  Pt  Pt15  1  0.810386  0.810386  0.000000  1
  Pt  Pt16  1  0.189614  0.810386  0.000000  1
  Pt  Pt17  1  0.810386  0.189614  0.000000  1
