# generated using pymatgen
data_Y19HoSn16
_symmetry_space_group_name_H-M   'P 1'
_cell_length_a   8.05016613
_cell_length_b   8.19034713
_cell_length_c   15.49349601
_cell_angle_alpha   90.00158532
_cell_angle_beta   90.00285106
_cell_angle_gamma   90.02021514
_symmetry_Int_Tables_number   1
_chemical_formula_structural   Y19HoSn16
_chemical_formula_sum   'Y19 Ho1 Sn16'
_cell_volume   1021.54275559
_cell_formula_units_Z   1
loop_
 _symmetry_equiv_pos_site_id
 _symmetry_equiv_pos_as_xyz
  1  'x, y, z'
loop_
 _atom_site_type_symbol
 _atom_site_label
 _atom_site_symmetry_multiplicity
 _atom_site_fract_x
 _atom_site_fract_y
 _atom_site_fract_z
 _atom_site_occupancy
  Y  Y0  1  0.867301  0.663678  0.622021  1
  Y  Y1  1  0.632643  0.163608  0.377991  1
  Y  Y2  1  0.132697  0.336354  0.121890  1
  Y  Y3  1  0.632652  0.163627  0.122038  1
  Y  Y4  1  0.132636  0.336366  0.377993  1
  Y  Y5  1  0.367345  0.836342  0.622015  1
  Y  Y6  1  0.867314  0.663614  0.878048  1
  Y  Y7  1  0.522249  0.320969  0.902054  1
  Y  Y8  1  0.022298  0.179004  0.597948  1
  Y  Y9  1  0.477742  0.679027  0.402067  1
  Y  Y10  1  0.977651  0.820939  0.097945  1
  Y  Y11  1  0.477697  0.679143  0.097746  1
  Y  Y12  1  0.977771  0.820956  0.402068  1
  Y  Y13  1  0.522214  0.320948  0.597954  1
  Y  Y14  1  0.022333  0.178919  0.902040  1
  Y  Y15  1  0.199099  0.502583  0.750095  1
  Y  Y16  1  0.698811  0.997481  0.750122  1
  Y  Y17  1  0.801029  0.497627  0.250012  1
  Y  Y18  1  0.301007  0.002374  0.249984  1
  Ho  Ho19  1  0.367467  0.836282  0.877866  1
  Sn  Sn20  1  0.292310  0.034410  0.041531  1
  Sn  Sn21  1  0.792223  0.465231  0.458079  1
  Sn  Sn22  1  0.707792  0.965222  0.541916  1
  Sn  Sn23  1  0.208186  0.535609  0.957972  1
  Sn  Sn24  1  0.707104  0.964998  0.958000  1
  Sn  Sn25  1  0.207821  0.534793  0.541917  1
  Sn  Sn26  1  0.292208  0.034777  0.458098  1
  Sn  Sn27  1  0.792184  0.465209  0.041904  1
  Sn  Sn28  1  0.564926  0.619446  0.750303  1
  Sn  Sn29  1  0.065668  0.880828  0.750259  1
  Sn  Sn30  1  0.434740  0.380909  0.249992  1
  Sn  Sn31  1  0.934754  0.119060  0.249977  1
  Sn  Sn32  1  0.330440  0.146627  0.750181  1
  Sn  Sn33  1  0.830377  0.353068  0.749977  1
  Sn  Sn34  1  0.669654  0.853068  0.249996  1
  Sn  Sn35  1  0.169658  0.646906  0.250001  1
