# generated using pymatgen
data_Y3ThMgFe
_symmetry_space_group_name_H-M   'P 1'
_cell_length_a   9.66872211
_cell_length_b   9.66872226
_cell_length_c   9.66872200
_cell_angle_alpha   60.00000091
_cell_angle_beta   60.00000037
_cell_angle_gamma   60.00000473
_symmetry_Int_Tables_number   1
_chemical_formula_structural   Y3ThMgFe
_chemical_formula_sum   'Y12 Th4 Mg4 Fe4'
_cell_volume   639.13449658
_cell_formula_units_Z   4
loop_
 _symmetry_equiv_pos_site_id
 _symmetry_equiv_pos_as_xyz
  1  'x, y, z'
loop_
 _atom_site_type_symbol
 _atom_site_label
 _atom_site_symmetry_multiplicity
 _atom_site_fract_x
 _atom_site_fract_y
 _atom_site_fract_z
 _atom_site_occupancy
  Y  Y0  1  0.813096  0.186904  0.186904  1
  Y  Y1  1  0.186904  0.813096  0.813096  1
  Y  Y2  1  0.186904  0.813096  0.186904  1
  Y  Y3  1  0.813096  0.186904  0.813096  1
  Y  Y4  1  0.186904  0.186904  0.813096  1
  Y  Y5  1  0.813096  0.813096  0.186904  1
  Y  Y6  1  0.937323  0.562677  0.562677  1
  Y  Y7  1  0.562677  0.937323  0.937323  1
  Y  Y8  1  0.562677  0.937323  0.562677  1
  Y  Y9  1  0.937323  0.562677  0.937323  1
  Y  Y10  1  0.562677  0.562677  0.937323  1
  Y  Y11  1  0.937323  0.937323  0.562677  1
  Th  Th12  1  0.342196  0.342196  0.342196  1
  Th  Th13  1  0.342196  0.342196  0.973415  1
  Th  Th14  1  0.342196  0.973415  0.342196  1
  Th  Th15  1  0.973415  0.342196  0.342196  1
  Mg  Mg16  1  0.579521  0.579521  0.579521  1
  Mg  Mg17  1  0.579521  0.579521  0.261436  1
  Mg  Mg18  1  0.579521  0.261436  0.579521  1
  Mg  Mg19  1  0.261436  0.579521  0.579521  1
  Fe  Fe20  1  0.145305  0.145305  0.145305  1
  Fe  Fe21  1  0.145305  0.145305  0.564083  1
  Fe  Fe22  1  0.145305  0.564083  0.145305  1
  Fe  Fe23  1  0.564083  0.145305  0.145305  1
