# generated using pymatgen
data_Tb5Y11CdIn3Ni4
_symmetry_space_group_name_H-M   'P 1'
_cell_length_a   9.61071699
_cell_length_b   9.64827826
_cell_length_c   9.64085937
_cell_angle_alpha   60.00995518
_cell_angle_beta   60.08407945
_cell_angle_gamma   60.08509390
_symmetry_Int_Tables_number   1
_chemical_formula_structural   Tb5Y11CdIn3Ni4
_chemical_formula_sum   'Tb5 Y11 Cd1 In3 Ni4'
_cell_volume   632.98465527
_cell_formula_units_Z   1
loop_
 _symmetry_equiv_pos_site_id
 _symmetry_equiv_pos_as_xyz
  1  'x, y, z'
loop_
 _atom_site_type_symbol
 _atom_site_label
 _atom_site_symmetry_multiplicity
 _atom_site_fract_x
 _atom_site_fract_y
 _atom_site_fract_z
 _atom_site_occupancy
  Tb  Tb0  1  0.595563  0.596583  0.596566  1
  Tb  Tb1  1  0.598357  0.598443  0.204347  1
  Tb  Tb2  1  0.598329  0.204349  0.598446  1
  Tb  Tb3  1  0.202920  0.598356  0.598402  1
  Tb  Tb4  1  0.061557  0.439395  0.439282  1
  Y  Y5  1  0.440361  0.061367  0.061255  1
  Y  Y6  1  0.439808  0.061504  0.438926  1
  Y  Y7  1  0.060804  0.441083  0.059342  1
  Y  Y8  1  0.439735  0.438871  0.061825  1
  Y  Y9  1  0.060904  0.059489  0.440800  1
  Y  Y10  1  0.188879  0.814187  0.814093  1
  Y  Y11  1  0.813849  0.186953  0.186963  1
  Y  Y12  1  0.814105  0.187153  0.812274  1
  Y  Y13  1  0.189572  0.811837  0.187562  1
  Y  Y14  1  0.814254  0.812487  0.187003  1
  Y  Y15  1  0.189458  0.187479  0.811751  1
  Cd  Cd16  1  0.504408  0.831062  0.830993  1
  In  In17  1  0.831963  0.833702  0.833469  1
  In  In18  1  0.829400  0.832999  0.503927  1
  In  In19  1  0.829318  0.503721  0.833149  1
  Ni  Ni20  1  0.391662  0.393323  0.394396  1
  Ni  Ni21  1  0.391328  0.391427  0.822284  1
  Ni  Ni22  1  0.390994  0.822409  0.391051  1
  Ni  Ni23  1  0.822473  0.391822  0.391895  1
