# generated using pymatgen
data_NaCa3TaN4
_symmetry_space_group_name_H-M   'P 1'
_cell_length_a   6.09048470
_cell_length_b   6.03051016
_cell_length_c   9.16995358
_cell_angle_alpha   71.00656474
_cell_angle_beta   81.16463486
_cell_angle_gamma   68.15133140
_symmetry_Int_Tables_number   1
_chemical_formula_structural   NaCa3TaN4
_chemical_formula_sum   'Na2 Ca6 Ta2 N8'
_cell_volume   295.38625876
_cell_formula_units_Z   2
loop_
 _symmetry_equiv_pos_site_id
 _symmetry_equiv_pos_as_xyz
  1  'x, y, z'
loop_
 _atom_site_type_symbol
 _atom_site_label
 _atom_site_symmetry_multiplicity
 _atom_site_fract_x
 _atom_site_fract_y
 _atom_site_fract_z
 _atom_site_occupancy
  Na  Na0  1  0.238034  0.949684  0.603554  1
  Na  Na1  1  0.739189  0.621743  0.182444  1
  Ca  Ca2  1  0.756470  0.238860  0.995186  1
  Ca  Ca3  1  0.263786  0.522356  0.427538  1
  Ca  Ca4  1  0.755756  0.060248  0.397796  1
  Ca  Ca5  1  0.260868  0.399845  0.810419  1
  Ca  Ca6  1  0.734582  0.480323  0.565817  1
  Ca  Ca7  1  0.252112  0.753051  0.015532  1
  Ta  Ta8  1  0.716777  0.846223  0.758151  1
  Ta  Ta9  1  0.275967  0.148402  0.244766  1
  N  N10  1  0.965708  0.695446  0.616989  1
  N  N11  1  0.526726  0.184020  0.628521  1
  N  N12  1  0.019808  0.297091  0.381415  1
  N  N13  1  0.524361  0.623824  0.813827  1
  N  N14  1  0.154923  0.145738  0.055602  1
  N  N15  1  0.475067  0.820852  0.371558  1
  N  N16  1  0.475593  0.356875  0.201422  1
  N  N17  1  0.864273  0.855422  0.929463  1
