# generated using pymatgen
data_Tm16MgIn3Rh4
_symmetry_space_group_name_H-M   'P 1'
_cell_length_a   9.54107682
_cell_length_b   9.54107729
_cell_length_c   9.54107612
_cell_angle_alpha   60.01470919
_cell_angle_beta   60.01470872
_cell_angle_gamma   60.01471041
_symmetry_Int_Tables_number   1
_chemical_formula_structural   Tm16MgIn3Rh4
_chemical_formula_sum   'Tm16 Mg1 In3 Rh4'
_cell_volume   614.35863814
_cell_formula_units_Z   1
loop_
 _symmetry_equiv_pos_site_id
 _symmetry_equiv_pos_as_xyz
  1  'x, y, z'
loop_
 _atom_site_type_symbol
 _atom_site_label
 _atom_site_symmetry_multiplicity
 _atom_site_fract_x
 _atom_site_fract_y
 _atom_site_fract_z
 _atom_site_occupancy
  Tm  Tm0  1  0.061299  0.061299  0.438164  1
  Tm  Tm1  1  0.435703  0.064439  0.435703  1
  Tm  Tm2  1  0.061299  0.438164  0.061299  1
  Tm  Tm3  1  0.047819  0.649638  0.649638  1
  Tm  Tm4  1  0.435703  0.435703  0.064439  1
  Tm  Tm5  1  0.649638  0.047819  0.649638  1
  Tm  Tm6  1  0.187698  0.812603  0.187698  1
  Tm  Tm7  1  0.187698  0.187698  0.812603  1
  Tm  Tm8  1  0.809612  0.809612  0.191191  1
  Tm  Tm9  1  0.438164  0.061299  0.061299  1
  Tm  Tm10  1  0.812603  0.187698  0.187698  1
  Tm  Tm11  1  0.064439  0.435703  0.435703  1
  Tm  Tm12  1  0.809612  0.191191  0.809612  1
  Tm  Tm13  1  0.191191  0.809612  0.809612  1
  Tm  Tm14  1  0.649638  0.649638  0.047819  1
  Tm  Tm15  1  0.651812  0.651812  0.651812  1
  Mg  Mg16  1  0.422773  0.422773  0.422773  1
  In  In17  1  0.747997  0.417511  0.417511  1
  In  In18  1  0.417511  0.747997  0.417511  1
  In  In19  1  0.417511  0.417511  0.747997  1
  Rh  Rh20  1  0.858507  0.858507  0.426257  1
  Rh  Rh21  1  0.857010  0.857010  0.857010  1
  Rh  Rh22  1  0.426257  0.858507  0.858507  1
  Rh  Rh23  1  0.858507  0.426257  0.858507  1
