# generated using pymatgen
data_Dy2ErLuZn12
_symmetry_space_group_name_H-M   'P 1'
_cell_length_a   4.36911500
_cell_length_b   6.64819506
_cell_length_c   10.01761416
_cell_angle_alpha   90.08080765
_cell_angle_beta   90.00000000
_cell_angle_gamma   90.00000000
_symmetry_Int_Tables_number   1
_chemical_formula_structural   Dy2ErLuZn12
_chemical_formula_sum   'Dy2 Er1 Lu1 Zn12'
_cell_volume   290.97863194
_cell_formula_units_Z   1
loop_
 _symmetry_equiv_pos_site_id
 _symmetry_equiv_pos_as_xyz
  1  'x, y, z'
loop_
 _atom_site_type_symbol
 _atom_site_label
 _atom_site_symmetry_multiplicity
 _atom_site_fract_x
 _atom_site_fract_y
 _atom_site_fract_z
 _atom_site_occupancy
  Dy  Dy0  1  0.250000  0.279415  0.663847  1
  Dy  Dy1  1  0.750000  0.720461  0.335542  1
  Er  Er2  1  0.250000  0.778968  0.836328  1
  Lu  Lu3  1  0.750000  0.220633  0.163385  1
  Zn  Zn4  1  0.250000  0.535077  0.104162  1
  Zn  Zn5  1  0.250000  0.034824  0.396143  1
  Zn  Zn6  1  0.750000  0.464160  0.897413  1
  Zn  Zn7  1  0.750000  0.964629  0.603864  1
  Zn  Zn8  1  0.250000  0.920431  0.149575  1
  Zn  Zn9  1  0.250000  0.416263  0.349568  1
  Zn  Zn10  1  0.750000  0.081167  0.851473  1
  Zn  Zn11  1  0.750000  0.582449  0.648971  1
  Zn  Zn12  1  0.250000  0.214773  0.958749  1
  Zn  Zn13  1  0.250000  0.717068  0.543430  1
  Zn  Zn14  1  0.750000  0.787484  0.042243  1
  Zn  Zn15  1  0.750000  0.282197  0.455306  1
