# generated using pymatgen
data_Dy8NbSi16W11
_symmetry_space_group_name_H-M   'P 1'
_cell_length_a   6.78181917
_cell_length_b   6.95209630
_cell_length_c   12.94560200
_cell_angle_alpha   90.00000000
_cell_angle_beta   90.00000000
_cell_angle_gamma   90.12726409
_symmetry_Int_Tables_number   1
_chemical_formula_structural   Dy8NbSi16W11
_chemical_formula_sum   'Dy8 Nb1 Si16 W11'
_cell_volume   610.35592455
_cell_formula_units_Z   1
loop_
 _symmetry_equiv_pos_site_id
 _symmetry_equiv_pos_as_xyz
  1  'x, y, z'
loop_
 _atom_site_type_symbol
 _atom_site_label
 _atom_site_symmetry_multiplicity
 _atom_site_fract_x
 _atom_site_fract_y
 _atom_site_fract_z
 _atom_site_occupancy
  Dy  Dy0  1  0.497478  0.331326  0.093627  1
  Dy  Dy1  1  0.996060  0.169009  0.406326  1
  Dy  Dy2  1  0.504264  0.668167  0.594276  1
  Dy  Dy3  1  0.004047  0.832630  0.905900  1
  Dy  Dy4  1  0.504264  0.668167  0.905724  1
  Dy  Dy5  1  0.004047  0.832630  0.594100  1
  Dy  Dy6  1  0.497478  0.331326  0.406373  1
  Dy  Dy7  1  0.996060  0.169009  0.093674  1
  Nb  Nb8  1  0.836957  0.505752  0.250000  1
  Si  Si9  1  0.804171  0.632644  0.750000  1
  Si  Si10  1  0.303339  0.868079  0.750000  1
  Si  Si11  1  0.201576  0.366625  0.250000  1
  Si  Si12  1  0.696503  0.127397  0.250000  1
  Si  Si13  1  0.535805  0.370714  0.750000  1
  Si  Si14  1  0.037506  0.129574  0.750000  1
  Si  Si15  1  0.459968  0.629370  0.250000  1
  Si  Si16  1  0.963574  0.874584  0.250000  1
  Si  Si17  1  0.661853  0.041875  0.546665  1
  Si  Si18  1  0.162380  0.457374  0.953621  1
  Si  Si19  1  0.336727  0.957765  0.045912  1
  Si  Si20  1  0.837594  0.543259  0.457357  1
  Si  Si21  1  0.336727  0.957765  0.454088  1
  Si  Si22  1  0.837594  0.543259  0.042643  1
  Si  Si23  1  0.661853  0.041875  0.953335  1
  Si  Si24  1  0.162380  0.457374  0.546379  1
  W  W25  1  0.666418  0.000834  0.750000  1
  W  W26  1  0.164868  0.498359  0.750000  1
  W  W27  1  0.333499  0.996781  0.250000  1
  W  W28  1  0.832363  0.336553  0.626479  1
  W  W29  1  0.333350  0.164423  0.874245  1
  W  W30  1  0.166692  0.663691  0.124623  1
  W  W31  1  0.665100  0.833570  0.375477  1
  W  W32  1  0.166692  0.663691  0.375377  1
  W  W33  1  0.665100  0.833570  0.124523  1
  W  W34  1  0.832363  0.336553  0.873521  1
  W  W35  1  0.333350  0.164423  0.625755  1
