# generated using pymatgen
data_Ti3Fe4P4W
_symmetry_space_group_name_H-M   'P 1'
_cell_length_a   3.58166900
_cell_length_b   5.99497789
_cell_length_c   6.79923996
_cell_angle_alpha   89.81399589
_cell_angle_beta   90.00000000
_cell_angle_gamma   90.00000000
_symmetry_Int_Tables_number   1
_chemical_formula_structural   Ti3Fe4P4W
_chemical_formula_sum   'Ti3 Fe4 P4 W1'
_cell_volume   145.99269117
_cell_formula_units_Z   1
loop_
 _symmetry_equiv_pos_site_id
 _symmetry_equiv_pos_as_xyz
  1  'x, y, z'
loop_
 _atom_site_type_symbol
 _atom_site_label
 _atom_site_symmetry_multiplicity
 _atom_site_fract_x
 _atom_site_fract_y
 _atom_site_fract_z
 _atom_site_occupancy
  Ti  Ti0  1  0.250000  0.522617  0.680425  1
  Ti  Ti1  1  0.750000  0.978627  0.179146  1
  Ti  Ti2  1  0.750000  0.478823  0.318195  1
  Fe  Fe3  1  0.250000  0.145642  0.440329  1
  Fe  Fe4  1  0.250000  0.646610  0.061353  1
  Fe  Fe5  1  0.750000  0.854130  0.561315  1
  Fe  Fe6  1  0.750000  0.355408  0.935752  1
  P  P7  1  0.250000  0.773425  0.378253  1
  P  P8  1  0.250000  0.274473  0.120268  1
  P  P9  1  0.750000  0.225057  0.619492  1
  P  P10  1  0.750000  0.723857  0.878788  1
  W  W11  1  0.250000  0.021330  0.826684  1
