# generated using pymatgen
data_Lu4B4SbIr9
_symmetry_space_group_name_H-M   'P 1'
_cell_length_a   10.82577593
_cell_length_b   10.82577523
_cell_length_c   10.82577610
_cell_angle_alpha   29.55033222
_cell_angle_beta   29.55033939
_cell_angle_gamma   29.55033801
_symmetry_Int_Tables_number   1
_chemical_formula_structural   Lu4B4SbIr9
_chemical_formula_sum   'Lu4 B4 Sb1 Ir9'
_cell_volume   273.17532806
_cell_formula_units_Z   1
loop_
 _symmetry_equiv_pos_site_id
 _symmetry_equiv_pos_as_xyz
  1  'x, y, z'
loop_
 _atom_site_type_symbol
 _atom_site_label
 _atom_site_symmetry_multiplicity
 _atom_site_fract_x
 _atom_site_fract_y
 _atom_site_fract_z
 _atom_site_occupancy
  Lu  Lu0  1  0.148503  0.148503  0.148503  1
  Lu  Lu1  1  0.950892  0.950892  0.950892  1
  Lu  Lu2  1  0.851497  0.851497  0.851497  1
  Lu  Lu3  1  0.049108  0.049108  0.049108  1
  B  B4  1  0.616239  0.616239  0.616239  1
  B  B5  1  0.716958  0.716958  0.716958  1
  B  B6  1  0.383761  0.383761  0.383761  1
  B  B7  1  0.283042  0.283042  0.283042  1
  Sb  Sb8  1  0.500000  0.500000  0.500000  1
  Ir  Ir9  1  0.402561  0.905845  0.402561  1
  Ir  Ir10  1  0.905845  0.402561  0.402561  1
  Ir  Ir11  1  0.500000  0.500000  0.000000  1
  Ir  Ir12  1  0.500000  0.000000  0.500000  1
  Ir  Ir13  1  0.000000  0.500000  0.500000  1
  Ir  Ir14  1  0.597439  0.094155  0.597439  1
  Ir  Ir15  1  0.597439  0.597439  0.094155  1
  Ir  Ir16  1  0.094155  0.597439  0.597439  1
  Ir  Ir17  1  0.402561  0.402561  0.905845  1
