# generated using pymatgen
data_Er4Al4Ir2RhAu
_symmetry_space_group_name_H-M   'P 1'
_cell_length_a   4.32896000
_cell_length_b   6.81273333
_cell_length_c   7.86748924
_cell_angle_alpha   89.94994498
_cell_angle_beta   90.00000000
_cell_angle_gamma   90.00000000
_symmetry_Int_Tables_number   1
_chemical_formula_structural   Er4Al4Ir2RhAu
_chemical_formula_sum   'Er4 Al4 Ir2 Rh1 Au1'
_cell_volume   232.02829811
_cell_formula_units_Z   1
loop_
 _symmetry_equiv_pos_site_id
 _symmetry_equiv_pos_as_xyz
  1  'x, y, z'
loop_
 _atom_site_type_symbol
 _atom_site_label
 _atom_site_symmetry_multiplicity
 _atom_site_fract_x
 _atom_site_fract_y
 _atom_site_fract_z
 _atom_site_occupancy
  Er  Er0  1  0.250000  0.023136  0.325846  1
  Er  Er1  1  0.250000  0.540642  0.182700  1
  Er  Er2  1  0.750000  0.969468  0.679357  1
  Er  Er3  1  0.750000  0.478728  0.813175  1
  Al  Al4  1  0.250000  0.137134  0.932410  1
  Al  Al5  1  0.250000  0.642673  0.563028  1
  Al  Al6  1  0.750000  0.846193  0.060760  1
  Al  Al7  1  0.750000  0.363366  0.443738  1
  Ir  Ir8  1  0.250000  0.765646  0.880515  1
  Ir  Ir9  1  0.750000  0.734910  0.379271  1
  Rh  Rh10  1  0.250000  0.267156  0.618480  1
  Au  Au11  1  0.750000  0.230947  0.120720  1
