# generated using pymatgen
data_Sm2Er3Zr3(Ni4P3)4
_symmetry_space_group_name_H-M   'P 1'
_cell_length_a   12.32890100
_cell_length_b   12.32890085
_cell_length_c   3.78449400
_cell_angle_alpha   90.00000000
_cell_angle_beta   90.00000000
_cell_angle_gamma   120.00000310
_symmetry_Int_Tables_number   1
_chemical_formula_structural   Sm2Er3Zr3(Ni4P3)4
_chemical_formula_sum   'Sm2 Er3 Zr3 Ni16 P12'
_cell_volume   498.18100479
_cell_formula_units_Z   1
loop_
 _symmetry_equiv_pos_site_id
 _symmetry_equiv_pos_as_xyz
  1  'x, y, z'
loop_
 _atom_site_type_symbol
 _atom_site_label
 _atom_site_symmetry_multiplicity
 _atom_site_fract_x
 _atom_site_fract_y
 _atom_site_fract_z
 _atom_site_occupancy
  Sm  Sm0  1  0.333333  0.666667  0.000000  1
  Sm  Sm1  1  0.666667  0.333333  0.000000  1
  Er  Er2  1  0.184236  0.184236  0.500000  1
  Er  Er3  1  0.815764  0.000000  0.500000  1
  Er  Er4  1  0.000000  0.815764  0.500000  1
  Zr  Zr5  1  0.561958  0.561958  0.000000  1
  Zr  Zr6  1  0.438042  0.000000  0.000000  1
  Zr  Zr7  1  0.000000  0.438042  0.000000  1
  Ni  Ni8  1  0.728642  0.728642  0.500000  1
  Ni  Ni9  1  0.271358  0.000000  0.500000  1
  Ni  Ni10  1  0.000000  0.271358  0.500000  1
  Ni  Ni11  1  0.184130  0.373654  0.000000  1
  Ni  Ni12  1  0.626346  0.810475  0.000000  1
  Ni  Ni13  1  0.189525  0.815870  0.000000  1
  Ni  Ni14  1  0.810475  0.626346  0.000000  1
  Ni  Ni15  1  0.815870  0.189525  0.000000  1
  Ni  Ni16  1  0.373654  0.184130  0.000000  1
  Ni  Ni17  1  0.360387  0.482926  0.500000  1
  Ni  Ni18  1  0.517074  0.877462  0.500000  1
  Ni  Ni19  1  0.122538  0.639613  0.500000  1
  Ni  Ni20  1  0.877462  0.517074  0.500000  1
  Ni  Ni21  1  0.639613  0.122538  0.500000  1
  Ni  Ni22  1  0.482926  0.360387  0.500000  1
  Ni  Ni23  1  0.000000  0.000000  0.000000  1
  P  P24  1  0.823680  0.823680  0.000000  1
  P  P25  1  0.176320  0.000000  0.000000  1
  P  P26  1  0.000000  0.176320  0.000000  1
  P  P27  1  0.169574  0.473177  0.500000  1
  P  P28  1  0.526823  0.696395  0.500000  1
  P  P29  1  0.303605  0.830426  0.500000  1
  P  P30  1  0.696395  0.526823  0.500000  1
  P  P31  1  0.830426  0.303605  0.500000  1
  P  P32  1  0.473177  0.169574  0.500000  1
  P  P33  1  0.355909  0.355909  0.000000  1
  P  P34  1  0.644091  0.000000  0.000000  1
  P  P35  1  0.000000  0.644091  0.000000  1
