# generated using pymatgen
data_Tb16MgHg3(IrPt)2
_symmetry_space_group_name_H-M   'P 1'
_cell_length_a   9.70060438
_cell_length_b   9.69862521
_cell_length_c   9.69862451
_cell_angle_alpha   59.79036301
_cell_angle_beta   59.96290590
_cell_angle_gamma   59.96290373
_symmetry_Int_Tables_number   1
_chemical_formula_structural   Tb16MgHg3(IrPt)2
_chemical_formula_sum   'Tb16 Mg1 Hg3 Ir2 Pt2'
_cell_volume   643.82577634
_cell_formula_units_Z   1
loop_
 _symmetry_equiv_pos_site_id
 _symmetry_equiv_pos_as_xyz
  1  'x, y, z'
loop_
 _atom_site_type_symbol
 _atom_site_label
 _atom_site_symmetry_multiplicity
 _atom_site_fract_x
 _atom_site_fract_y
 _atom_site_fract_z
 _atom_site_occupancy
  Tb  Tb0  1  0.190943  0.809400  0.809400  1
  Tb  Tb1  1  0.812777  0.189206  0.189206  1
  Tb  Tb2  1  0.063299  0.439512  0.062281  1
  Tb  Tb3  1  0.064524  0.644993  0.644993  1
  Tb  Tb4  1  0.647561  0.651780  0.651780  1
  Tb  Tb5  1  0.063299  0.062281  0.439512  1
  Tb  Tb6  1  0.194964  0.810913  0.187900  1
  Tb  Tb7  1  0.812023  0.810873  0.185335  1
  Tb  Tb8  1  0.812023  0.185335  0.810873  1
  Tb  Tb9  1  0.435435  0.062176  0.437401  1
  Tb  Tb10  1  0.435435  0.437401  0.062176  1
  Tb  Tb11  1  0.439676  0.061957  0.061957  1
  Tb  Tb12  1  0.063700  0.435194  0.435194  1
  Tb  Tb13  1  0.194964  0.187900  0.810913  1
  Tb  Tb14  1  0.646396  0.652130  0.049948  1
  Tb  Tb15  1  0.646396  0.049948  0.652130  1
  Mg  Mg16  1  0.715928  0.429335  0.429335  1
  Hg  Hg17  1  0.417811  0.412478  0.758917  1
  Hg  Hg18  1  0.417811  0.758917  0.412478  1
  Hg  Hg19  1  0.417499  0.413331  0.413331  1
  Ir  Ir20  1  0.860322  0.854670  0.854670  1
  Ir  Ir21  1  0.426844  0.856593  0.856593  1
  Pt  Pt22  1  0.860187  0.855497  0.428177  1
  Pt  Pt23  1  0.860187  0.428177  0.855497  1
