# generated using pymatgen
data_Er4Al18(CoPt)3
_symmetry_space_group_name_H-M   'P 1'
_cell_length_a   7.48705022
_cell_length_b   7.48704836
_cell_length_c   9.34376837
_cell_angle_alpha   89.98109638
_cell_angle_beta   89.98110282
_cell_angle_gamma   119.29614556
_symmetry_Int_Tables_number   1
_chemical_formula_structural   Er4Al18(CoPt)3
_chemical_formula_sum   'Er4 Al18 Co3 Pt3'
_cell_volume   456.78384327
_cell_formula_units_Z   1
loop_
 _symmetry_equiv_pos_site_id
 _symmetry_equiv_pos_as_xyz
  1  'x, y, z'
loop_
 _atom_site_type_symbol
 _atom_site_label
 _atom_site_symmetry_multiplicity
 _atom_site_fract_x
 _atom_site_fract_y
 _atom_site_fract_z
 _atom_site_occupancy
  Er  Er0  1  0.321105  0.000350  0.250735  1
  Er  Er1  1  0.999650  0.678895  0.749265  1
  Er  Er2  1  0.673768  0.992851  0.748864  1
  Er  Er3  1  0.007149  0.326232  0.251136  1
  Al  Al4  1  0.346735  0.012409  0.924621  1
  Al  Al5  1  0.987591  0.653265  0.075379  1
  Al  Al6  1  0.344405  0.998707  0.572653  1
  Al  Al7  1  0.001293  0.655595  0.427347  1
  Al  Al8  1  0.663874  0.011280  0.075833  1
  Al  Al9  1  0.988720  0.336126  0.924167  1
  Al  Al10  1  0.657260  0.004583  0.427118  1
  Al  Al11  1  0.995417  0.342740  0.572882  1
  Al  Al12  1  0.664997  0.657430  0.943632  1
  Al  Al13  1  0.342570  0.335003  0.056368  1
  Al  Al14  1  0.661655  0.660379  0.548783  1
  Al  Al15  1  0.339621  0.338345  0.451217  1
  Al  Al16  1  0.138323  0.139568  0.749038  1
  Al  Al17  1  0.860432  0.861677  0.250962  1
  Al  Al18  1  0.448030  0.660633  0.259368  1
  Al  Al19  1  0.339367  0.551970  0.740632  1
  Al  Al20  1  0.562613  0.340127  0.747476  1
  Al  Al21  1  0.659873  0.437387  0.252524  1
  Co  Co22  1  0.328200  0.671800  0.500000  1
  Co  Co23  1  0.670156  0.329844  0.000000  1
  Co  Co24  1  0.671150  0.328850  0.500000  1
  Pt  Pt25  1  0.999324  0.000676  0.000000  1
  Pt  Pt26  1  0.999837  0.000163  0.500000  1
  Pt  Pt27  1  0.326884  0.673116  0.000000  1
