# generated using pymatgen
data_CePr3As4
_symmetry_space_group_name_H-M   'P 1'
_cell_length_a   7.38375234
_cell_length_b   7.38375190
_cell_length_c   7.38516800
_cell_angle_alpha   80.52520354
_cell_angle_beta   80.52520411
_cell_angle_gamma   33.69915017
_symmetry_Int_Tables_number   1
_chemical_formula_structural   CePr3As4
_chemical_formula_sum   'Ce1 Pr3 As4'
_cell_volume   220.06719742
_cell_formula_units_Z   1
loop_
 _symmetry_equiv_pos_site_id
 _symmetry_equiv_pos_as_xyz
  1  'x, y, z'
loop_
 _atom_site_type_symbol
 _atom_site_label
 _atom_site_symmetry_multiplicity
 _atom_site_fract_x
 _atom_site_fract_y
 _atom_site_fract_z
 _atom_site_occupancy
  Ce  Ce0  1  0.000000  0.000000  0.000000  1
  Pr  Pr1  1  0.751296  0.751296  0.747836  1
  Pr  Pr2  1  0.500000  0.500000  0.500000  1
  Pr  Pr3  1  0.248704  0.248704  0.252164  1
  As  As4  1  0.379069  0.379069  0.879711  1
  As  As5  1  0.124209  0.124209  0.631492  1
  As  As6  1  0.875791  0.875791  0.368508  1
  As  As7  1  0.620931  0.620931  0.120289  1
