# generated using pymatgen
data_La5P12Pd2Ru17
_symmetry_space_group_name_H-M   'P 1'
_cell_length_a   12.71718523
_cell_length_b   12.81284365
_cell_length_c   4.04328100
_cell_angle_alpha   90.00000000
_cell_angle_beta   90.00000000
_cell_angle_gamma   120.24914030
_symmetry_Int_Tables_number   1
_chemical_formula_structural   La5P12Pd2Ru17
_chemical_formula_sum   'La5 P12 Pd2 Ru17'
_cell_volume   569.12190196
_cell_formula_units_Z   1
loop_
 _symmetry_equiv_pos_site_id
 _symmetry_equiv_pos_as_xyz
  1  'x, y, z'
loop_
 _atom_site_type_symbol
 _atom_site_label
 _atom_site_symmetry_multiplicity
 _atom_site_fract_x
 _atom_site_fract_y
 _atom_site_fract_z
 _atom_site_occupancy
  La  La0  1  0.181880  0.180366  0.500000  1
  La  La1  1  0.818120  0.998486  0.500000  1
  La  La2  1  0.000000  0.816556  0.500000  1
  La  La3  1  0.328031  0.663969  0.000000  1
  La  La4  1  0.671969  0.335938  0.000000  1
  P  P5  1  0.807324  0.808791  0.000000  1
  P  P6  1  0.192676  0.001468  0.000000  1
  P  P7  1  0.000000  0.186172  0.000000  1
  P  P8  1  0.168276  0.474041  0.500000  1
  P  P9  1  0.520177  0.701695  0.500000  1
  P  P10  1  0.297117  0.822911  0.500000  1
  P  P11  1  0.702883  0.525795  0.500000  1
  P  P12  1  0.831724  0.305766  0.500000  1
  P  P13  1  0.479823  0.181519  0.500000  1
  P  P14  1  0.369531  0.370027  0.000000  1
  P  P15  1  0.630469  0.000496  0.000000  1
  P  P16  1  0.000000  0.621969  0.000000  1
  Pd  Pd17  1  0.552020  0.553787  0.000000  1
  Pd  Pd18  1  0.447980  0.001767  0.000000  1
  Ru  Ru19  1  0.000000  0.443685  0.000000  1
  Ru  Ru20  1  0.708118  0.710420  0.500000  1
  Ru  Ru21  1  0.291882  0.002302  0.500000  1
  Ru  Ru22  1  0.000000  0.283825  0.500000  1
  Ru  Ru23  1  0.184519  0.377601  0.000000  1
  Ru  Ru24  1  0.616968  0.804722  0.000000  1
  Ru  Ru25  1  0.193606  0.815620  0.000000  1
  Ru  Ru26  1  0.806394  0.622014  0.000000  1
  Ru  Ru27  1  0.815481  0.193082  0.000000  1
  Ru  Ru28  1  0.383032  0.187754  0.000000  1
  Ru  Ru29  1  0.366005  0.492693  0.500000  1
  Ru  Ru30  1  0.508068  0.879755  0.500000  1
  Ru  Ru31  1  0.122304  0.631234  0.500000  1
  Ru  Ru32  1  0.877696  0.508928  0.500000  1
  Ru  Ru33  1  0.633995  0.126686  0.500000  1
  Ru  Ru34  1  0.491932  0.371686  0.500000  1
  Ru  Ru35  1  0.000000  0.996476  0.000000  1
