# generated using pymatgen
data_Pr4Sc6Sn5Pb3
_symmetry_space_group_name_H-M   'P 1'
_cell_length_a   7.87471000
_cell_length_b   8.06022952
_cell_length_c   15.13098800
_cell_angle_alpha   90.06069200
_cell_angle_beta   90.00000000
_cell_angle_gamma   90.00000000
_symmetry_Int_Tables_number   1
_chemical_formula_structural   Pr4Sc6Sn5Pb3
_chemical_formula_sum   'Pr8 Sc12 Sn10 Pb6'
_cell_volume   960.39307789
_cell_formula_units_Z   2
loop_
 _symmetry_equiv_pos_site_id
 _symmetry_equiv_pos_as_xyz
  1  'x, y, z'
loop_
 _atom_site_type_symbol
 _atom_site_label
 _atom_site_symmetry_multiplicity
 _atom_site_fract_x
 _atom_site_fract_y
 _atom_site_fract_z
 _atom_site_occupancy
  Pr  Pr0  1  0.512637  0.327026  0.903578  1
  Pr  Pr1  1  0.012637  0.172974  0.596422  1
  Pr  Pr2  1  0.488694  0.676659  0.402643  1
  Pr  Pr3  1  0.988694  0.823341  0.097357  1
  Pr  Pr4  1  0.491428  0.672839  0.097196  1
  Pr  Pr5  1  0.991428  0.827161  0.402804  1
  Pr  Pr6  1  0.509842  0.323832  0.596776  1
  Pr  Pr7  1  0.009842  0.176168  0.903224  1
  Sc  Sc8  1  0.347957  0.837303  0.871691  1
  Sc  Sc9  1  0.847957  0.662697  0.628309  1
  Sc  Sc10  1  0.649350  0.162345  0.372064  1
  Sc  Sc11  1  0.149350  0.337655  0.127936  1
  Sc  Sc12  1  0.653317  0.165732  0.127552  1
  Sc  Sc13  1  0.153317  0.334268  0.372448  1
  Sc  Sc14  1  0.347521  0.838683  0.627550  1
  Sc  Sc15  1  0.847521  0.661317  0.872450  1
  Sc  Sc16  1  0.178044  0.505031  0.750218  1
  Sc  Sc17  1  0.678044  0.994969  0.749782  1
  Sc  Sc18  1  0.821436  0.494658  0.248117  1
  Sc  Sc19  1  0.321436  0.005342  0.251883  1
  Sn  Sn20  1  0.317514  0.045325  0.457147  1
  Sn  Sn21  1  0.817514  0.454675  0.042853  1
  Sn  Sn22  1  0.541962  0.631279  0.749531  1
  Sn  Sn23  1  0.041962  0.868721  0.750469  1
  Sn  Sn24  1  0.456972  0.369350  0.250326  1
  Sn  Sn25  1  0.956972  0.130650  0.249674  1
  Sn  Sn26  1  0.316957  0.141287  0.750440  1
  Sn  Sn27  1  0.816957  0.358713  0.749560  1
  Sn  Sn28  1  0.683623  0.859835  0.249989  1
  Sn  Sn29  1  0.183623  0.640165  0.250011  1
  Pb  Pb30  1  0.315712  0.045666  0.043384  1
  Pb  Pb31  1  0.815712  0.454334  0.456616  1
  Pb  Pb32  1  0.683321  0.953928  0.542787  1
  Pb  Pb33  1  0.183321  0.546072  0.957213  1
  Pb  Pb34  1  0.683714  0.954340  0.957060  1
  Pb  Pb35  1  0.183714  0.545660  0.542940  1
