# generated using pymatgen
data_Dy2Y3PPb3
_symmetry_space_group_name_H-M   'P 1'
_cell_length_a   9.16943203
_cell_length_b   9.16818255
_cell_length_c   6.80573900
_cell_angle_alpha   90.00000000
_cell_angle_beta   90.00000000
_cell_angle_gamma   119.99550723
_symmetry_Int_Tables_number   1
_chemical_formula_structural   Dy2Y3PPb3
_chemical_formula_sum   'Dy4 Y6 P2 Pb6'
_cell_volume   495.50868258
_cell_formula_units_Z   2
loop_
 _symmetry_equiv_pos_site_id
 _symmetry_equiv_pos_as_xyz
  1  'x, y, z'
loop_
 _atom_site_type_symbol
 _atom_site_label
 _atom_site_symmetry_multiplicity
 _atom_site_fract_x
 _atom_site_fract_y
 _atom_site_fract_z
 _atom_site_occupancy
  Dy  Dy0  1  0.000000  0.237425  0.750000  1
  Dy  Dy1  1  0.237508  0.237540  0.250000  1
  Dy  Dy2  1  0.762492  0.000033  0.250000  1
  Dy  Dy3  1  0.000000  0.762521  0.250000  1
  Y  Y4  1  0.762272  0.762250  0.750000  1
  Y  Y5  1  0.237728  0.999979  0.750000  1
  Y  Y6  1  0.666702  0.333334  0.000045  1
  Y  Y7  1  0.333298  0.666633  0.000045  1
  Y  Y8  1  0.333298  0.666633  0.499955  1
  Y  Y9  1  0.666702  0.333334  0.499955  1
  P  P10  1  0.000000  0.000209  0.000351  1
  P  P11  1  0.000000  0.000209  0.499649  1
  Pb  Pb12  1  0.399682  0.399774  0.750000  1
  Pb  Pb13  1  0.600318  0.000092  0.750000  1
  Pb  Pb14  1  0.000000  0.600084  0.750000  1
  Pb  Pb15  1  0.600190  0.600196  0.250000  1
  Pb  Pb16  1  0.399810  0.000006  0.250000  1
  Pb  Pb17  1  0.000000  0.399748  0.250000  1
