# generated using pymatgen
data_YCo2(Sn3Ru)2
_symmetry_space_group_name_H-M   'P 1'
_cell_length_a   6.81789695
_cell_length_b   6.81789704
_cell_length_c   6.87442727
_cell_angle_alpha   120.93102765
_cell_angle_beta   120.93103427
_cell_angle_gamma   87.90621564
_symmetry_Int_Tables_number   1
_chemical_formula_structural   YCo2(Sn3Ru)2
_chemical_formula_sum   'Y1 Co2 Sn6 Ru2'
_cell_volume   223.58528387
_cell_formula_units_Z   1
loop_
 _symmetry_equiv_pos_site_id
 _symmetry_equiv_pos_as_xyz
  1  'x, y, z'
loop_
 _atom_site_type_symbol
 _atom_site_label
 _atom_site_symmetry_multiplicity
 _atom_site_fract_x
 _atom_site_fract_y
 _atom_site_fract_z
 _atom_site_occupancy
  Y  Y0  1  0.005268  0.005268  0.010537  1
  Co  Co1  1  0.392018  0.392018  0.147462  1
  Co  Co2  1  0.755444  0.755444  0.147462  1
  Sn  Sn3  1  0.501987  0.001986  0.003971  1
  Sn  Sn4  1  0.001986  0.501987  0.003971  1
  Sn  Sn5  1  0.873455  0.539488  0.412941  1
  Sn  Sn6  1  0.539488  0.873455  0.412941  1
  Sn  Sn7  1  0.109515  0.109515  0.580708  1
  Sn  Sn8  1  0.471193  0.471193  0.580708  1
  Ru  Ru9  1  0.590068  0.259582  0.849649  1
  Ru  Ru10  1  0.259582  0.590068  0.849649  1
