# generated using pymatgen
data_DyTm3OsWC4
_symmetry_space_group_name_H-M   'P 1'
_cell_length_a   5.04840400
_cell_length_b   6.55441824
_cell_length_c   9.80359072
_cell_angle_alpha   88.98649542
_cell_angle_beta   90.00000000
_cell_angle_gamma   90.00000000
_symmetry_Int_Tables_number   1
_chemical_formula_structural   DyTm3OsWC4
_chemical_formula_sum   'Dy2 Tm6 Os2 W2 C8'
_cell_volume   324.34370667
_cell_formula_units_Z   2
loop_
 _symmetry_equiv_pos_site_id
 _symmetry_equiv_pos_as_xyz
  1  'x, y, z'
loop_
 _atom_site_type_symbol
 _atom_site_label
 _atom_site_symmetry_multiplicity
 _atom_site_fract_x
 _atom_site_fract_y
 _atom_site_fract_z
 _atom_site_occupancy
  Dy  Dy0  1  0.750000  0.967076  0.715806  1
  Dy  Dy1  1  0.250000  0.032924  0.284194  1
  Tm  Tm2  1  0.250000  0.675723  0.558290  1
  Tm  Tm3  1  0.750000  0.324277  0.441710  1
  Tm  Tm4  1  0.750000  0.825988  0.058841  1
  Tm  Tm5  1  0.250000  0.174012  0.941159  1
  Tm  Tm6  1  0.250000  0.540223  0.218917  1
  Tm  Tm7  1  0.750000  0.459777  0.781083  1
  Os  Os8  1  0.750000  0.780019  0.368212  1
  Os  Os9  1  0.250000  0.219981  0.631788  1
  W  W10  1  0.250000  0.713766  0.869473  1
  W  W11  1  0.750000  0.286234  0.130527  1
  C  C12  1  0.250000  0.447743  0.758772  1
  C  C13  1  0.750000  0.552257  0.241228  1
  C  C14  1  0.750000  0.049050  0.259880  1
  C  C15  1  0.250000  0.950950  0.740120  1
  C  C16  1  0.250000  0.825795  0.055348  1
  C  C17  1  0.750000  0.174205  0.944652  1
  C  C18  1  0.750000  0.670322  0.550807  1
  C  C19  1  0.250000  0.329678  0.449193  1
