# generated using pymatgen
data_YEr7(ReBr4)2
_symmetry_space_group_name_H-M   'P 1'
_cell_length_a   8.95109468
_cell_length_b   8.92986964
_cell_length_c   6.56388027
_cell_angle_alpha   89.45710468
_cell_angle_beta   89.42636734
_cell_angle_gamma   89.32289870
_symmetry_Int_Tables_number   1
_chemical_formula_structural   YEr7(ReBr4)2
_chemical_formula_sum   'Y1 Er7 Re2 Br8'
_cell_volume   524.57889035
_cell_formula_units_Z   1
loop_
 _symmetry_equiv_pos_site_id
 _symmetry_equiv_pos_as_xyz
  1  'x, y, z'
loop_
 _atom_site_type_symbol
 _atom_site_label
 _atom_site_symmetry_multiplicity
 _atom_site_fract_x
 _atom_site_fract_y
 _atom_site_fract_z
 _atom_site_occupancy
  Y  Y0  1  0.251908  0.900082  0.011857  1
  Er  Er1  1  0.752583  0.098828  0.987344  1
  Er  Er2  1  0.097655  0.752578  0.486917  1
  Er  Er3  1  0.901154  0.248011  0.512807  1
  Er  Er4  1  0.753127  0.903542  0.507680  1
  Er  Er5  1  0.246008  0.097554  0.491553  1
  Er  Er6  1  0.096196  0.246528  0.991578  1
  Er  Er7  1  0.903569  0.753822  0.008036  1
  Re  Re8  1  0.993464  0.005747  0.250263  1
  Re  Re9  1  0.005466  0.994344  0.748281  1
  Br  Br10  1  0.419205  0.816584  0.412622  1
  Br  Br11  1  0.580232  0.182925  0.589592  1
  Br  Br12  1  0.181920  0.578808  0.090203  1
  Br  Br13  1  0.816916  0.419851  0.910593  1
  Br  Br14  1  0.414871  0.191909  0.092052  1
  Br  Br15  1  0.586450  0.808370  0.908233  1
  Br  Br16  1  0.809504  0.585385  0.408070  1
  Br  Br17  1  0.189772  0.415132  0.592318  1
