# generated using pymatgen
data_PrEr4MnRuO12
_symmetry_space_group_name_H-M   'P 1'
_cell_length_a   6.87644320
_cell_length_b   6.87644113
_cell_length_c   7.28835581
_cell_angle_alpha   74.61391370
_cell_angle_beta   74.61391838
_cell_angle_gamma   50.09598549
_symmetry_Int_Tables_number   1
_chemical_formula_structural   PrEr4MnRuO12
_chemical_formula_sum   'Pr1 Er4 Mn1 Ru1 O12'
_cell_volume   252.78328364
_cell_formula_units_Z   1
loop_
 _symmetry_equiv_pos_site_id
 _symmetry_equiv_pos_as_xyz
  1  'x, y, z'
loop_
 _atom_site_type_symbol
 _atom_site_label
 _atom_site_symmetry_multiplicity
 _atom_site_fract_x
 _atom_site_fract_y
 _atom_site_fract_z
 _atom_site_occupancy
  Pr  Pr0  1  0.997878  0.002122  0.500000  1
  Er  Er1  1  0.308433  0.296425  0.358979  1
  Er  Er2  1  0.703575  0.691567  0.641021  1
  Er  Er3  1  0.696554  0.696151  0.163907  1
  Er  Er4  1  0.303849  0.303446  0.836093  1
  Mn  Mn5  1  0.748601  0.251399  0.000000  1
  Ru  Ru6  1  0.242961  0.757039  0.000000  1
  O  O7  1  0.098723  0.584051  0.579908  1
  O  O8  1  0.992807  0.005638  0.175812  1
  O  O9  1  0.415949  0.901277  0.420092  1
  O  O10  1  0.503400  0.497071  0.184955  1
  O  O11  1  0.097951  0.574389  0.080610  1
  O  O12  1  0.906433  0.415093  0.418870  1
  O  O13  1  0.994362  0.007193  0.824188  1
  O  O14  1  0.584907  0.093566  0.581130  1
  O  O15  1  0.502929  0.496600  0.815045  1
  O  O16  1  0.576583  0.101508  0.079786  1
  O  O17  1  0.425611  0.902049  0.919390  1
  O  O18  1  0.898492  0.423417  0.920214  1
