# generated using pymatgen
data_Dy20CoIrPt10
_symmetry_space_group_name_H-M   'P 1'
_cell_length_a   10.98897200
_cell_length_b   10.98897200
_cell_length_c   6.46388000
_cell_angle_alpha   90.00000000
_cell_angle_beta   90.00000000
_cell_angle_gamma   90.00000000
_symmetry_Int_Tables_number   1
_chemical_formula_structural   Dy20CoIrPt10
_chemical_formula_sum   'Dy20 Co1 Ir1 Pt10'
_cell_volume   780.56202541
_cell_formula_units_Z   1
loop_
 _symmetry_equiv_pos_site_id
 _symmetry_equiv_pos_as_xyz
  1  'x, y, z'
loop_
 _atom_site_type_symbol
 _atom_site_label
 _atom_site_symmetry_multiplicity
 _atom_site_fract_x
 _atom_site_fract_y
 _atom_site_fract_z
 _atom_site_occupancy
  Dy  Dy0  1  0.292182  0.089880  0.374919  1
  Dy  Dy1  1  0.292251  0.910639  0.875288  1
  Dy  Dy2  1  0.707749  0.089361  0.875288  1
  Dy  Dy3  1  0.707818  0.910120  0.374919  1
  Dy  Dy4  1  0.589361  0.792251  0.875288  1
  Dy  Dy5  1  0.589880  0.207818  0.374919  1
  Dy  Dy6  1  0.410120  0.792182  0.374919  1
  Dy  Dy7  1  0.410639  0.207749  0.875288  1
  Dy  Dy8  1  0.202008  0.413473  0.627330  1
  Dy  Dy9  1  0.201034  0.586703  0.120987  1
  Dy  Dy10  1  0.798966  0.413297  0.120987  1
  Dy  Dy11  1  0.797992  0.586527  0.627330  1
  Dy  Dy12  1  0.913297  0.701034  0.120987  1
  Dy  Dy13  1  0.913473  0.297992  0.627330  1
  Dy  Dy14  1  0.086527  0.702008  0.627330  1
  Dy  Dy15  1  0.086703  0.298966  0.120987  1
  Dy  Dy16  1  0.000000  0.000000  0.502472  1
  Dy  Dy17  1  0.000000  0.000000  0.002533  1
  Dy  Dy18  1  0.500000  0.500000  0.002533  1
  Dy  Dy19  1  0.500000  0.500000  0.502472  1
  Co  Co20  1  0.000000  0.500000  0.879384  1
  Ir  Ir21  1  0.000000  0.500000  0.378718  1
  Pt  Pt22  1  0.846287  0.153367  0.250749  1
  Pt  Pt23  1  0.846311  0.846606  0.750867  1
  Pt  Pt24  1  0.153689  0.153394  0.750867  1
  Pt  Pt25  1  0.153713  0.846633  0.250749  1
  Pt  Pt26  1  0.653394  0.346311  0.750867  1
  Pt  Pt27  1  0.653367  0.653713  0.250749  1
  Pt  Pt28  1  0.346633  0.346287  0.250749  1
  Pt  Pt29  1  0.346606  0.653689  0.750867  1
  Pt  Pt30  1  0.500000  0.000000  0.115863  1
  Pt  Pt31  1  0.500000  0.000000  0.615467  1
