# generated using pymatgen
data_LuU(Sb2Au)2
_symmetry_space_group_name_H-M   'P 1'
_cell_length_a   4.39899100
_cell_length_b   4.39899100
_cell_length_c   9.74986000
_cell_angle_alpha   90.00000000
_cell_angle_beta   90.00000000
_cell_angle_gamma   90.00000000
_symmetry_Int_Tables_number   1
_chemical_formula_structural   LuU(Sb2Au)2
_chemical_formula_sum   'Lu1 U1 Sb4 Au2'
_cell_volume   188.67072857
_cell_formula_units_Z   1
loop_
 _symmetry_equiv_pos_site_id
 _symmetry_equiv_pos_as_xyz
  1  'x, y, z'
loop_
 _atom_site_type_symbol
 _atom_site_label
 _atom_site_symmetry_multiplicity
 _atom_site_fract_x
 _atom_site_fract_y
 _atom_site_fract_z
 _atom_site_occupancy
  Lu  Lu0  1  0.500000  0.000000  0.243541  1
  U  U1  1  0.000000  0.500000  0.749666  1
  Sb  Sb2  1  0.500000  0.000000  0.705331  1
  Sb  Sb3  1  0.000000  0.500000  0.308424  1
  Sb  Sb4  1  0.000000  0.000000  0.997338  1
  Sb  Sb5  1  0.500000  0.500000  0.997338  1
  Au  Au6  1  0.000000  0.000000  0.499181  1
  Au  Au7  1  0.500000  0.500000  0.499181  1
