# generated using pymatgen
data_Pr6Co2Mo(P4Rh5)3
_symmetry_space_group_name_H-M   'P 1'
_cell_length_a   3.93848700
_cell_length_b   11.26730100
_cell_length_c   12.99274000
_cell_angle_alpha   90.00000000
_cell_angle_beta   90.00000000
_cell_angle_gamma   90.00000000
_symmetry_Int_Tables_number   1
_chemical_formula_structural   Pr6Co2Mo(P4Rh5)3
_chemical_formula_sum   'Pr6 Co2 Mo1 P12 Rh15'
_cell_volume   576.56737006
_cell_formula_units_Z   1
loop_
 _symmetry_equiv_pos_site_id
 _symmetry_equiv_pos_as_xyz
  1  'x, y, z'
loop_
 _atom_site_type_symbol
 _atom_site_label
 _atom_site_symmetry_multiplicity
 _atom_site_fract_x
 _atom_site_fract_y
 _atom_site_fract_z
 _atom_site_occupancy
  Pr  Pr0  1  0.000000  0.500000  0.519457  1
  Pr  Pr1  1  0.500000  0.000000  0.478905  1
  Pr  Pr2  1  0.500000  0.816290  0.202757  1
  Pr  Pr3  1  0.500000  0.183710  0.202757  1
  Pr  Pr4  1  0.000000  0.682644  0.799504  1
  Pr  Pr5  1  0.000000  0.317356  0.799504  1
  Co  Co6  1  0.000000  0.500000  0.992060  1
  Co  Co7  1  0.500000  0.000000  0.016263  1
  Mo  Mo8  1  0.500000  0.500000  0.156042  1
  P  P9  1  0.500000  0.500000  0.885532  1
  P  P10  1  0.000000  0.000000  0.114074  1
  P  P11  1  0.500000  0.500000  0.341202  1
  P  P12  1  0.000000  0.000000  0.653778  1
  P  P13  1  0.500000  0.312785  0.617733  1
  P  P14  1  0.500000  0.687215  0.617733  1
  P  P15  1  0.000000  0.188662  0.382606  1
  P  P16  1  0.000000  0.811338  0.382606  1
  P  P17  1  0.500000  0.855754  0.895320  1
  P  P18  1  0.500000  0.144246  0.895320  1
  P  P19  1  0.000000  0.647722  0.105121  1
  P  P20  1  0.000000  0.352278  0.105121  1
  Rh  Rh21  1  0.000000  0.000000  0.833640  1
  Rh  Rh22  1  0.500000  0.500000  0.704187  1
  Rh  Rh23  1  0.000000  0.000000  0.294737  1
  Rh  Rh24  1  0.500000  0.334775  0.992716  1
  Rh  Rh25  1  0.500000  0.665225  0.992716  1
  Rh  Rh26  1  0.000000  0.163677  0.006187  1
  Rh  Rh27  1  0.000000  0.836323  0.006187  1
  Rh  Rh28  1  0.500000  0.291832  0.431391  1
  Rh  Rh29  1  0.500000  0.708168  0.431391  1
  Rh  Rh30  1  0.000000  0.206388  0.571085  1
  Rh  Rh31  1  0.000000  0.793612  0.571085  1
  Rh  Rh32  1  0.500000  0.875932  0.712091  1
  Rh  Rh33  1  0.500000  0.124068  0.712091  1
  Rh  Rh34  1  0.000000  0.622944  0.288549  1
  Rh  Rh35  1  0.000000  0.377056  0.288549  1
