# generated using pymatgen
data_Cs4K2DyInAs4
_symmetry_space_group_name_H-M   'P 1'
_cell_length_a   9.95197021
_cell_length_b   9.95197049
_cell_length_c   9.95197034
_cell_angle_alpha   133.46617464
_cell_angle_beta   138.13891009
_cell_angle_gamma   64.36153465
_symmetry_Int_Tables_number   1
_chemical_formula_structural   Cs4K2DyInAs4
_chemical_formula_sum   'Cs4 K2 Dy1 In1 As4'
_cell_volume   470.88768542
_cell_formula_units_Z   1
loop_
 _symmetry_equiv_pos_site_id
 _symmetry_equiv_pos_as_xyz
  1  'x, y, z'
loop_
 _atom_site_type_symbol
 _atom_site_label
 _atom_site_symmetry_multiplicity
 _atom_site_fract_x
 _atom_site_fract_y
 _atom_site_fract_z
 _atom_site_occupancy
  Cs  Cs0  1  0.685432  0.437082  0.763964  1
  Cs  Cs1  1  0.814568  0.078531  0.251650  1
  Cs  Cs2  1  0.173118  0.921469  0.736036  1
  Cs  Cs3  1  0.326882  0.562918  0.248350  1
  K  K4  1  0.750000  0.000000  0.750000  1
  K  K5  1  0.250000  0.000000  0.250000  1
  Dy  Dy6  1  0.250000  0.500000  0.750000  1
  In  In7  1  0.750000  0.500000  0.250000  1
  As  As8  1  0.411646  0.210758  0.809316  1
  As  As9  1  0.598558  0.789242  0.200888  1
  As  As10  1  0.088354  0.397671  0.299112  1
  As  As11  1  0.901442  0.602329  0.690684  1
