# generated using pymatgen
data_Ho2B4Ir2Ru3
_symmetry_space_group_name_H-M   'P 1'
_cell_length_a   7.50282190
_cell_length_b   6.40190097
_cell_length_c   5.51932876
_cell_angle_alpha   77.61660008
_cell_angle_beta   56.45107075
_cell_angle_gamma   45.93234243
_symmetry_Int_Tables_number   1
_chemical_formula_structural   Ho2B4Ir2Ru3
_chemical_formula_sum   'Ho2 B4 Ir2 Ru3'
_cell_volume   152.22673771
_cell_formula_units_Z   1
loop_
 _symmetry_equiv_pos_site_id
 _symmetry_equiv_pos_as_xyz
  1  'x, y, z'
loop_
 _atom_site_type_symbol
 _atom_site_label
 _atom_site_symmetry_multiplicity
 _atom_site_fract_x
 _atom_site_fract_y
 _atom_site_fract_z
 _atom_site_occupancy
  Ho  Ho0  1  0.639255  0.639256  0.360745  1
  Ho  Ho1  1  0.360744  0.360745  0.639256  1
  B  B2  1  0.289949  0.973498  0.033513  1
  B  B3  1  0.033512  0.703041  0.289950  1
  B  B4  1  0.973497  0.289950  0.703041  1
  B  B5  1  0.703040  0.033513  0.973497  1
  Ir  Ir6  1  0.000000  0.000000  0.000000  1
  Ir  Ir7  1  0.750001  0.749999  0.750000  1
  Ru  Ru8  1  0.500190  0.500188  0.999811  1
  Ru  Ru9  1  0.250001  0.249999  0.250000  1
  Ru  Ru10  1  0.999811  0.999811  0.500189  1
