# generated using pymatgen
data_Tb4Y4Hf11Si16Au
_symmetry_space_group_name_H-M   'P 1'
_cell_length_a   7.30054342
_cell_length_b   7.29949827
_cell_length_c   13.27646838
_cell_angle_alpha   89.76415661
_cell_angle_beta   90.21116740
_cell_angle_gamma   89.82008932
_symmetry_Int_Tables_number   1
_chemical_formula_structural   Tb4Y4Hf11Si16Au
_chemical_formula_sum   'Tb4 Y4 Hf11 Si16 Au1'
_cell_volume   707.49271634
_cell_formula_units_Z   1
loop_
 _symmetry_equiv_pos_site_id
 _symmetry_equiv_pos_as_xyz
  1  'x, y, z'
loop_
 _atom_site_type_symbol
 _atom_site_label
 _atom_site_symmetry_multiplicity
 _atom_site_fract_x
 _atom_site_fract_y
 _atom_site_fract_z
 _atom_site_occupancy
  Tb  Tb0  1  0.848443  0.498083  0.967361  1
  Tb  Tb1  1  0.495471  0.154928  0.535206  1
  Tb  Tb2  1  0.345925  0.997755  0.789484  1
  Tb  Tb3  1  0.654790  0.005007  0.283443  1
  Y  Y4  1  0.997693  0.346208  0.210739  1
  Y  Y5  1  0.005023  0.654536  0.716517  1
  Y  Y6  1  0.154758  0.495806  0.464670  1
  Y  Y7  1  0.498162  0.848289  0.032658  1
  Hf  Hf8  1  0.824708  0.824725  0.499958  1
  Hf  Hf9  1  0.322828  0.677306  0.248985  1
  Hf  Hf10  1  0.677245  0.322833  0.750917  1
  Hf  Hf11  1  0.145551  0.996462  0.373930  1
  Hf  Hf12  1  0.857095  0.003150  0.879077  1
  Hf  Hf13  1  0.504403  0.646753  0.626534  1
  Hf  Hf14  1  0.355458  0.491724  0.877711  1
  Hf  Hf15  1  0.491547  0.355695  0.122291  1
  Hf  Hf16  1  0.646659  0.504483  0.373562  1
  Hf  Hf17  1  0.996760  0.145361  0.626229  1
  Hf  Hf18  1  0.003114  0.857231  0.120941  1
  Si  Si19  1  0.359471  0.296375  0.316359  1
  Si  Si20  1  0.640252  0.704190  0.819758  1
  Si  Si21  1  0.206914  0.861036  0.568643  1
  Si  Si22  1  0.131729  0.774597  0.927052  1
  Si  Si23  1  0.774766  0.131445  0.072976  1
  Si  Si24  1  0.861144  0.206953  0.431471  1
  Si  Si25  1  0.296186  0.359618  0.683745  1
  Si  Si26  1  0.704267  0.640028  0.180110  1
  Si  Si27  1  0.294698  0.052424  0.188665  1
  Si  Si28  1  0.705328  0.950112  0.686917  1
  Si  Si29  1  0.449781  0.795257  0.435569  1
  Si  Si30  1  0.210460  0.566502  0.064150  1
  Si  Si31  1  0.566335  0.210068  0.935852  1
  Si  Si32  1  0.795467  0.450016  0.564328  1
  Si  Si33  1  0.052509  0.295048  0.811103  1
  Si  Si34  1  0.950224  0.705241  0.313032  1
  Au  Au35  1  0.174836  0.174752  0.000055  1
