# generated using pymatgen
data_Sr13Ca7(Bi2As)4
_symmetry_space_group_name_H-M   'P 1'
_cell_length_a   8.66870557
_cell_length_b   9.85890602
_cell_length_c   13.23775600
_cell_angle_alpha   89.97642825
_cell_angle_beta   90.06495154
_cell_angle_gamma   90.01100478
_symmetry_Int_Tables_number   1
_chemical_formula_structural   Sr13Ca7(Bi2As)4
_chemical_formula_sum   'Sr13 Ca7 Bi8 As4'
_cell_volume   1131.35011963
_cell_formula_units_Z   1
loop_
 _symmetry_equiv_pos_site_id
 _symmetry_equiv_pos_as_xyz
  1  'x, y, z'
loop_
 _atom_site_type_symbol
 _atom_site_label
 _atom_site_symmetry_multiplicity
 _atom_site_fract_x
 _atom_site_fract_y
 _atom_site_fract_z
 _atom_site_occupancy
  Sr  Sr0  1  0.858996  0.746744  0.797876  1
  Sr  Sr1  1  0.141859  0.252733  0.201385  1
  Sr  Sr2  1  0.357568  0.254849  0.700793  1
  Sr  Sr3  1  0.640722  0.746796  0.300540  1
  Sr  Sr4  1  0.311910  0.037115  0.428890  1
  Sr  Sr5  1  0.816933  0.537206  0.071728  1
  Sr  Sr6  1  0.687234  0.963307  0.571925  1
  Sr  Sr7  1  0.812669  0.963813  0.071725  1
  Sr  Sr8  1  0.187032  0.038031  0.926597  1
  Sr  Sr9  1  0.330563  0.747229  0.715608  1
  Sr  Sr10  1  0.667760  0.252075  0.286300  1
  Sr  Sr11  1  0.830315  0.252158  0.784272  1
  Sr  Sr12  1  0.170610  0.748578  0.216246  1
  Ca  Ca13  1  0.043491  0.744709  0.502725  1
  Ca  Ca14  1  0.956941  0.255314  0.498421  1
  Ca  Ca15  1  0.541303  0.252721  0.997412  1
  Ca  Ca16  1  0.452409  0.747555  0.001710  1
  Ca  Ca17  1  0.682296  0.535571  0.572389  1
  Ca  Ca18  1  0.317412  0.464306  0.427540  1
  Ca  Ca19  1  0.185286  0.463904  0.926084  1
  Bi  Bi20  1  0.559797  0.509610  0.832867  1
  Bi  Bi21  1  0.435679  0.489565  0.168386  1
  Bi  Bi22  1  0.059350  0.490504  0.667921  1
  Bi  Bi23  1  0.435421  0.010266  0.166717  1
  Bi  Bi24  1  0.940666  0.509507  0.335106  1
  Bi  Bi25  1  0.564781  0.990054  0.833379  1
  Bi  Bi26  1  0.934747  0.989724  0.334276  1
  Bi  Bi27  1  0.064987  0.010014  0.665117  1
  As  As28  1  0.084422  0.743311  0.983293  1
  As  As29  1  0.927807  0.252854  0.012102  1
  As  As30  1  0.577501  0.258898  0.515076  1
  As  As31  1  0.421529  0.740978  0.485595  1
