# generated using pymatgen
data_Cs2Tb2MgMnTe6
_symmetry_space_group_name_H-M   'P 1'
_cell_length_a   8.86995813
_cell_length_b   8.86995805
_cell_length_c   11.83186800
_cell_angle_alpha   90.00000000
_cell_angle_beta   90.00000000
_cell_angle_gamma   150.13468894
_symmetry_Int_Tables_number   1
_chemical_formula_structural   Cs2Tb2MgMnTe6
_chemical_formula_sum   'Cs2 Tb2 Mg1 Mn1 Te6'
_cell_volume   463.54654638
_cell_formula_units_Z   1
loop_
 _symmetry_equiv_pos_site_id
 _symmetry_equiv_pos_as_xyz
  1  'x, y, z'
loop_
 _atom_site_type_symbol
 _atom_site_label
 _atom_site_symmetry_multiplicity
 _atom_site_fract_x
 _atom_site_fract_y
 _atom_site_fract_z
 _atom_site_occupancy
  Cs  Cs0  1  0.752922  0.247077  0.250000  1
  Cs  Cs1  1  0.247237  0.752762  0.750000  1
  Tb  Tb2  1  0.499525  0.500475  0.002178  1
  Tb  Tb3  1  0.499525  0.500475  0.497822  1
  Mg  Mg4  1  0.965062  0.034937  0.750000  1
  Mn  Mn5  1  0.034963  0.965036  0.250000  1
  Te  Te6  1  0.118420  0.881579  0.057643  1
  Te  Te7  1  0.441467  0.558532  0.250000  1
  Te  Te8  1  0.118420  0.881579  0.442356  1
  Te  Te9  1  0.879722  0.120277  0.550801  1
  Te  Te10  1  0.563010  0.436989  0.750000  1
  Te  Te11  1  0.879722  0.120277  0.949199  1
