# generated using pymatgen
data_Lu10Hg3Ru
_symmetry_space_group_name_H-M   'P 1'
_cell_length_a   9.39025173
_cell_length_b   9.40113707
_cell_length_c   9.45148700
_cell_angle_alpha   90.00000000
_cell_angle_beta   90.00000000
_cell_angle_gamma   120.03096412
_symmetry_Int_Tables_number   1
_chemical_formula_structural   Lu10Hg3Ru
_chemical_formula_sum   'Lu20 Hg6 Ru2'
_cell_volume   722.35852318
_cell_formula_units_Z   2
loop_
 _symmetry_equiv_pos_site_id
 _symmetry_equiv_pos_as_xyz
  1  'x, y, z'
loop_
 _atom_site_type_symbol
 _atom_site_label
 _atom_site_symmetry_multiplicity
 _atom_site_fract_x
 _atom_site_fract_y
 _atom_site_fract_z
 _atom_site_occupancy
  Lu  Lu0  1  0.000000  0.000000  0.500000  1
  Lu  Lu1  1  0.000000  0.000000  0.000000  1
  Lu  Lu2  1  0.209900  0.790073  0.440239  1
  Lu  Lu3  1  0.209918  0.419846  0.440252  1
  Lu  Lu4  1  0.580152  0.790063  0.440280  1
  Lu  Lu5  1  0.790100  0.209927  0.559761  1
  Lu  Lu6  1  0.790082  0.580154  0.559748  1
  Lu  Lu7  1  0.419848  0.209937  0.559720  1
  Lu  Lu8  1  0.790100  0.209927  0.940239  1
  Lu  Lu9  1  0.790082  0.580154  0.940252  1
  Lu  Lu10  1  0.419848  0.209937  0.940280  1
  Lu  Lu11  1  0.209900  0.790073  0.059761  1
  Lu  Lu12  1  0.209918  0.419846  0.059748  1
  Lu  Lu13  1  0.580152  0.790063  0.059720  1
  Lu  Lu14  1  0.540796  0.459013  0.250000  1
  Lu  Lu15  1  0.540814  0.081795  0.250000  1
  Lu  Lu16  1  0.918190  0.459098  0.250000  1
  Lu  Lu17  1  0.459204  0.540987  0.750000  1
  Lu  Lu18  1  0.459186  0.918205  0.750000  1
  Lu  Lu19  1  0.081810  0.540902  0.750000  1
  Hg  Hg20  1  0.881825  0.118586  0.250000  1
  Hg  Hg21  1  0.881842  0.763251  0.250000  1
  Hg  Hg22  1  0.236763  0.118356  0.250000  1
  Hg  Hg23  1  0.118175  0.881414  0.750000  1
  Hg  Hg24  1  0.118158  0.236749  0.750000  1
  Hg  Hg25  1  0.763237  0.881644  0.750000  1
  Ru  Ru26  1  0.333388  0.666712  0.250000  1
  Ru  Ru27  1  0.666612  0.333288  0.750000  1
