# generated using pymatgen
data_CsPr10(C2Br9)2
_symmetry_space_group_name_H-M   'P 1'
_cell_length_a   11.09291877
_cell_length_b   11.17884982
_cell_length_c   11.36048369
_cell_angle_alpha   112.88936848
_cell_angle_beta   87.87093444
_cell_angle_gamma   118.50293370
_symmetry_Int_Tables_number   1
_chemical_formula_structural   CsPr10(C2Br9)2
_chemical_formula_sum   'Cs1 Pr10 C4 Br18'
_cell_volume   1121.19160819
_cell_formula_units_Z   1
loop_
 _symmetry_equiv_pos_site_id
 _symmetry_equiv_pos_as_xyz
  1  'x, y, z'
loop_
 _atom_site_type_symbol
 _atom_site_label
 _atom_site_symmetry_multiplicity
 _atom_site_fract_x
 _atom_site_fract_y
 _atom_site_fract_z
 _atom_site_occupancy
  Cs  Cs0  1  0.500000  0.000000  0.500000  1
  Pr  Pr1  1  0.654475  0.714579  0.697976  1
  Pr  Pr2  1  0.281836  0.366967  0.013355  1
  Pr  Pr3  1  0.092168  0.413694  0.305067  1
  Pr  Pr4  1  0.961827  0.038263  0.334408  1
  Pr  Pr5  1  0.907832  0.586306  0.694933  1
  Pr  Pr6  1  0.115920  0.941050  0.001055  1
  Pr  Pr7  1  0.038173  0.961737  0.665592  1
  Pr  Pr8  1  0.345525  0.285421  0.302024  1
  Pr  Pr9  1  0.718164  0.633033  0.986645  1
  Pr  Pr10  1  0.884080  0.058950  0.998945  1
  C  C11  1  0.156194  0.229413  0.128299  1
  C  C12  1  0.843806  0.770587  0.871701  1
  C  C13  1  0.917748  0.846117  0.795559  1
  C  C14  1  0.082252  0.153883  0.204441  1
  Br  Br15  1  0.451378  0.530812  0.831136  1
  Br  Br16  1  0.385299  0.036554  0.161314  1
  Br  Br17  1  0.772980  0.857031  0.502189  1
  Br  Br18  1  0.835034  0.312723  0.155000  1
  Br  Br19  1  0.548622  0.469188  0.168864  1
  Br  Br20  1  0.227020  0.142969  0.497811  1
  Br  Br21  1  0.312618  0.098336  0.832574  1
  Br  Br22  1  0.687382  0.901664  0.167426  1
  Br  Br23  1  0.978932  0.764192  0.171772  1
  Br  Br24  1  0.930140  0.300635  0.501076  1
  Br  Br25  1  0.021068  0.235808  0.828228  1
  Br  Br26  1  0.069860  0.699365  0.498924  1
  Br  Br27  1  0.262876  0.627240  0.190384  1
  Br  Br28  1  0.737124  0.372760  0.809616  1
  Br  Br29  1  0.636905  0.429938  0.498549  1
  Br  Br30  1  0.164966  0.687277  0.845000  1
  Br  Br31  1  0.614701  0.963446  0.838686  1
  Br  Br32  1  0.363095  0.570062  0.501451  1
