# generated using pymatgen
data_La2Pr3CoAu2
_symmetry_space_group_name_H-M   'P 1'
_cell_length_a   8.75538556
_cell_length_b   8.35837445
_cell_length_c   12.26539737
_cell_angle_alpha   90.22616281
_cell_angle_beta   89.86430922
_cell_angle_gamma   90.11470004
_symmetry_Int_Tables_number   1
_chemical_formula_structural   La2Pr3CoAu2
_chemical_formula_sum   'La8 Pr12 Co4 Au8'
_cell_volume   897.58018978
_cell_formula_units_Z   4
loop_
 _symmetry_equiv_pos_site_id
 _symmetry_equiv_pos_as_xyz
  1  'x, y, z'
loop_
 _atom_site_type_symbol
 _atom_site_label
 _atom_site_symmetry_multiplicity
 _atom_site_fract_x
 _atom_site_fract_y
 _atom_site_fract_z
 _atom_site_occupancy
  La  La0  1  0.841440  0.748421  0.791592  1
  La  La1  1  0.158416  0.250784  0.208714  1
  La  La2  1  0.339414  0.251385  0.710528  1
  La  La3  1  0.658817  0.749569  0.291825  1
  La  La4  1  0.382776  0.748503  0.697729  1
  La  La5  1  0.672654  0.031817  0.571016  1
  La  La6  1  0.327366  0.971683  0.428258  1
  La  La7  1  0.170313  0.968509  0.929348  1
  Pr  Pr8  1  0.619984  0.252549  0.298910  1
  Pr  Pr9  1  0.880426  0.251425  0.800912  1
  Pr  Pr10  1  0.119304  0.748449  0.199056  1
  Pr  Pr11  1  0.959496  0.746133  0.492018  1
  Pr  Pr12  1  0.040670  0.252826  0.508280  1
  Pr  Pr13  1  0.458725  0.252820  0.008349  1
  Pr  Pr14  1  0.542041  0.748724  0.992142  1
  Pr  Pr15  1  0.326461  0.535288  0.425779  1
  Pr  Pr16  1  0.824105  0.034243  0.073917  1
  Pr  Pr17  1  0.674054  0.461824  0.572358  1
  Pr  Pr18  1  0.827204  0.464438  0.072594  1
  Pr  Pr19  1  0.175194  0.535109  0.926233  1
  Co  Co20  1  0.562380  0.754852  0.509144  1
  Co  Co21  1  0.434864  0.244807  0.493654  1
  Co  Co22  1  0.066526  0.244570  0.993698  1
  Co  Co23  1  0.938964  0.749725  0.004827  1
  Au  Au24  1  0.579192  0.472939  0.825923  1
  Au  Au25  1  0.421718  0.527230  0.173785  1
  Au  Au26  1  0.077729  0.525608  0.673395  1
  Au  Au27  1  0.422926  0.974565  0.172953  1
  Au  Au28  1  0.921245  0.473779  0.326339  1
  Au  Au29  1  0.578436  0.026822  0.827278  1
  Au  Au30  1  0.920687  0.025258  0.326970  1
  Au  Au31  1  0.076474  0.975345  0.672474  1
