# generated using pymatgen
data_Dy19ErPb16
_symmetry_space_group_name_H-M   'P 1'
_cell_length_a   8.20493210
_cell_length_b   8.28420811
_cell_length_c   15.64423400
_cell_angle_alpha   90.00000000
_cell_angle_beta   90.00000000
_cell_angle_gamma   90.01829122
_symmetry_Int_Tables_number   1
_chemical_formula_structural   Dy19ErPb16
_chemical_formula_sum   'Dy19 Er1 Pb16'
_cell_volume   1063.35988589
_cell_formula_units_Z   1
loop_
 _symmetry_equiv_pos_site_id
 _symmetry_equiv_pos_as_xyz
  1  'x, y, z'
loop_
 _atom_site_type_symbol
 _atom_site_label
 _atom_site_symmetry_multiplicity
 _atom_site_fract_x
 _atom_site_fract_y
 _atom_site_fract_z
 _atom_site_occupancy
  Dy  Dy0  1  0.377472  0.840540  0.879589  1
  Dy  Dy1  1  0.877487  0.659471  0.620475  1
  Dy  Dy2  1  0.622336  0.159353  0.379480  1
  Dy  Dy3  1  0.122635  0.340453  0.120501  1
  Dy  Dy4  1  0.622336  0.159353  0.120520  1
  Dy  Dy5  1  0.122635  0.340453  0.379499  1
  Dy  Dy6  1  0.377472  0.840540  0.620411  1
  Dy  Dy7  1  0.877487  0.659471  0.879525  1
  Dy  Dy8  1  0.534728  0.323243  0.899892  1
  Dy  Dy9  1  0.034709  0.176761  0.600060  1
  Dy  Dy10  1  0.465227  0.676892  0.399894  1
  Dy  Dy11  1  0.965398  0.823327  0.100120  1
  Dy  Dy12  1  0.465227  0.676892  0.100106  1
  Dy  Dy13  1  0.965398  0.823327  0.399880  1
  Dy  Dy14  1  0.534728  0.323243  0.600108  1
  Dy  Dy15  1  0.034709  0.176761  0.899940  1
  Dy  Dy16  1  0.208824  0.503762  0.750000  1
  Dy  Dy17  1  0.708815  0.996300  0.750000  1
  Dy  Dy18  1  0.791205  0.496294  0.250000  1
  Er  Er19  1  0.291056  0.003918  0.250000  1
  Pb  Pb20  1  0.280837  0.032788  0.042922  1
  Pb  Pb21  1  0.780803  0.467129  0.457368  1
  Pb  Pb22  1  0.719199  0.967085  0.542512  1
  Pb  Pb23  1  0.219187  0.532873  0.957483  1
  Pb  Pb24  1  0.719199  0.967085  0.957488  1
  Pb  Pb25  1  0.219187  0.532873  0.542517  1
  Pb  Pb26  1  0.280837  0.032788  0.457078  1
  Pb  Pb27  1  0.780803  0.467129  0.042632  1
  Pb  Pb28  1  0.572767  0.626302  0.750000  1
  Pb  Pb29  1  0.072756  0.873694  0.750000  1
  Pb  Pb30  1  0.426992  0.373394  0.250000  1
  Pb  Pb31  1  0.927783  0.125766  0.250000  1
  Pb  Pb32  1  0.346206  0.152162  0.750000  1
  Pb  Pb33  1  0.846247  0.347674  0.750000  1
  Pb  Pb34  1  0.653440  0.847864  0.250000  1
  Pb  Pb35  1  0.153871  0.653039  0.250000  1
