# generated using pymatgen
data_DyEr7Zn2(Si6Rh)2
_symmetry_space_group_name_H-M   'P 1'
_cell_length_a   8.10774900
_cell_length_b   8.10775046
_cell_length_c   7.98494100
_cell_angle_alpha   90.00000000
_cell_angle_beta   90.00000000
_cell_angle_gamma   119.99999812
_symmetry_Int_Tables_number   1
_chemical_formula_structural   DyEr7Zn2(Si6Rh)2
_chemical_formula_sum   'Dy1 Er7 Zn2 Si12 Rh2'
_cell_volume   454.57235497
_cell_formula_units_Z   1
loop_
 _symmetry_equiv_pos_site_id
 _symmetry_equiv_pos_as_xyz
  1  'x, y, z'
loop_
 _atom_site_type_symbol
 _atom_site_label
 _atom_site_symmetry_multiplicity
 _atom_site_fract_x
 _atom_site_fract_y
 _atom_site_fract_z
 _atom_site_occupancy
  Dy  Dy0  1  0.000000  0.000000  0.250000  1
  Er  Er1  1  0.000000  0.000000  0.750000  1
  Er  Er2  1  0.493195  0.506805  0.250000  1
  Er  Er3  1  0.493195  0.986389  0.250000  1
  Er  Er4  1  0.013611  0.506805  0.250000  1
  Er  Er5  1  0.498624  0.501376  0.750000  1
  Er  Er6  1  0.002752  0.501376  0.750000  1
  Er  Er7  1  0.498624  0.997248  0.750000  1
  Zn  Zn8  1  0.666667  0.333333  0.489220  1
  Zn  Zn9  1  0.666667  0.333333  0.010780  1
  Si  Si10  1  0.835759  0.164241  0.500308  1
  Si  Si11  1  0.835759  0.671521  0.500308  1
  Si  Si12  1  0.328479  0.164241  0.500308  1
  Si  Si13  1  0.835759  0.164241  0.999692  1
  Si  Si14  1  0.835759  0.671521  0.999692  1
  Si  Si15  1  0.328479  0.164241  0.999692  1
  Si  Si16  1  0.168567  0.831433  0.998947  1
  Si  Si17  1  0.662867  0.831433  0.998947  1
  Si  Si18  1  0.168567  0.337133  0.998947  1
  Si  Si19  1  0.168567  0.831433  0.501053  1
  Si  Si20  1  0.662867  0.831433  0.501053  1
  Si  Si21  1  0.168567  0.337133  0.501053  1
  Rh  Rh22  1  0.333333  0.666667  0.993464  1
  Rh  Rh23  1  0.333333  0.666667  0.506536  1
