# generated using pymatgen
data_NaPr5SmRhBr12
_symmetry_space_group_name_H-M   'P 1'
_cell_length_a   9.58575067
_cell_length_b   9.69646633
_cell_length_c   9.57528445
_cell_angle_alpha   107.56581478
_cell_angle_beta   107.09974408
_cell_angle_gamma   107.02398430
_symmetry_Int_Tables_number   1
_chemical_formula_structural   NaPr5SmRhBr12
_chemical_formula_sum   'Na1 Pr5 Sm1 Rh1 Br12'
_cell_volume   736.49106663
_cell_formula_units_Z   1
loop_
 _symmetry_equiv_pos_site_id
 _symmetry_equiv_pos_as_xyz
  1  'x, y, z'
loop_
 _atom_site_type_symbol
 _atom_site_label
 _atom_site_symmetry_multiplicity
 _atom_site_fract_x
 _atom_site_fract_y
 _atom_site_fract_z
 _atom_site_occupancy
  Na  Na0  1  0.499940  0.500070  0.499881  1
  Pr  Pr1  1  0.316320  0.030024  0.110941  1
  Pr  Pr2  1  0.031384  0.112372  0.318684  1
  Pr  Pr3  1  0.969291  0.889907  0.682181  1
  Pr  Pr4  1  0.683858  0.970170  0.889052  1
  Pr  Pr5  1  0.883584  0.669678  0.967977  1
  Sm  Sm6  1  0.115260  0.325989  0.032120  1
  Rh  Rh7  1  0.000579  0.001149  0.000623  1
  Br  Br8  1  0.217617  0.681770  0.072440  1
  Br  Br9  1  0.448035  0.370857  0.153777  1
  Br  Br10  1  0.684383  0.073139  0.219173  1
  Br  Br11  1  0.927797  0.783979  0.316206  1
  Br  Br12  1  0.155423  0.452230  0.366816  1
  Br  Br13  1  0.374310  0.158232  0.456586  1
  Br  Br14  1  0.625701  0.841909  0.543579  1
  Br  Br15  1  0.844094  0.547805  0.626937  1
  Br  Br16  1  0.073448  0.219561  0.689723  1
  Br  Br17  1  0.315681  0.926927  0.780996  1
  Br  Br18  1  0.545537  0.629402  0.843245  1
  Br  Br19  1  0.787762  0.314832  0.929067  1
