# generated using pymatgen
data_Ti12Zn7PtO4
_symmetry_space_group_name_H-M   'P 1'
_cell_length_a   6.86127837
_cell_length_b   6.86127837
_cell_length_c   6.86127837
_cell_angle_alpha   89.97347543
_cell_angle_beta   90.02652457
_cell_angle_gamma   90.02652457
_symmetry_Int_Tables_number   1
_chemical_formula_structural   Ti12Zn7PtO4
_chemical_formula_sum   'Ti12 Zn7 Pt1 O4'
_cell_volume   323.00926422
_cell_formula_units_Z   1
loop_
 _symmetry_equiv_pos_site_id
 _symmetry_equiv_pos_as_xyz
  1  'x, y, z'
loop_
 _atom_site_type_symbol
 _atom_site_label
 _atom_site_symmetry_multiplicity
 _atom_site_fract_x
 _atom_site_fract_y
 _atom_site_fract_z
 _atom_site_occupancy
  Ti  Ti0  1  0.792993  0.958673  0.374110  1
  Ti  Ti1  1  0.707864  0.039787  0.873136  1
  Ti  Ti2  1  0.208300  0.462223  0.128746  1
  Ti  Ti3  1  0.285262  0.544161  0.616344  1
  Ti  Ti4  1  0.960213  0.373136  0.792136  1
  Ti  Ti5  1  0.041327  0.874110  0.707007  1
  Ti  Ti6  1  0.455839  0.116344  0.214738  1
  Ti  Ti7  1  0.537777  0.628746  0.291700  1
  Ti  Ti8  1  0.371254  0.791700  0.962223  1
  Ti  Ti9  1  0.883656  0.714738  0.044161  1
  Ti  Ti10  1  0.125890  0.207007  0.458673  1
  Ti  Ti11  1  0.626864  0.292136  0.539787  1
  Zn  Zn12  1  0.322483  0.181778  0.821127  1
  Zn  Zn13  1  0.818222  0.321127  0.177517  1
  Zn  Zn14  1  0.678873  0.677517  0.681778  1
  Zn  Zn15  1  0.570646  0.429354  0.929354  1
  Zn  Zn16  1  0.435353  0.930545  0.577523  1
  Zn  Zn17  1  0.922477  0.564647  0.430545  1
  Zn  Zn18  1  0.069455  0.077523  0.064647  1
  Pt  Pt19  1  0.177879  0.822121  0.322121  1
  O  O20  1  0.876069  0.123931  0.623931  1
  O  O21  1  0.627041  0.872486  0.123250  1
  O  O22  1  0.127514  0.623250  0.872959  1
  O  O23  1  0.376750  0.372959  0.372486  1
