# generated using pymatgen
data_Tm2Sc2Ni2C5
_symmetry_space_group_name_H-M   'P 1'
_cell_length_a   3.44783800
_cell_length_b   3.62969200
_cell_length_c   11.23126800
_cell_angle_alpha   90.00000000
_cell_angle_beta   90.00000000
_cell_angle_gamma   90.00000000
_symmetry_Int_Tables_number   1
_chemical_formula_structural   Tm2Sc2Ni2C5
_chemical_formula_sum   'Tm2 Sc2 Ni2 C5'
_cell_volume   140.55471427
_cell_formula_units_Z   1
loop_
 _symmetry_equiv_pos_site_id
 _symmetry_equiv_pos_as_xyz
  1  'x, y, z'
loop_
 _atom_site_type_symbol
 _atom_site_label
 _atom_site_symmetry_multiplicity
 _atom_site_fract_x
 _atom_site_fract_y
 _atom_site_fract_z
 _atom_site_occupancy
  Tm  Tm0  1  0.500000  0.214899  0.500000  1
  Tm  Tm1  1  0.000000  0.990002  0.000000  1
  Sc  Sc2  1  0.500000  0.495155  0.197759  1
  Sc  Sc3  1  0.500000  0.495155  0.802241  1
  Ni  Ni4  1  0.000000  0.701896  0.380847  1
  Ni  Ni5  1  0.000000  0.701896  0.619153  1
  C  C6  1  0.000000  0.999302  0.223079  1
  C  C7  1  0.000000  0.999302  0.776921  1
  C  C8  1  0.000000  0.205621  0.326863  1
  C  C9  1  0.000000  0.205621  0.673137  1
  C  C10  1  0.500000  0.492652  0.000000  1
