# generated using pymatgen
data_Tb3DyP3S
_symmetry_space_group_name_H-M   'P 1'
_cell_length_a   4.00632000
_cell_length_b   5.64515700
_cell_length_c   8.00805600
_cell_angle_alpha   90.00000000
_cell_angle_beta   90.00000000
_cell_angle_gamma   90.00000000
_symmetry_Int_Tables_number   1
_chemical_formula_structural   Tb3DyP3S
_chemical_formula_sum   'Tb3 Dy1 P3 S1'
_cell_volume   181.11264009
_cell_formula_units_Z   1
loop_
 _symmetry_equiv_pos_site_id
 _symmetry_equiv_pos_as_xyz
  1  'x, y, z'
loop_
 _atom_site_type_symbol
 _atom_site_label
 _atom_site_symmetry_multiplicity
 _atom_site_fract_x
 _atom_site_fract_y
 _atom_site_fract_z
 _atom_site_occupancy
  Tb  Tb0  1  0.500000  0.500000  0.244105  1
  Tb  Tb1  1  0.000000  0.000000  0.500000  1
  Tb  Tb2  1  0.500000  0.500000  0.755895  1
  Dy  Dy3  1  0.000000  0.000000  0.000000  1
  P  P4  1  0.500000  0.000000  0.748188  1
  P  P5  1  0.000000  0.500000  0.000000  1
  P  P6  1  0.500000  0.000000  0.251812  1
  S  S7  1  0.000000  0.500000  0.500000  1
