# generated using pymatgen
data_CeHo7(CdRu)2
_symmetry_space_group_name_H-M   'P 1'
_cell_length_a   9.68227155
_cell_length_b   9.57527076
_cell_length_c   9.57527056
_cell_angle_alpha   59.61679473
_cell_angle_beta   59.62964731
_cell_angle_gamma   59.62964809
_symmetry_Int_Tables_number   1
_chemical_formula_structural   CeHo7(CdRu)2
_chemical_formula_sum   'Ce2 Ho14 Cd4 Ru4'
_cell_volume   622.37346320
_cell_formula_units_Z   2
loop_
 _symmetry_equiv_pos_site_id
 _symmetry_equiv_pos_as_xyz
  1  'x, y, z'
loop_
 _atom_site_type_symbol
 _atom_site_label
 _atom_site_symmetry_multiplicity
 _atom_site_fract_x
 _atom_site_fract_y
 _atom_site_fract_z
 _atom_site_occupancy
  Ce  Ce0  1  0.970315  0.340909  0.340909  1
  Ce  Ce1  1  0.347867  0.340909  0.340909  1
  Ho  Ho2  1  0.563364  0.562185  0.937578  1
  Ho  Ho3  1  0.936874  0.562185  0.937578  1
  Ho  Ho4  1  0.561673  0.938327  0.938327  1
  Ho  Ho5  1  0.936874  0.937578  0.562185  1
  Ho  Ho6  1  0.563364  0.937578  0.562185  1
  Ho  Ho7  1  0.939124  0.560876  0.560876  1
  Ho  Ho8  1  0.189979  0.188405  0.812153  1
  Ho  Ho9  1  0.809462  0.188405  0.812153  1
  Ho  Ho10  1  0.188627  0.811373  0.811372  1
  Ho  Ho11  1  0.809462  0.812154  0.188405  1
  Ho  Ho12  1  0.189978  0.812153  0.188404  1
  Ho  Ho13  1  0.810931  0.189069  0.189069  1
  Ho  Ho14  1  0.348764  0.350073  0.952400  1
  Ho  Ho15  1  0.348764  0.952400  0.350073  1
  Cd  Cd16  1  0.582001  0.579467  0.256530  1
  Cd  Cd17  1  0.582001  0.256530  0.579467  1
  Cd  Cd18  1  0.259217  0.579809  0.579809  1
  Cd  Cd19  1  0.581164  0.579809  0.579809  1
  Ru  Ru20  1  0.137550  0.151706  0.573193  1
  Ru  Ru21  1  0.137550  0.573193  0.151706  1
  Ru  Ru22  1  0.573047  0.147453  0.147453  1
  Ru  Ru23  1  0.132046  0.147453  0.147453  1
