# generated using pymatgen
data_Dy5Co12Si8P4Ru7
_symmetry_space_group_name_H-M   'P 1'
_cell_length_a   12.32957535
_cell_length_b   12.35308129
_cell_length_c   3.77332300
_cell_angle_alpha   90.00000000
_cell_angle_beta   90.00000000
_cell_angle_gamma   119.90524800
_symmetry_Int_Tables_number   1
_chemical_formula_structural   Dy5Co12Si8P4Ru7
_chemical_formula_sum   'Dy5 Co12 Si8 P4 Ru7'
_cell_volume   498.18643607
_cell_formula_units_Z   1
loop_
 _symmetry_equiv_pos_site_id
 _symmetry_equiv_pos_as_xyz
  1  'x, y, z'
loop_
 _atom_site_type_symbol
 _atom_site_label
 _atom_site_symmetry_multiplicity
 _atom_site_fract_x
 _atom_site_fract_y
 _atom_site_fract_z
 _atom_site_occupancy
  Dy  Dy0  1  0.667117  0.334127  0.000000  1
  Dy  Dy1  1  0.334090  0.664973  0.000000  1
  Dy  Dy2  1  0.182299  0.179987  0.500000  1
  Dy  Dy3  1  0.820036  0.001500  0.500000  1
  Dy  Dy4  1  0.998716  0.818445  0.500000  1
  Co  Co5  1  0.831235  0.195552  0.000000  1
  Co  Co6  1  0.801124  0.633745  0.000000  1
  Co  Co7  1  0.366552  0.169767  0.000000  1
  Co  Co8  1  0.195036  0.825256  0.000000  1
  Co  Co9  1  0.628350  0.806104  0.000000  1
  Co  Co10  1  0.176886  0.374008  0.000000  1
  Co  Co11  1  0.522055  0.872457  0.500000  1
  Co  Co12  1  0.349801  0.480062  0.500000  1
  Co  Co13  1  0.723235  0.728541  0.500000  1
  Co  Co14  1  0.272974  0.997628  0.500000  1
  Co  Co15  1  0.008516  0.279896  0.500000  1
  Co  Co16  1  0.000235  0.000213  0.000000  1
  Si  Si17  1  0.363383  0.368105  0.000000  1
  Si  Si18  1  0.631421  0.995388  0.000000  1
  Si  Si19  1  0.999703  0.632864  0.000000  1
  Si  Si20  1  0.846337  0.317805  0.500000  1
  Si  Si21  1  0.679170  0.528469  0.500000  1
  Si  Si22  1  0.472557  0.154917  0.500000  1
  Si  Si23  1  0.321927  0.844070  0.500000  1
  Si  Si24  1  0.522459  0.683192  0.500000  1
  P  P25  1  0.164844  0.474538  0.500000  1
  P  P26  1  0.817889  0.821086  0.000000  1
  P  P27  1  0.179777  0.997646  0.000000  1
  P  P28  1  0.003562  0.181844  0.000000  1
  Ru  Ru29  1  0.555411  0.564234  0.000000  1
  Ru  Ru30  1  0.436507  0.994244  0.000000  1
  Ru  Ru31  1  0.000615  0.437240  0.000000  1
  Ru  Ru32  1  0.649221  0.123912  0.500000  1
  Ru  Ru33  1  0.871369  0.521988  0.500000  1
  Ru  Ru34  1  0.473863  0.351462  0.500000  1
  Ru  Ru35  1  0.131728  0.644740  0.500000  1
