# generated using pymatgen
data_Nd3Sc7(Si5Ir2)4
_symmetry_space_group_name_H-M   'P 1'
_cell_length_a   12.51803666
_cell_length_b   12.51803666
_cell_length_c   4.17856600
_cell_angle_alpha   90.00000000
_cell_angle_beta   90.00000000
_cell_angle_gamma   90.20309332
_symmetry_Int_Tables_number   1
_chemical_formula_structural   Nd3Sc7(Si5Ir2)4
_chemical_formula_sum   'Nd3 Sc7 Si20 Ir8'
_cell_volume   654.78236774
_cell_formula_units_Z   1
loop_
 _symmetry_equiv_pos_site_id
 _symmetry_equiv_pos_as_xyz
  1  'x, y, z'
loop_
 _atom_site_type_symbol
 _atom_site_label
 _atom_site_symmetry_multiplicity
 _atom_site_fract_x
 _atom_site_fract_y
 _atom_site_fract_z
 _atom_site_occupancy
  Nd  Nd0  1  0.115990  0.615830  0.500000  1
  Nd  Nd1  1  0.884170  0.384010  0.500000  1
  Nd  Nd2  1  0.614739  0.885261  0.500000  1
  Sc  Sc3  1  0.384657  0.115343  0.500000  1
  Sc  Sc4  1  0.673202  0.174769  0.500000  1
  Sc  Sc5  1  0.325231  0.826798  0.500000  1
  Sc  Sc6  1  0.175834  0.324166  0.500000  1
  Sc  Sc7  1  0.825595  0.674405  0.500000  1
  Sc  Sc8  1  0.001080  0.000107  0.000000  1
  Sc  Sc9  1  0.499893  0.498920  0.000000  1
  Si  Si10  1  0.566233  0.068887  0.000000  1
  Si  Si11  1  0.431113  0.933767  0.000000  1
  Si  Si12  1  0.069737  0.430263  0.000000  1
  Si  Si13  1  0.930872  0.569128  0.000000  1
  Si  Si14  1  0.202240  0.164627  0.000000  1
  Si  Si15  1  0.800297  0.835302  0.000000  1
  Si  Si16  1  0.165809  0.802464  0.000000  1
  Si  Si17  1  0.697536  0.334191  0.000000  1
  Si  Si18  1  0.834492  0.199527  0.000000  1
  Si  Si19  1  0.300473  0.665508  0.000000  1
  Si  Si20  1  0.664698  0.699703  0.000000  1
  Si  Si21  1  0.335373  0.297760  0.000000  1
  Si  Si22  1  0.008860  0.149418  0.500000  1
  Si  Si23  1  0.992159  0.850855  0.500000  1
  Si  Si24  1  0.153179  0.993211  0.500000  1
  Si  Si25  1  0.506789  0.346821  0.500000  1
  Si  Si26  1  0.849527  0.009938  0.500000  1
  Si  Si27  1  0.490062  0.650473  0.500000  1
  Si  Si28  1  0.649145  0.507841  0.500000  1
  Si  Si29  1  0.350582  0.491140  0.500000  1
  Ir  Ir30  1  0.023190  0.240850  0.000000  1
  Ir  Ir31  1  0.978053  0.759068  0.000000  1
  Ir  Ir32  1  0.246007  0.981197  0.000000  1
  Ir  Ir33  1  0.518803  0.253993  0.000000  1
  Ir  Ir34  1  0.756374  0.022080  0.000000  1
  Ir  Ir35  1  0.477920  0.743626  0.000000  1
  Ir  Ir36  1  0.740932  0.521947  0.000000  1
  Ir  Ir37  1  0.259150  0.476810  0.000000  1
