# generated using pymatgen
data_CaLa9Nd2(GaRh)8
_symmetry_space_group_name_H-M   'P 1'
_cell_length_a   5.73402683
_cell_length_b   8.32315313
_cell_length_c   13.81451000
_cell_angle_alpha   90.00000000
_cell_angle_beta   90.00000000
_cell_angle_gamma   90.13244836
_symmetry_Int_Tables_number   1
_chemical_formula_structural   CaLa9Nd2(GaRh)8
_chemical_formula_sum   'Ca1 La9 Nd2 Ga8 Rh8'
_cell_volume   659.29826135
_cell_formula_units_Z   1
loop_
 _symmetry_equiv_pos_site_id
 _symmetry_equiv_pos_as_xyz
  1  'x, y, z'
loop_
 _atom_site_type_symbol
 _atom_site_label
 _atom_site_symmetry_multiplicity
 _atom_site_fract_x
 _atom_site_fract_y
 _atom_site_fract_z
 _atom_site_occupancy
  Ca  Ca0  1  0.362085  0.761325  0.250000  1
  La  La1  1  0.637148  0.236989  0.750000  1
  La  La2  1  0.153731  0.404914  0.096899  1
  La  La3  1  0.847502  0.598204  0.903764  1
  La  La4  1  0.847502  0.598204  0.596236  1
  La  La5  1  0.848131  0.900362  0.402718  1
  La  La6  1  0.153731  0.404914  0.403101  1
  La  La7  1  0.151320  0.097135  0.595455  1
  La  La8  1  0.151320  0.097135  0.904545  1
  La  La9  1  0.848131  0.900362  0.097282  1
  Nd  Nd10  1  0.639514  0.257716  0.250000  1
  Nd  Nd11  1  0.361390  0.740630  0.750000  1
  Ga  Ga12  1  0.144271  0.109960  0.250000  1
  Ga  Ga13  1  0.857695  0.885998  0.750000  1
  Ga  Ga14  1  0.849636  0.609401  0.250000  1
  Ga  Ga15  1  0.141267  0.391864  0.750000  1
  Ga  Ga16  1  0.629973  0.249675  0.001524  1
  Ga  Ga17  1  0.369277  0.750972  0.999347  1
  Ga  Ga18  1  0.369277  0.750972  0.500653  1
  Ga  Ga19  1  0.629973  0.249675  0.498476  1
  Rh  Rh20  1  0.357227  0.031783  0.089560  1
  Rh  Rh21  1  0.641506  0.970689  0.908547  1
  Rh  Rh22  1  0.641506  0.970689  0.591453  1
  Rh  Rh23  1  0.645024  0.528867  0.409443  1
  Rh  Rh24  1  0.357227  0.031783  0.410440  1
  Rh  Rh25  1  0.359808  0.470458  0.591207  1
  Rh  Rh26  1  0.359808  0.470458  0.908793  1
  Rh  Rh27  1  0.645024  0.528867  0.090557  1
