# generated using pymatgen
data_SrNi2Te3(BrO4)2
_symmetry_space_group_name_H-M   'P 1'
_cell_length_a   9.06244400
_cell_length_b   6.74056061
_cell_length_c   20.20465175
_cell_angle_alpha   74.51938168
_cell_angle_beta   90.00000000
_cell_angle_gamma   90.00000000
_symmetry_Int_Tables_number   1
_chemical_formula_structural   SrNi2Te3(BrO4)2
_chemical_formula_sum   'Sr4 Ni8 Te12 Br8 O32'
_cell_volume   1189.44387743
_cell_formula_units_Z   4
loop_
 _symmetry_equiv_pos_site_id
 _symmetry_equiv_pos_as_xyz
  1  'x, y, z'
loop_
 _atom_site_type_symbol
 _atom_site_label
 _atom_site_symmetry_multiplicity
 _atom_site_fract_x
 _atom_site_fract_y
 _atom_site_fract_z
 _atom_site_occupancy
  Sr  Sr0  1  0.619727  0.517563  0.226151  1
  Sr  Sr1  1  0.880273  0.517563  0.726151  1
  Sr  Sr2  1  0.119727  0.482437  0.273849  1
  Sr  Sr3  1  0.380273  0.482437  0.773849  1
  Ni  Ni4  1  0.458150  0.808822  0.315609  1
  Ni  Ni5  1  0.750808  0.065372  0.319805  1
  Ni  Ni6  1  0.958150  0.191178  0.184391  1
  Ni  Ni7  1  0.749192  0.065372  0.819805  1
  Ni  Ni8  1  0.250808  0.934628  0.180195  1
  Ni  Ni9  1  0.041850  0.808822  0.815609  1
  Ni  Ni10  1  0.249192  0.934628  0.680195  1
  Ni  Ni11  1  0.541850  0.191178  0.684391  1
  Te  Te12  1  0.929550  0.770587  0.118572  1
  Te  Te13  1  0.570450  0.770587  0.618572  1
  Te  Te14  1  0.070450  0.229413  0.881428  1
  Te  Te15  1  0.606301  0.089867  0.142001  1
  Te  Te16  1  0.106301  0.910133  0.357999  1
  Te  Te17  1  0.393699  0.910133  0.857999  1
  Te  Te18  1  0.285252  0.449579  0.112955  1
  Te  Te19  1  0.429550  0.229413  0.381428  1
  Te  Te20  1  0.714748  0.550421  0.887045  1
  Te  Te21  1  0.214748  0.449579  0.612955  1
  Te  Te22  1  0.785252  0.550421  0.387045  1
  Te  Te23  1  0.893699  0.089867  0.642001  1
  Br  Br24  1  0.100776  0.729362  0.945918  1
  Br  Br25  1  0.899224  0.270638  0.054082  1
  Br  Br26  1  0.399224  0.729362  0.445918  1
  Br  Br27  1  0.311270  0.079741  0.048508  1
  Br  Br28  1  0.688730  0.920259  0.951492  1
  Br  Br29  1  0.600776  0.270638  0.554082  1
  Br  Br30  1  0.811270  0.920259  0.451492  1
  Br  Br31  1  0.188730  0.079741  0.548508  1
  O  O32  1  0.736296  0.364428  0.831849  1
  O  O33  1  0.424500  0.494565  0.317598  1
  O  O34  1  0.232947  0.838841  0.291444  1
  O  O35  1  0.017269  0.370447  0.643740  1
  O  O36  1  0.263704  0.635572  0.168151  1
  O  O37  1  0.729618  0.818488  0.142325  1
  O  O38  1  0.229618  0.181512  0.357675  1
  O  O39  1  0.311014  0.234641  0.680479  1
  O  O40  1  0.267053  0.838841  0.791444  1
  O  O41  1  0.976526  0.092696  0.294685  1
  O  O42  1  0.924500  0.505435  0.182402  1
  O  O43  1  0.770382  0.818488  0.642325  1
  O  O44  1  0.763704  0.364428  0.331849  1
  O  O45  1  0.270382  0.181512  0.857675  1
  O  O46  1  0.523474  0.092696  0.794685  1
  O  O47  1  0.188986  0.234641  0.180479  1
  O  O48  1  0.521806  0.103780  0.318359  1
  O  O49  1  0.811014  0.765359  0.819521  1
  O  O50  1  0.236296  0.635572  0.668151  1
  O  O51  1  0.517269  0.629553  0.856260  1
  O  O52  1  0.075500  0.494565  0.817598  1
  O  O53  1  0.482731  0.370447  0.143740  1
  O  O54  1  0.978194  0.103780  0.818359  1
  O  O55  1  0.023474  0.907304  0.705315  1
  O  O56  1  0.982731  0.629553  0.356260  1
  O  O57  1  0.732947  0.161159  0.208556  1
  O  O58  1  0.021806  0.896220  0.181641  1
  O  O59  1  0.688986  0.765359  0.319521  1
  O  O60  1  0.478194  0.896220  0.681641  1
  O  O61  1  0.767053  0.161159  0.708556  1
  O  O62  1  0.476526  0.907304  0.205315  1
  O  O63  1  0.575500  0.505435  0.682402  1
