# generated using pymatgen
data_TbDy2Al5Ga4
_symmetry_space_group_name_H-M   'P 1'
_cell_length_a   7.80655533
_cell_length_b   7.82267006
_cell_length_c   7.82266953
_cell_angle_alpha   46.99862931
_cell_angle_beta   47.16568737
_cell_angle_gamma   47.16571259
_symmetry_Int_Tables_number   1
_chemical_formula_structural   TbDy2Al5Ga4
_chemical_formula_sum   'Tb1 Dy2 Al5 Ga4'
_cell_volume   234.46350913
_cell_formula_units_Z   1
loop_
 _symmetry_equiv_pos_site_id
 _symmetry_equiv_pos_as_xyz
  1  'x, y, z'
loop_
 _atom_site_type_symbol
 _atom_site_label
 _atom_site_symmetry_multiplicity
 _atom_site_fract_x
 _atom_site_fract_y
 _atom_site_fract_z
 _atom_site_occupancy
  Tb  Tb0  1  0.996628  0.998258  0.998258  1
  Dy  Dy1  1  0.787719  0.785108  0.785108  1
  Dy  Dy2  1  0.213194  0.217334  0.217334  1
  Al  Al3  1  0.498403  0.501966  0.000662  1
  Al  Al4  1  0.498403  0.000662  0.501966  1
  Al  Al5  1  0.000659  0.500970  0.500970  1
  Al  Al6  1  0.302637  0.295757  0.728666  1
  Al  Al7  1  0.302637  0.728666  0.295757  1
  Ga  Ga8  1  0.698158  0.703584  0.272276  1
  Ga  Ga9  1  0.269438  0.700544  0.700544  1
  Ga  Ga10  1  0.698158  0.272276  0.703584  1
  Ga  Ga11  1  0.733966  0.294875  0.294875  1
