# generated using pymatgen
data_Ho9MgCd3Ru
_symmetry_space_group_name_H-M   'P 1'
_cell_length_a   9.50143500
_cell_length_b   9.50145061
_cell_length_c   9.63251900
_cell_angle_alpha   90.00000000
_cell_angle_beta   90.00000000
_cell_angle_gamma   120.00018812
_symmetry_Int_Tables_number   1
_chemical_formula_structural   Ho9MgCd3Ru
_chemical_formula_sum   'Ho18 Mg2 Cd6 Ru2'
_cell_volume   753.09332700
_cell_formula_units_Z   2
loop_
 _symmetry_equiv_pos_site_id
 _symmetry_equiv_pos_as_xyz
  1  'x, y, z'
loop_
 _atom_site_type_symbol
 _atom_site_label
 _atom_site_symmetry_multiplicity
 _atom_site_fract_x
 _atom_site_fract_y
 _atom_site_fract_z
 _atom_site_occupancy
  Ho  Ho0  1  0.208765  0.791235  0.441425  1
  Ho  Ho1  1  0.208765  0.417530  0.441426  1
  Ho  Ho2  1  0.582470  0.791234  0.441426  1
  Ho  Ho3  1  0.791235  0.208765  0.558575  1
  Ho  Ho4  1  0.791235  0.582470  0.558574  1
  Ho  Ho5  1  0.417530  0.208766  0.558574  1
  Ho  Ho6  1  0.791235  0.208765  0.941425  1
  Ho  Ho7  1  0.791235  0.582470  0.941426  1
  Ho  Ho8  1  0.417530  0.208766  0.941426  1
  Ho  Ho9  1  0.208765  0.791235  0.058575  1
  Ho  Ho10  1  0.208765  0.417530  0.058574  1
  Ho  Ho11  1  0.582470  0.791234  0.058574  1
  Ho  Ho12  1  0.541283  0.458719  0.250000  1
  Ho  Ho13  1  0.541281  0.082564  0.250000  1
  Ho  Ho14  1  0.917436  0.458718  0.250000  1
  Ho  Ho15  1  0.458717  0.541281  0.750000  1
  Ho  Ho16  1  0.458719  0.917436  0.750000  1
  Ho  Ho17  1  0.082564  0.541282  0.750000  1
  Mg  Mg18  1  0.000000  0.000000  0.500000  1
  Mg  Mg19  1  0.000000  0.000000  0.000000  1
  Cd  Cd20  1  0.888381  0.111620  0.250000  1
  Cd  Cd21  1  0.888379  0.776762  0.250000  1
  Cd  Cd22  1  0.223238  0.111620  0.250000  1
  Cd  Cd23  1  0.111619  0.888380  0.750000  1
  Cd  Cd24  1  0.111621  0.223238  0.750000  1
  Cd  Cd25  1  0.776762  0.888380  0.750000  1
  Ru  Ru26  1  0.333336  0.666669  0.250000  1
  Ru  Ru27  1  0.666664  0.333331  0.750000  1
