# generated using pymatgen
data_Ce4Al18Pd5W
_symmetry_space_group_name_H-M   'P 1'
_cell_length_a   7.72585745
_cell_length_b   7.72585662
_cell_length_c   9.58937510
_cell_angle_alpha   89.55208245
_cell_angle_beta   89.55208182
_cell_angle_gamma   118.71783274
_symmetry_Int_Tables_number   1
_chemical_formula_structural   Ce4Al18Pd5W
_chemical_formula_sum   'Ce4 Al18 Pd5 W1'
_cell_volume   501.91535560
_cell_formula_units_Z   1
loop_
 _symmetry_equiv_pos_site_id
 _symmetry_equiv_pos_as_xyz
  1  'x, y, z'
loop_
 _atom_site_type_symbol
 _atom_site_label
 _atom_site_symmetry_multiplicity
 _atom_site_fract_x
 _atom_site_fract_y
 _atom_site_fract_z
 _atom_site_occupancy
  Ce  Ce0  1  0.996633  0.682011  0.245859  1
  Ce  Ce1  1  0.003367  0.317989  0.754141  1
  Ce  Ce2  1  0.682011  0.996633  0.245859  1
  Ce  Ce3  1  0.317989  0.003367  0.754141  1
  Al  Al4  1  0.140405  0.140405  0.249345  1
  Al  Al5  1  0.859595  0.859595  0.750655  1
  Al  Al6  1  0.006493  0.339207  0.077936  1
  Al  Al7  1  0.993507  0.660793  0.922064  1
  Al  Al8  1  0.996525  0.659311  0.578335  1
  Al  Al9  1  0.340689  0.003475  0.421665  1
  Al  Al10  1  0.003475  0.340689  0.421665  1
  Al  Al11  1  0.659311  0.996525  0.578335  1
  Al  Al12  1  0.660793  0.993507  0.922064  1
  Al  Al13  1  0.339207  0.006493  0.077936  1
  Al  Al14  1  0.333336  0.333336  0.551629  1
  Al  Al15  1  0.666664  0.666664  0.448371  1
  Al  Al16  1  0.665963  0.665963  0.047236  1
  Al  Al17  1  0.334037  0.334037  0.952764  1
  Al  Al18  1  0.346943  0.553611  0.250720  1
  Al  Al19  1  0.653057  0.446389  0.749280  1
  Al  Al20  1  0.553611  0.346943  0.250720  1
  Al  Al21  1  0.446389  0.653057  0.749280  1
  Pd  Pd22  1  0.671794  0.328206  0.000000  1
  Pd  Pd23  1  0.328206  0.671794  0.000000  1
  Pd  Pd24  1  0.328489  0.671511  0.500000  1
  Pd  Pd25  1  0.671511  0.328489  0.500000  1
  Pd  Pd26  1  0.000000  0.000000  0.500000  1
  W  W27  1  0.000000  0.000000  0.000000  1
