# generated using pymatgen
data_YLu3(ThIr9)2
_symmetry_space_group_name_H-M   'P 1'
_cell_length_a   5.33990874
_cell_length_b   5.33990942
_cell_length_c   17.71231134
_cell_angle_alpha   98.66982242
_cell_angle_beta   98.66982421
_cell_angle_gamma   60.00001021
_symmetry_Int_Tables_number   1
_chemical_formula_structural   YLu3(ThIr9)2
_chemical_formula_sum   'Y1 Lu3 Th2 Ir18'
_cell_volume   430.71803055
_cell_formula_units_Z   1
loop_
 _symmetry_equiv_pos_site_id
 _symmetry_equiv_pos_as_xyz
  1  'x, y, z'
loop_
 _atom_site_type_symbol
 _atom_site_label
 _atom_site_symmetry_multiplicity
 _atom_site_fract_x
 _atom_site_fract_y
 _atom_site_fract_z
 _atom_site_occupancy
  Y  Y0  1  0.570363  0.570363  0.711088  1
  Lu  Lu1  1  0.429365  0.429365  0.288097  1
  Lu  Lu2  1  0.930094  0.930094  0.790282  1
  Lu  Lu3  1  0.070558  0.070558  0.211673  1
  Th  Th4  1  0.000467  0.000467  0.001402  1
  Th  Th5  1  0.499416  0.499416  0.498246  1
  Ir  Ir6  1  0.456633  0.958850  0.374332  1
  Ir  Ir7  1  0.958878  0.458715  0.876309  1
  Ir  Ir8  1  0.958850  0.958850  0.374332  1
  Ir  Ir9  1  0.458715  0.458715  0.876309  1
  Ir  Ir10  1  0.958850  0.456633  0.374332  1
  Ir  Ir11  1  0.458715  0.958878  0.876309  1
  Ir  Ir12  1  0.042553  0.541428  0.125408  1
  Ir  Ir13  1  0.541940  0.040824  0.623590  1
  Ir  Ir14  1  0.541428  0.541428  0.125408  1
  Ir  Ir15  1  0.040824  0.040824  0.623590  1
  Ir  Ir16  1  0.541428  0.042553  0.125408  1
  Ir  Ir17  1  0.040824  0.541940  0.623590  1
  Ir  Ir18  1  0.333668  0.333668  0.001006  1
  Ir  Ir19  1  0.833034  0.833034  0.499102  1
  Ir  Ir20  1  0.166477  0.166477  0.499431  1
  Ir  Ir21  1  0.666883  0.666883  0.000648  1
  Ir  Ir22  1  0.750045  0.750045  0.250137  1
  Ir  Ir23  1  0.249993  0.249993  0.749979  1
