# generated using pymatgen
data_Er3ZnCd2HgAu2
_symmetry_space_group_name_H-M   'P 1'
_cell_length_a   7.85529700
_cell_length_b   7.84107037
_cell_length_c   3.74824700
_cell_angle_alpha   90.00000000
_cell_angle_beta   90.00000000
_cell_angle_gamma   120.06004138
_symmetry_Int_Tables_number   1
_chemical_formula_structural   Er3ZnCd2HgAu2
_chemical_formula_sum   'Er3 Zn1 Cd2 Hg1 Au2'
_cell_volume   199.81759230
_cell_formula_units_Z   1
loop_
 _symmetry_equiv_pos_site_id
 _symmetry_equiv_pos_as_xyz
  1  'x, y, z'
loop_
 _atom_site_type_symbol
 _atom_site_label
 _atom_site_symmetry_multiplicity
 _atom_site_fract_x
 _atom_site_fract_y
 _atom_site_fract_z
 _atom_site_occupancy
  Er  Er0  1  0.585901  0.000000  0.000000  1
  Er  Er1  1  0.002639  0.594223  0.000000  1
  Er  Er2  1  0.408416  0.405777  0.000000  1
  Zn  Zn3  1  0.998598  0.000000  0.000000  1
  Cd  Cd4  1  0.998617  0.256377  0.500000  1
  Cd  Cd5  1  0.742239  0.743623  0.500000  1
  Hg  Hg6  1  0.257809  0.000000  0.500000  1
  Au  Au7  1  0.333947  0.662113  0.500000  1
  Au  Au8  1  0.671835  0.337887  0.500000  1
