# generated using pymatgen
data_BaErTmSi3O10
_symmetry_space_group_name_H-M   'P 1'
_cell_length_a   5.43018245
_cell_length_b   12.29568300
_cell_length_c   6.86892334
_cell_angle_alpha   90.00000000
_cell_angle_beta   106.53744796
_cell_angle_gamma   90.00000000
_symmetry_Int_Tables_number   1
_chemical_formula_structural   BaErTmSi3O10
_chemical_formula_sum   'Ba2 Er2 Tm2 Si6 O20'
_cell_volume   439.65147294
_cell_formula_units_Z   2
loop_
 _symmetry_equiv_pos_site_id
 _symmetry_equiv_pos_as_xyz
  1  'x, y, z'
loop_
 _atom_site_type_symbol
 _atom_site_label
 _atom_site_symmetry_multiplicity
 _atom_site_fract_x
 _atom_site_fract_y
 _atom_site_fract_z
 _atom_site_occupancy
  Ba  Ba0  1  0.760899  0.250000  0.016695  1
  Ba  Ba1  1  0.239314  0.750000  0.983193  1
  Er  Er2  1  0.155394  0.099225  0.681943  1
  Er  Er3  1  0.155394  0.400775  0.681943  1
  Tm  Tm4  1  0.843855  0.600403  0.317692  1
  Tm  Tm5  1  0.843855  0.899597  0.317692  1
  Si  Si6  1  0.304751  0.059098  0.213322  1
  Si  Si7  1  0.304751  0.440903  0.213322  1
  Si  Si8  1  0.579077  0.250000  0.487711  1
  Si  Si9  1  0.420091  0.750000  0.512236  1
  Si  Si10  1  0.695802  0.560038  0.787017  1
  Si  Si11  1  0.695802  0.939961  0.787017  1
  O  O12  1  0.160230  0.119313  0.000091  1
  O  O13  1  0.160230  0.380688  0.000091  1
  O  O14  1  0.442965  0.555475  0.193780  1
  O  O15  1  0.442965  0.944526  0.193780  1
  O  O16  1  0.545162  0.143019  0.336917  1
  O  O17  1  0.545162  0.356981  0.336917  1
  O  O18  1  0.102653  0.046494  0.352871  1
  O  O19  1  0.102653  0.453507  0.352871  1
  O  O20  1  0.123438  0.750000  0.365903  1
  O  O21  1  0.632786  0.750000  0.385410  1
  O  O22  1  0.366373  0.250000  0.614231  1
  O  O23  1  0.875283  0.250000  0.634138  1
  O  O24  1  0.896539  0.549149  0.645913  1
  O  O25  1  0.896539  0.950850  0.645913  1
  O  O26  1  0.453798  0.643261  0.663747  1
  O  O27  1  0.453798  0.856739  0.663747  1
  O  O28  1  0.560304  0.055328  0.805990  1
  O  O29  1  0.560304  0.444671  0.805990  1
  O  O30  1  0.839915  0.619805  0.000966  1
  O  O31  1  0.839915  0.880194  0.000966  1
