# generated using pymatgen
data_TbU2(InPt)3
_symmetry_space_group_name_H-M   'P 1'
_cell_length_a   7.61424776
_cell_length_b   7.61424753
_cell_length_c   4.01447800
_cell_angle_alpha   90.00000000
_cell_angle_beta   90.00000000
_cell_angle_gamma   120.98931496
_symmetry_Int_Tables_number   1
_chemical_formula_structural   TbU2(InPt)3
_chemical_formula_sum   'Tb1 U2 In3 Pt3'
_cell_volume   199.52500345
_cell_formula_units_Z   1
loop_
 _symmetry_equiv_pos_site_id
 _symmetry_equiv_pos_as_xyz
  1  'x, y, z'
loop_
 _atom_site_type_symbol
 _atom_site_label
 _atom_site_symmetry_multiplicity
 _atom_site_fract_x
 _atom_site_fract_y
 _atom_site_fract_z
 _atom_site_occupancy
  Tb  Tb0  1  0.591849  0.591849  0.000000  1
  U  U1  1  0.410082  0.996460  0.000000  1
  U  U2  1  0.996460  0.410082  0.000000  1
  In  In3  1  0.262194  0.262194  0.500000  1
  In  In4  1  0.993588  0.745164  0.500000  1
  In  In5  1  0.745164  0.993588  0.500000  1
  Pt  Pt6  1  0.009554  0.009554  0.000000  1
  Pt  Pt7  1  0.669069  0.322039  0.500000  1
  Pt  Pt8  1  0.322039  0.669069  0.500000  1
