# generated using pymatgen
data_K2ScFeF8
_symmetry_space_group_name_H-M   'P 1'
_cell_length_a   6.58288084
_cell_length_b   6.58288098
_cell_length_c   7.85434911
_cell_angle_alpha   89.98201820
_cell_angle_beta   90.01798206
_cell_angle_gamma   144.05364966
_symmetry_Int_Tables_number   1
_chemical_formula_structural   K2ScFeF8
_chemical_formula_sum   'K2 Sc1 Fe1 F8'
_cell_volume   199.80234991
_cell_formula_units_Z   1
loop_
 _symmetry_equiv_pos_site_id
 _symmetry_equiv_pos_as_xyz
  1  'x, y, z'
loop_
 _atom_site_type_symbol
 _atom_site_label
 _atom_site_symmetry_multiplicity
 _atom_site_fract_x
 _atom_site_fract_y
 _atom_site_fract_z
 _atom_site_occupancy
  K  K0  1  0.270684  0.729316  0.749684  1
  K  K1  1  0.729316  0.270684  0.250316  1
  Sc  Sc2  1  0.000000  0.000000  0.000000  1
  Fe  Fe3  1  0.000000  0.000000  0.500000  1
  F  F4  1  0.851639  0.148361  0.552573  1
  F  F5  1  0.148361  0.851639  0.447426  1
  F  F6  1  0.154955  0.845045  0.054101  1
  F  F7  1  0.845045  0.154955  0.945899  1
  F  F8  1  0.500000  0.500000  0.000000  1
  F  F9  1  0.500000  0.500000  0.500000  1
  F  F10  1  0.040351  0.959649  0.744752  1
  F  F11  1  0.959649  0.040351  0.255248  1
