# generated using pymatgen
data_SmLu2Rh9
_symmetry_space_group_name_H-M   'P 1'
_cell_length_a   5.25254301
_cell_length_b   5.25244462
_cell_length_c   17.46595200
_cell_angle_alpha   90.00000000
_cell_angle_beta   90.00000000
_cell_angle_gamma   120.00576983
_symmetry_Int_Tables_number   1
_chemical_formula_structural   SmLu2Rh9
_chemical_formula_sum   'Sm2 Lu4 Rh18'
_cell_volume   417.28112461
_cell_formula_units_Z   2
loop_
 _symmetry_equiv_pos_site_id
 _symmetry_equiv_pos_as_xyz
  1  'x, y, z'
loop_
 _atom_site_type_symbol
 _atom_site_label
 _atom_site_symmetry_multiplicity
 _atom_site_fract_x
 _atom_site_fract_y
 _atom_site_fract_z
 _atom_site_occupancy
  Sm  Sm0  1  0.333331  0.666668  0.750000  1
  Sm  Sm1  1  0.666669  0.333332  0.250000  1
  Lu  Lu2  1  0.333346  0.666656  0.959132  1
  Lu  Lu3  1  0.666654  0.333344  0.040868  1
  Lu  Lu4  1  0.666654  0.333344  0.459132  1
  Lu  Lu5  1  0.333346  0.666656  0.540868  1
  Rh  Rh6  1  0.167414  0.832597  0.375838  1
  Rh  Rh7  1  0.167413  0.334829  0.375853  1
  Rh  Rh8  1  0.665178  0.832594  0.375851  1
  Rh  Rh9  1  0.832586  0.167403  0.624162  1
  Rh  Rh10  1  0.832587  0.665171  0.624147  1
  Rh  Rh11  1  0.334822  0.167406  0.624149  1
  Rh  Rh12  1  0.832586  0.167403  0.875838  1
  Rh  Rh13  1  0.832587  0.665171  0.875853  1
  Rh  Rh14  1  0.334822  0.167406  0.875851  1
  Rh  Rh15  1  0.167414  0.832597  0.124162  1
  Rh  Rh16  1  0.167413  0.334829  0.124147  1
  Rh  Rh17  1  0.665178  0.832594  0.124149  1
  Rh  Rh18  1  0.333352  0.666684  0.250000  1
  Rh  Rh19  1  0.666648  0.333316  0.750000  1
  Rh  Rh20  1  0.000000  0.999978  0.250000  1
  Rh  Rh21  1  0.000000  0.000022  0.750000  1
  Rh  Rh22  1  0.000000  0.000000  0.500000  1
  Rh  Rh23  1  0.000000  0.000000  0.000000  1
