# generated using pymatgen
data_Hf3NbAl2Pd
_symmetry_space_group_name_H-M   'P 1'
_cell_length_a   5.21916976
_cell_length_b   5.21917097
_cell_length_c   5.32810200
_cell_angle_alpha   90.00000000
_cell_angle_beta   90.00000000
_cell_angle_gamma   117.84399410
_symmetry_Int_Tables_number   1
_chemical_formula_structural   Hf3NbAl2Pd
_chemical_formula_sum   'Hf3 Nb1 Al2 Pd1'
_cell_volume   128.33262840
_cell_formula_units_Z   1
loop_
 _symmetry_equiv_pos_site_id
 _symmetry_equiv_pos_as_xyz
  1  'x, y, z'
loop_
 _atom_site_type_symbol
 _atom_site_label
 _atom_site_symmetry_multiplicity
 _atom_site_fract_x
 _atom_site_fract_y
 _atom_site_fract_z
 _atom_site_occupancy
  Hf  Hf0  1  0.000000  0.000000  0.740388  1
  Hf  Hf1  1  0.330254  0.669746  0.494699  1
  Hf  Hf2  1  0.669746  0.330254  0.494699  1
  Nb  Nb3  1  0.000000  0.000000  0.259953  1
  Al  Al4  1  0.500000  0.000000  0.005180  1
  Al  Al5  1  0.000000  0.500000  0.005180  1
  Pd  Pd6  1  0.500000  0.500000  0.999902  1
