# generated using pymatgen
data_Dy4Ta3Co8(P4Ru3)3
_symmetry_space_group_name_H-M   'P 1'
_cell_length_a   3.73470100
_cell_length_b   10.79276637
_cell_length_c   12.40317283
_cell_angle_alpha   90.17878627
_cell_angle_beta   90.00000000
_cell_angle_gamma   90.00000000
_symmetry_Int_Tables_number   1
_chemical_formula_structural   Dy4Ta3Co8(P4Ru3)3
_chemical_formula_sum   'Dy4 Ta3 Co8 P12 Ru9'
_cell_volume   499.94162208
_cell_formula_units_Z   1
loop_
 _symmetry_equiv_pos_site_id
 _symmetry_equiv_pos_as_xyz
  1  'x, y, z'
loop_
 _atom_site_type_symbol
 _atom_site_label
 _atom_site_symmetry_multiplicity
 _atom_site_fract_x
 _atom_site_fract_y
 _atom_site_fract_z
 _atom_site_occupancy
  Dy  Dy0  1  0.250000  0.580285  0.709341  1
  Dy  Dy1  1  0.250000  0.918706  0.208945  1
  Dy  Dy2  1  0.750000  0.419134  0.290936  1
  Dy  Dy3  1  0.750000  0.081510  0.790207  1
  Ta  Ta4  1  0.250000  0.699481  0.987988  1
  Ta  Ta5  1  0.250000  0.798845  0.489008  1
  Ta  Ta6  1  0.750000  0.300224  0.011561  1
  Co  Co7  1  0.250000  0.889201  0.691565  1
  Co  Co8  1  0.250000  0.613156  0.193214  1
  Co  Co9  1  0.750000  0.112234  0.308548  1
  Co  Co10  1  0.750000  0.383353  0.805403  1
  Co  Co11  1  0.250000  0.462721  0.935475  1
  Co  Co12  1  0.250000  0.038317  0.436775  1
  Co  Co13  1  0.750000  0.536341  0.062752  1
  Co  Co14  1  0.750000  0.965338  0.562535  1
  P  P15  1  0.250000  0.427271  0.115421  1
  P  P16  1  0.250000  0.075863  0.611885  1
  P  P17  1  0.750000  0.571555  0.883127  1
  P  P18  1  0.750000  0.928131  0.384960  1
  P  P19  1  0.250000  0.269937  0.864136  1
  P  P20  1  0.250000  0.229486  0.371081  1
  P  P21  1  0.750000  0.729277  0.134886  1
  P  P22  1  0.750000  0.772020  0.635411  1
  P  P23  1  0.250000  0.592265  0.383333  1
  P  P24  1  0.250000  0.907780  0.883243  1
  P  P25  1  0.750000  0.397572  0.610688  1
  P  P26  1  0.750000  0.095956  0.119614  1
  Ru  Ru27  1  0.750000  0.202738  0.512988  1
  Ru  Ru28  1  0.250000  0.402226  0.485117  1
  Ru  Ru29  1  0.250000  0.097964  0.986671  1
  Ru  Ru30  1  0.750000  0.596184  0.514183  1
  Ru  Ru31  1  0.750000  0.903446  0.016362  1
  Ru  Ru32  1  0.250000  0.221958  0.182508  1
  Ru  Ru33  1  0.250000  0.276233  0.676490  1
  Ru  Ru34  1  0.750000  0.779538  0.821883  1
  Ru  Ru35  1  0.750000  0.723754  0.321761  1
