# generated using pymatgen
data_Tm6Al24Os7Au
_symmetry_space_group_name_H-M   'P 1'
_cell_length_a   8.83019576
_cell_length_b   8.83019597
_cell_length_c   9.52329098
_cell_angle_alpha   89.73491244
_cell_angle_beta   90.26508851
_cell_angle_gamma   119.92080474
_symmetry_Int_Tables_number   1
_chemical_formula_structural   Tm6Al24Os7Au
_chemical_formula_sum   'Tm6 Al24 Os7 Au1'
_cell_volume   643.57354194
_cell_formula_units_Z   1
loop_
 _symmetry_equiv_pos_site_id
 _symmetry_equiv_pos_as_xyz
  1  'x, y, z'
loop_
 _atom_site_type_symbol
 _atom_site_label
 _atom_site_symmetry_multiplicity
 _atom_site_fract_x
 _atom_site_fract_y
 _atom_site_fract_z
 _atom_site_occupancy
  Tm  Tm0  1  0.191376  0.389317  0.251923  1
  Tm  Tm1  1  0.808624  0.610683  0.748077  1
  Tm  Tm2  1  0.610683  0.808624  0.251923  1
  Tm  Tm3  1  0.389317  0.191376  0.748077  1
  Tm  Tm4  1  0.196292  0.803708  0.254126  1
  Tm  Tm5  1  0.803708  0.196292  0.745874  1
  Al  Al6  1  0.328906  0.671094  0.024020  1
  Al  Al7  1  0.671094  0.328906  0.975980  1
  Al  Al8  1  0.666149  0.333851  0.519850  1
  Al  Al9  1  0.333851  0.666149  0.480150  1
  Al  Al10  1  0.162898  0.325597  0.576117  1
  Al  Al11  1  0.837102  0.674403  0.423883  1
  Al  Al12  1  0.674403  0.837102  0.576117  1
  Al  Al13  1  0.848600  0.677757  0.080406  1
  Al  Al14  1  0.325597  0.162898  0.423883  1
  Al  Al15  1  0.151400  0.322243  0.919594  1
  Al  Al16  1  0.163372  0.836628  0.575781  1
  Al  Al17  1  0.322243  0.151400  0.080406  1
  Al  Al18  1  0.836628  0.163372  0.424219  1
  Al  Al19  1  0.677757  0.848600  0.919594  1
  Al  Al20  1  0.836850  0.163150  0.077089  1
  Al  Al21  1  0.163150  0.836850  0.922911  1
  Al  Al22  1  0.561100  0.121681  0.249406  1
  Al  Al23  1  0.438900  0.878319  0.750594  1
  Al  Al24  1  0.878319  0.438900  0.249406  1
  Al  Al25  1  0.121681  0.561100  0.750594  1
  Al  Al26  1  0.563594  0.436406  0.255515  1
  Al  Al27  1  0.436406  0.563594  0.744485  1
  Al  Al28  1  0.999473  0.000527  0.250374  1
  Al  Al29  1  0.000527  0.999473  0.749626  1
  Os  Os30  1  0.500000  0.000000  0.000000  1
  Os  Os31  1  0.000000  0.500000  0.000000  1
  Os  Os32  1  0.500000  0.000000  0.500000  1
  Os  Os33  1  0.000000  0.500000  0.500000  1
  Os  Os34  1  0.500000  0.500000  0.500000  1
  Os  Os35  1  0.000000  0.000000  0.000000  1
  Os  Os36  1  0.000000  0.000000  0.500000  1
  Au  Au37  1  0.500000  0.500000  0.000000  1
