# generated using pymatgen
data_LaNd2Dy3Ta2O14
_symmetry_space_group_name_H-M   'P 1'
_cell_length_a   6.57026907
_cell_length_b   6.56215420
_cell_length_c   7.65592323
_cell_angle_alpha   89.97176234
_cell_angle_beta   90.01001380
_cell_angle_gamma   109.09585109
_symmetry_Int_Tables_number   1
_chemical_formula_structural   LaNd2Dy3Ta2O14
_chemical_formula_sum   'La1 Nd2 Dy3 Ta2 O14'
_cell_volume   311.92222634
_cell_formula_units_Z   1
loop_
 _symmetry_equiv_pos_site_id
 _symmetry_equiv_pos_as_xyz
  1  'x, y, z'
loop_
 _atom_site_type_symbol
 _atom_site_label
 _atom_site_symmetry_multiplicity
 _atom_site_fract_x
 _atom_site_fract_y
 _atom_site_fract_z
 _atom_site_occupancy
  La  La0  1  0.505791  0.506009  0.501771  1
  Nd  Nd1  1  0.514252  0.513932  0.998239  1
  Nd  Nd2  1  0.465322  0.002263  0.248968  1
  Dy  Dy3  1  0.002462  0.532216  0.249409  1
  Dy  Dy4  1  0.000011  0.466023  0.751180  1
  Dy  Dy5  1  0.533594  0.001101  0.750489  1
  Ta  Ta6  1  0.000405  0.000113  0.501969  1
  Ta  Ta7  1  0.001659  0.001401  0.997905  1
  O  O8  1  0.939326  0.067381  0.750048  1
  O  O9  1  0.057304  0.937694  0.249920  1
  O  O10  1  0.356746  0.633900  0.247465  1
  O  O11  1  0.645673  0.356928  0.752540  1
  O  O12  1  0.362471  0.635621  0.752558  1
  O  O13  1  0.643029  0.376183  0.247312  1
  O  O14  1  0.314003  0.067479  0.962004  1
  O  O15  1  0.678569  0.924670  0.477600  1
  O  O16  1  0.314520  0.067307  0.537990  1
  O  O17  1  0.677353  0.920513  0.021723  1
  O  O18  1  0.058141  0.313585  0.465024  1
  O  O19  1  0.934742  0.680987  0.967613  1
  O  O20  1  0.938004  0.682135  0.533189  1
  O  O21  1  0.056621  0.312562  0.035082  1
