# generated using pymatgen
data_Tb2Al20CrRh3
_symmetry_space_group_name_H-M   'P 1'
_cell_length_a   6.84597197
_cell_length_b   6.86805383
_cell_length_c   9.17299299
_cell_angle_alpha   90.33859035
_cell_angle_beta   90.48593439
_cell_angle_gamma   97.02287392
_symmetry_Int_Tables_number   1
_chemical_formula_structural   Tb2Al20CrRh3
_chemical_formula_sum   'Tb2 Al20 Cr1 Rh3'
_cell_volume   428.03866096
_cell_formula_units_Z   1
loop_
 _symmetry_equiv_pos_site_id
 _symmetry_equiv_pos_as_xyz
  1  'x, y, z'
loop_
 _atom_site_type_symbol
 _atom_site_label
 _atom_site_symmetry_multiplicity
 _atom_site_fract_x
 _atom_site_fract_y
 _atom_site_fract_z
 _atom_site_occupancy
  Tb  Tb0  1  0.866930  0.124117  0.747688  1
  Tb  Tb1  1  0.133070  0.875883  0.252312  1
  Al  Al2  1  0.618462  0.372340  0.547076  1
  Al  Al3  1  0.381538  0.627660  0.452924  1
  Al  Al4  1  0.378906  0.622135  0.049744  1
  Al  Al5  1  0.621094  0.377865  0.950256  1
  Al  Al6  1  0.226416  0.219599  0.498121  1
  Al  Al7  1  0.773584  0.780401  0.501879  1
  Al  Al8  1  0.776529  0.777258  0.000677  1
  Al  Al9  1  0.223471  0.222742  0.999323  1
  Al  Al10  1  0.844749  0.157026  0.103682  1
  Al  Al11  1  0.155251  0.842974  0.896318  1
  Al  Al12  1  0.160041  0.846630  0.599661  1
  Al  Al13  1  0.839959  0.153370  0.400339  1
  Al  Al14  1  0.857723  0.590823  0.749131  1
  Al  Al15  1  0.142277  0.409177  0.250869  1
  Al  Al16  1  0.411074  0.140399  0.746502  1
  Al  Al17  1  0.588926  0.859601  0.253498  1
  Al  Al18  1  0.223482  0.479764  0.750960  1
  Al  Al19  1  0.776518  0.520236  0.249040  1
  Al  Al20  1  0.519221  0.779275  0.744287  1
  Al  Al21  1  0.480779  0.220725  0.255713  1
  Cr  Cr22  1  0.500000  0.000000  0.500000  1
  Rh  Rh23  1  0.000000  0.500000  0.500000  1
  Rh  Rh24  1  0.000000  0.500000  0.000000  1
  Rh  Rh25  1  0.500000  0.000000  0.000000  1
