# generated using pymatgen
data_Pa2Hg3F12
_symmetry_space_group_name_H-M   'P 1'
_cell_length_a   9.51646100
_cell_length_b   6.11067274
_cell_length_c   12.98231449
_cell_angle_alpha   85.07545254
_cell_angle_beta   90.00000000
_cell_angle_gamma   90.00000000
_symmetry_Int_Tables_number   1
_chemical_formula_structural   Pa2Hg3F12
_chemical_formula_sum   'Pa4 Hg6 F24'
_cell_volume   752.16047196
_cell_formula_units_Z   2
loop_
 _symmetry_equiv_pos_site_id
 _symmetry_equiv_pos_as_xyz
  1  'x, y, z'
loop_
 _atom_site_type_symbol
 _atom_site_label
 _atom_site_symmetry_multiplicity
 _atom_site_fract_x
 _atom_site_fract_y
 _atom_site_fract_z
 _atom_site_occupancy
  Pa  Pa0  1  0.140161  0.715373  0.669760  1
  Pa  Pa1  1  0.640161  0.284627  0.830240  1
  Pa  Pa2  1  0.859839  0.284627  0.330240  1
  Pa  Pa3  1  0.359839  0.715373  0.169760  1
  Hg  Hg4  1  0.716588  0.748271  0.554494  1
  Hg  Hg5  1  0.216588  0.251729  0.945506  1
  Hg  Hg6  1  0.283412  0.251729  0.445506  1
  Hg  Hg7  1  0.783412  0.748271  0.054494  1
  Hg  Hg8  1  0.500000  0.000000  0.500000  1
  Hg  Hg9  1  0.000000  0.000000  0.000000  1
  F  F10  1  0.937048  0.611104  0.614235  1
  F  F11  1  0.437048  0.388896  0.885765  1
  F  F12  1  0.062952  0.388896  0.385765  1
  F  F13  1  0.562952  0.611104  0.114235  1
  F  F14  1  0.189965  0.399399  0.737314  1
  F  F15  1  0.689965  0.600601  0.762686  1
  F  F16  1  0.810035  0.600601  0.262686  1
  F  F17  1  0.310035  0.399399  0.237314  1
  F  F18  1  0.054124  0.774865  0.813833  1
  F  F19  1  0.554124  0.225135  0.686167  1
  F  F20  1  0.165005  0.840239  0.210966  1
  F  F21  1  0.665005  0.159761  0.289034  1
  F  F22  1  0.834995  0.159761  0.789034  1
  F  F23  1  0.334995  0.840239  0.710966  1
  F  F24  1  0.259333  0.629503  0.031927  1
  F  F25  1  0.759333  0.370497  0.468073  1
  F  F26  1  0.740667  0.370497  0.968073  1
  F  F27  1  0.240667  0.629503  0.531927  1
  F  F28  1  0.406701  0.027489  0.097922  1
  F  F29  1  0.906701  0.972511  0.402078  1
  F  F30  1  0.593299  0.972511  0.902078  1
  F  F31  1  0.093299  0.027489  0.597922  1
  F  F32  1  0.445876  0.774865  0.313833  1
  F  F33  1  0.945876  0.225135  0.186167  1
