# generated using pymatgen
data_Zr3Sc6Al12CrOs7
_symmetry_space_group_name_H-M   'P 1'
_cell_length_a   8.92338690
_cell_length_b   8.92338568
_cell_length_c   8.91434030
_cell_angle_alpha   59.96642462
_cell_angle_beta   59.96642958
_cell_angle_gamma   60.00000413
_symmetry_Int_Tables_number   1
_chemical_formula_structural   Zr3Sc6Al12CrOs7
_chemical_formula_sum   'Zr3 Sc6 Al12 Cr1 Os7'
_cell_volume   501.66412058
_cell_formula_units_Z   1
loop_
 _symmetry_equiv_pos_site_id
 _symmetry_equiv_pos_as_xyz
  1  'x, y, z'
loop_
 _atom_site_type_symbol
 _atom_site_label
 _atom_site_symmetry_multiplicity
 _atom_site_fract_x
 _atom_site_fract_y
 _atom_site_fract_z
 _atom_site_occupancy
  Zr  Zr0  1  0.882331  0.356877  0.878460  1
  Zr  Zr1  1  0.356877  0.882331  0.878460  1
  Zr  Zr2  1  0.882331  0.882331  0.878460  1
  Sc  Sc3  1  0.713348  0.713348  0.292181  1
  Sc  Sc4  1  0.281123  0.713348  0.292181  1
  Sc  Sc5  1  0.713348  0.281123  0.292181  1
  Sc  Sc6  1  0.294599  0.294599  0.705651  1
  Sc  Sc7  1  0.705150  0.294599  0.705651  1
  Sc  Sc8  1  0.294599  0.705150  0.705651  1
  Al  Al9  1  0.121937  0.121937  0.634191  1
  Al  Al10  1  0.122521  0.632493  0.122466  1
  Al  Al11  1  0.632493  0.122521  0.122466  1
  Al  Al12  1  0.122521  0.122521  0.122466  1
  Al  Al13  1  0.662261  0.662261  0.013220  1
  Al  Al14  1  0.667648  0.005058  0.659648  1
  Al  Al15  1  0.005058  0.667648  0.659648  1
  Al  Al16  1  0.667648  0.667648  0.659648  1
  Al  Al17  1  0.334514  0.334514  0.996455  1
  Al  Al18  1  0.335593  0.994596  0.334215  1
  Al  Al19  1  0.994596  0.335593  0.334215  1
  Al  Al20  1  0.335593  0.335593  0.334215  1
  Cr  Cr21  1  0.877427  0.877427  0.367716  1
  Os  Os22  1  0.987625  0.987625  0.037125  1
  Os  Os23  1  0.999490  0.999490  0.492976  1
  Os  Os24  1  0.508043  0.999490  0.492976  1
  Os  Os25  1  0.999490  0.508043  0.492976  1
  Os  Os26  1  0.500221  0.500221  0.998168  1
  Os  Os27  1  0.001390  0.500221  0.998168  1
  Os  Os28  1  0.500221  0.001390  0.998168  1
