# generated using pymatgen
data_Li3Dy8Sc8Si16Hg
_symmetry_space_group_name_H-M   'P 1'
_cell_length_a   6.89403229
_cell_length_b   7.42512774
_cell_length_c   14.04351400
_cell_angle_alpha   90.00000000
_cell_angle_beta   90.00000000
_cell_angle_gamma   89.91912894
_symmetry_Int_Tables_number   1
_chemical_formula_structural   Li3Dy8Sc8Si16Hg
_chemical_formula_sum   'Li3 Dy8 Sc8 Si16 Hg1'
_cell_volume   718.87371054
_cell_formula_units_Z   1
loop_
 _symmetry_equiv_pos_site_id
 _symmetry_equiv_pos_as_xyz
  1  'x, y, z'
loop_
 _atom_site_type_symbol
 _atom_site_label
 _atom_site_symmetry_multiplicity
 _atom_site_fract_x
 _atom_site_fract_y
 _atom_site_fract_z
 _atom_site_occupancy
  Li  Li0  1  0.840486  0.495138  0.250000  1
  Li  Li1  1  0.341281  0.006041  0.250000  1
  Li  Li2  1  0.657682  0.995619  0.750000  1
  Dy  Dy3  1  0.013029  0.180088  0.099588  1
  Dy  Dy4  1  0.987696  0.818096  0.901620  1
  Dy  Dy5  1  0.487705  0.679207  0.901946  1
  Dy  Dy6  1  0.987696  0.818096  0.598380  1
  Dy  Dy7  1  0.513347  0.318197  0.098564  1
  Dy  Dy8  1  0.013029  0.180088  0.400412  1
  Dy  Dy9  1  0.513347  0.318197  0.401436  1
  Dy  Dy10  1  0.487705  0.679207  0.598054  1
  Sc  Sc11  1  0.328233  0.181374  0.626252  1
  Sc  Sc12  1  0.668588  0.820770  0.373743  1
  Sc  Sc13  1  0.168805  0.682661  0.372814  1
  Sc  Sc14  1  0.668588  0.820770  0.126257  1
  Sc  Sc15  1  0.833303  0.320346  0.625369  1
  Sc  Sc16  1  0.328233  0.181374  0.873748  1
  Sc  Sc17  1  0.833303  0.320346  0.874631  1
  Sc  Sc18  1  0.168805  0.682661  0.127186  1
  Si  Si19  1  0.025510  0.093046  0.750000  1
  Si  Si20  1  0.966734  0.897063  0.250000  1
  Si  Si21  1  0.468597  0.603969  0.250000  1
  Si  Si22  1  0.541610  0.388027  0.750000  1
  Si  Si23  1  0.289826  0.889292  0.750000  1
  Si  Si24  1  0.714821  0.117817  0.250000  1
  Si  Si25  1  0.216746  0.383314  0.250000  1
  Si  Si26  1  0.772848  0.626711  0.750000  1
  Si  Si27  1  0.162830  0.460262  0.528592  1
  Si  Si28  1  0.841253  0.536887  0.464930  1
  Si  Si29  1  0.340931  0.963087  0.465498  1
  Si  Si30  1  0.841253  0.536887  0.035070  1
  Si  Si31  1  0.658049  0.035420  0.535900  1
  Si  Si32  1  0.162830  0.460262  0.971408  1
  Si  Si33  1  0.658049  0.035420  0.964100  1
  Si  Si34  1  0.340931  0.963087  0.034502  1
  Hg  Hg35  1  0.156320  0.511174  0.750000  1
