# generated using pymatgen
data_NaY(Si7Ir3)2
_symmetry_space_group_name_H-M   'P 1'
_cell_length_a   8.01655114
_cell_length_b   8.01655093
_cell_length_c   8.01655076
_cell_angle_alpha   56.89232757
_cell_angle_beta   56.89232604
_cell_angle_gamma   56.89232623
_symmetry_Int_Tables_number   1
_chemical_formula_structural   NaY(Si7Ir3)2
_chemical_formula_sum   'Na1 Y1 Si14 Ir6'
_cell_volume   338.17298728
_cell_formula_units_Z   1
loop_
 _symmetry_equiv_pos_site_id
 _symmetry_equiv_pos_as_xyz
  1  'x, y, z'
loop_
 _atom_site_type_symbol
 _atom_site_label
 _atom_site_symmetry_multiplicity
 _atom_site_fract_x
 _atom_site_fract_y
 _atom_site_fract_z
 _atom_site_occupancy
  Na  Na0  1  0.000000  0.000000  0.000000  1
  Y  Y1  1  0.500000  0.500000  0.500000  1
  Si  Si2  1  0.749703  0.749703  0.749703  1
  Si  Si3  1  0.250297  0.250297  0.250297  1
  Si  Si4  1  0.852757  0.064301  0.675648  1
  Si  Si5  1  0.675648  0.852757  0.064301  1
  Si  Si6  1  0.064301  0.675648  0.852757  1
  Si  Si7  1  0.652719  0.828566  0.432439  1
  Si  Si8  1  0.432439  0.652719  0.828566  1
  Si  Si9  1  0.828566  0.432439  0.652719  1
  Si  Si10  1  0.171434  0.567561  0.347281  1
  Si  Si11  1  0.567561  0.347281  0.171434  1
  Si  Si12  1  0.347281  0.171434  0.567561  1
  Si  Si13  1  0.935699  0.324352  0.147243  1
  Si  Si14  1  0.324352  0.147243  0.935699  1
  Si  Si15  1  0.147243  0.935699  0.324352  1
  Ir  Ir16  1  0.073746  0.432303  0.746886  1
  Ir  Ir17  1  0.253114  0.926254  0.567697  1
  Ir  Ir18  1  0.567697  0.253114  0.926254  1
  Ir  Ir19  1  0.926254  0.567697  0.253114  1
  Ir  Ir20  1  0.432303  0.746886  0.073746  1
  Ir  Ir21  1  0.746886  0.073746  0.432303  1
