# generated using pymatgen
data_Tb3TmHf3AlPt4
_symmetry_space_group_name_H-M   'P 1'
_cell_length_a   4.56731000
_cell_length_b   7.07654422
_cell_length_c   8.14705500
_cell_angle_alpha   87.07963658
_cell_angle_beta   90.00000000
_cell_angle_gamma   90.00000000
_symmetry_Int_Tables_number   1
_chemical_formula_structural   Tb3TmHf3AlPt4
_chemical_formula_sum   'Tb3 Tm1 Hf3 Al1 Pt4'
_cell_volume   262.97713122
_cell_formula_units_Z   1
loop_
 _symmetry_equiv_pos_site_id
 _symmetry_equiv_pos_as_xyz
  1  'x, y, z'
loop_
 _atom_site_type_symbol
 _atom_site_label
 _atom_site_symmetry_multiplicity
 _atom_site_fract_x
 _atom_site_fract_y
 _atom_site_fract_z
 _atom_site_occupancy
  Tb  Tb0  1  0.750000  0.516725  0.815555  1
  Tb  Tb1  1  0.750000  0.039214  0.671460  1
  Tb  Tb2  1  0.250000  0.988405  0.336478  1
  Tm  Tm3  1  0.250000  0.471822  0.186970  1
  Hf  Hf4  1  0.250000  0.854953  0.924119  1
  Hf  Hf5  1  0.750000  0.138361  0.070937  1
  Hf  Hf6  1  0.750000  0.639935  0.434395  1
  Al  Al7  1  0.250000  0.358679  0.571502  1
  Pt  Pt8  1  0.250000  0.726053  0.609845  1
  Pt  Pt9  1  0.750000  0.271727  0.380629  1
  Pt  Pt10  1  0.750000  0.763821  0.102690  1
  Pt  Pt11  1  0.250000  0.230308  0.895419  1
