# generated using pymatgen
data_Pr4Ge2Pd27Au
_symmetry_space_group_name_H-M   'P 1'
_cell_length_a   9.04753488
_cell_length_b   9.04753488
_cell_length_c   7.23152566
_cell_angle_alpha   90.03432899
_cell_angle_beta   90.03432899
_cell_angle_gamma   89.76220002
_symmetry_Int_Tables_number   1
_chemical_formula_structural   Pr4Ge2Pd27Au
_chemical_formula_sum   'Pr4 Ge2 Pd27 Au1'
_cell_volume   591.95210290
_cell_formula_units_Z   1
loop_
 _symmetry_equiv_pos_site_id
 _symmetry_equiv_pos_as_xyz
  1  'x, y, z'
loop_
 _atom_site_type_symbol
 _atom_site_label
 _atom_site_symmetry_multiplicity
 _atom_site_fract_x
 _atom_site_fract_y
 _atom_site_fract_z
 _atom_site_occupancy
  Pr  Pr0  1  0.502653  0.002653  0.934921  1
  Pr  Pr1  1  0.997347  0.497347  0.065079  1
  Pr  Pr2  1  0.999549  0.000451  0.500000  1
  Pr  Pr3  1  0.500451  0.499549  0.500000  1
  Ge  Ge4  1  0.500731  0.000731  0.449981  1
  Ge  Ge5  1  0.999269  0.499269  0.550019  1
  Pd  Pd6  1  0.331863  0.831863  0.619061  1
  Pd  Pd7  1  0.331011  0.169675  0.621311  1
  Pd  Pd8  1  0.669675  0.831011  0.621311  1
  Pd  Pd9  1  0.669384  0.169384  0.621386  1
  Pd  Pd10  1  0.168137  0.668137  0.380939  1
  Pd  Pd11  1  0.168989  0.330325  0.378689  1
  Pd  Pd12  1  0.830325  0.668989  0.378689  1
  Pd  Pd13  1  0.830616  0.330616  0.378614  1
  Pd  Pd14  1  0.501804  0.767138  0.254524  1
  Pd  Pd15  1  0.499851  0.232883  0.253064  1
  Pd  Pd16  1  0.267138  0.001804  0.254524  1
  Pd  Pd17  1  0.732883  0.999851  0.253064  1
  Pd  Pd18  1  0.998196  0.732862  0.745476  1
  Pd  Pd19  1  0.000149  0.267117  0.746936  1
  Pd  Pd20  1  0.232862  0.498196  0.745476  1
  Pd  Pd21  1  0.767117  0.500149  0.746936  1
  Pd  Pd22  1  0.499476  0.348540  0.857867  1
  Pd  Pd23  1  0.502279  0.649935  0.855654  1
  Pd  Pd24  1  0.848540  0.999476  0.857867  1
  Pd  Pd25  1  0.149935  0.002279  0.855654  1
  Pd  Pd26  1  0.000524  0.151460  0.142133  1
  Pd  Pd27  1  0.997721  0.850065  0.144346  1
  Pd  Pd28  1  0.651460  0.500524  0.142133  1
  Pd  Pd29  1  0.350065  0.497721  0.144346  1
  Pd  Pd30  1  0.250000  0.250000  0.000000  1
  Pd  Pd31  1  0.750000  0.750000  0.000000  1
  Pd  Pd32  1  0.750000  0.250000  0.000000  1
  Au  Au33  1  0.250000  0.750000  0.000000  1
