# generated using pymatgen
data_Ta12Si3As
_symmetry_space_group_name_H-M   'P 1'
_cell_length_a   10.24198474
_cell_length_b   10.23949131
_cell_length_c   5.22661047
_cell_angle_alpha   89.97469423
_cell_angle_beta   89.95836647
_cell_angle_gamma   90.01191249
_symmetry_Int_Tables_number   1
_chemical_formula_structural   Ta12Si3As
_chemical_formula_sum   'Ta24 Si6 As2'
_cell_volume   548.12861314
_cell_formula_units_Z   2
loop_
 _symmetry_equiv_pos_site_id
 _symmetry_equiv_pos_as_xyz
  1  'x, y, z'
loop_
 _atom_site_type_symbol
 _atom_site_label
 _atom_site_symmetry_multiplicity
 _atom_site_fract_x
 _atom_site_fract_y
 _atom_site_fract_z
 _atom_site_occupancy
  Ta  Ta0  1  0.518167  0.646025  0.273189  1
  Ta  Ta1  1  0.402359  0.088369  0.027725  1
  Ta  Ta2  1  0.710782  0.812722  0.511983  1
  Ta  Ta3  1  0.898187  0.583883  0.466735  1
  Ta  Ta4  1  0.852535  0.020647  0.772646  1
  Ta  Ta5  1  0.015674  0.148082  0.226105  1
  Ta  Ta6  1  0.784394  0.686858  0.988181  1
  Ta  Ta7  1  0.287758  0.190306  0.515224  1
  Ta  Ta8  1  0.687327  0.213354  0.013729  1
  Ta  Ta9  1  0.416409  0.898320  0.533057  1
  Ta  Ta10  1  0.812181  0.287399  0.486354  1
  Ta  Ta11  1  0.353708  0.518210  0.726763  1
  Ta  Ta12  1  0.646163  0.481474  0.727047  1
  Ta  Ta13  1  0.147505  0.985405  0.774827  1
  Ta  Ta14  1  0.213007  0.312995  0.986468  1
  Ta  Ta15  1  0.913466  0.400433  0.970161  1
  Ta  Ta16  1  0.313612  0.784702  0.011672  1
  Ta  Ta17  1  0.599278  0.913606  0.029743  1
  Ta  Ta18  1  0.088271  0.597369  0.972470  1
  Ta  Ta19  1  0.099620  0.414233  0.469013  1
  Ta  Ta20  1  0.979973  0.853146  0.226458  1
  Ta  Ta21  1  0.189874  0.710363  0.486499  1
  Ta  Ta22  1  0.481489  0.353567  0.272912  1
  Ta  Ta23  1  0.586105  0.099797  0.531097  1
  Si  Si24  1  0.794128  0.029111  0.278089  1
  Si  Si25  1  0.471538  0.295535  0.778792  1
  Si  Si26  1  0.295730  0.528074  0.220896  1
  Si  Si27  1  0.028801  0.206058  0.721470  1
  Si  Si28  1  0.704326  0.470084  0.220301  1
  Si  Si29  1  0.529591  0.704113  0.779985  1
  As  As30  1  0.971777  0.793774  0.722332  1
  As  As31  1  0.206268  0.971986  0.278077  1
