# generated using pymatgen
data_Ho5Tm3Cr2(OsC4)2
_symmetry_space_group_name_H-M   'P 1'
_cell_length_a   5.02574000
_cell_length_b   6.46197229
_cell_length_c   9.70776627
_cell_angle_alpha   90.29449840
_cell_angle_beta   90.00000000
_cell_angle_gamma   90.00000000
_symmetry_Int_Tables_number   1
_chemical_formula_structural   Ho5Tm3Cr2(OsC4)2
_chemical_formula_sum   'Ho5 Tm3 Cr2 Os2 C8'
_cell_volume   315.26712238
_cell_formula_units_Z   1
loop_
 _symmetry_equiv_pos_site_id
 _symmetry_equiv_pos_as_xyz
  1  'x, y, z'
loop_
 _atom_site_type_symbol
 _atom_site_label
 _atom_site_symmetry_multiplicity
 _atom_site_fract_x
 _atom_site_fract_y
 _atom_site_fract_z
 _atom_site_occupancy
  Ho  Ho0  1  0.250000  0.176677  0.945386  1
  Ho  Ho1  1  0.250000  0.532500  0.215316  1
  Ho  Ho2  1  0.750000  0.467946  0.784735  1
  Ho  Ho3  1  0.750000  0.970662  0.715083  1
  Ho  Ho4  1  0.250000  0.028844  0.285434  1
  Tm  Tm5  1  0.250000  0.679212  0.559173  1
  Tm  Tm6  1  0.750000  0.321093  0.440534  1
  Tm  Tm7  1  0.750000  0.824638  0.055619  1
  Cr  Cr8  1  0.250000  0.724183  0.862520  1
  Cr  Cr9  1  0.750000  0.275588  0.137754  1
  Os  Os10  1  0.750000  0.776860  0.363815  1
  Os  Os11  1  0.250000  0.223111  0.635756  1
  C  C12  1  0.250000  0.462379  0.763248  1
  C  C13  1  0.750000  0.538303  0.235712  1
  C  C14  1  0.750000  0.048399  0.256816  1
  C  C15  1  0.250000  0.951132  0.742858  1
  C  C16  1  0.250000  0.815068  0.040921  1
  C  C17  1  0.750000  0.183343  0.959636  1
  C  C18  1  0.750000  0.674953  0.549548  1
  C  C19  1  0.250000  0.325108  0.450136  1
