# generated using pymatgen
data_Zr5SiP11Ru19
_symmetry_space_group_name_H-M   'P 1'
_cell_length_a   12.41163504
_cell_length_b   12.42880747
_cell_length_c   3.92076700
_cell_angle_alpha   90.00000000
_cell_angle_beta   90.00000000
_cell_angle_gamma   119.78207190
_symmetry_Int_Tables_number   1
_chemical_formula_structural   Zr5SiP11Ru19
_chemical_formula_sum   'Zr5 Si1 P11 Ru19'
_cell_volume   524.93997517
_cell_formula_units_Z   1
loop_
 _symmetry_equiv_pos_site_id
 _symmetry_equiv_pos_as_xyz
  1  'x, y, z'
loop_
 _atom_site_type_symbol
 _atom_site_label
 _atom_site_symmetry_multiplicity
 _atom_site_fract_x
 _atom_site_fract_y
 _atom_site_fract_z
 _atom_site_occupancy
  Zr  Zr0  1  0.190752  0.192356  0.500000  1
  Zr  Zr1  1  0.809075  0.999562  0.500000  1
  Zr  Zr2  1  0.000021  0.811197  0.500000  1
  Zr  Zr3  1  0.332106  0.665688  0.000000  1
  Zr  Zr4  1  0.666736  0.333174  0.000000  1
  Si  Si5  1  0.168200  0.477848  0.500000  1
  P  P6  1  0.819633  0.818925  0.000000  1
  P  P7  1  0.181595  0.002236  0.000000  1
  P  P8  1  0.998750  0.179058  0.000000  1
  P  P9  1  0.520790  0.693495  0.500000  1
  P  P10  1  0.305613  0.828424  0.500000  1
  P  P11  1  0.694613  0.521527  0.500000  1
  P  P12  1  0.826187  0.304831  0.500000  1
  P  P13  1  0.478938  0.173440  0.500000  1
  P  P14  1  0.373234  0.373266  0.000000  1
  P  P15  1  0.628486  0.999490  0.000000  1
  P  P16  1  0.002279  0.628692  0.000000  1
  Ru  Ru17  1  0.558299  0.556198  0.000000  1
  Ru  Ru18  1  0.444011  0.999960  0.000000  1
  Ru  Ru19  1  0.003774  0.443919  0.000000  1
  Ru  Ru20  1  0.721857  0.721333  0.500000  1
  Ru  Ru21  1  0.279211  0.002047  0.500000  1
  Ru  Ru22  1  0.996077  0.272556  0.500000  1
  Ru  Ru23  1  0.184661  0.368692  0.000000  1
  Ru  Ru24  1  0.625825  0.810212  0.000000  1
  Ru  Ru25  1  0.190493  0.818432  0.000000  1
  Ru  Ru26  1  0.812794  0.626530  0.000000  1
  Ru  Ru27  1  0.813635  0.188990  0.000000  1
  Ru  Ru28  1  0.375300  0.186022  0.000000  1
  Ru  Ru29  1  0.368112  0.494053  0.500000  1
  Ru  Ru30  1  0.505130  0.871560  0.500000  1
  Ru  Ru31  1  0.124781  0.639063  0.500000  1
  Ru  Ru32  1  0.871605  0.504432  0.500000  1
  Ru  Ru33  1  0.632707  0.127241  0.500000  1
  Ru  Ru34  1  0.495410  0.366801  0.500000  1
  Ru  Ru35  1  0.999309  0.998752  0.000000  1
