# generated using pymatgen
data_Dy9LuPPb6S
_symmetry_space_group_name_H-M   'P 1'
_cell_length_a   9.16020400
_cell_length_b   9.16020368
_cell_length_c   6.71548900
_cell_angle_alpha   90.00000000
_cell_angle_beta   90.00000000
_cell_angle_gamma   120.00000115
_symmetry_Int_Tables_number   1
_chemical_formula_structural   Dy9LuPPb6S
_chemical_formula_sum   'Dy9 Lu1 P1 Pb6 S1'
_cell_volume   487.99856493
_cell_formula_units_Z   1
loop_
 _symmetry_equiv_pos_site_id
 _symmetry_equiv_pos_as_xyz
  1  'x, y, z'
loop_
 _atom_site_type_symbol
 _atom_site_label
 _atom_site_symmetry_multiplicity
 _atom_site_fract_x
 _atom_site_fract_y
 _atom_site_fract_z
 _atom_site_occupancy
  Dy  Dy0  1  0.239540  0.999547  0.747107  1
  Dy  Dy1  1  0.760006  0.999547  0.252893  1
  Dy  Dy2  1  0.000453  0.239994  0.747107  1
  Dy  Dy3  1  0.000453  0.760460  0.252893  1
  Dy  Dy4  1  0.760006  0.760460  0.747107  1
  Dy  Dy5  1  0.239540  0.239994  0.252893  1
  Dy  Dy6  1  0.333333  0.666667  0.500000  1
  Dy  Dy7  1  0.666667  0.333333  0.500000  1
  Dy  Dy8  1  0.666667  0.333333  0.000000  1
  Lu  Lu9  1  0.333333  0.666667  0.000000  1
  P  P10  1  0.000000  0.000000  0.500000  1
  Pb  Pb11  1  0.602201  0.998871  0.751734  1
  Pb  Pb12  1  0.396669  0.998871  0.248266  1
  Pb  Pb13  1  0.001129  0.603331  0.751734  1
  Pb  Pb14  1  0.001129  0.397799  0.248266  1
  Pb  Pb15  1  0.396669  0.397799  0.751734  1
  Pb  Pb16  1  0.602201  0.603331  0.248266  1
  S  S17  1  0.000000  0.000000  0.000000  1
