# generated using pymatgen
data_Dy3Er3Co16(P6W)2
_symmetry_space_group_name_H-M   'P 1'
_cell_length_a   3.70916400
_cell_length_b   10.54259213
_cell_length_c   12.22863816
_cell_angle_alpha   89.98180462
_cell_angle_beta   90.00000000
_cell_angle_gamma   90.00000000
_symmetry_Int_Tables_number   1
_chemical_formula_structural   Dy3Er3Co16(P6W)2
_chemical_formula_sum   'Dy3 Er3 Co16 P12 W2'
_cell_volume   478.19112721
_cell_formula_units_Z   1
loop_
 _symmetry_equiv_pos_site_id
 _symmetry_equiv_pos_as_xyz
  1  'x, y, z'
loop_
 _atom_site_type_symbol
 _atom_site_label
 _atom_site_symmetry_multiplicity
 _atom_site_fract_x
 _atom_site_fract_y
 _atom_site_fract_z
 _atom_site_occupancy
  Dy  Dy0  1  0.750000  0.250006  0.475350  1
  Dy  Dy1  1  0.250000  0.749856  0.524504  1
  Dy  Dy2  1  0.250000  0.930435  0.795146  1
  Er  Er3  1  0.250000  0.569426  0.795135  1
  Er  Er4  1  0.750000  0.069671  0.204698  1
  Er  Er5  1  0.750000  0.430401  0.205027  1
  Co  Co6  1  0.250000  0.250194  0.298149  1
  Co  Co7  1  0.750000  0.749386  0.701604  1
  Co  Co8  1  0.750000  0.250346  0.013311  1
  Co  Co9  1  0.250000  0.749590  0.987242  1
  Co  Co10  1  0.250000  0.417354  0.009892  1
  Co  Co11  1  0.250000  0.083092  0.010040  1
  Co  Co12  1  0.750000  0.582376  0.990551  1
  Co  Co13  1  0.750000  0.917220  0.990848  1
  Co  Co14  1  0.250000  0.454088  0.568782  1
  Co  Co15  1  0.250000  0.045836  0.568149  1
  Co  Co16  1  0.750000  0.545693  0.431238  1
  Co  Co17  1  0.750000  0.954249  0.430709  1
  Co  Co18  1  0.250000  0.872101  0.292084  1
  Co  Co19  1  0.250000  0.627933  0.292438  1
  Co  Co20  1  0.750000  0.128434  0.707217  1
  Co  Co21  1  0.750000  0.372259  0.707744  1
  P  P22  1  0.250000  0.250206  0.119685  1
  P  P23  1  0.750000  0.749362  0.880859  1
  P  P24  1  0.250000  0.249902  0.649635  1
  P  P25  1  0.750000  0.749975  0.350093  1
  P  P26  1  0.250000  0.438695  0.383646  1
  P  P27  1  0.250000  0.061491  0.383171  1
  P  P28  1  0.750000  0.561040  0.616376  1
  P  P29  1  0.750000  0.938722  0.615525  1
  P  P30  1  0.250000  0.906298  0.107462  1
  P  P31  1  0.250000  0.593532  0.107847  1
  P  P32  1  0.750000  0.094367  0.893031  1
  P  P33  1  0.750000  0.406317  0.892558  1
  W  W34  1  0.250000  0.250317  0.843749  1
  W  W35  1  0.750000  0.749827  0.156503  1
