# generated using pymatgen
data_Cs12V2PW2S15
_symmetry_space_group_name_H-M   'P 1'
_cell_length_a   9.97314454
_cell_length_b   10.04862120
_cell_length_c   11.78297588
_cell_angle_alpha   90.09451981
_cell_angle_beta   89.87614224
_cell_angle_gamma   89.93257920
_symmetry_Int_Tables_number   1
_chemical_formula_structural   Cs12V2PW2S15
_chemical_formula_sum   'Cs12 V2 P1 W2 S15'
_cell_volume   1180.84166536
_cell_formula_units_Z   1
loop_
 _symmetry_equiv_pos_site_id
 _symmetry_equiv_pos_as_xyz
  1  'x, y, z'
loop_
 _atom_site_type_symbol
 _atom_site_label
 _atom_site_symmetry_multiplicity
 _atom_site_fract_x
 _atom_site_fract_y
 _atom_site_fract_z
 _atom_site_occupancy
  Cs  Cs0  1  0.547332  0.209890  0.047693  1
  Cs  Cs1  1  0.045498  0.289237  0.451331  1
  Cs  Cs2  1  0.456201  0.793759  0.535003  1
  Cs  Cs3  1  0.951722  0.709336  0.964933  1
  Cs  Cs4  1  0.455484  0.793357  0.964074  1
  Cs  Cs5  1  0.951026  0.709182  0.535774  1
  Cs  Cs6  1  0.546666  0.209667  0.453430  1
  Cs  Cs7  1  0.045703  0.288625  0.048404  1
  Cs  Cs8  1  0.650777  0.412534  0.748951  1
  Cs  Cs9  1  0.147290  0.084857  0.750514  1
  Cs  Cs10  1  0.352395  0.584488  0.250175  1
  Cs  Cs11  1  0.851763  0.916329  0.251378  1
  V  V12  1  0.276986  0.016593  0.249857  1
  V  V13  1  0.776750  0.483470  0.249731  1
  P  P14  1  0.828645  0.047305  0.595543  1
  W  W15  1  0.721471  0.982382  0.750662  1
  W  W16  1  0.223319  0.516894  0.750141  1
  S  S17  1  0.330053  0.452558  0.907388  1
  S  S18  1  0.172113  0.953265  0.097251  1
  S  S19  1  0.671389  0.546016  0.403065  1
  S  S20  1  0.172498  0.953230  0.402514  1
  S  S21  1  0.671826  0.546114  0.096580  1
  S  S22  1  0.833804  0.049617  0.906249  1
  S  S23  1  0.330234  0.452822  0.592448  1
  S  S24  1  0.512879  0.070526  0.749042  1
  S  S25  1  0.016310  0.430236  0.750548  1
  S  S26  1  0.479476  0.933939  0.249337  1
  S  S27  1  0.979352  0.566688  0.249391  1
  S  S28  1  0.709979  0.757964  0.749036  1
  S  S29  1  0.210334  0.739270  0.750253  1
  S  S30  1  0.290555  0.233497  0.249706  1
  S  S31  1  0.790174  0.266354  0.249599  1
