# generated using pymatgen
data_Er3Sn2Hg3
_symmetry_space_group_name_H-M   'P 1'
_cell_length_a   6.28955685
_cell_length_b   6.28955663
_cell_length_c   10.33645300
_cell_angle_alpha   90.00000000
_cell_angle_beta   90.00000000
_cell_angle_gamma   100.24762932
_symmetry_Int_Tables_number   1
_chemical_formula_structural   Er3Sn2Hg3
_chemical_formula_sum   'Er6 Sn4 Hg6'
_cell_volume   402.37215800
_cell_formula_units_Z   2
loop_
 _symmetry_equiv_pos_site_id
 _symmetry_equiv_pos_as_xyz
  1  'x, y, z'
loop_
 _atom_site_type_symbol
 _atom_site_label
 _atom_site_symmetry_multiplicity
 _atom_site_fract_x
 _atom_site_fract_y
 _atom_site_fract_z
 _atom_site_occupancy
  Er  Er0  1  0.611386  0.611386  0.250000  1
  Er  Er1  1  0.388614  0.388614  0.750000  1
  Er  Er2  1  0.205692  0.794308  0.500000  1
  Er  Er3  1  0.205692  0.794308  0.000000  1
  Er  Er4  1  0.794308  0.205692  0.500000  1
  Er  Er5  1  0.794308  0.205692  0.000000  1
  Sn  Sn6  1  0.302432  0.302432  0.043146  1
  Sn  Sn7  1  0.697568  0.697568  0.956854  1
  Sn  Sn8  1  0.302432  0.302432  0.456854  1
  Sn  Sn9  1  0.697568  0.697568  0.543146  1
  Hg  Hg10  1  0.996710  0.996710  0.250000  1
  Hg  Hg11  1  0.003290  0.003290  0.750000  1
  Hg  Hg12  1  0.504214  0.061003  0.250000  1
  Hg  Hg13  1  0.938997  0.495786  0.750000  1
  Hg  Hg14  1  0.495786  0.938997  0.750000  1
  Hg  Hg15  1  0.061003  0.504214  0.250000  1
