# generated using pymatgen
data_TmScNb4(B2Ru5)2
_symmetry_space_group_name_H-M   'P 1'
_cell_length_a   9.49616794
_cell_length_b   9.49616674
_cell_length_c   3.08079300
_cell_angle_alpha   90.00000000
_cell_angle_beta   90.00000000
_cell_angle_gamma   90.20027285
_symmetry_Int_Tables_number   1
_chemical_formula_structural   TmScNb4(B2Ru5)2
_chemical_formula_sum   'Tm1 Sc1 Nb4 B4 Ru10'
_cell_volume   277.81557136
_cell_formula_units_Z   1
loop_
 _symmetry_equiv_pos_site_id
 _symmetry_equiv_pos_as_xyz
  1  'x, y, z'
loop_
 _atom_site_type_symbol
 _atom_site_label
 _atom_site_symmetry_multiplicity
 _atom_site_fract_x
 _atom_site_fract_y
 _atom_site_fract_z
 _atom_site_occupancy
  Tm  Tm0  1  0.825577  0.674423  0.000000  1
  Sc  Sc1  1  0.176074  0.323926  0.000000  1
  Nb  Nb2  1  0.323680  0.824069  0.000000  1
  Nb  Nb3  1  0.675931  0.176320  0.000000  1
  Nb  Nb4  1  0.499631  0.499911  0.000000  1
  Nb  Nb5  1  0.000089  0.000369  0.000000  1
  B  B6  1  0.620222  0.879778  0.000000  1
  B  B7  1  0.375503  0.124497  0.000000  1
  B  B8  1  0.121805  0.618205  0.000000  1
  B  B9  1  0.881795  0.378195  0.000000  1
  Ru  Ru10  1  0.561028  0.722790  0.500000  1
  Ru  Ru11  1  0.434372  0.280287  0.500000  1
  Ru  Ru12  1  0.080040  0.783607  0.500000  1
  Ru  Ru13  1  0.923242  0.215035  0.500000  1
  Ru  Ru14  1  0.284965  0.576758  0.500000  1
  Ru  Ru15  1  0.716393  0.419960  0.500000  1
  Ru  Ru16  1  0.219713  0.065628  0.500000  1
  Ru  Ru17  1  0.777210  0.938972  0.500000  1
  Ru  Ru18  1  0.498062  0.001938  0.500000  1
  Ru  Ru19  1  0.004669  0.495331  0.500000  1
