# generated using pymatgen
data_U8Tc3B24W
_symmetry_space_group_name_H-M   'P 1'
_cell_length_a   3.65399800
_cell_length_b   9.27846216
_cell_length_c   11.37217620
_cell_angle_alpha   89.97848399
_cell_angle_beta   90.00000000
_cell_angle_gamma   90.00000000
_symmetry_Int_Tables_number   1
_chemical_formula_structural   U8Tc3B24W
_chemical_formula_sum   'U8 Tc3 B24 W1'
_cell_volume   385.55634607
_cell_formula_units_Z   1
loop_
 _symmetry_equiv_pos_site_id
 _symmetry_equiv_pos_as_xyz
  1  'x, y, z'
loop_
 _atom_site_type_symbol
 _atom_site_label
 _atom_site_symmetry_multiplicity
 _atom_site_fract_x
 _atom_site_fract_y
 _atom_site_fract_z
 _atom_site_occupancy
  U  U0  1  0.000000  0.336249  0.407299  1
  U  U1  1  0.000000  0.663579  0.592000  1
  U  U2  1  0.000000  0.835612  0.093224  1
  U  U3  1  0.000000  0.162777  0.907571  1
  U  U4  1  0.000000  0.956287  0.395730  1
  U  U5  1  0.000000  0.044131  0.605070  1
  U  U6  1  0.000000  0.456343  0.104366  1
  U  U7  1  0.000000  0.543734  0.894654  1
  Tc  Tc8  1  0.000000  0.355550  0.679680  1
  Tc  Tc9  1  0.000000  0.144535  0.179958  1
  Tc  Tc10  1  0.000000  0.856137  0.820395  1
  B  B11  1  0.500000  0.548997  0.433779  1
  B  B12  1  0.500000  0.449690  0.567623  1
  B  B13  1  0.500000  0.049735  0.067281  1
  B  B14  1  0.500000  0.950091  0.932966  1
  B  B15  1  0.500000  0.743476  0.424979  1
  B  B16  1  0.500000  0.257303  0.576452  1
  B  B17  1  0.500000  0.242394  0.076243  1
  B  B18  1  0.500000  0.757476  0.923280  1
  B  B19  1  0.500000  0.804921  0.272799  1
  B  B20  1  0.500000  0.196057  0.726848  1
  B  B21  1  0.500000  0.303144  0.226567  1
  B  B22  1  0.500000  0.696110  0.773067  1
  B  B23  1  0.500000  0.645385  0.186875  1
  B  B24  1  0.500000  0.355026  0.811718  1
  B  B25  1  0.500000  0.144794  0.311673  1
  B  B26  1  0.500000  0.855337  0.688590  1
  B  B27  1  0.500000  0.986558  0.218740  1
  B  B28  1  0.500000  0.014215  0.781167  1
  B  B29  1  0.500000  0.484358  0.280838  1
  B  B30  1  0.500000  0.514110  0.718912  1
  B  B31  1  0.500000  0.643413  0.038637  1
  B  B32  1  0.500000  0.356348  0.960117  1
  B  B33  1  0.500000  0.143702  0.460299  1
  B  B34  1  0.500000  0.857543  0.540540  1
  W  W35  1  0.000000  0.644882  0.320064  1
