# generated using pymatgen
data_Tb4Y2FeCl10
_symmetry_space_group_name_H-M   'P 1'
_cell_length_a   7.10938553
_cell_length_b   8.80200591
_cell_length_c   8.89812537
_cell_angle_alpha   108.43003119
_cell_angle_beta   96.27150758
_cell_angle_gamma   105.61967456
_symmetry_Int_Tables_number   1
_chemical_formula_structural   Tb4Y2FeCl10
_chemical_formula_sum   'Tb4 Y2 Fe1 Cl10'
_cell_volume   497.10499368
_cell_formula_units_Z   1
loop_
 _symmetry_equiv_pos_site_id
 _symmetry_equiv_pos_as_xyz
  1  'x, y, z'
loop_
 _atom_site_type_symbol
 _atom_site_label
 _atom_site_symmetry_multiplicity
 _atom_site_fract_x
 _atom_site_fract_y
 _atom_site_fract_z
 _atom_site_occupancy
  Tb  Tb0  1  0.532730  0.703649  0.904636  1
  Tb  Tb1  1  0.467270  0.296351  0.095364  1
  Tb  Tb2  1  0.633542  0.054967  0.756898  1
  Tb  Tb3  1  0.366458  0.945033  0.243102  1
  Y  Y4  1  0.862283  0.138463  0.186835  1
  Y  Y5  1  0.137717  0.861537  0.813165  1
  Fe  Fe6  1  0.500000  0.000000  0.000000  1
  Cl  Cl7  1  0.737740  0.079004  0.451071  1
  Cl  Cl8  1  0.262260  0.920996  0.548929  1
  Cl  Cl9  1  0.952010  0.825319  0.077102  1
  Cl  Cl10  1  0.047990  0.174681  0.922898  1
  Cl  Cl11  1  0.280420  0.246514  0.341758  1
  Cl  Cl12  1  0.719580  0.753486  0.658242  1
  Cl  Cl13  1  0.590037  0.371551  0.836280  1
  Cl  Cl14  1  0.409963  0.628449  0.163720  1
  Cl  Cl15  1  0.842610  0.449424  0.274473  1
  Cl  Cl16  1  0.157390  0.550576  0.725527  1
