# generated using pymatgen
data_Zr3Pa(GaRh5)2
_symmetry_space_group_name_H-M   'P 1'
_cell_length_a   5.64105771
_cell_length_b   5.64105841
_cell_length_c   8.14330509
_cell_angle_alpha   89.98848408
_cell_angle_beta   89.98847820
_cell_angle_gamma   96.86167943
_symmetry_Int_Tables_number   1
_chemical_formula_structural   Zr3Pa(GaRh5)2
_chemical_formula_sum   'Zr3 Pa1 Ga2 Rh10'
_cell_volume   257.27642044
_cell_formula_units_Z   1
loop_
 _symmetry_equiv_pos_site_id
 _symmetry_equiv_pos_as_xyz
  1  'x, y, z'
loop_
 _atom_site_type_symbol
 _atom_site_label
 _atom_site_symmetry_multiplicity
 _atom_site_fract_x
 _atom_site_fract_y
 _atom_site_fract_z
 _atom_site_occupancy
  Zr  Zr0  1  0.222024  0.777976  0.000000  1
  Zr  Zr1  1  0.224140  0.775860  0.500000  1
  Zr  Zr2  1  0.776626  0.223374  0.000000  1
  Pa  Pa3  1  0.779505  0.220495  0.500000  1
  Ga  Ga4  1  0.497417  0.506494  0.754450  1
  Ga  Ga5  1  0.493506  0.502583  0.245550  1
  Rh  Rh6  1  0.721997  0.719083  0.000862  1
  Rh  Rh7  1  0.718553  0.718728  0.499298  1
  Rh  Rh8  1  0.280917  0.278003  0.999138  1
  Rh  Rh9  1  0.281272  0.281447  0.500702  1
  Rh  Rh10  1  0.500789  0.999833  0.749250  1
  Rh  Rh11  1  0.500667  0.999594  0.250686  1
  Rh  Rh12  1  0.001311  0.999298  0.247989  1
  Rh  Rh13  1  0.000702  0.998689  0.752011  1
  Rh  Rh14  1  0.000406  0.499333  0.749314  1
  Rh  Rh15  1  0.000167  0.499211  0.250750  1
