# generated using pymatgen
data_K2AcBr5
_symmetry_space_group_name_H-M   'P 1'
_cell_length_a   8.75276900
_cell_length_b   9.55125000
_cell_length_c   13.84009800
_cell_angle_alpha   90.00000000
_cell_angle_beta   90.00000000
_cell_angle_gamma   90.00000000
_symmetry_Int_Tables_number   1
_chemical_formula_structural   K2AcBr5
_chemical_formula_sum   'K8 Ac4 Br20'
_cell_volume   1157.03059996
_cell_formula_units_Z   4
loop_
 _symmetry_equiv_pos_site_id
 _symmetry_equiv_pos_as_xyz
  1  'x, y, z'
loop_
 _atom_site_type_symbol
 _atom_site_label
 _atom_site_symmetry_multiplicity
 _atom_site_fract_x
 _atom_site_fract_y
 _atom_site_fract_z
 _atom_site_occupancy
  K  K0  1  0.951339  0.004563  0.828048  1
  K  K1  1  0.048661  0.995437  0.171952  1
  K  K2  1  0.451339  0.995437  0.671952  1
  K  K3  1  0.048661  0.504563  0.171952  1
  K  K4  1  0.548661  0.004563  0.328048  1
  K  K5  1  0.951339  0.495437  0.828048  1
  K  K6  1  0.548661  0.495437  0.328048  1
  K  K7  1  0.451339  0.504563  0.671952  1
  Ac  Ac8  1  0.922745  0.750000  0.506247  1
  Ac  Ac9  1  0.077255  0.250000  0.493753  1
  Ac  Ac10  1  0.422745  0.250000  0.993753  1
  Ac  Ac11  1  0.577255  0.750000  0.006247  1
  Br  Br12  1  0.131215  0.750000  0.684553  1
  Br  Br13  1  0.868785  0.250000  0.315447  1
  Br  Br14  1  0.631215  0.250000  0.815447  1
  Br  Br15  1  0.368785  0.750000  0.184553  1
  Br  Br16  1  0.830559  0.045530  0.581526  1
  Br  Br17  1  0.169441  0.954470  0.418474  1
  Br  Br18  1  0.330559  0.954470  0.918474  1
  Br  Br19  1  0.169441  0.545530  0.418474  1
  Br  Br20  1  0.669441  0.045530  0.081526  1
  Br  Br21  1  0.830559  0.454470  0.581526  1
  Br  Br22  1  0.669441  0.454470  0.081526  1
  Br  Br23  1  0.330559  0.545530  0.918474  1
  Br  Br24  1  0.568342  0.750000  0.506421  1
  Br  Br25  1  0.431658  0.250000  0.493579  1
  Br  Br26  1  0.068342  0.250000  0.993579  1
  Br  Br27  1  0.931658  0.750000  0.006421  1
  Br  Br28  1  0.667995  0.750000  0.790822  1
  Br  Br29  1  0.332005  0.250000  0.209178  1
  Br  Br30  1  0.167995  0.250000  0.709178  1
  Br  Br31  1  0.832005  0.750000  0.290822  1
