# generated using pymatgen
data_NdTm19(GaBi2)4
_symmetry_space_group_name_H-M   'P 1'
_cell_length_a   11.91209569
_cell_length_b   9.21969100
_cell_length_c   8.00713200
_cell_angle_alpha   90.00000000
_cell_angle_beta   89.96147765
_cell_angle_gamma   90.00000000
_symmetry_Int_Tables_number   1
_chemical_formula_structural   NdTm19(GaBi2)4
_chemical_formula_sum   'Nd1 Tm19 Ga4 Bi8'
_cell_volume   879.38981071
_cell_formula_units_Z   1
loop_
 _symmetry_equiv_pos_site_id
 _symmetry_equiv_pos_as_xyz
  1  'x, y, z'
loop_
 _atom_site_type_symbol
 _atom_site_label
 _atom_site_symmetry_multiplicity
 _atom_site_fract_x
 _atom_site_fract_y
 _atom_site_fract_z
 _atom_site_occupancy
  Nd  Nd0  1  0.706104  0.750000  0.646065  1
  Tm  Tm1  1  0.562028  0.054741  0.319941  1
  Tm  Tm2  1  0.062849  0.444824  0.180006  1
  Tm  Tm3  1  0.435980  0.553888  0.680692  1
  Tm  Tm4  1  0.938465  0.946645  0.820052  1
  Tm  Tm5  1  0.435980  0.946112  0.680692  1
  Tm  Tm6  1  0.938465  0.553355  0.820052  1
  Tm  Tm7  1  0.562028  0.445259  0.319941  1
  Tm  Tm8  1  0.062849  0.055176  0.180006  1
  Tm  Tm9  1  0.715260  0.250000  0.671700  1
  Tm  Tm10  1  0.215194  0.250000  0.827809  1
  Tm  Tm11  1  0.283726  0.750000  0.327182  1
  Tm  Tm12  1  0.785024  0.750000  0.171378  1
  Tm  Tm13  1  0.502600  0.250000  0.962466  1
  Tm  Tm14  1  0.003797  0.250000  0.537318  1
  Tm  Tm15  1  0.496728  0.750000  0.037628  1
  Tm  Tm16  1  0.998057  0.750000  0.460486  1
  Tm  Tm17  1  0.794629  0.250000  0.145716  1
  Tm  Tm18  1  0.294121  0.250000  0.354804  1
  Tm  Tm19  1  0.205884  0.750000  0.855619  1
  Ga  Ga20  1  0.974870  0.250000  0.906389  1
  Ga  Ga21  1  0.473987  0.250000  0.593845  1
  Ga  Ga22  1  0.026081  0.750000  0.093663  1
  Ga  Ga23  1  0.521720  0.750000  0.401725  1
  Bi  Bi24  1  0.826765  0.012329  0.434366  1
  Bi  Bi25  1  0.324454  0.489923  0.062784  1
  Bi  Bi26  1  0.175277  0.509095  0.562776  1
  Bi  Bi27  1  0.675291  0.993556  0.942488  1
  Bi  Bi28  1  0.175277  0.990905  0.562776  1
  Bi  Bi29  1  0.675291  0.506444  0.942488  1
  Bi  Bi30  1  0.826765  0.487671  0.434366  1
  Bi  Bi31  1  0.324454  0.010077  0.062784  1
