# generated using pymatgen
data_CeNdHf3Si4
_symmetry_space_group_name_H-M   'P 1'
_cell_length_a   7.35278000
_cell_length_b   7.35278000
_cell_length_c   13.54537100
_cell_angle_alpha   90.00000000
_cell_angle_beta   90.00000000
_cell_angle_gamma   90.00000000
_symmetry_Int_Tables_number   1
_chemical_formula_structural   CeNdHf3Si4
_chemical_formula_sum   'Ce4 Nd4 Hf12 Si16'
_cell_volume   732.30845466
_cell_formula_units_Z   4
loop_
 _symmetry_equiv_pos_site_id
 _symmetry_equiv_pos_as_xyz
  1  'x, y, z'
loop_
 _atom_site_type_symbol
 _atom_site_label
 _atom_site_symmetry_multiplicity
 _atom_site_fract_x
 _atom_site_fract_y
 _atom_site_fract_z
 _atom_site_occupancy
  Ce  Ce0  1  0.844029  0.505706  0.964180  1
  Ce  Ce1  1  0.155971  0.494294  0.464180  1
  Ce  Ce2  1  0.005706  0.655971  0.714180  1
  Ce  Ce3  1  0.994294  0.344029  0.214180  1
  Nd  Nd4  1  0.493084  0.158278  0.534830  1
  Nd  Nd5  1  0.506916  0.841722  0.034830  1
  Nd  Nd6  1  0.658278  0.006916  0.284830  1
  Nd  Nd7  1  0.341722  0.993084  0.784830  1
  Hf  Hf8  1  0.677669  0.327906  0.750783  1
  Hf  Hf9  1  0.322331  0.672094  0.250783  1
  Hf  Hf10  1  0.827906  0.822331  0.500783  1
  Hf  Hf11  1  0.172094  0.177669  0.000783  1
  Hf  Hf12  1  0.496575  0.348348  0.123912  1
  Hf  Hf13  1  0.503425  0.651652  0.623912  1
  Hf  Hf14  1  0.848348  0.003425  0.873912  1
  Hf  Hf15  1  0.151652  0.996575  0.373912  1
  Hf  Hf16  1  0.651882  0.503921  0.375404  1
  Hf  Hf17  1  0.348118  0.496079  0.875404  1
  Hf  Hf18  1  0.003921  0.848118  0.125404  1
  Hf  Hf19  1  0.996079  0.151882  0.625404  1
  Si  Si20  1  0.798674  0.137669  0.064318  1
  Si  Si21  1  0.201326  0.862331  0.564318  1
  Si  Si22  1  0.637669  0.701326  0.814318  1
  Si  Si23  1  0.362331  0.298674  0.314318  1
  Si  Si24  1  0.866379  0.204974  0.435858  1
  Si  Si25  1  0.133621  0.795026  0.935858  1
  Si  Si26  1  0.704974  0.633621  0.185858  1
  Si  Si27  1  0.295026  0.366379  0.685858  1
  Si  Si28  1  0.549461  0.208898  0.935417  1
  Si  Si29  1  0.450539  0.791102  0.435417  1
  Si  Si30  1  0.708898  0.950539  0.685417  1
  Si  Si31  1  0.291102  0.049461  0.185417  1
  Si  Si32  1  0.794290  0.453290  0.565299  1
  Si  Si33  1  0.205710  0.546710  0.065299  1
  Si  Si34  1  0.953290  0.705710  0.315299  1
  Si  Si35  1  0.046710  0.294290  0.815299  1
