# generated using pymatgen
data_MnNb4CrOs6
_symmetry_space_group_name_H-M   'P 1'
_cell_length_a   5.10798670
_cell_length_b   5.00919636
_cell_length_c   8.38173300
_cell_angle_alpha   90.00000000
_cell_angle_beta   90.00000000
_cell_angle_gamma   119.52228030
_symmetry_Int_Tables_number   1
_chemical_formula_structural   MnNb4CrOs6
_chemical_formula_sum   'Mn1 Nb4 Cr1 Os6'
_cell_volume   186.61769481
_cell_formula_units_Z   1
loop_
 _symmetry_equiv_pos_site_id
 _symmetry_equiv_pos_as_xyz
  1  'x, y, z'
loop_
 _atom_site_type_symbol
 _atom_site_label
 _atom_site_symmetry_multiplicity
 _atom_site_fract_x
 _atom_site_fract_y
 _atom_site_fract_z
 _atom_site_occupancy
  Mn  Mn0  1  0.170888  0.826218  0.750000  1
  Nb  Nb1  1  0.332118  0.667269  0.433513  1
  Nb  Nb2  1  0.667443  0.335446  0.932001  1
  Nb  Nb3  1  0.667443  0.335446  0.567999  1
  Nb  Nb4  1  0.332118  0.667269  0.066487  1
  Cr  Cr5  1  0.829276  0.656640  0.250000  1
  Os  Os6  1  0.167582  0.346320  0.750000  1
  Os  Os7  1  0.832136  0.178649  0.250000  1
  Os  Os8  1  0.351231  0.184740  0.250000  1
  Os  Os9  1  0.648152  0.833037  0.750000  1
  Os  Os10  1  0.000806  0.984481  0.998232  1
  Os  Os11  1  0.000806  0.984481  0.501768  1
