# generated using pymatgen
data_ErFe3P3RuRh
_symmetry_space_group_name_H-M   'P 1'
_cell_length_a   3.74482000
_cell_length_b   10.33201900
_cell_length_c   12.08875800
_cell_angle_alpha   90.00000000
_cell_angle_beta   90.00000000
_cell_angle_gamma   90.00000000
_symmetry_Int_Tables_number   1
_chemical_formula_structural   ErFe3P3RuRh
_chemical_formula_sum   'Er4 Fe12 P12 Ru4 Rh4'
_cell_volume   467.73280142
_cell_formula_units_Z   4
loop_
 _symmetry_equiv_pos_site_id
 _symmetry_equiv_pos_as_xyz
  1  'x, y, z'
loop_
 _atom_site_type_symbol
 _atom_site_label
 _atom_site_symmetry_multiplicity
 _atom_site_fract_x
 _atom_site_fract_y
 _atom_site_fract_z
 _atom_site_occupancy
  Er  Er0  1  0.250000  0.582186  0.710958  1
  Er  Er1  1  0.250000  0.917814  0.210958  1
  Er  Er2  1  0.750000  0.417814  0.289042  1
  Er  Er3  1  0.750000  0.082186  0.789042  1
  Fe  Fe4  1  0.250000  0.223212  0.174046  1
  Fe  Fe5  1  0.250000  0.276788  0.674046  1
  Fe  Fe6  1  0.750000  0.776788  0.825954  1
  Fe  Fe7  1  0.750000  0.723212  0.325954  1
  Fe  Fe8  1  0.250000  0.881501  0.696988  1
  Fe  Fe9  1  0.250000  0.618499  0.196988  1
  Fe  Fe10  1  0.750000  0.118499  0.303012  1
  Fe  Fe11  1  0.750000  0.381501  0.803012  1
  Fe  Fe12  1  0.250000  0.461664  0.935942  1
  Fe  Fe13  1  0.250000  0.038336  0.435942  1
  Fe  Fe14  1  0.750000  0.538336  0.064058  1
  Fe  Fe15  1  0.750000  0.961664  0.564058  1
  P  P16  1  0.250000  0.424219  0.112614  1
  P  P17  1  0.250000  0.075781  0.612614  1
  P  P18  1  0.750000  0.575781  0.887386  1
  P  P19  1  0.750000  0.924219  0.387386  1
  P  P20  1  0.250000  0.274500  0.856682  1
  P  P21  1  0.250000  0.225500  0.356682  1
  P  P22  1  0.750000  0.725500  0.143318  1
  P  P23  1  0.750000  0.774500  0.643318  1
  P  P24  1  0.250000  0.606981  0.379176  1
  P  P25  1  0.250000  0.893019  0.879176  1
  P  P26  1  0.750000  0.393019  0.620824  1
  P  P27  1  0.750000  0.106981  0.120824  1
  Ru  Ru28  1  0.250000  0.704999  0.985277  1
  Ru  Ru29  1  0.250000  0.795001  0.485277  1
  Ru  Ru30  1  0.750000  0.295001  0.014723  1
  Ru  Ru31  1  0.750000  0.204999  0.514723  1
  Rh  Rh32  1  0.250000  0.404508  0.479818  1
  Rh  Rh33  1  0.250000  0.095493  0.979818  1
  Rh  Rh34  1  0.750000  0.595492  0.520182  1
  Rh  Rh35  1  0.750000  0.904508  0.020182  1
