# generated using pymatgen
data_Y3TmAlRh
_symmetry_space_group_name_H-M   'P 1'
_cell_length_a   9.52158844
_cell_length_b   9.52156906
_cell_length_c   9.52162163
_cell_angle_alpha   60.14261168
_cell_angle_beta   60.14273330
_cell_angle_gamma   60.14274288
_symmetry_Int_Tables_number   1
_chemical_formula_structural   Y3TmAlRh
_chemical_formula_sum   'Y12 Tm4 Al4 Rh4'
_cell_volume   612.37207352
_cell_formula_units_Z   4
loop_
 _symmetry_equiv_pos_site_id
 _symmetry_equiv_pos_as_xyz
  1  'x, y, z'
loop_
 _atom_site_type_symbol
 _atom_site_label
 _atom_site_symmetry_multiplicity
 _atom_site_fract_x
 _atom_site_fract_y
 _atom_site_fract_z
 _atom_site_occupancy
  Y  Y0  1  0.055655  0.443815  0.443819  1
  Y  Y1  1  0.443303  0.056980  0.056978  1
  Y  Y2  1  0.443815  0.055657  0.443817  1
  Y  Y3  1  0.056981  0.443305  0.056978  1
  Y  Y4  1  0.443818  0.443815  0.055654  1
  Y  Y5  1  0.056979  0.056977  0.443303  1
  Y  Y6  1  0.187560  0.813146  0.813144  1
  Y  Y7  1  0.812253  0.189074  0.189072  1
  Y  Y8  1  0.813147  0.187557  0.813144  1
  Y  Y9  1  0.189073  0.812252  0.189073  1
  Y  Y10  1  0.813145  0.813147  0.187560  1
  Y  Y11  1  0.189075  0.189073  0.812255  1
  Tm  Tm12  1  0.599144  0.599144  0.599142  1
  Tm  Tm13  1  0.604571  0.604570  0.190882  1
  Tm  Tm14  1  0.604572  0.190882  0.604569  1
  Tm  Tm15  1  0.190881  0.604569  0.604572  1
  Al  Al16  1  0.828156  0.828158  0.828156  1
  Al  Al17  1  0.826359  0.826361  0.518025  1
  Al  Al18  1  0.826359  0.518028  0.826359  1
  Al  Al19  1  0.518026  0.826361  0.826359  1
  Rh  Rh20  1  0.395640  0.395646  0.395635  1
  Rh  Rh21  1  0.392303  0.392305  0.816884  1
  Rh  Rh22  1  0.392302  0.816877  0.392315  1
  Rh  Rh23  1  0.816883  0.392302  0.392305  1
