# generated using pymatgen
data_Li2Lu3AlAu3
_symmetry_space_group_name_H-M   'P 1'
_cell_length_a   7.19333107
_cell_length_b   7.13671606
_cell_length_c   4.13347500
_cell_angle_alpha   90.00000000
_cell_angle_beta   90.00000000
_cell_angle_gamma   119.73997603
_symmetry_Int_Tables_number   1
_chemical_formula_structural   Li2Lu3AlAu3
_chemical_formula_sum   'Li2 Lu3 Al1 Au3'
_cell_volume   184.24952994
_cell_formula_units_Z   1
loop_
 _symmetry_equiv_pos_site_id
 _symmetry_equiv_pos_as_xyz
  1  'x, y, z'
loop_
 _atom_site_type_symbol
 _atom_site_label
 _atom_site_symmetry_multiplicity
 _atom_site_fract_x
 _atom_site_fract_y
 _atom_site_fract_z
 _atom_site_occupancy
  Li  Li0  1  0.761022  0.762048  0.000000  1
  Li  Li1  1  0.238978  0.001026  0.000000  1
  Lu  Lu2  1  0.406559  0.409766  0.500000  1
  Lu  Lu3  1  0.593441  0.003207  0.500000  1
  Lu  Lu4  1  0.000000  0.586861  0.500000  1
  Al  Al5  1  0.000000  0.238545  0.000000  1
  Au  Au6  1  0.669301  0.333070  0.000000  1
  Au  Au7  1  0.330699  0.663770  0.000000  1
  Au  Au8  1  0.000000  0.001708  0.500000  1
