# generated using pymatgen
data_TbFe4Tc7Mo
_symmetry_space_group_name_H-M   'P 1'
_cell_length_a   6.72490710
_cell_length_b   6.72499202
_cell_length_c   6.72490703
_cell_angle_alpha   97.07343656
_cell_angle_beta   97.64270171
_cell_angle_gamma   138.06061355
_symmetry_Int_Tables_number   1
_chemical_formula_structural   TbFe4Tc7Mo
_chemical_formula_sum   'Tb1 Fe4 Tc7 Mo1'
_cell_volume   189.80172175
_cell_formula_units_Z   1
loop_
 _symmetry_equiv_pos_site_id
 _symmetry_equiv_pos_as_xyz
  1  'x, y, z'
loop_
 _atom_site_type_symbol
 _atom_site_label
 _atom_site_symmetry_multiplicity
 _atom_site_fract_x
 _atom_site_fract_y
 _atom_site_fract_z
 _atom_site_occupancy
  Tb  Tb0  1  0.001487  0.000000  0.001487  1
  Fe  Fe1  1  0.000329  0.999260  0.498844  1
  Fe  Fe2  1  0.499584  0.000740  0.001069  1
  Fe  Fe3  1  0.000315  0.501471  0.001062  1
  Fe  Fe4  1  0.499590  0.498529  0.498844  1
  Tc  Tc5  1  0.000055  0.642783  0.642851  1
  Tc  Tc6  1  0.000068  0.357217  0.357273  1
  Tc  Tc7  1  0.354650  0.000000  0.354650  1
  Tc  Tc8  1  0.715671  0.500000  0.215671  1
  Tc  Tc9  1  0.499393  0.717458  0.216884  1
  Tc  Tc10  1  0.499425  0.282542  0.781935  1
  Tc  Tc11  1  0.287971  0.500000  0.787971  1
  Mo  Mo12  1  0.641461  0.000000  0.641461  1
