# generated using pymatgen
data_YTaFeB6
_symmetry_space_group_name_H-M   'P 1'
_cell_length_a   3.36906600
_cell_length_b   8.92377100
_cell_length_c   11.24030500
_cell_angle_alpha   90.00000000
_cell_angle_beta   90.00000000
_cell_angle_gamma   90.00000000
_symmetry_Int_Tables_number   1
_chemical_formula_structural   YTaFeB6
_chemical_formula_sum   'Y4 Ta4 Fe4 B24'
_cell_volume   337.93722353
_cell_formula_units_Z   4
loop_
 _symmetry_equiv_pos_site_id
 _symmetry_equiv_pos_as_xyz
  1  'x, y, z'
loop_
 _atom_site_type_symbol
 _atom_site_label
 _atom_site_symmetry_multiplicity
 _atom_site_fract_x
 _atom_site_fract_y
 _atom_site_fract_z
 _atom_site_occupancy
  Y  Y0  1  0.000000  0.823384  0.086128  1
  Y  Y1  1  0.000000  0.176616  0.913872  1
  Y  Y2  1  0.000000  0.323384  0.413872  1
  Y  Y3  1  0.000000  0.676616  0.586128  1
  Ta  Ta4  1  0.000000  0.445178  0.127927  1
  Ta  Ta5  1  0.000000  0.554822  0.872073  1
  Ta  Ta6  1  0.000000  0.945178  0.372073  1
  Ta  Ta7  1  0.000000  0.054822  0.627927  1
  Fe  Fe8  1  0.000000  0.144674  0.183861  1
  Fe  Fe9  1  0.000000  0.855326  0.816139  1
  Fe  Fe10  1  0.000000  0.644674  0.316139  1
  Fe  Fe11  1  0.000000  0.355326  0.683861  1
  B  B12  1  0.500000  0.055219  0.068207  1
  B  B13  1  0.500000  0.944781  0.931793  1
  B  B14  1  0.500000  0.555219  0.431793  1
  B  B15  1  0.500000  0.444781  0.568207  1
  B  B16  1  0.500000  0.252310  0.083599  1
  B  B17  1  0.500000  0.747690  0.916401  1
  B  B18  1  0.500000  0.752310  0.416401  1
  B  B19  1  0.500000  0.247690  0.583599  1
  B  B20  1  0.500000  0.296939  0.236203  1
  B  B21  1  0.500000  0.703061  0.763797  1
  B  B22  1  0.500000  0.796939  0.263797  1
  B  B23  1  0.500000  0.203061  0.736203  1
  B  B24  1  0.500000  0.130015  0.316716  1
  B  B25  1  0.500000  0.869985  0.683284  1
  B  B26  1  0.500000  0.630015  0.183284  1
  B  B27  1  0.500000  0.369985  0.816716  1
  B  B28  1  0.500000  0.482946  0.286517  1
  B  B29  1  0.500000  0.517054  0.713483  1
  B  B30  1  0.500000  0.982946  0.213483  1
  B  B31  1  0.500000  0.017054  0.786517  1
  B  B32  1  0.500000  0.099659  0.473779  1
  B  B33  1  0.500000  0.900341  0.526221  1
  B  B34  1  0.500000  0.599659  0.026221  1
  B  B35  1  0.500000  0.400341  0.973779  1
