# generated using pymatgen
data_Tb2PaCoSn3Ir2
_symmetry_space_group_name_H-M   'P 1'
_cell_length_a   7.58825200
_cell_length_b   7.51803000
_cell_length_c   3.83818700
_cell_angle_alpha   90.00000000
_cell_angle_beta   90.00000000
_cell_angle_gamma   120.30946455
_symmetry_Int_Tables_number   1
_chemical_formula_structural   Tb2PaCoSn3Ir2
_chemical_formula_sum   'Tb2 Pa1 Co1 Sn3 Ir2'
_cell_volume   189.03394879
_cell_formula_units_Z   1
loop_
 _symmetry_equiv_pos_site_id
 _symmetry_equiv_pos_as_xyz
  1  'x, y, z'
loop_
 _atom_site_type_symbol
 _atom_site_label
 _atom_site_symmetry_multiplicity
 _atom_site_fract_x
 _atom_site_fract_y
 _atom_site_fract_z
 _atom_site_occupancy
  Tb  Tb0  1  0.001176  0.594480  0.000000  1
  Tb  Tb1  1  0.406696  0.405520  0.000000  1
  Pa  Pa2  1  0.589010  0.000000  0.000000  1
  Co  Co3  1  0.982619  0.000000  0.000000  1
  Sn  Sn4  1  0.236744  0.000000  0.500000  1
  Sn  Sn5  1  0.011336  0.260566  0.500000  1
  Sn  Sn6  1  0.750771  0.739434  0.500000  1
  Ir  Ir7  1  0.358785  0.695923  0.500000  1
  Ir  Ir8  1  0.662862  0.304077  0.500000  1
