# generated using pymatgen
data_Sm4Sn5AsRh7
_symmetry_space_group_name_H-M   'P 1'
_cell_length_a   7.63753284
_cell_length_b   7.63563123
_cell_length_c   7.63753306
_cell_angle_alpha   109.86941489
_cell_angle_beta   108.67839734
_cell_angle_gamma   109.86941199
_symmetry_Int_Tables_number   1
_chemical_formula_structural   Sm4Sn5AsRh7
_chemical_formula_sum   'Sm4 Sn5 As1 Rh7'
_cell_volume   342.81782060
_cell_formula_units_Z   1
loop_
 _symmetry_equiv_pos_site_id
 _symmetry_equiv_pos_as_xyz
  1  'x, y, z'
loop_
 _atom_site_type_symbol
 _atom_site_label
 _atom_site_symmetry_multiplicity
 _atom_site_fract_x
 _atom_site_fract_y
 _atom_site_fract_z
 _atom_site_occupancy
  Sm  Sm0  1  0.479439  0.472539  0.479439  1
  Sm  Sm1  1  0.007037  0.527653  0.007037  1
  Sm  Sm2  1  0.479444  0.999913  0.006855  1
  Sm  Sm3  1  0.006855  0.999913  0.479444  1
  Sn  Sn4  1  0.701960  0.999822  0.701960  1
  Sn  Sn5  1  0.669116  0.680915  0.988136  1
  Sn  Sn6  1  0.307457  0.319128  0.988378  1
  Sn  Sn7  1  0.988136  0.680915  0.669116  1
  Sn  Sn8  1  0.988378  0.319128  0.307457  1
  As  As9  1  0.344892  0.000156  0.344892  1
  Rh  Rh10  1  0.504979  0.755168  0.260116  1
  Rh  Rh11  1  0.749722  0.244895  0.504863  1
  Rh  Rh12  1  0.260116  0.755168  0.504979  1
  Rh  Rh13  1  0.241524  0.499837  0.741460  1
  Rh  Rh14  1  0.024621  0.000117  0.024621  1
  Rh  Rh15  1  0.504863  0.244895  0.749722  1
  Rh  Rh16  1  0.741460  0.499837  0.241524  1
