# generated using pymatgen
data_Na4YSbO6
_symmetry_space_group_name_H-M   'P 1'
_cell_length_a   5.77271366
_cell_length_b   5.77271289
_cell_length_c   5.86944782
_cell_angle_alpha   99.55485162
_cell_angle_beta   99.55478820
_cell_angle_gamma   120.03621889
_symmetry_Int_Tables_number   1
_chemical_formula_structural   Na4YSbO6
_chemical_formula_sum   'Na4 Y1 Sb1 O6'
_cell_volume   159.71398770
_cell_formula_units_Z   1
loop_
 _symmetry_equiv_pos_site_id
 _symmetry_equiv_pos_as_xyz
  1  'x, y, z'
loop_
 _atom_site_type_symbol
 _atom_site_label
 _atom_site_symmetry_multiplicity
 _atom_site_fract_x
 _atom_site_fract_y
 _atom_site_fract_z
 _atom_site_occupancy
  Na  Na0  1  0.498248  0.501753  0.000001  1
  Na  Na1  1  0.015098  0.984902  0.500000  1
  Na  Na2  1  0.657444  0.342557  0.500000  1
  Na  Na3  1  0.337758  0.662241  0.500000  1
  Y  Y4  1  0.832293  0.167707  0.000000  1
  Sb  Sb5  1  0.166278  0.833722  0.000000  1
  O  O6  1  0.952523  0.602224  0.207267  1
  O  O7  1  0.538098  0.924592  0.213800  1
  O  O8  1  0.217565  0.188486  0.213156  1
  O  O9  1  0.811514  0.782435  0.786844  1
  O  O10  1  0.075409  0.461903  0.786200  1
  O  O11  1  0.397775  0.047478  0.792733  1
