# generated using pymatgen
data_Gd3ZnIn3Hg2
_symmetry_space_group_name_H-M   'P 1'
_cell_length_a   8.07500500
_cell_length_b   8.07500521
_cell_length_c   3.95575300
_cell_angle_alpha   90.00000000
_cell_angle_beta   90.00000000
_cell_angle_gamma   119.99999503
_symmetry_Int_Tables_number   1
_chemical_formula_structural   Gd3ZnIn3Hg2
_chemical_formula_sum   'Gd3 Zn1 In3 Hg2'
_cell_volume   223.38058854
_cell_formula_units_Z   1
loop_
 _symmetry_equiv_pos_site_id
 _symmetry_equiv_pos_as_xyz
  1  'x, y, z'
loop_
 _atom_site_type_symbol
 _atom_site_label
 _atom_site_symmetry_multiplicity
 _atom_site_fract_x
 _atom_site_fract_y
 _atom_site_fract_z
 _atom_site_occupancy
  Gd  Gd0  1  0.388684  0.000000  0.500000  1
  Gd  Gd1  1  0.000000  0.388684  0.500000  1
  Gd  Gd2  1  0.611316  0.611316  0.500000  1
  Zn  Zn3  1  0.000000  0.000000  0.500000  1
  In  In4  1  0.748975  0.000000  0.000000  1
  In  In5  1  0.000000  0.748975  0.000000  1
  In  In6  1  0.251025  0.251025  0.000000  1
  Hg  Hg7  1  0.333333  0.666667  0.000000  1
  Hg  Hg8  1  0.666667  0.333333  0.000000  1
