# generated using pymatgen
data_Nd6Al24Ni2Ru5Pt
_symmetry_space_group_name_H-M   'P 1'
_cell_length_a   8.84493930
_cell_length_b   8.86505478
_cell_length_c   9.63569362
_cell_angle_alpha   90.05494007
_cell_angle_beta   89.91672266
_cell_angle_gamma   119.23202467
_symmetry_Int_Tables_number   1
_chemical_formula_structural   Nd6Al24Ni2Ru5Pt
_chemical_formula_sum   'Nd6 Al24 Ni2 Ru5 Pt1'
_cell_volume   659.32343226
_cell_formula_units_Z   1
loop_
 _symmetry_equiv_pos_site_id
 _symmetry_equiv_pos_as_xyz
  1  'x, y, z'
loop_
 _atom_site_type_symbol
 _atom_site_label
 _atom_site_symmetry_multiplicity
 _atom_site_fract_x
 _atom_site_fract_y
 _atom_site_fract_z
 _atom_site_occupancy
  Nd  Nd0  1  0.189552  0.382008  0.249377  1
  Nd  Nd1  1  0.810448  0.617992  0.750623  1
  Nd  Nd2  1  0.616890  0.811603  0.251078  1
  Nd  Nd3  1  0.383110  0.188397  0.748922  1
  Nd  Nd4  1  0.191991  0.809773  0.250184  1
  Nd  Nd5  1  0.808009  0.190227  0.749816  1
  Al  Al6  1  0.339131  0.668837  0.019679  1
  Al  Al7  1  0.660869  0.331163  0.980321  1
  Al  Al8  1  0.666391  0.333770  0.519814  1
  Al  Al9  1  0.333609  0.666230  0.480186  1
  Al  Al10  1  0.163453  0.327140  0.572659  1
  Al  Al11  1  0.836547  0.672860  0.427341  1
  Al  Al12  1  0.672009  0.835973  0.573946  1
  Al  Al13  1  0.831483  0.673977  0.075032  1
  Al  Al14  1  0.327991  0.164027  0.426054  1
  Al  Al15  1  0.168517  0.326023  0.924968  1
  Al  Al16  1  0.164130  0.835036  0.576002  1
  Al  Al17  1  0.326450  0.162353  0.075302  1
  Al  Al18  1  0.835870  0.164964  0.423998  1
  Al  Al19  1  0.673550  0.837647  0.924698  1
  Al  Al20  1  0.831610  0.159372  0.077547  1
  Al  Al21  1  0.168390  0.840628  0.922453  1
  Al  Al22  1  0.561542  0.126502  0.249805  1
  Al  Al23  1  0.438458  0.873498  0.750195  1
  Al  Al24  1  0.871702  0.437097  0.253490  1
  Al  Al25  1  0.128298  0.562903  0.746510  1
  Al  Al26  1  0.560436  0.439658  0.249543  1
  Al  Al27  1  0.439564  0.560342  0.750457  1
  Al  Al28  1  0.997934  0.004503  0.250133  1
  Al  Al29  1  0.002066  0.995497  0.749867  1
  Ni  Ni30  1  0.500000  0.500000  0.000000  1
  Ni  Ni31  1  0.500000  0.500000  0.500000  1
  Ru  Ru32  1  0.500000  0.000000  0.000000  1
  Ru  Ru33  1  0.500000  0.000000  0.500000  1
  Ru  Ru34  1  0.000000  0.500000  0.500000  1
  Ru  Ru35  1  0.000000  0.000000  0.000000  1
  Ru  Ru36  1  0.000000  0.000000  0.500000  1
  Pt  Pt37  1  0.000000  0.500000  0.000000  1
