# generated using pymatgen
data_TbY3Ni14
_symmetry_space_group_name_H-M   'P 1'
_cell_length_a   12.52312263
_cell_length_b   12.52312279
_cell_length_c   12.52312402
_cell_angle_alpha   22.77946140
_cell_angle_beta   22.77946087
_cell_angle_gamma   22.77946047
_symmetry_Int_Tables_number   1
_chemical_formula_structural   TbY3Ni14
_chemical_formula_sum   'Tb1 Y3 Ni14'
_cell_volume   258.33692439
_cell_formula_units_Z   1
loop_
 _symmetry_equiv_pos_site_id
 _symmetry_equiv_pos_as_xyz
  1  'x, y, z'
loop_
 _atom_site_type_symbol
 _atom_site_label
 _atom_site_symmetry_multiplicity
 _atom_site_fract_x
 _atom_site_fract_y
 _atom_site_fract_z
 _atom_site_occupancy
  Tb  Tb0  1  0.949513  0.949513  0.949513  1
  Y  Y1  1  0.147178  0.147178  0.147178  1
  Y  Y2  1  0.050533  0.050533  0.050533  1
  Y  Y3  1  0.852829  0.852829  0.852829  1
  Ni  Ni4  1  0.721892  0.721892  0.721892  1
  Ni  Ni5  1  0.388269  0.388269  0.388269  1
  Ni  Ni6  1  0.390358  0.890988  0.390358  1
  Ni  Ni7  1  0.611723  0.611723  0.611723  1
  Ni  Ni8  1  0.000009  0.499986  0.499986  1
  Ni  Ni9  1  0.609621  0.609621  0.109042  1
  Ni  Ni10  1  0.500000  0.500000  0.500000  1
  Ni  Ni11  1  0.390358  0.390358  0.890988  1
  Ni  Ni12  1  0.278093  0.278093  0.278093  1
  Ni  Ni13  1  0.609621  0.109042  0.609621  1
  Ni  Ni14  1  0.890988  0.390358  0.390358  1
  Ni  Ni15  1  0.499986  0.000009  0.499986  1
  Ni  Ni16  1  0.499986  0.499986  0.000009  1
  Ni  Ni17  1  0.109042  0.609621  0.609621  1
