# generated using pymatgen
data_Ba8Li3Si12Ni
_symmetry_space_group_name_H-M   'P 1'
_cell_length_a   12.35173119
_cell_length_b   10.69776029
_cell_length_c   8.67148631
_cell_angle_alpha   78.47398029
_cell_angle_beta   58.25020183
_cell_angle_gamma   43.46322615
_symmetry_Int_Tables_number   1
_chemical_formula_structural   Ba8Li3Si12Ni
_chemical_formula_sum   'Ba8 Li3 Si12 Ni1'
_cell_volume   636.93051870
_cell_formula_units_Z   1
loop_
 _symmetry_equiv_pos_site_id
 _symmetry_equiv_pos_as_xyz
  1  'x, y, z'
loop_
 _atom_site_type_symbol
 _atom_site_label
 _atom_site_symmetry_multiplicity
 _atom_site_fract_x
 _atom_site_fract_y
 _atom_site_fract_z
 _atom_site_occupancy
  Ba  Ba0  1  0.880337  0.876302  0.126046  1
  Ba  Ba1  1  0.126046  0.117315  0.880337  1
  Ba  Ba2  1  0.369164  0.382761  0.127346  1
  Ba  Ba3  1  0.127346  0.120729  0.369164  1
  Ba  Ba4  1  0.626261  0.624512  0.373465  1
  Ba  Ba5  1  0.373465  0.375762  0.626261  1
  Ba  Ba6  1  0.619085  0.627608  0.877944  1
  Ba  Ba7  1  0.877944  0.875363  0.619085  1
  Li  Li8  1  0.832386  0.167614  0.832386  1
  Li  Li9  1  0.082525  0.417475  0.082525  1
  Li  Li10  1  0.417030  0.082970  0.417030  1
  Si  Si11  1  0.652678  0.338647  0.188111  1
  Si  Si12  1  0.836482  0.171750  0.331293  1
  Si  Si13  1  0.188111  0.820564  0.652678  1
  Si  Si14  1  0.331293  0.660474  0.836482  1
  Si  Si15  1  0.591718  0.908282  0.591718  1
  Si  Si16  1  0.907925  0.592075  0.907925  1
  Si  Si17  1  0.657694  0.342306  0.657694  1
  Si  Si18  1  0.332878  0.667122  0.332878  1
  Si  Si19  1  0.909875  0.592027  0.431471  1
  Si  Si20  1  0.065331  0.430123  0.593426  1
  Si  Si21  1  0.431471  0.066627  0.909875  1
  Si  Si22  1  0.593426  0.911120  0.065331  1
  Ni  Ni23  1  0.169529  0.830471  0.169529  1
