# generated using pymatgen
data_Cs8NdNp3Br20
_symmetry_space_group_name_H-M   'P 1'
_cell_length_a   9.11320502
_cell_length_b   9.63303200
_cell_length_c   14.73723802
_cell_angle_alpha   90.00000000
_cell_angle_beta   90.00689528
_cell_angle_gamma   90.00000000
_symmetry_Int_Tables_number   1
_chemical_formula_structural   Cs8NdNp3Br20
_chemical_formula_sum   'Cs8 Nd1 Np3 Br20'
_cell_volume   1293.74962954
_cell_formula_units_Z   1
loop_
 _symmetry_equiv_pos_site_id
 _symmetry_equiv_pos_as_xyz
  1  'x, y, z'
loop_
 _atom_site_type_symbol
 _atom_site_label
 _atom_site_symmetry_multiplicity
 _atom_site_fract_x
 _atom_site_fract_y
 _atom_site_fract_z
 _atom_site_occupancy
  Cs  Cs0  1  0.944769  0.004908  0.828803  1
  Cs  Cs1  1  0.055290  0.995351  0.171234  1
  Cs  Cs2  1  0.444640  0.995588  0.671373  1
  Cs  Cs3  1  0.055290  0.504649  0.171234  1
  Cs  Cs4  1  0.555130  0.005049  0.328642  1
  Cs  Cs5  1  0.944769  0.495092  0.828803  1
  Cs  Cs6  1  0.555130  0.494951  0.328642  1
  Cs  Cs7  1  0.444640  0.504412  0.671373  1
  Nd  Nd8  1  0.934250  0.750000  0.502224  1
  Np  Np9  1  0.063726  0.250000  0.498020  1
  Np  Np10  1  0.436529  0.250000  0.998436  1
  Np  Np11  1  0.563168  0.750000  0.001698  1
  Br  Br12  1  0.113190  0.750000  0.668575  1
  Br  Br13  1  0.887086  0.250000  0.331450  1
  Br  Br14  1  0.613273  0.250000  0.831796  1
  Br  Br15  1  0.387395  0.750000  0.168054  1
  Br  Br16  1  0.844796  0.040269  0.568881  1
  Br  Br17  1  0.155904  0.959609  0.430980  1
  Br  Br18  1  0.344821  0.960336  0.931382  1
  Br  Br19  1  0.155904  0.540391  0.430980  1
  Br  Br20  1  0.654876  0.040469  0.068627  1
  Br  Br21  1  0.844796  0.459731  0.568881  1
  Br  Br22  1  0.654876  0.459531  0.068627  1
  Br  Br23  1  0.344821  0.539664  0.931382  1
  Br  Br24  1  0.608722  0.750000  0.512962  1
  Br  Br25  1  0.391651  0.250000  0.487345  1
  Br  Br26  1  0.108922  0.250000  0.987237  1
  Br  Br27  1  0.891226  0.750000  0.012637  1
  Br  Br28  1  0.649671  0.750000  0.810526  1
  Br  Br29  1  0.350375  0.250000  0.189622  1
  Br  Br30  1  0.149944  0.250000  0.689964  1
  Br  Br31  1  0.850420  0.750000  0.309610  1
