# generated using pymatgen
data_Er8Si12NiPt3
_symmetry_space_group_name_H-M   'P 1'
_cell_length_a   8.11764100
_cell_length_b   8.11764097
_cell_length_c   7.81279700
_cell_angle_alpha   90.00000000
_cell_angle_beta   90.00000000
_cell_angle_gamma   120.00000420
_symmetry_Int_Tables_number   1
_chemical_formula_structural   Er8Si12NiPt3
_chemical_formula_sum   'Er8 Si12 Ni1 Pt3'
_cell_volume   445.85827718
_cell_formula_units_Z   1
loop_
 _symmetry_equiv_pos_site_id
 _symmetry_equiv_pos_as_xyz
  1  'x, y, z'
loop_
 _atom_site_type_symbol
 _atom_site_label
 _atom_site_symmetry_multiplicity
 _atom_site_fract_x
 _atom_site_fract_y
 _atom_site_fract_z
 _atom_site_occupancy
  Er  Er0  1  0.000000  0.000000  0.251855  1
  Er  Er1  1  0.000000  0.000000  0.747449  1
  Er  Er2  1  0.488679  0.511321  0.251492  1
  Er  Er3  1  0.488679  0.977360  0.251492  1
  Er  Er4  1  0.022640  0.511321  0.251492  1
  Er  Er5  1  0.509092  0.490908  0.747218  1
  Er  Er6  1  0.981816  0.490908  0.747218  1
  Er  Er7  1  0.509092  0.018184  0.747218  1
  Si  Si8  1  0.836226  0.163774  0.497358  1
  Si  Si9  1  0.836226  0.672452  0.497358  1
  Si  Si10  1  0.327548  0.163774  0.497358  1
  Si  Si11  1  0.834512  0.165488  0.001784  1
  Si  Si12  1  0.834512  0.669025  0.001784  1
  Si  Si13  1  0.330975  0.165488  0.001784  1
  Si  Si14  1  0.164860  0.835140  0.997316  1
  Si  Si15  1  0.670280  0.835140  0.997316  1
  Si  Si16  1  0.164860  0.329720  0.997316  1
  Si  Si17  1  0.171834  0.828166  0.503436  1
  Si  Si18  1  0.656332  0.828166  0.503436  1
  Si  Si19  1  0.171834  0.343668  0.503436  1
  Ni  Ni20  1  0.333333  0.666667  0.539969  1
  Pt  Pt21  1  0.666667  0.333333  0.465046  1
  Pt  Pt22  1  0.666667  0.333333  0.034626  1
  Pt  Pt23  1  0.333333  0.666667  0.965247  1
