# generated using pymatgen
data_Yb4Cd10Ag9Pb
_symmetry_space_group_name_H-M   'P 1'
_cell_length_a   5.69934002
_cell_length_b   5.71553647
_cell_length_c   19.10994920
_cell_angle_alpha   90.00325988
_cell_angle_beta   81.30561130
_cell_angle_gamma   120.02178880
_symmetry_Int_Tables_number   1
_chemical_formula_structural   Yb4Cd10Ag9Pb
_chemical_formula_sum   'Yb4 Cd10 Ag9 Pb1'
_cell_volume   530.70980987
_cell_formula_units_Z   1
loop_
 _symmetry_equiv_pos_site_id
 _symmetry_equiv_pos_as_xyz
  1  'x, y, z'
loop_
 _atom_site_type_symbol
 _atom_site_label
 _atom_site_symmetry_multiplicity
 _atom_site_fract_x
 _atom_site_fract_y
 _atom_site_fract_z
 _atom_site_occupancy
  Yb  Yb0  1  0.007733  0.503792  0.498998  1
  Yb  Yb1  1  0.508508  0.754270  0.747472  1
  Yb  Yb2  1  0.004825  0.998369  0.997404  1
  Yb  Yb3  1  0.505675  0.252707  0.251178  1
  Cd  Cd4  1  0.876651  0.937778  0.188226  1
  Cd  Cd5  1  0.379062  0.189045  0.435914  1
  Cd  Cd6  1  0.879187  0.440736  0.685493  1
  Cd  Cd7  1  0.433498  0.466672  0.098538  1
  Cd  Cd8  1  0.934358  0.719015  0.345491  1
  Cd  Cd9  1  0.435620  0.969692  0.593923  1
  Cd  Cd10  1  0.938963  0.223886  0.839363  1
  Cd  Cd11  1  0.434624  0.967735  0.098291  1
  Cd  Cd12  1  0.934971  0.215146  0.345379  1
  Cd  Cd13  1  0.434466  0.465352  0.594141  1
  Ag  Ag14  1  0.938065  0.719139  0.839921  1
  Ag  Ag15  1  0.182405  0.591542  0.221299  1
  Ag  Ag16  1  0.683100  0.840671  0.469316  1
  Ag  Ag17  1  0.185219  0.090992  0.717407  1
  Ag  Ag18  1  0.688036  0.346670  0.968955  1
  Ag  Ag19  1  0.929935  0.465449  0.098709  1
  Ag  Ag20  1  0.434806  0.717732  0.345050  1
  Ag  Ag21  1  0.933582  0.966876  0.594500  1
  Ag  Ag22  1  0.441497  0.221788  0.839769  1
  Pb  Pb23  1  0.375220  0.684945  0.935261  1
