# generated using pymatgen
data_NaEr4Se5
_symmetry_space_group_name_H-M   'P 1'
_cell_length_a   17.12055275
_cell_length_b   17.12055272
_cell_length_c   17.12055330
_cell_angle_alpha   13.60397094
_cell_angle_beta   13.60397059
_cell_angle_gamma   13.60397330
_symmetry_Int_Tables_number   1
_chemical_formula_structural   NaEr4Se5
_chemical_formula_sum   'Na1 Er4 Se5'
_cell_volume   241.56223584
_cell_formula_units_Z   1
loop_
 _symmetry_equiv_pos_site_id
 _symmetry_equiv_pos_as_xyz
  1  'x, y, z'
loop_
 _atom_site_type_symbol
 _atom_site_label
 _atom_site_symmetry_multiplicity
 _atom_site_fract_x
 _atom_site_fract_y
 _atom_site_fract_z
 _atom_site_occupancy
  Na  Na0  1  0.000000  0.000000  0.000000  1
  Er  Er1  1  0.597751  0.597751  0.597751  1
  Er  Er2  1  0.200381  0.200381  0.200381  1
  Er  Er3  1  0.799619  0.799619  0.799619  1
  Er  Er4  1  0.402249  0.402249  0.402249  1
  Se  Se5  1  0.704171  0.704171  0.704171  1
  Se  Se6  1  0.101463  0.101463  0.101463  1
  Se  Se7  1  0.500000  0.500000  0.500000  1
  Se  Se8  1  0.295829  0.295829  0.295829  1
  Se  Se9  1  0.898537  0.898537  0.898537  1
