# generated using pymatgen
data_Tb2YEr2Sn3
_symmetry_space_group_name_H-M   'P 1'
_cell_length_a   8.96103203
_cell_length_b   8.97147366
_cell_length_c   6.52594900
_cell_angle_alpha   90.00000000
_cell_angle_beta   90.00000000
_cell_angle_gamma   120.03854997
_symmetry_Int_Tables_number   1
_chemical_formula_structural   Tb2YEr2Sn3
_chemical_formula_sum   'Tb4 Y2 Er4 Sn6'
_cell_volume   454.17924925
_cell_formula_units_Z   2
loop_
 _symmetry_equiv_pos_site_id
 _symmetry_equiv_pos_as_xyz
  1  'x, y, z'
loop_
 _atom_site_type_symbol
 _atom_site_label
 _atom_site_symmetry_multiplicity
 _atom_site_fract_x
 _atom_site_fract_y
 _atom_site_fract_z
 _atom_site_occupancy
  Tb  Tb0  1  0.760902  0.760920  0.250000  1
  Tb  Tb1  1  0.760902  0.999982  0.750000  1
  Tb  Tb2  1  0.239098  0.239080  0.750000  1
  Tb  Tb3  1  0.239098  0.000018  0.250000  1
  Y  Y4  1  0.000000  0.760738  0.750000  1
  Y  Y5  1  0.000000  0.239262  0.250000  1
  Er  Er6  1  0.333257  0.666629  0.500000  1
  Er  Er7  1  0.666743  0.333371  0.000000  1
  Er  Er8  1  0.666743  0.333371  0.500000  1
  Er  Er9  1  0.333257  0.666629  0.000000  1
  Sn  Sn10  1  0.396073  0.999893  0.750000  1
  Sn  Sn11  1  0.396073  0.396180  0.250000  1
  Sn  Sn12  1  0.000000  0.603507  0.250000  1
  Sn  Sn13  1  0.000000  0.396493  0.750000  1
  Sn  Sn14  1  0.603927  0.603820  0.750000  1
  Sn  Sn15  1  0.603927  0.000107  0.250000  1
