# generated using pymatgen
data_Y3Er5Tc3B24Rh
_symmetry_space_group_name_H-M   'P 1'
_cell_length_a   3.66572200
_cell_length_b   9.13023778
_cell_length_c   11.51814500
_cell_angle_alpha   90.12572848
_cell_angle_beta   90.00000000
_cell_angle_gamma   90.00000000
_symmetry_Int_Tables_number   1
_chemical_formula_structural   Y3Er5Tc3B24Rh
_chemical_formula_sum   'Y3 Er5 Tc3 B24 Rh1'
_cell_volume   385.49887062
_cell_formula_units_Z   1
loop_
 _symmetry_equiv_pos_site_id
 _symmetry_equiv_pos_as_xyz
  1  'x, y, z'
loop_
 _atom_site_type_symbol
 _atom_site_label
 _atom_site_symmetry_multiplicity
 _atom_site_fract_x
 _atom_site_fract_y
 _atom_site_fract_z
 _atom_site_occupancy
  Y  Y0  1  0.500000  0.318488  0.415786  1
  Y  Y1  1  0.500000  0.678142  0.590949  1
  Y  Y2  1  0.500000  0.177261  0.912923  1
  Er  Er3  1  0.500000  0.827436  0.080991  1
  Er  Er4  1  0.500000  0.440781  0.129002  1
  Er  Er5  1  0.500000  0.557122  0.871233  1
  Er  Er6  1  0.500000  0.056003  0.629741  1
  Er  Er7  1  0.500000  0.943871  0.369491  1
  Tc  Tc8  1  0.500000  0.138319  0.180253  1
  Tc  Tc9  1  0.500000  0.861329  0.820893  1
  Tc  Tc10  1  0.500000  0.362213  0.678271  1
  B  B11  1  0.000000  0.100466  0.471529  1
  B  B12  1  0.000000  0.896339  0.527772  1
  B  B13  1  0.000000  0.398030  0.972313  1
  B  B14  1  0.000000  0.603970  0.029307  1
  B  B15  1  0.000000  0.130158  0.314807  1
  B  B16  1  0.000000  0.868801  0.685533  1
  B  B17  1  0.000000  0.369714  0.814380  1
  B  B18  1  0.000000  0.631820  0.183525  1
  B  B19  1  0.000000  0.053210  0.066874  1
  B  B20  1  0.000000  0.946627  0.932842  1
  B  B21  1  0.000000  0.446236  0.566893  1
  B  B22  1  0.000000  0.554263  0.433385  1
  B  B23  1  0.000000  0.483411  0.287389  1
  B  B24  1  0.000000  0.518013  0.712786  1
  B  B25  1  0.000000  0.017213  0.787034  1
  B  B26  1  0.000000  0.982331  0.211782  1
  B  B27  1  0.000000  0.249389  0.081642  1
  B  B28  1  0.000000  0.751420  0.919348  1
  B  B29  1  0.000000  0.249841  0.581307  1
  B  B30  1  0.000000  0.749609  0.419618  1
  B  B31  1  0.000000  0.291707  0.235060  1
  B  B32  1  0.000000  0.708138  0.766269  1
  B  B33  1  0.000000  0.208209  0.734177  1
  B  B34  1  0.000000  0.791573  0.264477  1
  Rh  Rh35  1  0.500000  0.638551  0.320417  1
