# generated using pymatgen
data_Rb2Ba(AsRu)6
_symmetry_space_group_name_H-M   'P 1'
_cell_length_a   9.27367616
_cell_length_b   9.27367680
_cell_length_c   7.16506887
_cell_angle_alpha   67.23639942
_cell_angle_beta   67.23639976
_cell_angle_gamma   36.89306871
_symmetry_Int_Tables_number   1
_chemical_formula_structural   Rb2Ba(AsRu)6
_chemical_formula_sum   'Rb2 Ba1 As6 Ru6'
_cell_volume   337.75026424
_cell_formula_units_Z   1
loop_
 _symmetry_equiv_pos_site_id
 _symmetry_equiv_pos_as_xyz
  1  'x, y, z'
loop_
 _atom_site_type_symbol
 _atom_site_label
 _atom_site_symmetry_multiplicity
 _atom_site_fract_x
 _atom_site_fract_y
 _atom_site_fract_z
 _atom_site_occupancy
  Rb  Rb0  1  0.670422  0.670422  0.000285  1
  Rb  Rb1  1  0.329578  0.329578  0.999715  1
  Ba  Ba2  1  0.000000  0.000000  0.000000  1
  As  As3  1  0.884502  0.884502  0.695183  1
  As  As4  1  0.217368  0.217368  0.695868  1
  As  As5  1  0.550401  0.550401  0.697418  1
  As  As6  1  0.449599  0.449599  0.302582  1
  As  As7  1  0.782632  0.782632  0.304132  1
  As  As8  1  0.115498  0.115498  0.304817  1
  Ru  Ru9  1  0.749854  0.250146  0.500000  1
  Ru  Ru10  1  0.084102  0.583445  0.497874  1
  Ru  Ru11  1  0.416555  0.915898  0.502126  1
  Ru  Ru12  1  0.583445  0.084102  0.497874  1
  Ru  Ru13  1  0.915898  0.416555  0.502126  1
  Ru  Ru14  1  0.250146  0.749854  0.500000  1
