# generated using pymatgen
data_Ba4InAs3Pt3Rh
_symmetry_space_group_name_H-M   'P 1'
_cell_length_a   6.90808943
_cell_length_b   6.90808902
_cell_length_c   6.90808929
_cell_angle_alpha   90.97233363
_cell_angle_beta   89.02766958
_cell_angle_gamma   90.97232828
_symmetry_Int_Tables_number   1
_chemical_formula_structural   Ba4InAs3Pt3Rh
_chemical_formula_sum   'Ba4 In1 As3 Pt3 Rh1'
_cell_volume   329.52492458
_cell_formula_units_Z   1
loop_
 _symmetry_equiv_pos_site_id
 _symmetry_equiv_pos_as_xyz
  1  'x, y, z'
loop_
 _atom_site_type_symbol
 _atom_site_label
 _atom_site_symmetry_multiplicity
 _atom_site_fract_x
 _atom_site_fract_y
 _atom_site_fract_z
 _atom_site_occupancy
  Ba  Ba0  1  0.634927  0.376780  0.881446  1
  Ba  Ba1  1  0.381446  0.865073  0.623220  1
  Ba  Ba2  1  0.123220  0.118554  0.134927  1
  Ba  Ba3  1  0.868083  0.631917  0.368083  1
  In  In4  1  0.162048  0.337952  0.662048  1
  As  As5  1  0.665515  0.158523  0.328527  1
  As  As6  1  0.341477  0.671473  0.165515  1
  As  As7  1  0.828527  0.834485  0.841477  1
  Pt  Pt8  1  0.085170  0.612215  0.928576  1
  Pt  Pt9  1  0.428576  0.414830  0.387785  1
  Pt  Pt10  1  0.887785  0.071424  0.585170  1
  Rh  Rh11  1  0.593226  0.906774  0.093226  1
