# generated using pymatgen
data_DyHo7(HfIr3)2
_symmetry_space_group_name_H-M   'P 1'
_cell_length_a   10.80522402
_cell_length_b   10.80103400
_cell_length_c   6.23664301
_cell_angle_alpha   90.00000000
_cell_angle_beta   90.00746294
_cell_angle_gamma   90.00000000
_symmetry_Int_Tables_number   1
_chemical_formula_structural   DyHo7(HfIr3)2
_chemical_formula_sum   'Dy2 Ho14 Hf4 Ir12'
_cell_volume   727.86358237
_cell_formula_units_Z   2
loop_
 _symmetry_equiv_pos_site_id
 _symmetry_equiv_pos_as_xyz
  1  'x, y, z'
loop_
 _atom_site_type_symbol
 _atom_site_label
 _atom_site_symmetry_multiplicity
 _atom_site_fract_x
 _atom_site_fract_y
 _atom_site_fract_z
 _atom_site_occupancy
  Dy  Dy0  1  0.289220  0.086216  0.374646  1
  Dy  Dy1  1  0.289220  0.913784  0.874646  1
  Ho  Ho2  1  0.710607  0.085985  0.874917  1
  Ho  Ho3  1  0.710607  0.914015  0.374917  1
  Ho  Ho4  1  0.586122  0.789351  0.874905  1
  Ho  Ho5  1  0.586122  0.210649  0.374905  1
  Ho  Ho6  1  0.414199  0.789223  0.374908  1
  Ho  Ho7  1  0.414199  0.210777  0.874908  1
  Ho  Ho8  1  0.210599  0.414081  0.625136  1
  Ho  Ho9  1  0.210599  0.585919  0.125136  1
  Ho  Ho10  1  0.789408  0.414046  0.125065  1
  Ho  Ho11  1  0.789408  0.585954  0.625065  1
  Ho  Ho12  1  0.914016  0.710578  0.125081  1
  Ho  Ho13  1  0.914016  0.289422  0.625081  1
  Ho  Ho14  1  0.085833  0.710517  0.625028  1
  Ho  Ho15  1  0.085833  0.289483  0.125028  1
  Hf  Hf16  1  0.999780  0.999945  0.500117  1
  Hf  Hf17  1  0.999780  0.000055  0.000117  1
  Hf  Hf18  1  0.500038  0.499994  0.000049  1
  Hf  Hf19  1  0.500038  0.500006  0.500049  1
  Ir  Ir20  1  0.856559  0.143449  0.249980  1
  Ir  Ir21  1  0.856559  0.856551  0.749980  1
  Ir  Ir22  1  0.143150  0.143725  0.750244  1
  Ir  Ir23  1  0.143150  0.856275  0.250244  1
  Ir  Ir24  1  0.643456  0.356572  0.749999  1
  Ir  Ir25  1  0.643456  0.643428  0.249999  1
  Ir  Ir26  1  0.356605  0.356744  0.249911  1
  Ir  Ir27  1  0.356605  0.643256  0.749911  1
  Ir  Ir28  1  0.500407  0.000012  0.122480  1
  Ir  Ir29  1  0.500407  0.999988  0.622480  1
  Ir  Ir30  1  0.000001  0.499982  0.877534  1
  Ir  Ir31  1  0.000001  0.500018  0.377534  1
