# generated using pymatgen
data_Ho8Ga(Si5W4)3
_symmetry_space_group_name_H-M   'P 1'
_cell_length_a   6.76088111
_cell_length_b   6.92330636
_cell_length_c   12.93981295
_cell_angle_alpha   89.89003786
_cell_angle_beta   89.98989370
_cell_angle_gamma   89.90997484
_symmetry_Int_Tables_number   1
_chemical_formula_structural   Ho8Ga(Si5W4)3
_chemical_formula_sum   'Ho8 Ga1 Si15 W12'
_cell_volume   605.68037850
_cell_formula_units_Z   1
loop_
 _symmetry_equiv_pos_site_id
 _symmetry_equiv_pos_as_xyz
  1  'x, y, z'
loop_
 _atom_site_type_symbol
 _atom_site_label
 _atom_site_symmetry_multiplicity
 _atom_site_fract_x
 _atom_site_fract_y
 _atom_site_fract_z
 _atom_site_occupancy
  Ho  Ho0  1  0.495579  0.331450  0.093553  1
  Ho  Ho1  1  0.996587  0.167796  0.405674  1
  Ho  Ho2  1  0.505160  0.667733  0.593031  1
  Ho  Ho3  1  0.003820  0.831787  0.906618  1
  Ho  Ho4  1  0.504630  0.668186  0.906759  1
  Ho  Ho5  1  0.007728  0.831557  0.594003  1
  Ho  Ho6  1  0.494342  0.332533  0.406094  1
  Ho  Ho7  1  0.995156  0.168033  0.093469  1
  Ga  Ga8  1  0.668064  0.042157  0.544564  1
  Si  Si9  1  0.803140  0.635918  0.750315  1
  Si  Si10  1  0.305135  0.866040  0.749999  1
  Si  Si11  1  0.196318  0.365987  0.249856  1
  Si  Si12  1  0.696030  0.133081  0.250223  1
  Si  Si13  1  0.536450  0.370021  0.749253  1
  Si  Si14  1  0.034055  0.129222  0.750564  1
  Si  Si15  1  0.462689  0.627440  0.248587  1
  Si  Si16  1  0.963845  0.870084  0.249655  1
  Si  Si17  1  0.162575  0.458219  0.953603  1
  Si  Si18  1  0.337018  0.957303  0.045833  1
  Si  Si19  1  0.837388  0.542402  0.453935  1
  Si  Si20  1  0.337573  0.956941  0.453885  1
  Si  Si21  1  0.836901  0.542355  0.046512  1
  Si  Si22  1  0.662891  0.043389  0.954929  1
  Si  Si23  1  0.162972  0.458093  0.546275  1
  W  W24  1  0.664527  0.003474  0.752948  1
  W  W25  1  0.167895  0.499805  0.750664  1
  W  W26  1  0.334120  0.997797  0.249649  1
  W  W27  1  0.832801  0.499414  0.249465  1
  W  W28  1  0.835912  0.342967  0.627802  1
  W  W29  1  0.330881  0.162974  0.875155  1
  W  W30  1  0.166943  0.663266  0.125671  1
  W  W31  1  0.665643  0.831006  0.369951  1
  W  W32  1  0.168557  0.663027  0.374420  1
  W  W33  1  0.668301  0.837579  0.124449  1
  W  W34  1  0.832148  0.337944  0.875508  1
  W  W35  1  0.326228  0.163020  0.627129  1
