# generated using pymatgen
data_Er4GaSi3Pd8
_symmetry_space_group_name_H-M   'P 1'
_cell_length_a   5.53952955
_cell_length_b   7.06239700
_cell_length_c   7.27609530
_cell_angle_alpha   90.00000000
_cell_angle_beta   89.55267746
_cell_angle_gamma   90.00000000
_symmetry_Int_Tables_number   1
_chemical_formula_structural   Er4GaSi3Pd8
_chemical_formula_sum   'Er4 Ga1 Si3 Pd8'
_cell_volume   284.64932188
_cell_formula_units_Z   1
loop_
 _symmetry_equiv_pos_site_id
 _symmetry_equiv_pos_as_xyz
  1  'x, y, z'
loop_
 _atom_site_type_symbol
 _atom_site_label
 _atom_site_symmetry_multiplicity
 _atom_site_fract_x
 _atom_site_fract_y
 _atom_site_fract_z
 _atom_site_occupancy
  Er  Er0  1  0.140310  0.750000  0.526610  1
  Er  Er1  1  0.643023  0.250000  0.971882  1
  Er  Er2  1  0.860669  0.250000  0.474480  1
  Er  Er3  1  0.355324  0.750000  0.027974  1
  Ga  Ga4  1  0.857345  0.750000  0.880703  1
  Si  Si5  1  0.361203  0.250000  0.618286  1
  Si  Si6  1  0.140229  0.250000  0.120513  1
  Si  Si7  1  0.638391  0.750000  0.378424  1
  Pd  Pd8  1  0.907716  0.950339  0.186435  1
  Pd  Pd9  1  0.403971  0.052756  0.318505  1
  Pd  Pd10  1  0.101882  0.444726  0.821426  1
  Pd  Pd11  1  0.588185  0.549968  0.674197  1
  Pd  Pd12  1  0.101882  0.055274  0.821426  1
  Pd  Pd13  1  0.588185  0.950032  0.674197  1
  Pd  Pd14  1  0.907716  0.549661  0.186435  1
  Pd  Pd15  1  0.403971  0.447244  0.318505  1
