# generated using pymatgen
data_Sn16Rh3Au
_symmetry_space_group_name_H-M   'P 1'
_cell_length_a   12.73643221
_cell_length_b   12.73643284
_cell_length_c   12.74294597
_cell_angle_alpha   150.85378230
_cell_angle_beta   150.85378594
_cell_angle_gamma   41.61255453
_symmetry_Int_Tables_number   1
_chemical_formula_structural   Sn16Rh3Au
_chemical_formula_sum   'Sn16 Rh3 Au1'
_cell_volume   489.33739271
_cell_formula_units_Z   1
loop_
 _symmetry_equiv_pos_site_id
 _symmetry_equiv_pos_as_xyz
  1  'x, y, z'
loop_
 _atom_site_type_symbol
 _atom_site_label
 _atom_site_symmetry_multiplicity
 _atom_site_fract_x
 _atom_site_fract_y
 _atom_site_fract_z
 _atom_site_occupancy
  Sn  Sn0  1  0.150132  0.634265  0.154418  1
  Sn  Sn1  1  0.634095  0.479672  0.483869  1
  Sn  Sn2  1  0.885401  0.885921  0.646751  1
  Sn  Sn3  1  0.385946  0.738606  0.999316  1
  Sn  Sn4  1  0.614079  0.614599  0.353249  1
  Sn  Sn5  1  0.113371  0.760709  0.999316  1
  Sn  Sn6  1  0.865735  0.349868  0.845582  1
  Sn  Sn7  1  0.349774  0.504199  0.483869  1
  Sn  Sn8  1  0.995801  0.150226  0.516131  1
  Sn  Sn9  1  0.479847  0.995716  0.845582  1
  Sn  Sn10  1  0.739291  0.386629  0.000684  1
  Sn  Sn11  1  0.239171  0.238650  0.353249  1
  Sn  Sn12  1  0.761394  0.114054  0.000684  1
  Sn  Sn13  1  0.261350  0.260829  0.646751  1
  Sn  Sn14  1  0.020328  0.865905  0.516131  1
  Sn  Sn15  1  0.504284  0.020153  0.154418  1
  Rh  Rh16  1  0.250000  0.250000  0.000000  1
  Rh  Rh17  1  0.000000  0.500000  0.500000  1
  Rh  Rh18  1  0.500000  0.000000  0.500000  1
  Au  Au19  1  0.750000  0.750000  0.000000  1
