# generated using pymatgen
data_Tb4Mg4Ir3Pt
_symmetry_space_group_name_H-M   'P 1'
_cell_length_a   4.15554400
_cell_length_b   7.10865578
_cell_length_c   8.57723805
_cell_angle_alpha   89.27142426
_cell_angle_beta   90.00000000
_cell_angle_gamma   90.00000000
_symmetry_Int_Tables_number   1
_chemical_formula_structural   Tb4Mg4Ir3Pt
_chemical_formula_sum   'Tb4 Mg4 Ir3 Pt1'
_cell_volume   253.35397361
_cell_formula_units_Z   1
loop_
 _symmetry_equiv_pos_site_id
 _symmetry_equiv_pos_as_xyz
  1  'x, y, z'
loop_
 _atom_site_type_symbol
 _atom_site_label
 _atom_site_symmetry_multiplicity
 _atom_site_fract_x
 _atom_site_fract_y
 _atom_site_fract_z
 _atom_site_occupancy
  Tb  Tb0  1  0.250000  0.034553  0.670862  1
  Tb  Tb1  1  0.250000  0.547745  0.821215  1
  Tb  Tb2  1  0.750000  0.959905  0.323416  1
  Tb  Tb3  1  0.750000  0.464464  0.182422  1
  Mg  Mg4  1  0.250000  0.135060  0.062560  1
  Mg  Mg5  1  0.250000  0.635360  0.439343  1
  Mg  Mg6  1  0.750000  0.863985  0.939820  1
  Mg  Mg7  1  0.750000  0.363837  0.559857  1
  Ir  Ir8  1  0.250000  0.249927  0.372320  1
  Ir  Ir9  1  0.250000  0.749631  0.124318  1
  Ir  Ir10  1  0.750000  0.747946  0.628890  1
  Pt  Pt11  1  0.750000  0.247588  0.874977  1
