# generated using pymatgen
data_Yb4Mg4Rh3Au
_symmetry_space_group_name_H-M   'P 1'
_cell_length_a   4.23489200
_cell_length_b   7.14893803
_cell_length_c   8.46227427
_cell_angle_alpha   90.20210668
_cell_angle_beta   90.00000000
_cell_angle_gamma   90.00000000
_symmetry_Int_Tables_number   1
_chemical_formula_structural   Yb4Mg4Rh3Au
_chemical_formula_sum   'Yb4 Mg4 Rh3 Au1'
_cell_volume   256.19359431
_cell_formula_units_Z   1
loop_
 _symmetry_equiv_pos_site_id
 _symmetry_equiv_pos_as_xyz
  1  'x, y, z'
loop_
 _atom_site_type_symbol
 _atom_site_label
 _atom_site_symmetry_multiplicity
 _atom_site_fract_x
 _atom_site_fract_y
 _atom_site_fract_z
 _atom_site_occupancy
  Yb  Yb0  1  0.750000  0.971699  0.681282  1
  Yb  Yb1  1  0.250000  0.526745  0.165465  1
  Yb  Yb2  1  0.750000  0.465216  0.827830  1
  Yb  Yb3  1  0.250000  0.049045  0.320731  1
  Mg  Mg4  1  0.250000  0.137999  0.941638  1
  Mg  Mg5  1  0.250000  0.631457  0.569628  1
  Mg  Mg6  1  0.750000  0.865094  0.051786  1
  Mg  Mg7  1  0.750000  0.352677  0.443913  1
  Rh  Rh8  1  0.250000  0.260233  0.627855  1
  Rh  Rh9  1  0.250000  0.760789  0.871134  1
  Rh  Rh10  1  0.750000  0.240196  0.129567  1
  Au  Au11  1  0.750000  0.738852  0.369170  1
