# generated using pymatgen
data_EuYGe4N7
_symmetry_space_group_name_H-M   'P 1'
_cell_length_a   6.29346300
_cell_length_b   6.29346289
_cell_length_c   10.38329000
_cell_angle_alpha   90.00000000
_cell_angle_beta   90.00000000
_cell_angle_gamma   119.99999531
_symmetry_Int_Tables_number   1
_chemical_formula_structural   EuYGe4N7
_chemical_formula_sum   'Eu2 Y2 Ge8 N14'
_cell_volume   356.15987902
_cell_formula_units_Z   2
loop_
 _symmetry_equiv_pos_site_id
 _symmetry_equiv_pos_as_xyz
  1  'x, y, z'
loop_
 _atom_site_type_symbol
 _atom_site_label
 _atom_site_symmetry_multiplicity
 _atom_site_fract_x
 _atom_site_fract_y
 _atom_site_fract_z
 _atom_site_occupancy
  Eu  Eu0  1  0.666667  0.333333  0.602091  1
  Eu  Eu1  1  0.333333  0.666667  0.102091  1
  Y  Y2  1  0.666667  0.333333  0.952559  1
  Y  Y3  1  0.333333  0.666667  0.452559  1
  Ge  Ge4  1  0.172959  0.345916  0.759654  1
  Ge  Ge5  1  0.827041  0.172959  0.259654  1
  Ge  Ge6  1  0.345916  0.172959  0.259654  1
  Ge  Ge7  1  0.654084  0.827041  0.759654  1
  Ge  Ge8  1  0.172959  0.827041  0.759654  1
  Ge  Ge9  1  0.827041  0.654084  0.259654  1
  Ge  Ge10  1  0.000000  0.000000  0.024374  1
  Ge  Ge11  1  0.000000  0.000000  0.524374  1
  N  N12  1  0.000000  0.000000  0.833386  1
  N  N13  1  0.000000  0.000000  0.333386  1
  N  N14  1  0.841278  0.682557  0.082206  1
  N  N15  1  0.158722  0.841278  0.582206  1
  N  N16  1  0.682557  0.841278  0.582206  1
  N  N17  1  0.317443  0.158722  0.082206  1
  N  N18  1  0.841278  0.158722  0.082206  1
  N  N19  1  0.158722  0.317443  0.582206  1
  N  N20  1  0.497707  0.502293  0.811611  1
  N  N21  1  0.995414  0.497707  0.311611  1
  N  N22  1  0.502293  0.004586  0.311611  1
  N  N23  1  0.497707  0.995414  0.811611  1
  N  N24  1  0.502293  0.497707  0.311611  1
  N  N25  1  0.004586  0.502293  0.811611  1
