# generated using pymatgen
data_Sr2Ga2HgAu
_symmetry_space_group_name_H-M   'P 1'
_cell_length_a   6.18508968
_cell_length_b   6.18508958
_cell_length_c   7.79925300
_cell_angle_alpha   50.76169978
_cell_angle_beta   50.76170051
_cell_angle_gamma   46.16909995
_symmetry_Int_Tables_number   1
_chemical_formula_structural   Sr2Ga2HgAu
_chemical_formula_sum   'Sr2 Ga2 Hg1 Au1'
_cell_volume   156.27888107
_cell_formula_units_Z   1
loop_
 _symmetry_equiv_pos_site_id
 _symmetry_equiv_pos_as_xyz
  1  'x, y, z'
loop_
 _atom_site_type_symbol
 _atom_site_label
 _atom_site_symmetry_multiplicity
 _atom_site_fract_x
 _atom_site_fract_y
 _atom_site_fract_z
 _atom_site_occupancy
  Sr  Sr0  1  0.542847  0.542847  0.707174  1
  Sr  Sr1  1  0.459923  0.459923  0.289406  1
  Ga  Ga2  1  0.843577  0.843577  0.721639  1
  Ga  Ga3  1  0.822834  0.822834  0.107061  1
  Hg  Hg4  1  0.164879  0.164879  0.875993  1
  Au  Au5  1  0.165943  0.165943  0.298731  1
