# generated using pymatgen
data_Yb5Th3(Pd2Pb)4
_symmetry_space_group_name_H-M   'P 1'
_cell_length_a   7.94609016
_cell_length_b   7.94608952
_cell_length_c   7.44774600
_cell_angle_alpha   90.00000000
_cell_angle_beta   90.00000000
_cell_angle_gamma   90.70988397
_symmetry_Int_Tables_number   1
_chemical_formula_structural   Yb5Th3(Pd2Pb)4
_chemical_formula_sum   'Yb5 Th3 Pd8 Pb4'
_cell_volume   470.21714944
_cell_formula_units_Z   1
loop_
 _symmetry_equiv_pos_site_id
 _symmetry_equiv_pos_as_xyz
  1  'x, y, z'
loop_
 _atom_site_type_symbol
 _atom_site_label
 _atom_site_symmetry_multiplicity
 _atom_site_fract_x
 _atom_site_fract_y
 _atom_site_fract_z
 _atom_site_occupancy
  Yb  Yb0  1  0.335830  0.338564  0.500000  1
  Yb  Yb1  1  0.661436  0.664170  0.500000  1
  Yb  Yb2  1  0.175656  0.824344  0.500000  1
  Yb  Yb3  1  0.837754  0.162246  0.000000  1
  Yb  Yb4  1  0.163358  0.836642  0.000000  1
  Th  Th5  1  0.679173  0.678848  0.000000  1
  Th  Th6  1  0.823510  0.176490  0.500000  1
  Th  Th7  1  0.321152  0.320827  0.000000  1
  Pd  Pd8  1  0.870798  0.873504  0.737290  1
  Pd  Pd9  1  0.126496  0.129202  0.737290  1
  Pd  Pd10  1  0.628965  0.371035  0.763517  1
  Pd  Pd11  1  0.628965  0.371035  0.236483  1
  Pd  Pd12  1  0.377140  0.622860  0.230525  1
  Pd  Pd13  1  0.126496  0.129202  0.262710  1
  Pd  Pd14  1  0.870798  0.873504  0.262710  1
  Pd  Pd15  1  0.377140  0.622860  0.769475  1
  Pb  Pb16  1  0.494926  0.997260  0.745107  1
  Pb  Pb17  1  0.494926  0.997260  0.254893  1
  Pb  Pb18  1  0.002740  0.505074  0.745107  1
  Pb  Pb19  1  0.002740  0.505074  0.254893  1
