# generated using pymatgen
data_Nd7Lu13(Si7Pt)2
_symmetry_space_group_name_H-M   'P 1'
_cell_length_a   7.62181878
_cell_length_b   7.71479573
_cell_length_c   14.10091400
_cell_angle_alpha   90.11354750
_cell_angle_beta   89.79500930
_cell_angle_gamma   90.32470192
_symmetry_Int_Tables_number   1
_chemical_formula_structural   Nd7Lu13(Si7Pt)2
_chemical_formula_sum   'Nd7 Lu13 Si14 Pt2'
_cell_volume   829.12445469
_cell_formula_units_Z   1
loop_
 _symmetry_equiv_pos_site_id
 _symmetry_equiv_pos_as_xyz
  1  'x, y, z'
loop_
 _atom_site_type_symbol
 _atom_site_label
 _atom_site_symmetry_multiplicity
 _atom_site_fract_x
 _atom_site_fract_y
 _atom_site_fract_z
 _atom_site_occupancy
  Nd  Nd0  1  0.356951  0.006892  0.960600  1
  Nd  Nd1  1  0.987897  0.642548  0.537365  1
  Nd  Nd2  1  0.491144  0.855783  0.210387  1
  Nd  Nd3  1  0.509679  0.141487  0.707715  1
  Nd  Nd4  1  0.855199  0.493773  0.789582  1
  Nd  Nd5  1  0.143709  0.505869  0.291540  1
  Nd  Nd6  1  0.011047  0.357461  0.039081  1
  Lu  Lu7  1  0.494120  0.357450  0.122321  1
  Lu  Lu8  1  0.995041  0.137003  0.625092  1
  Lu  Lu9  1  0.860239  0.010877  0.877802  1
  Lu  Lu10  1  0.139416  0.989722  0.378776  1
  Lu  Lu11  1  0.509178  0.645573  0.619501  1
  Lu  Lu12  1  0.359275  0.495313  0.876389  1
  Lu  Lu13  1  0.640958  0.505035  0.377221  1
  Lu  Lu14  1  0.002851  0.859997  0.127928  1
  Lu  Lu15  1  0.633458  0.996955  0.457875  1
  Lu  Lu16  1  0.317206  0.310948  0.502598  1
  Lu  Lu17  1  0.184927  0.825735  0.745351  1
  Lu  Lu18  1  0.814602  0.173838  0.247172  1
  Lu  Lu19  1  0.684073  0.687048  0.002135  1
  Si  Si20  1  0.933764  0.287838  0.436527  1
  Si  Si21  1  0.437349  0.209710  0.312773  1
  Si  Si22  1  0.564887  0.788123  0.810826  1
  Si  Si23  1  0.211451  0.439412  0.688565  1
  Si  Si24  1  0.789546  0.561897  0.190143  1
  Si  Si25  1  0.063172  0.708501  0.936929  1
  Si  Si26  1  0.798075  0.849356  0.689979  1
  Si  Si27  1  0.205764  0.148032  0.189186  1
  Si  Si28  1  0.846101  0.794796  0.317203  1
  Si  Si29  1  0.355778  0.703894  0.434882  1
  Si  Si30  1  0.648229  0.300889  0.936786  1
  Si  Si31  1  0.705405  0.347835  0.560468  1
  Si  Si32  1  0.292770  0.648561  0.062815  1
  Si  Si33  1  0.149954  0.209356  0.812178  1
  Pt  Pt34  1  0.293512  0.939690  0.561223  1
  Pt  Pt35  1  0.713268  0.062800  0.063084  1
