# generated using pymatgen
data_Li2TbSm(WO4)4
_symmetry_space_group_name_H-M   'P 1'
_cell_length_a   6.06186100
_cell_length_b   5.09289227
_cell_length_c   11.12501627
_cell_angle_alpha   65.45039207
_cell_angle_beta   90.00000000
_cell_angle_gamma   90.00000000
_symmetry_Int_Tables_number   1
_chemical_formula_structural   Li2TbSm(WO4)4
_chemical_formula_sum   'Li2 Tb1 Sm1 W4 O16'
_cell_volume   312.40823059
_cell_formula_units_Z   1
loop_
 _symmetry_equiv_pos_site_id
 _symmetry_equiv_pos_as_xyz
  1  'x, y, z'
loop_
 _atom_site_type_symbol
 _atom_site_label
 _atom_site_symmetry_multiplicity
 _atom_site_fract_x
 _atom_site_fract_y
 _atom_site_fract_z
 _atom_site_occupancy
  Li  Li0  1  0.753428  0.000000  0.750000  1
  Li  Li1  1  0.251101  0.000000  0.250000  1
  Tb  Tb2  1  0.664668  0.500000  0.250000  1
  Sm  Sm3  1  0.328485  0.500000  0.750000  1
  W  W4  1  0.831365  0.739069  0.510601  1
  W  W5  1  0.168259  0.266748  0.485295  1
  W  W6  1  0.831365  0.260931  0.989399  1
  W  W7  1  0.168259  0.733252  0.014705  1
  O  O8  1  0.888826  0.839918  0.099032  1
  O  O9  1  0.107304  0.151452  0.905481  1
  O  O10  1  0.888826  0.160082  0.400968  1
  O  O11  1  0.107304  0.848548  0.594519  1
  O  O12  1  0.364698  0.722479  0.892395  1
  O  O13  1  0.636926  0.279708  0.111122  1
  O  O14  1  0.364698  0.277521  0.607605  1
  O  O15  1  0.636926  0.720292  0.388878  1
  O  O16  1  0.912865  0.656489  0.892028  1
  O  O17  1  0.090017  0.337399  0.109734  1
  O  O18  1  0.912865  0.343511  0.607972  1
  O  O19  1  0.090017  0.662601  0.390266  1
  O  O20  1  0.644914  0.769213  0.633391  1
  O  O21  1  0.355984  0.233958  0.363318  1
  O  O22  1  0.644914  0.230787  0.866609  1
  O  O23  1  0.355984  0.766042  0.136682  1
