# generated using pymatgen
data_Tm2Co4Ni5P7W3
_symmetry_space_group_name_H-M   'P 1'
_cell_length_a   9.10534600
_cell_length_b   9.10396895
_cell_length_c   3.70593400
_cell_angle_alpha   90.00000000
_cell_angle_beta   90.00000000
_cell_angle_gamma   119.94959686
_symmetry_Int_Tables_number   1
_chemical_formula_structural   Tm2Co4Ni5P7W3
_chemical_formula_sum   'Tm2 Co4 Ni5 P7 W3'
_cell_volume   266.18028509
_cell_formula_units_Z   1
loop_
 _symmetry_equiv_pos_site_id
 _symmetry_equiv_pos_as_xyz
  1  'x, y, z'
loop_
 _atom_site_type_symbol
 _atom_site_label
 _atom_site_symmetry_multiplicity
 _atom_site_fract_x
 _atom_site_fract_y
 _atom_site_fract_z
 _atom_site_occupancy
  Tm  Tm0  1  0.334649  0.668093  0.000000  1
  Tm  Tm1  1  0.666553  0.333514  0.500000  1
  Co  Co2  1  0.718081  0.875677  0.000000  1
  Co  Co3  1  0.155729  0.281296  0.000000  1
  Co  Co4  1  0.126045  0.844838  0.000000  1
  Co  Co5  1  0.559996  0.945977  0.500000  1
  Ni  Ni6  1  0.631234  0.566157  0.000000  1
  Ni  Ni7  1  0.930649  0.365586  0.000000  1
  Ni  Ni8  1  0.435202  0.064503  0.000000  1
  Ni  Ni9  1  0.385252  0.443112  0.500000  1
  Ni  Ni10  1  0.057328  0.614535  0.500000  1
  P  P11  1  0.591178  0.714298  0.500000  1
  P  P12  1  0.119852  0.408093  0.500000  1
  P  P13  1  0.289333  0.878581  0.500000  1
  P  P14  1  0.000062  0.999766  0.000000  1
  P  P15  1  0.889433  0.589032  0.000000  1
  P  P16  1  0.696738  0.107416  0.000000  1
  P  P17  1  0.411426  0.300418  0.000000  1
  W  W18  1  0.880435  0.779302  0.500000  1
  W  W19  1  0.899133  0.118558  0.500000  1
  W  W20  1  0.221689  0.101250  0.500000  1
