# generated using pymatgen
data_YbLuB4Ir5
_symmetry_space_group_name_H-M   'P 1'
_cell_length_a   7.48637662
_cell_length_b   6.32987741
_cell_length_c   5.57542865
_cell_angle_alpha   77.64144582
_cell_angle_beta   55.68254694
_cell_angle_gamma   46.67600664
_symmetry_Int_Tables_number   1
_chemical_formula_structural   YbLuB4Ir5
_chemical_formula_sum   'Yb1 Lu1 B4 Ir5'
_cell_volume   152.04293625
_cell_formula_units_Z   1
loop_
 _symmetry_equiv_pos_site_id
 _symmetry_equiv_pos_as_xyz
  1  'x, y, z'
loop_
 _atom_site_type_symbol
 _atom_site_label
 _atom_site_symmetry_multiplicity
 _atom_site_fract_x
 _atom_site_fract_y
 _atom_site_fract_z
 _atom_site_occupancy
  Yb  Yb0  1  0.858945  0.858943  0.141056  1
  Lu  Lu1  1  0.135159  0.135158  0.864842  1
  B  B2  1  0.477615  0.789508  0.210492  1
  B  B3  1  0.212682  0.523276  0.476724  1
  B  B4  1  0.789509  0.477614  0.522386  1
  B  B5  1  0.523277  0.212681  0.787319  1
  Ir  Ir6  1  0.499944  0.499944  0.000056  1
  Ir  Ir7  1  0.249903  0.249903  0.250097  1
  Ir  Ir8  1  0.999944  0.999944  0.500056  1
  Ir  Ir9  1  0.503122  0.503121  0.496878  1
  Ir  Ir10  1  0.749903  0.749902  0.750097  1
