# generated using pymatgen
data_Ti4NbCuSn3
_symmetry_space_group_name_H-M   'P 1'
_cell_length_a   8.23033200
_cell_length_b   8.23033285
_cell_length_c   5.55828500
_cell_angle_alpha   90.00000000
_cell_angle_beta   90.00000000
_cell_angle_gamma   120.00000461
_symmetry_Int_Tables_number   1
_chemical_formula_structural   Ti4NbCuSn3
_chemical_formula_sum   'Ti8 Nb2 Cu2 Sn6'
_cell_volume   326.06649613
_cell_formula_units_Z   2
loop_
 _symmetry_equiv_pos_site_id
 _symmetry_equiv_pos_as_xyz
  1  'x, y, z'
loop_
 _atom_site_type_symbol
 _atom_site_label
 _atom_site_symmetry_multiplicity
 _atom_site_fract_x
 _atom_site_fract_y
 _atom_site_fract_z
 _atom_site_occupancy
  Ti  Ti0  1  0.270480  0.000000  0.739586  1
  Ti  Ti1  1  0.729520  0.000000  0.260414  1
  Ti  Ti2  1  0.000000  0.270480  0.739586  1
  Ti  Ti3  1  0.000000  0.729520  0.260414  1
  Ti  Ti4  1  0.729520  0.729520  0.739586  1
  Ti  Ti5  1  0.270480  0.270480  0.260414  1
  Ti  Ti6  1  0.666667  0.333333  0.000000  1
  Ti  Ti7  1  0.333333  0.666667  0.000000  1
  Nb  Nb8  1  0.333333  0.666667  0.500000  1
  Nb  Nb9  1  0.666667  0.333333  0.500000  1
  Cu  Cu10  1  0.000000  0.000000  0.500000  1
  Cu  Cu11  1  0.000000  0.000000  0.000000  1
  Sn  Sn12  1  0.618531  0.000000  0.755590  1
  Sn  Sn13  1  0.381469  0.000000  0.244410  1
  Sn  Sn14  1  0.000000  0.618531  0.755590  1
  Sn  Sn15  1  0.000000  0.381469  0.244410  1
  Sn  Sn16  1  0.381469  0.381469  0.755590  1
  Sn  Sn17  1  0.618531  0.618531  0.244410  1
