# generated using pymatgen
data_Ba(PdSe2)2
_symmetry_space_group_name_H-M   'P 1'
_cell_length_a   7.22874292
_cell_length_b   7.05043098
_cell_length_c   7.71907353
_cell_angle_alpha   70.14991870
_cell_angle_beta   89.96968716
_cell_angle_gamma   90.09986049
_symmetry_Int_Tables_number   1
_chemical_formula_structural   Ba(PdSe2)2
_chemical_formula_sum   'Ba2 Pd4 Se8'
_cell_volume   370.03294474
_cell_formula_units_Z   2
loop_
 _symmetry_equiv_pos_site_id
 _symmetry_equiv_pos_as_xyz
  1  'x, y, z'
loop_
 _atom_site_type_symbol
 _atom_site_label
 _atom_site_symmetry_multiplicity
 _atom_site_fract_x
 _atom_site_fract_y
 _atom_site_fract_z
 _atom_site_occupancy
  Ba  Ba0  1  0.249433  0.285601  0.505608  1
  Ba  Ba1  1  0.754924  0.717774  0.490808  1
  Pd  Pd2  1  0.999419  0.998800  0.999874  1
  Pd  Pd3  1  0.499514  0.000831  0.000207  1
  Pd  Pd4  1  0.250151  0.514072  0.993390  1
  Pd  Pd5  1  0.749661  0.484653  0.008413  1
  Se  Se6  1  0.249968  0.782234  0.506478  1
  Se  Se7  1  0.750318  0.217063  0.493314  1
  Se  Se8  1  0.748497  0.957767  0.797322  1
  Se  Se9  1  0.248588  0.041404  0.202660  1
  Se  Se10  1  0.004490  0.369241  0.852913  1
  Se  Se11  1  0.504945  0.630438  0.148886  1
  Se  Se12  1  0.494949  0.371653  0.851229  1
  Se  Se13  1  0.995143  0.628468  0.148898  1
