# generated using pymatgen
data_BaDy2(CoH6)2
_symmetry_space_group_name_H-M   'P 1'
_cell_length_a   4.81859400
_cell_length_b   4.81859503
_cell_length_c   8.32078800
_cell_angle_alpha   90.00000000
_cell_angle_beta   90.00000000
_cell_angle_gamma   119.99999295
_symmetry_Int_Tables_number   1
_chemical_formula_structural   BaDy2(CoH6)2
_chemical_formula_sum   'Ba1 Dy2 Co2 H12'
_cell_volume   167.31538734
_cell_formula_units_Z   1
loop_
 _symmetry_equiv_pos_site_id
 _symmetry_equiv_pos_as_xyz
  1  'x, y, z'
loop_
 _atom_site_type_symbol
 _atom_site_label
 _atom_site_symmetry_multiplicity
 _atom_site_fract_x
 _atom_site_fract_y
 _atom_site_fract_z
 _atom_site_occupancy
  Ba  Ba0  1  0.000000  0.000000  0.000000  1
  Dy  Dy1  1  0.666667  0.333333  0.365974  1
  Dy  Dy2  1  0.333333  0.666667  0.634026  1
  Co  Co3  1  0.666667  0.333333  0.723413  1
  Co  Co4  1  0.333333  0.666667  0.276587  1
  H  H5  1  0.175953  0.824047  0.382976  1
  H  H6  1  0.648093  0.824047  0.382976  1
  H  H7  1  0.175953  0.351907  0.382976  1
  H  H8  1  0.824047  0.175953  0.617024  1
  H  H9  1  0.351907  0.175953  0.617024  1
  H  H10  1  0.824047  0.648093  0.617024  1
  H  H11  1  0.512650  0.025299  0.836254  1
  H  H12  1  0.512650  0.487350  0.836254  1
  H  H13  1  0.974701  0.487350  0.836254  1
  H  H14  1  0.487350  0.974701  0.163746  1
  H  H15  1  0.487350  0.512650  0.163746  1
  H  H16  1  0.025299  0.512650  0.163746  1
