# generated using pymatgen
data_Ho2TmSi2Ag3Hg
_symmetry_space_group_name_H-M   'P 1'
_cell_length_a   7.20893901
_cell_length_b   7.20968803
_cell_length_c   4.19797300
_cell_angle_alpha   90.00000000
_cell_angle_beta   90.00000000
_cell_angle_gamma   120.00344128
_symmetry_Int_Tables_number   1
_chemical_formula_structural   Ho2TmSi2Ag3Hg
_chemical_formula_sum   'Ho2 Tm1 Si2 Ag3 Hg1'
_cell_volume   188.94832063
_cell_formula_units_Z   1
loop_
 _symmetry_equiv_pos_site_id
 _symmetry_equiv_pos_as_xyz
  1  'x, y, z'
loop_
 _atom_site_type_symbol
 _atom_site_label
 _atom_site_symmetry_multiplicity
 _atom_site_fract_x
 _atom_site_fract_y
 _atom_site_fract_z
 _atom_site_occupancy
  Ho  Ho0  1  0.420918  0.421070  0.500000  1
  Ho  Ho1  1  0.579082  0.000152  0.500000  1
  Tm  Tm2  1  0.000000  0.578762  0.500000  1
  Si  Si3  1  0.667789  0.334147  0.000000  1
  Si  Si4  1  0.332211  0.666359  0.000000  1
  Ag  Ag5  1  0.730039  0.729694  0.000000  1
  Ag  Ag6  1  0.269961  0.999656  0.000000  1
  Ag  Ag7  1  0.000000  0.271044  0.000000  1
  Hg  Hg8  1  0.000000  0.999117  0.500000  1
