# generated using pymatgen
data_Ac12AlGe11Pd12
_symmetry_space_group_name_H-M   'P 1'
_cell_length_a   4.63594900
_cell_length_b   7.87529809
_cell_length_c   22.49582900
_cell_angle_alpha   89.88061822
_cell_angle_beta   90.00000000
_cell_angle_gamma   90.00000000
_symmetry_Int_Tables_number   1
_chemical_formula_structural   Ac12AlGe11Pd12
_chemical_formula_sum   'Ac12 Al1 Ge11 Pd12'
_cell_volume   821.30924351
_cell_formula_units_Z   1
loop_
 _symmetry_equiv_pos_site_id
 _symmetry_equiv_pos_as_xyz
  1  'x, y, z'
loop_
 _atom_site_type_symbol
 _atom_site_label
 _atom_site_symmetry_multiplicity
 _atom_site_fract_x
 _atom_site_fract_y
 _atom_site_fract_z
 _atom_site_occupancy
  Ac  Ac0  1  0.250000  0.709734  0.333160  1
  Ac  Ac1  1  0.750000  0.291953  0.666925  1
  Ac  Ac2  1  0.750000  0.208663  0.166517  1
  Ac  Ac3  1  0.250000  0.796031  0.833365  1
  Ac  Ac4  1  0.250000  0.793884  0.166669  1
  Ac  Ac5  1  0.750000  0.202173  0.831577  1
  Ac  Ac6  1  0.750000  0.293771  0.333685  1
  Ac  Ac7  1  0.250000  0.702596  0.666675  1
  Ac  Ac8  1  0.250000  0.714342  0.003482  1
  Ac  Ac9  1  0.750000  0.286400  0.998591  1
  Ac  Ac10  1  0.750000  0.211246  0.497745  1
  Ac  Ac11  1  0.250000  0.787709  0.502037  1
  Al  Al12  1  0.250000  0.415376  0.894105  1
  Ge  Ge13  1  0.250000  0.089336  0.070288  1
  Ge  Ge14  1  0.750000  0.912875  0.931680  1
  Ge  Ge15  1  0.750000  0.588568  0.430657  1
  Ge  Ge16  1  0.250000  0.410726  0.568199  1
  Ge  Ge17  1  0.250000  0.084685  0.270843  1
  Ge  Ge18  1  0.750000  0.914551  0.727655  1
  Ge  Ge19  1  0.750000  0.583339  0.228835  1
  Ge  Ge20  1  0.250000  0.415417  0.772304  1
  Ge  Ge21  1  0.250000  0.083811  0.394792  1
  Ge  Ge22  1  0.750000  0.916510  0.605099  1
  Ge  Ge23  1  0.750000  0.584269  0.105800  1
  Pd  Pd24  1  0.250000  0.419014  0.238380  1
  Pd  Pd25  1  0.750000  0.582680  0.763178  1
  Pd  Pd26  1  0.750000  0.918872  0.262003  1
  Pd  Pd27  1  0.250000  0.078496  0.736407  1
  Pd  Pd28  1  0.250000  0.418516  0.435427  1
  Pd  Pd29  1  0.750000  0.580814  0.564873  1
  Pd  Pd30  1  0.750000  0.917608  0.065235  1
  Pd  Pd31  1  0.250000  0.085698  0.932993  1
  Pd  Pd32  1  0.250000  0.419783  0.094124  1
  Pd  Pd33  1  0.750000  0.581124  0.906477  1
  Pd  Pd34  1  0.750000  0.919053  0.406499  1
  Pd  Pd35  1  0.250000  0.080374  0.593715  1
