# generated using pymatgen
data_Li2B4Ir3Pd2Pt
_symmetry_space_group_name_H-M   'P 1'
_cell_length_a   6.89535862
_cell_length_b   6.09705842
_cell_length_c   5.51760921
_cell_angle_alpha   72.56585848
_cell_angle_beta   57.39745612
_cell_angle_gamma   51.68767026
_symmetry_Int_Tables_number   1
_chemical_formula_structural   Li2B4Ir3Pd2Pt
_chemical_formula_sum   'Li2 B4 Ir3 Pd2 Pt1'
_cell_volume   153.12410452
_cell_formula_units_Z   1
loop_
 _symmetry_equiv_pos_site_id
 _symmetry_equiv_pos_as_xyz
  1  'x, y, z'
loop_
 _atom_site_type_symbol
 _atom_site_label
 _atom_site_symmetry_multiplicity
 _atom_site_fract_x
 _atom_site_fract_y
 _atom_site_fract_z
 _atom_site_occupancy
  Li  Li0  1  0.936928  0.759356  0.408786  1
  Li  Li1  1  0.493880  0.308944  0.355049  1
  B  B2  1  0.043720  0.995335  0.574252  1
  B  B3  1  0.667527  0.820480  0.174622  1
  B  B4  1  0.446814  0.568339  0.910815  1
  B  B5  1  0.273259  0.192280  0.857789  1
  Ir  Ir6  1  0.355855  0.865129  0.140972  1
  Ir  Ir7  1  0.614176  0.146249  0.861554  1
  Ir  Ir8  1  0.382556  0.890712  0.615035  1
  Pd  Pd9  1  0.862405  0.380082  0.342824  1
  Pd  Pd10  1  0.874329  0.384373  0.834879  1
  Pt  Pt11  1  0.103755  0.633520  0.868225  1
