# generated using pymatgen
data_SmLu5TcBi2
_symmetry_space_group_name_H-M   'P 1'
_cell_length_a   8.19541800
_cell_length_b   8.17189576
_cell_length_c   4.27954000
_cell_angle_alpha   90.00000000
_cell_angle_beta   90.00000000
_cell_angle_gamma   120.09526349
_symmetry_Int_Tables_number   1
_chemical_formula_structural   SmLu5TcBi2
_chemical_formula_sum   'Sm1 Lu5 Tc1 Bi2'
_cell_volume   247.97274669
_cell_formula_units_Z   1
loop_
 _symmetry_equiv_pos_site_id
 _symmetry_equiv_pos_as_xyz
  1  'x, y, z'
loop_
 _atom_site_type_symbol
 _atom_site_label
 _atom_site_symmetry_multiplicity
 _atom_site_fract_x
 _atom_site_fract_y
 _atom_site_fract_z
 _atom_site_occupancy
  Sm  Sm0  1  0.608858  0.000000  0.000000  1
  Lu  Lu1  1  0.231787  0.000000  0.500000  1
  Lu  Lu2  1  0.001985  0.230339  0.500000  1
  Lu  Lu3  1  0.771646  0.769661  0.500000  1
  Lu  Lu4  1  0.999241  0.615768  0.000000  1
  Lu  Lu5  1  0.383474  0.384232  0.000000  1
  Tc  Tc6  1  0.006308  0.000000  0.000000  1
  Bi  Bi7  1  0.329597  0.662494  0.500000  1
  Bi  Bi8  1  0.667104  0.337506  0.500000  1
