# generated using pymatgen
data_Ta11NbAl5Au3N4
_symmetry_space_group_name_H-M   'P 1'
_cell_length_a   7.08175466
_cell_length_b   7.07576639
_cell_length_c   7.07788867
_cell_angle_alpha   90.18136795
_cell_angle_beta   90.05323468
_cell_angle_gamma   90.20403704
_symmetry_Int_Tables_number   1
_chemical_formula_structural   Ta11NbAl5Au3N4
_chemical_formula_sum   'Ta11 Nb1 Al5 Au3 N4'
_cell_volume   354.66061965
_cell_formula_units_Z   1
loop_
 _symmetry_equiv_pos_site_id
 _symmetry_equiv_pos_as_xyz
  1  'x, y, z'
loop_
 _atom_site_type_symbol
 _atom_site_label
 _atom_site_symmetry_multiplicity
 _atom_site_fract_x
 _atom_site_fract_y
 _atom_site_fract_z
 _atom_site_occupancy
  Ta  Ta0  1  0.785410  0.954346  0.384434  1
  Ta  Ta1  1  0.710760  0.038924  0.869339  1
  Ta  Ta2  1  0.210894  0.454410  0.126393  1
  Ta  Ta3  1  0.292330  0.546200  0.623850  1
  Ta  Ta4  1  0.954050  0.384296  0.784990  1
  Ta  Ta5  1  0.039515  0.868644  0.710769  1
  Ta  Ta6  1  0.454280  0.127737  0.211381  1
  Ta  Ta7  1  0.546223  0.623830  0.292358  1
  Ta  Ta8  1  0.384489  0.785301  0.954019  1
  Ta  Ta9  1  0.869359  0.710741  0.039099  1
  Ta  Ta10  1  0.127109  0.211192  0.454090  1
  Nb  Nb11  1  0.624073  0.292665  0.546863  1
  Al  Al12  1  0.677105  0.677375  0.676995  1
  Al  Al13  1  0.570895  0.425511  0.931181  1
  Al  Al14  1  0.425418  0.930787  0.571076  1
  Al  Al15  1  0.930796  0.571234  0.425362  1
  Al  Al16  1  0.070358  0.070292  0.070595  1
  Au  Au17  1  0.178988  0.820677  0.316012  1
  Au  Au18  1  0.315683  0.178749  0.821140  1
  Au  Au19  1  0.820722  0.315986  0.178390  1
  N  N20  1  0.883864  0.126617  0.625753  1
  N  N21  1  0.624334  0.881638  0.128013  1
  N  N22  1  0.128027  0.624354  0.881651  1
  N  N23  1  0.375317  0.378493  0.376245  1
