# generated using pymatgen
data_ErNp3O12
_symmetry_space_group_name_H-M   'P 1'
_cell_length_a   7.16447271
_cell_length_b   7.26586667
_cell_length_c   7.15843392
_cell_angle_alpha   109.77446114
_cell_angle_beta   109.38199783
_cell_angle_gamma   109.72979690
_symmetry_Int_Tables_number   1
_chemical_formula_structural   ErNp3O12
_chemical_formula_sum   'Er1 Np3 O12'
_cell_volume   285.17018853
_cell_formula_units_Z   1
loop_
 _symmetry_equiv_pos_site_id
 _symmetry_equiv_pos_as_xyz
  1  'x, y, z'
loop_
 _atom_site_type_symbol
 _atom_site_label
 _atom_site_symmetry_multiplicity
 _atom_site_fract_x
 _atom_site_fract_y
 _atom_site_fract_z
 _atom_site_occupancy
  Er  Er0  1  0.499860  0.996564  0.996262  1
  Np  Np1  1  0.500192  0.496435  0.496588  1
  Np  Np2  1  0.000219  0.496809  0.996711  1
  Np  Np3  1  0.999631  0.996603  0.496506  1
  O  O4  1  0.246176  0.439134  0.237121  1
  O  O5  1  0.754289  0.554089  0.756422  1
  O  O6  1  0.204842  0.996163  0.748124  1
  O  O7  1  0.794505  0.997135  0.244890  1
  O  O8  1  0.258037  0.207443  0.509626  1
  O  O9  1  0.741242  0.785351  0.483326  1
  O  O10  1  0.749618  0.252210  0.959317  1
  O  O11  1  0.250957  0.741642  0.034308  1
  O  O12  1  0.006810  0.703341  0.253041  1
  O  O13  1  0.993449  0.290108  0.740348  1
  O  O14  1  0.540453  0.283695  0.292716  1
  O  O15  1  0.459720  0.709001  0.700412  1
