# generated using pymatgen
data_Tb4Y13Th3Sn16
_symmetry_space_group_name_H-M   'P 1'
_cell_length_a   8.10742025
_cell_length_b   8.22487078
_cell_length_c   15.54602065
_cell_angle_alpha   90.06020512
_cell_angle_beta   90.12390665
_cell_angle_gamma   89.87829427
_symmetry_Int_Tables_number   1
_chemical_formula_structural   Tb4Y13Th3Sn16
_chemical_formula_sum   'Tb4 Y13 Th3 Sn16'
_cell_volume   1036.64194211
_cell_formula_units_Z   1
loop_
 _symmetry_equiv_pos_site_id
 _symmetry_equiv_pos_as_xyz
  1  'x, y, z'
loop_
 _atom_site_type_symbol
 _atom_site_label
 _atom_site_symmetry_multiplicity
 _atom_site_fract_x
 _atom_site_fract_y
 _atom_site_fract_z
 _atom_site_occupancy
  Tb  Tb0  1  0.475410  0.677998  0.098720  1
  Tb  Tb1  1  0.975902  0.822079  0.400847  1
  Tb  Tb2  1  0.523259  0.322052  0.598570  1
  Tb  Tb3  1  0.022916  0.178758  0.900687  1
  Y  Y4  1  0.366467  0.836930  0.877293  1
  Y  Y5  1  0.865667  0.662928  0.622697  1
  Y  Y6  1  0.633958  0.163318  0.377312  1
  Y  Y7  1  0.133007  0.336808  0.122310  1
  Y  Y8  1  0.633082  0.164869  0.121989  1
  Y  Y9  1  0.133402  0.335527  0.377257  1
  Y  Y10  1  0.366375  0.836198  0.623161  1
  Y  Y11  1  0.866780  0.663242  0.877357  1
  Y  Y12  1  0.522076  0.322583  0.902226  1
  Y  Y13  1  0.197805  0.499866  0.750403  1
  Y  Y14  1  0.697113  0.998241  0.751189  1
  Y  Y15  1  0.803065  0.499184  0.249468  1
  Y  Y16  1  0.303566  0.000989  0.250279  1
  Th  Th17  1  0.019742  0.180197  0.597639  1
  Th  Th18  1  0.480269  0.679224  0.403270  1
  Th  Th19  1  0.979885  0.820805  0.096160  1
  Sn  Sn20  1  0.294370  0.036908  0.041479  1
  Sn  Sn21  1  0.794941  0.461591  0.459017  1
  Sn  Sn22  1  0.705358  0.962260  0.541005  1
  Sn  Sn23  1  0.207464  0.536294  0.958507  1
  Sn  Sn24  1  0.707232  0.966354  0.957645  1
  Sn  Sn25  1  0.207404  0.534093  0.542567  1
  Sn  Sn26  1  0.291983  0.033583  0.457845  1
  Sn  Sn27  1  0.790315  0.465887  0.042097  1
  Sn  Sn28  1  0.564282  0.619804  0.750004  1
  Sn  Sn29  1  0.064378  0.879438  0.749226  1
  Sn  Sn30  1  0.436157  0.379190  0.250723  1
  Sn  Sn31  1  0.935836  0.120229  0.249119  1
  Sn  Sn32  1  0.331740  0.147381  0.750303  1
  Sn  Sn33  1  0.827882  0.355333  0.751499  1
  Sn  Sn34  1  0.670711  0.854790  0.248792  1
  Sn  Sn35  1  0.170204  0.645072  0.251343  1
