# generated using pymatgen
data_Zr6InSn5Ru12
_symmetry_space_group_name_H-M   'P 1'
_cell_length_a   4.59494800
_cell_length_b   6.48612000
_cell_length_c   13.76197400
_cell_angle_alpha   90.00000000
_cell_angle_beta   90.00014565
_cell_angle_gamma   90.00000000
_symmetry_Int_Tables_number   1
_chemical_formula_structural   Zr6InSn5Ru12
_chemical_formula_sum   'Zr6 In1 Sn5 Ru12'
_cell_volume   410.15339740
_cell_formula_units_Z   1
loop_
 _symmetry_equiv_pos_site_id
 _symmetry_equiv_pos_as_xyz
  1  'x, y, z'
loop_
 _atom_site_type_symbol
 _atom_site_label
 _atom_site_symmetry_multiplicity
 _atom_site_fract_x
 _atom_site_fract_y
 _atom_site_fract_z
 _atom_site_occupancy
  Zr  Zr0  1  0.000000  0.500000  0.000000  1
  Zr  Zr1  1  0.499992  0.000000  0.164867  1
  Zr  Zr2  1  0.999996  0.500000  0.332616  1
  Zr  Zr3  1  0.500001  0.000000  0.500000  1
  Zr  Zr4  1  0.000004  0.500000  0.667384  1
  Zr  Zr5  1  0.500008  0.000000  0.835133  1
  In  In6  1  0.000000  0.000000  0.000000  1
  Sn  Sn7  1  0.499990  0.500000  0.166262  1
  Sn  Sn8  1  0.999998  0.000000  0.333144  1
  Sn  Sn9  1  0.500001  0.500000  0.500000  1
  Sn  Sn10  1  0.000002  0.000000  0.666856  1
  Sn  Sn11  1  0.500010  0.500000  0.833739  1
  Ru  Ru12  1  0.500000  0.251891  0.000000  1
  Ru  Ru13  1  0.500000  0.748108  0.000000  1
  Ru  Ru14  1  0.999985  0.251047  0.167942  1
  Ru  Ru15  1  0.999985  0.748954  0.167942  1
  Ru  Ru16  1  0.499999  0.250314  0.333718  1
  Ru  Ru17  1  0.499999  0.749687  0.333718  1
  Ru  Ru18  1  0.000000  0.249620  0.500000  1
  Ru  Ru19  1  0.000000  0.750381  0.500000  1
  Ru  Ru20  1  0.500001  0.250314  0.666282  1
  Ru  Ru21  1  0.500001  0.749687  0.666282  1
  Ru  Ru22  1  0.000015  0.251047  0.832058  1
  Ru  Ru23  1  0.000015  0.748954  0.832058  1
