# generated using pymatgen
data_La7Dy3(InSb)4
_symmetry_space_group_name_H-M   'P 1'
_cell_length_a   9.21023838
_cell_length_b   9.09939088
_cell_length_c   8.46129700
_cell_angle_alpha   90.10714405
_cell_angle_beta   90.25522485
_cell_angle_gamma   124.83804102
_symmetry_Int_Tables_number   1
_chemical_formula_structural   La7Dy3(InSb)4
_chemical_formula_sum   'La7 Dy3 In4 Sb4'
_cell_volume   582.01083752
_cell_formula_units_Z   1
loop_
 _symmetry_equiv_pos_site_id
 _symmetry_equiv_pos_as_xyz
  1  'x, y, z'
loop_
 _atom_site_type_symbol
 _atom_site_label
 _atom_site_symmetry_multiplicity
 _atom_site_fract_x
 _atom_site_fract_y
 _atom_site_fract_z
 _atom_site_occupancy
  La  La0  1  0.034240  0.314958  0.330783  1
  La  La1  1  0.964164  0.681645  0.669427  1
  La  La2  1  0.465740  0.182958  0.830266  1
  La  La3  1  0.811662  0.530861  0.167446  1
  La  La4  1  0.537294  0.819035  0.170142  1
  La  La5  1  0.192841  0.472422  0.832470  1
  La  La6  1  0.692223  0.968543  0.665747  1
  Dy  Dy7  1  0.299471  0.030283  0.338145  1
  Dy  Dy8  1  0.003400  0.001462  0.001564  1
  Dy  Dy9  1  0.497491  0.498185  0.497637  1
  In  In10  1  0.373083  0.370877  0.130054  1
  In  In11  1  0.626143  0.624247  0.873806  1
  In  In12  1  0.129067  0.126072  0.625426  1
  In  In13  1  0.877365  0.873764  0.372728  1
  Sb  Sb14  1  0.807887  0.201550  0.994000  1
  Sb  Sb15  1  0.200339  0.805216  0.011069  1
  Sb  Sb16  1  0.685684  0.290395  0.490185  1
  Sb  Sb17  1  0.301908  0.707526  0.499107  1
