# generated using pymatgen
data_Al4V10Au
_symmetry_space_group_name_H-M   'P 1'
_cell_length_a   9.40034500
_cell_length_b   9.40034500
_cell_length_c   4.80028000
_cell_angle_alpha   90.00000000
_cell_angle_beta   90.00000000
_cell_angle_gamma   90.00000000
_symmetry_Int_Tables_number   1
_chemical_formula_structural   Al4V10Au
_chemical_formula_sum   'Al8 V20 Au2'
_cell_volume   424.18387599
_cell_formula_units_Z   2
loop_
 _symmetry_equiv_pos_site_id
 _symmetry_equiv_pos_as_xyz
  1  'x, y, z'
loop_
 _atom_site_type_symbol
 _atom_site_label
 _atom_site_symmetry_multiplicity
 _atom_site_fract_x
 _atom_site_fract_y
 _atom_site_fract_z
 _atom_site_occupancy
  Al  Al0  1  0.265233  0.936237  0.000000  1
  Al  Al1  1  0.436237  0.234767  0.500000  1
  Al  Al2  1  0.563763  0.765233  0.500000  1
  Al  Al3  1  0.734767  0.063763  0.000000  1
  Al  Al4  1  0.234767  0.436237  0.500000  1
  Al  Al5  1  0.765233  0.563763  0.500000  1
  Al  Al6  1  0.936237  0.265233  0.000000  1
  Al  Al7  1  0.063763  0.734767  0.000000  1
  V  V8  1  0.391075  0.391075  0.000000  1
  V  V9  1  0.891075  0.108925  0.500000  1
  V  V10  1  0.108925  0.891075  0.500000  1
  V  V11  1  0.608925  0.608925  0.000000  1
  V  V12  1  0.128567  0.465794  0.000000  1
  V  V13  1  0.965794  0.371433  0.500000  1
  V  V14  1  0.034206  0.628567  0.500000  1
  V  V15  1  0.871433  0.534206  0.000000  1
  V  V16  1  0.371433  0.965794  0.500000  1
  V  V17  1  0.628567  0.034206  0.500000  1
  V  V18  1  0.465794  0.128567  0.000000  1
  V  V19  1  0.534206  0.871433  0.000000  1
  V  V20  1  0.185298  0.185298  0.256431  1
  V  V21  1  0.685298  0.314702  0.756431  1
  V  V22  1  0.314702  0.685298  0.756431  1
  V  V23  1  0.814702  0.814702  0.256431  1
  V  V24  1  0.314702  0.685298  0.243569  1
  V  V25  1  0.685298  0.314702  0.243569  1
  V  V26  1  0.185298  0.185298  0.743569  1
  V  V27  1  0.814702  0.814702  0.743569  1
  Au  Au28  1  0.000000  0.000000  0.000000  1
  Au  Au29  1  0.500000  0.500000  0.500000  1
