# generated using pymatgen
data_Dy2Sc3(In2Rh)2
_symmetry_space_group_name_H-M   'P 1'
_cell_length_a   3.52216200
_cell_length_b   7.80075200
_cell_length_c   17.81315100
_cell_angle_alpha   90.00000000
_cell_angle_beta   90.00000000
_cell_angle_gamma   90.00000000
_symmetry_Int_Tables_number   1
_chemical_formula_structural   Dy2Sc3(In2Rh)2
_chemical_formula_sum   'Dy4 Sc6 In8 Rh4'
_cell_volume   489.42544879
_cell_formula_units_Z   2
loop_
 _symmetry_equiv_pos_site_id
 _symmetry_equiv_pos_as_xyz
  1  'x, y, z'
loop_
 _atom_site_type_symbol
 _atom_site_label
 _atom_site_symmetry_multiplicity
 _atom_site_fract_x
 _atom_site_fract_y
 _atom_site_fract_z
 _atom_site_occupancy
  Dy  Dy0  1  0.000000  0.746924  0.780040  1
  Dy  Dy1  1  0.000000  0.253076  0.219960  1
  Dy  Dy2  1  0.000000  0.246924  0.719960  1
  Dy  Dy3  1  0.000000  0.753076  0.280040  1
  Sc  Sc4  1  0.000000  0.000000  0.000000  1
  Sc  Sc5  1  0.000000  0.500000  0.500000  1
  Sc  Sc6  1  0.000000  0.878456  0.586151  1
  Sc  Sc7  1  0.000000  0.121544  0.413849  1
  Sc  Sc8  1  0.000000  0.378456  0.913849  1
  Sc  Sc9  1  0.000000  0.621544  0.086151  1
  In  In10  1  0.500000  0.798745  0.438061  1
  In  In11  1  0.500000  0.201255  0.561939  1
  In  In12  1  0.500000  0.298745  0.061939  1
  In  In13  1  0.500000  0.701255  0.938061  1
  In  In14  1  0.500000  0.928496  0.145658  1
  In  In15  1  0.500000  0.071504  0.854342  1
  In  In16  1  0.500000  0.428496  0.354342  1
  In  In17  1  0.500000  0.571504  0.645658  1
  Rh  Rh18  1  0.500000  0.961528  0.690797  1
  Rh  Rh19  1  0.500000  0.038472  0.309203  1
  Rh  Rh20  1  0.500000  0.461528  0.809203  1
  Rh  Rh21  1  0.500000  0.538472  0.190797  1
