# generated using pymatgen
data_NdGd4HoTa2O14
_symmetry_space_group_name_H-M   'P 1'
_cell_length_a   6.55715807
_cell_length_b   6.57475368
_cell_length_c   7.59377727
_cell_angle_alpha   89.87450323
_cell_angle_beta   90.05660975
_cell_angle_gamma   108.88995780
_symmetry_Int_Tables_number   1
_chemical_formula_structural   NdGd4HoTa2O14
_chemical_formula_sum   'Nd1 Gd4 Ho1 Ta2 O14'
_cell_volume   309.74785594
_cell_formula_units_Z   1
loop_
 _symmetry_equiv_pos_site_id
 _symmetry_equiv_pos_as_xyz
  1  'x, y, z'
loop_
 _atom_site_type_symbol
 _atom_site_label
 _atom_site_symmetry_multiplicity
 _atom_site_fract_x
 _atom_site_fract_y
 _atom_site_fract_z
 _atom_site_occupancy
  Nd  Nd0  1  0.521024  0.521861  0.498783  1
  Gd  Gd1  1  0.464644  0.462914  0.000888  1
  Gd  Gd2  1  0.998741  0.534710  0.240780  1
  Gd  Gd3  1  0.999711  0.466113  0.743706  1
  Gd  Gd4  1  0.533267  0.998749  0.758869  1
  Ho  Ho5  1  0.465764  0.999071  0.255887  1
  Ta  Ta6  1  0.001527  0.001988  0.498960  1
  Ta  Ta7  1  0.997235  0.997790  0.000915  1
  O  O8  1  0.936382  0.061651  0.749681  1
  O  O9  1  0.066876  0.936684  0.250302  1
  O  O10  1  0.360062  0.644216  0.243955  1
  O  O11  1  0.638970  0.359128  0.755844  1
  O  O12  1  0.368985  0.630648  0.755347  1
  O  O13  1  0.627143  0.362458  0.245802  1
  O  O14  1  0.326194  0.079187  0.978770  1
  O  O15  1  0.676637  0.925709  0.470269  1
  O  O16  1  0.310909  0.056242  0.537859  1
  O  O17  1  0.695900  0.954561  0.047011  1
  O  O18  1  0.058766  0.310262  0.459219  1
  O  O19  1  0.949057  0.694776  0.958200  1
  O  O20  1  0.920843  0.676355  0.524852  1
  O  O21  1  0.081362  0.324926  0.024100  1
