# generated using pymatgen
data_TbDy3GaSi3Ni4
_symmetry_space_group_name_H-M   'P 1'
_cell_length_a   4.19808400
_cell_length_b   6.89966481
_cell_length_c   7.18858203
_cell_angle_alpha   90.11138275
_cell_angle_beta   90.00000000
_cell_angle_gamma   90.00000000
_symmetry_Int_Tables_number   1
_chemical_formula_structural   TbDy3GaSi3Ni4
_chemical_formula_sum   'Tb1 Dy3 Ga1 Si3 Ni4'
_cell_volume   208.21956245
_cell_formula_units_Z   1
loop_
 _symmetry_equiv_pos_site_id
 _symmetry_equiv_pos_as_xyz
  1  'x, y, z'
loop_
 _atom_site_type_symbol
 _atom_site_label
 _atom_site_symmetry_multiplicity
 _atom_site_fract_x
 _atom_site_fract_y
 _atom_site_fract_z
 _atom_site_occupancy
  Tb  Tb0  1  0.750000  0.011230  0.697671  1
  Dy  Dy1  1  0.250000  0.485104  0.203354  1
  Dy  Dy2  1  0.750000  0.508993  0.797016  1
  Dy  Dy3  1  0.250000  0.990309  0.302591  1
  Ga  Ga4  1  0.250000  0.807806  0.913854  1
  Si  Si5  1  0.750000  0.183605  0.084564  1
  Si  Si6  1  0.750000  0.687811  0.411283  1
  Si  Si7  1  0.250000  0.310227  0.588085  1
  Ni  Ni8  1  0.250000  0.681148  0.573467  1
  Ni  Ni9  1  0.750000  0.311491  0.416324  1
  Ni  Ni10  1  0.750000  0.816554  0.095554  1
  Ni  Ni11  1  0.250000  0.205723  0.916239  1
