# generated using pymatgen
data_Lu12Fe2Bi2Mo
_symmetry_space_group_name_H-M   'P 1'
_cell_length_a   8.29862330
_cell_length_b   8.29862424
_cell_length_c   8.29862268
_cell_angle_alpha   108.58253668
_cell_angle_beta   108.58252790
_cell_angle_gamma   111.26360368
_symmetry_Int_Tables_number   1
_chemical_formula_structural   Lu12Fe2Bi2Mo
_chemical_formula_sum   'Lu12 Fe2 Bi2 Mo1'
_cell_volume   439.61882256
_cell_formula_units_Z   1
loop_
 _symmetry_equiv_pos_site_id
 _symmetry_equiv_pos_as_xyz
  1  'x, y, z'
loop_
 _atom_site_type_symbol
 _atom_site_label
 _atom_site_symmetry_multiplicity
 _atom_site_fract_x
 _atom_site_fract_y
 _atom_site_fract_z
 _atom_site_occupancy
  Lu  Lu0  1  0.308528  0.308528  0.617055  1
  Lu  Lu1  1  0.691472  0.691472  0.382945  1
  Lu  Lu2  1  0.691472  0.308528  0.000000  1
  Lu  Lu3  1  0.308528  0.691472  0.000000  1
  Lu  Lu4  1  0.196952  0.430399  0.233446  1
  Lu  Lu5  1  0.803048  0.569601  0.766554  1
  Lu  Lu6  1  0.196952  0.963505  0.766554  1
  Lu  Lu7  1  0.963505  0.196952  0.766554  1
  Lu  Lu8  1  0.803048  0.036495  0.233446  1
  Lu  Lu9  1  0.036495  0.803048  0.233446  1
  Lu  Lu10  1  0.430399  0.196952  0.233446  1
  Lu  Lu11  1  0.569601  0.803048  0.766554  1
  Fe  Fe12  1  0.383175  0.383175  0.000000  1
  Fe  Fe13  1  0.616825  0.616825  0.000000  1
  Bi  Bi14  1  0.000000  0.500000  0.500000  1
  Bi  Bi15  1  0.500000  0.000000  0.500000  1
  Mo  Mo16  1  0.000000  0.000000  0.000000  1
