# generated using pymatgen
data_Eu4BiSb5Rh7
_symmetry_space_group_name_H-M   'P 1'
_cell_length_a   7.74842441
_cell_length_b   7.74842650
_cell_length_c   7.74842519
_cell_angle_alpha   108.84910787
_cell_angle_beta   109.78317081
_cell_angle_gamma   109.78316696
_symmetry_Int_Tables_number   1
_chemical_formula_structural   Eu4BiSb5Rh7
_chemical_formula_sum   'Eu4 Bi1 Sb5 Rh7'
_cell_volume   358.08005243
_cell_formula_units_Z   1
loop_
 _symmetry_equiv_pos_site_id
 _symmetry_equiv_pos_as_xyz
  1  'x, y, z'
loop_
 _atom_site_type_symbol
 _atom_site_label
 _atom_site_symmetry_multiplicity
 _atom_site_fract_x
 _atom_site_fract_y
 _atom_site_fract_z
 _atom_site_occupancy
  Eu  Eu0  1  0.493023  0.999312  0.999312  1
  Eu  Eu1  1  0.000000  0.506289  0.999312  1
  Eu  Eu2  1  0.000000  0.999312  0.506289  1
  Eu  Eu3  1  0.506977  0.506289  0.506289  1
  Bi  Bi4  1  0.000000  0.312870  0.312870  1
  Sb  Sb5  1  0.679700  0.002237  0.681938  1
  Sb  Sb6  1  0.679700  0.681938  0.002237  1
  Sb  Sb7  1  0.000000  0.671600  0.671600  1
  Sb  Sb8  1  0.320300  0.002237  0.322537  1
  Sb  Sb9  1  0.320300  0.322537  0.002237  1
  Rh  Rh10  1  0.000000  0.980103  0.980103  1
  Rh  Rh11  1  0.500000  0.752440  0.252440  1
  Rh  Rh12  1  0.746605  0.502598  0.249203  1
  Rh  Rh13  1  0.253395  0.755993  0.502598  1
  Rh  Rh14  1  0.253395  0.502598  0.755993  1
  Rh  Rh15  1  0.500000  0.252440  0.752440  1
  Rh  Rh16  1  0.746605  0.249203  0.502598  1
