# generated using pymatgen
data_Ca6Al6Si5Ge
_symmetry_space_group_name_H-M   'P 1'
_cell_length_a   4.20830800
_cell_length_b   4.20830658
_cell_length_c   26.33122200
_cell_angle_alpha   90.00000000
_cell_angle_beta   90.00000000
_cell_angle_gamma   120.00001113
_symmetry_Int_Tables_number   1
_chemical_formula_structural   Ca6Al6Si5Ge
_chemical_formula_sum   'Ca6 Al6 Si5 Ge1'
_cell_volume   403.84665210
_cell_formula_units_Z   1
loop_
 _symmetry_equiv_pos_site_id
 _symmetry_equiv_pos_as_xyz
  1  'x, y, z'
loop_
 _atom_site_type_symbol
 _atom_site_label
 _atom_site_symmetry_multiplicity
 _atom_site_fract_x
 _atom_site_fract_y
 _atom_site_fract_z
 _atom_site_occupancy
  Ca  Ca0  1  0.000000  0.000000  0.331414  1
  Ca  Ca1  1  0.000000  0.000000  0.831673  1
  Ca  Ca2  1  0.000000  0.000000  0.168272  1
  Ca  Ca3  1  0.000000  0.000000  0.000395  1
  Ca  Ca4  1  0.000000  0.000000  0.668780  1
  Ca  Ca5  1  0.000000  0.000000  0.499310  1
  Al  Al6  1  0.333333  0.666667  0.405902  1
  Al  Al7  1  0.333333  0.666667  0.252603  1
  Al  Al8  1  0.333333  0.666667  0.090945  1
  Al  Al9  1  0.666667  0.333333  0.910477  1
  Al  Al10  1  0.666667  0.333333  0.742483  1
  Al  Al11  1  0.666667  0.333333  0.597665  1
  Si  Si12  1  0.333333  0.666667  0.922120  1
  Si  Si13  1  0.333333  0.666667  0.755691  1
  Si  Si14  1  0.666667  0.333333  0.247927  1
  Si  Si15  1  0.666667  0.333333  0.078765  1
  Si  Si16  1  0.666667  0.333333  0.421085  1
  Ge  Ge17  1  0.333333  0.666667  0.574492  1
