# generated using pymatgen
data_Pr6Dy10Cd4IrPt3
_symmetry_space_group_name_H-M   'P 1'
_cell_length_a   9.83091563
_cell_length_b   9.81021681
_cell_length_c   9.81021700
_cell_angle_alpha   59.99999599
_cell_angle_beta   60.06962038
_cell_angle_gamma   60.06962008
_symmetry_Int_Tables_number   1
_chemical_formula_structural   Pr6Dy10Cd4IrPt3
_chemical_formula_sum   'Pr6 Dy10 Cd4 Ir1 Pt3'
_cell_volume   669.71864366
_cell_formula_units_Z   1
loop_
 _symmetry_equiv_pos_site_id
 _symmetry_equiv_pos_as_xyz
  1  'x, y, z'
loop_
 _atom_site_type_symbol
 _atom_site_label
 _atom_site_symmetry_multiplicity
 _atom_site_fract_x
 _atom_site_fract_y
 _atom_site_fract_z
 _atom_site_occupancy
  Pr  Pr0  1  0.938177  0.562081  0.562081  1
  Pr  Pr1  1  0.562969  0.938486  0.938486  1
  Pr  Pr2  1  0.562969  0.938486  0.560060  1
  Pr  Pr3  1  0.938177  0.562081  0.937660  1
  Pr  Pr4  1  0.562969  0.560060  0.938486  1
  Pr  Pr5  1  0.938177  0.937660  0.562081  1
  Dy  Dy6  1  0.351150  0.346927  0.346927  1
  Dy  Dy7  1  0.351150  0.346927  0.954996  1
  Dy  Dy8  1  0.351150  0.954996  0.346927  1
  Dy  Dy9  1  0.950716  0.349761  0.349761  1
  Dy  Dy10  1  0.809221  0.187253  0.187253  1
  Dy  Dy11  1  0.188101  0.812090  0.812090  1
  Dy  Dy12  1  0.188101  0.812090  0.187719  1
  Dy  Dy13  1  0.809221  0.187253  0.816273  1
  Dy  Dy14  1  0.188101  0.187719  0.812090  1
  Dy  Dy15  1  0.809221  0.816273  0.187253  1
  Cd  Cd16  1  0.579556  0.579397  0.579397  1
  Cd  Cd17  1  0.579556  0.579397  0.261648  1
  Cd  Cd18  1  0.579556  0.261648  0.579397  1
  Cd  Cd19  1  0.262004  0.579331  0.579331  1
  Ir  Ir20  1  0.574463  0.141846  0.141846  1
  Pt  Pt21  1  0.141765  0.142206  0.142206  1
  Pt  Pt22  1  0.141765  0.142206  0.573823  1
  Pt  Pt23  1  0.141765  0.573823  0.142206  1
