# generated using pymatgen
data_SrPrEr2(Si5Pt3)2
_symmetry_space_group_name_H-M   'P 1'
_cell_length_a   8.23344993
_cell_length_b   8.24194801
_cell_length_c   8.24194626
_cell_angle_alpha   136.75960038
_cell_angle_beta   104.54952065
_cell_angle_gamma   91.17909714
_symmetry_Int_Tables_number   1
_chemical_formula_structural   SrPrEr2(Si5Pt3)2
_chemical_formula_sum   'Sr1 Pr1 Er2 Si10 Pt6'
_cell_volume   352.95215161
_cell_formula_units_Z   1
loop_
 _symmetry_equiv_pos_site_id
 _symmetry_equiv_pos_as_xyz
  1  'x, y, z'
loop_
 _atom_site_type_symbol
 _atom_site_label
 _atom_site_symmetry_multiplicity
 _atom_site_fract_x
 _atom_site_fract_y
 _atom_site_fract_z
 _atom_site_occupancy
  Sr  Sr0  1  0.862956  0.628160  0.234796  1
  Pr  Pr1  1  0.604960  0.872314  0.732647  1
  Er  Er2  1  0.140212  0.371703  0.768508  1
  Er  Er3  1  0.396657  0.127962  0.268694  1
  Si  Si4  1  0.498435  0.748091  0.247600  1
  Si  Si5  1  0.498435  0.250836  0.750345  1
  Si  Si6  1  0.228794  0.980907  0.749459  1
  Si  Si7  1  0.770244  0.522088  0.750566  1
  Si  Si8  1  0.770244  0.019680  0.248158  1
  Si  Si9  1  0.228794  0.479336  0.247888  1
  Si  Si10  1  0.041039  0.890435  0.150603  1
  Si  Si11  1  0.964539  0.114991  0.849549  1
  Si  Si12  1  0.734855  0.383798  0.351057  1
  Si  Si13  1  0.259612  0.609740  0.649872  1
  Pt  Pt14  1  0.002923  0.750295  0.753198  1
  Pt  Pt15  1  0.002923  0.249726  0.252628  1
  Pt  Pt16  1  0.251794  0.865848  0.385947  1
  Pt  Pt17  1  0.749702  0.138887  0.610815  1
  Pt  Pt18  1  0.473717  0.360872  0.112844  1
  Pt  Pt19  1  0.519159  0.634333  0.884828  1
