# generated using pymatgen
data_LiEr6Ag5C2
_symmetry_space_group_name_H-M   'P 1'
_cell_length_a   9.21473610
_cell_length_b   9.24382122
_cell_length_c   9.26060900
_cell_angle_alpha   120.26855292
_cell_angle_beta   89.63782069
_cell_angle_gamma   120.10548912
_symmetry_Int_Tables_number   1
_chemical_formula_structural   LiEr6Ag5C2
_chemical_formula_sum   'Li2 Er12 Ag10 C4'
_cell_volume   556.37323721
_cell_formula_units_Z   2
loop_
 _symmetry_equiv_pos_site_id
 _symmetry_equiv_pos_as_xyz
  1  'x, y, z'
loop_
 _atom_site_type_symbol
 _atom_site_label
 _atom_site_symmetry_multiplicity
 _atom_site_fract_x
 _atom_site_fract_y
 _atom_site_fract_z
 _atom_site_occupancy
  Li  Li0  1  0.000035  0.999974  0.000171  1
  Li  Li1  1  0.499885  0.999922  0.999937  1
  Er  Er2  1  0.935337  0.370698  0.185348  1
  Er  Er3  1  0.932575  0.747829  0.183685  1
  Er  Er4  1  0.314529  0.748378  0.184604  1
  Er  Er5  1  0.684817  0.252079  0.435831  1
  Er  Er6  1  0.684042  0.868073  0.434033  1
  Er  Er7  1  0.066256  0.251591  0.436183  1
  Er  Er8  1  0.316010  0.132012  0.566007  1
  Er  Er9  1  0.315261  0.747827  0.564140  1
  Er  Er10  1  0.933864  0.748398  0.563795  1
  Er  Er11  1  0.685335  0.251587  0.815404  1
  Er  Er12  1  0.064571  0.629132  0.814563  1
  Er  Er13  1  0.067256  0.252069  0.816249  1
  Ag  Ag14  1  0.499953  0.500379  0.000030  1
  Ag  Ag15  1  0.709868  0.921152  0.119651  1
  Ag  Ag16  1  0.288777  0.078882  0.198537  1
  Ag  Ag17  1  0.284262  0.403268  0.201976  1
  Ag  Ag18  1  0.618996  0.403310  0.201349  1
  Ag  Ag19  1  0.500276  0.500045  0.500008  1
  Ag  Ag20  1  0.380756  0.596695  0.798819  1
  Ag  Ag21  1  0.715983  0.596766  0.797922  1
  Ag  Ag22  1  0.711281  0.921165  0.801503  1
  Ag  Ag23  1  0.290137  0.078913  0.880348  1
  C  C24  1  0.999929  0.499996  0.000049  1
  C  C25  1  0.000037  0.999930  0.499947  1
  C  C26  1  0.499905  0.999923  0.499980  1
  C  C27  1  0.000075  0.500019  0.499936  1
