# generated using pymatgen
data_Sm6V2Fe(Co5P4)3
_symmetry_space_group_name_H-M   'P 1'
_cell_length_a   3.73375800
_cell_length_b   10.65196100
_cell_length_c   12.31665800
_cell_angle_alpha   90.00000000
_cell_angle_beta   90.00000000
_cell_angle_gamma   90.00000000
_symmetry_Int_Tables_number   1
_chemical_formula_structural   Sm6V2Fe(Co5P4)3
_chemical_formula_sum   'Sm6 V2 Fe1 Co15 P12'
_cell_volume   489.85620796
_cell_formula_units_Z   1
loop_
 _symmetry_equiv_pos_site_id
 _symmetry_equiv_pos_as_xyz
  1  'x, y, z'
loop_
 _atom_site_type_symbol
 _atom_site_label
 _atom_site_symmetry_multiplicity
 _atom_site_fract_x
 _atom_site_fract_y
 _atom_site_fract_z
 _atom_site_occupancy
  Sm  Sm0  1  0.000000  0.500000  0.523038  1
  Sm  Sm1  1  0.500000  0.000000  0.477139  1
  Sm  Sm2  1  0.500000  0.818108  0.204178  1
  Sm  Sm3  1  0.500000  0.181892  0.204178  1
  Sm  Sm4  1  0.000000  0.680644  0.796139  1
  Sm  Sm5  1  0.000000  0.319356  0.796139  1
  V  V6  1  0.500000  0.500000  0.151537  1
  V  V7  1  0.000000  0.000000  0.847502  1
  Fe  Fe8  1  0.000000  0.500000  0.988304  1
  Co  Co9  1  0.500000  0.500000  0.701336  1
  Co  Co10  1  0.000000  0.000000  0.297907  1
  Co  Co11  1  0.500000  0.000000  0.012322  1
  Co  Co12  1  0.500000  0.330584  0.994322  1
  Co  Co13  1  0.500000  0.669416  0.994322  1
  Co  Co14  1  0.000000  0.166326  0.006032  1
  Co  Co15  1  0.000000  0.833674  0.006032  1
  Co  Co16  1  0.500000  0.295750  0.431099  1
  Co  Co17  1  0.500000  0.704250  0.431099  1
  Co  Co18  1  0.000000  0.204204  0.569287  1
  Co  Co19  1  0.000000  0.795796  0.569287  1
  Co  Co20  1  0.500000  0.880431  0.708189  1
  Co  Co21  1  0.500000  0.119569  0.708189  1
  Co  Co22  1  0.000000  0.620026  0.291735  1
  Co  Co23  1  0.000000  0.379974  0.291735  1
  P  P24  1  0.500000  0.500000  0.886431  1
  P  P25  1  0.000000  0.000000  0.115610  1
  P  P26  1  0.500000  0.500000  0.343710  1
  P  P27  1  0.000000  0.000000  0.656018  1
  P  P28  1  0.500000  0.308162  0.615215  1
  P  P29  1  0.500000  0.691838  0.615215  1
  P  P30  1  0.000000  0.191836  0.384982  1
  P  P31  1  0.000000  0.808164  0.384982  1
  P  P32  1  0.500000  0.846987  0.893416  1
  P  P33  1  0.500000  0.153013  0.893416  1
  P  P34  1  0.000000  0.652431  0.104978  1
  P  P35  1  0.000000  0.347569  0.104978  1
