# generated using pymatgen
data_La7Pa3Rh8
_symmetry_space_group_name_H-M   'P 1'
_cell_length_a   7.60650285
_cell_length_b   7.66958263
_cell_length_c   14.65301700
_cell_angle_alpha   90.20384854
_cell_angle_beta   89.66392171
_cell_angle_gamma   89.94974710
_symmetry_Int_Tables_number   1
_chemical_formula_structural   La7Pa3Rh8
_chemical_formula_sum   'La14 Pa6 Rh16'
_cell_volume   854.81753438
_cell_formula_units_Z   2
loop_
 _symmetry_equiv_pos_site_id
 _symmetry_equiv_pos_as_xyz
  1  'x, y, z'
loop_
 _atom_site_type_symbol
 _atom_site_label
 _atom_site_symmetry_multiplicity
 _atom_site_fract_x
 _atom_site_fract_y
 _atom_site_fract_z
 _atom_site_occupancy
  La  La0  1  0.668155  0.156462  0.621925  1
  La  La1  1  0.167082  0.341560  0.622092  1
  La  La2  1  0.513082  0.679208  0.590010  1
  La  La3  1  0.008378  0.824555  0.907695  1
  La  La4  1  0.493542  0.324735  0.093649  1
  La  La5  1  0.989907  0.178776  0.406547  1
  La  La6  1  0.489184  0.320668  0.406686  1
  La  La7  1  0.993118  0.177436  0.093641  1
  La  La8  1  0.508444  0.676725  0.908075  1
  La  La9  1  0.013247  0.818159  0.589058  1
  La  La10  1  0.812818  0.519470  0.750152  1
  La  La11  1  0.312006  0.979763  0.749614  1
  La  La12  1  0.190583  0.476442  0.247782  1
  La  La13  1  0.690986  0.024328  0.247911  1
  Pa  Pa14  1  0.157089  0.346114  0.883483  1
  Pa  Pa15  1  0.341935  0.846875  0.119148  1
  Pa  Pa16  1  0.837087  0.656357  0.373040  1
  Pa  Pa17  1  0.338444  0.841941  0.373247  1
  Pa  Pa18  1  0.842945  0.655640  0.118839  1
  Pa  Pa19  1  0.655892  0.154421  0.883282  1
  Rh  Rh20  1  0.680509  0.932062  0.450925  1
  Rh  Rh21  1  0.180162  0.552095  0.038330  1
  Rh  Rh22  1  0.321032  0.049030  0.967104  1
  Rh  Rh23  1  0.813157  0.474901  0.525322  1
  Rh  Rh24  1  0.314196  0.023199  0.524285  1
  Rh  Rh25  1  0.821792  0.453425  0.967760  1
  Rh  Rh26  1  0.679253  0.950778  0.038098  1
  Rh  Rh27  1  0.178999  0.564877  0.450873  1
  Rh  Rh28  1  0.457181  0.353426  0.772371  1
  Rh  Rh29  1  0.956687  0.145754  0.772737  1
  Rh  Rh30  1  0.538625  0.653731  0.243310  1
  Rh  Rh31  1  0.039186  0.847509  0.242347  1
  Rh  Rh32  1  0.694190  0.883065  0.762007  1
  Rh  Rh33  1  0.195030  0.615593  0.761715  1
  Rh  Rh34  1  0.303405  0.104185  0.248224  1
  Rh  Rh35  1  0.802669  0.396734  0.248714  1
