# generated using pymatgen
data_Ce2Mn3Al20Ni
_symmetry_space_group_name_H-M   'P 1'
_cell_length_a   6.81647011
_cell_length_b   6.82294398
_cell_length_c   9.03820633
_cell_angle_alpha   89.78490503
_cell_angle_beta   89.62055392
_cell_angle_gamma   97.56683122
_symmetry_Int_Tables_number   1
_chemical_formula_structural   Ce2Mn3Al20Ni
_chemical_formula_sum   'Ce2 Mn3 Al20 Ni1'
_cell_volume   416.67832754
_cell_formula_units_Z   1
loop_
 _symmetry_equiv_pos_site_id
 _symmetry_equiv_pos_as_xyz
  1  'x, y, z'
loop_
 _atom_site_type_symbol
 _atom_site_label
 _atom_site_symmetry_multiplicity
 _atom_site_fract_x
 _atom_site_fract_y
 _atom_site_fract_z
 _atom_site_occupancy
  Ce  Ce0  1  0.880083  0.129704  0.751473  1
  Ce  Ce1  1  0.119917  0.870296  0.248527  1
  Mn  Mn2  1  0.500000  0.000000  0.000000  1
  Mn  Mn3  1  0.000000  0.500000  0.000000  1
  Mn  Mn4  1  0.000000  0.500000  0.500000  1
  Al  Al5  1  0.588597  0.865209  0.248881  1
  Al  Al6  1  0.778943  0.519611  0.251006  1
  Al  Al7  1  0.161191  0.840464  0.901892  1
  Al  Al8  1  0.411403  0.134791  0.751119  1
  Al  Al9  1  0.624957  0.375418  0.952071  1
  Al  Al10  1  0.841800  0.160966  0.400252  1
  Al  Al11  1  0.772651  0.772063  0.000348  1
  Al  Al12  1  0.867707  0.588966  0.750318  1
  Al  Al13  1  0.838809  0.159536  0.098108  1
  Al  Al14  1  0.221057  0.480389  0.748994  1
  Al  Al15  1  0.158200  0.839034  0.599748  1
  Al  Al16  1  0.774053  0.769418  0.498340  1
  Al  Al17  1  0.477546  0.221183  0.245972  1
  Al  Al18  1  0.626192  0.379292  0.550328  1
  Al  Al19  1  0.225947  0.230582  0.501660  1
  Al  Al20  1  0.373808  0.620708  0.449672  1
  Al  Al21  1  0.132293  0.411034  0.249682  1
  Al  Al22  1  0.522454  0.778817  0.754028  1
  Al  Al23  1  0.375043  0.624582  0.047929  1
  Al  Al24  1  0.227349  0.227937  0.999652  1
  Ni  Ni25  1  0.500000  0.000000  0.500000  1
