# generated using pymatgen
data_DyHo3UP12Ru19
_symmetry_space_group_name_H-M   'P 1'
_cell_length_a   12.56600482
_cell_length_b   12.51782087
_cell_length_c   3.95830900
_cell_angle_alpha   90.00000000
_cell_angle_beta   90.00000000
_cell_angle_gamma   119.86624624
_symmetry_Int_Tables_number   1
_chemical_formula_structural   DyHo3UP12Ru19
_chemical_formula_sum   'Dy1 Ho3 U1 P12 Ru19'
_cell_volume   539.94564395
_cell_formula_units_Z   1
loop_
 _symmetry_equiv_pos_site_id
 _symmetry_equiv_pos_as_xyz
  1  'x, y, z'
loop_
 _atom_site_type_symbol
 _atom_site_label
 _atom_site_symmetry_multiplicity
 _atom_site_fract_x
 _atom_site_fract_y
 _atom_site_fract_z
 _atom_site_occupancy
  Dy  Dy0  1  0.669052  0.333534  0.000000  1
  Ho  Ho1  1  0.811891  0.811186  0.500000  1
  Ho  Ho2  1  0.188132  0.999396  0.500000  1
  Ho  Ho3  1  0.330945  0.664439  0.000000  1
  U  U4  1  0.999935  0.177688  0.500000  1
  P  P5  1  0.000151  0.818200  0.000000  1
  P  P6  1  0.188567  0.181918  0.000000  1
  P  P7  1  0.811256  0.992975  0.000000  1
  P  P8  1  0.693425  0.171483  0.500000  1
  P  P9  1  0.828700  0.523186  0.500000  1
  P  P10  1  0.479678  0.308815  0.500000  1
  P  P11  1  0.171777  0.694621  0.500000  1
  P  P12  1  0.520032  0.828749  0.500000  1
  P  P13  1  0.306450  0.478368  0.500000  1
  P  P14  1  0.999902  0.373936  0.000000  1
  P  P15  1  0.625930  0.626681  0.000000  1
  P  P16  1  0.374088  0.000843  0.000000  1
  Ru  Ru17  1  0.999968  0.555709  0.000000  1
  Ru  Ru18  1  0.441738  0.446204  0.000000  1
  Ru  Ru19  1  0.558298  0.004563  0.000000  1
  Ru  Ru20  1  0.000201  0.719165  0.500000  1
  Ru  Ru21  1  0.281779  0.283079  0.500000  1
  Ru  Ru22  1  0.718053  0.000907  0.500000  1
  Ru  Ru23  1  0.815369  0.183280  0.000000  1
  Ru  Ru24  1  0.815411  0.623201  0.000000  1
  Ru  Ru25  1  0.379522  0.194406  0.000000  1
  Ru  Ru26  1  0.184905  0.807716  0.000000  1
  Ru  Ru27  1  0.620108  0.814577  0.000000  1
  Ru  Ru28  1  0.184629  0.368256  0.000000  1
  Ru  Ru29  1  0.873990  0.364721  0.500000  1
  Ru  Ru30  1  0.633600  0.510506  0.500000  1
  Ru  Ru31  1  0.493763  0.128580  0.500000  1
  Ru  Ru32  1  0.366542  0.876676  0.500000  1
  Ru  Ru33  1  0.505853  0.634672  0.500000  1
  Ru  Ru34  1  0.126360  0.491264  0.500000  1
  Ru  Ru35  1  0.000002  0.006498  0.000000  1
