# generated using pymatgen
data_Tb16CdHg3PtRh3
_symmetry_space_group_name_H-M   'P 1'
_cell_length_a   9.65070097
_cell_length_b   9.65069944
_cell_length_c   9.66414653
_cell_angle_alpha   60.01908795
_cell_angle_beta   60.01909287
_cell_angle_gamma   60.00273089
_symmetry_Int_Tables_number   1
_chemical_formula_structural   Tb16CdHg3PtRh3
_chemical_formula_sum   'Tb16 Cd1 Hg3 Pt1 Rh3'
_cell_volume   636.64946898
_cell_formula_units_Z   1
loop_
 _symmetry_equiv_pos_site_id
 _symmetry_equiv_pos_as_xyz
  1  'x, y, z'
loop_
 _atom_site_type_symbol
 _atom_site_label
 _atom_site_symmetry_multiplicity
 _atom_site_fract_x
 _atom_site_fract_y
 _atom_site_fract_z
 _atom_site_occupancy
  Tb  Tb0  1  0.303962  0.896976  0.900215  1
  Tb  Tb1  1  0.685132  0.312842  0.687023  1
  Tb  Tb2  1  0.313342  0.686348  0.314014  1
  Tb  Tb3  1  0.061311  0.442460  0.436525  1
  Tb  Tb4  1  0.686348  0.313342  0.314014  1
  Tb  Tb5  1  0.442460  0.061311  0.436525  1
  Tb  Tb6  1  0.440055  0.060448  0.060031  1
  Tb  Tb7  1  0.897356  0.897356  0.900377  1
  Tb  Tb8  1  0.060448  0.440055  0.060031  1
  Tb  Tb9  1  0.896976  0.303962  0.900215  1
  Tb  Tb10  1  0.312842  0.685132  0.687023  1
  Tb  Tb11  1  0.899299  0.899299  0.300878  1
  Tb  Tb12  1  0.438497  0.438497  0.062440  1
  Tb  Tb13  1  0.313436  0.313436  0.687754  1
  Tb  Tb14  1  0.685573  0.685573  0.313597  1
  Tb  Tb15  1  0.059538  0.059538  0.437553  1
  Cd  Cd16  1  0.670692  0.670692  0.670487  1
  Hg  Hg17  1  0.005925  0.664304  0.663989  1
  Hg  Hg18  1  0.664304  0.005925  0.663989  1
  Hg  Hg19  1  0.663848  0.663848  0.006685  1
  Pt  Pt20  1  0.106519  0.106519  0.678520  1
  Rh  Rh21  1  0.106617  0.678157  0.106015  1
  Rh  Rh22  1  0.107362  0.107362  0.106084  1
  Rh  Rh23  1  0.678157  0.106617  0.106015  1
