# generated using pymatgen
data_AgGeF5
_symmetry_space_group_name_H-M   'P 1'
_cell_length_a   5.43863942
_cell_length_b   10.90720131
_cell_length_c   7.70914386
_cell_angle_alpha   90.18976940
_cell_angle_beta   106.56784394
_cell_angle_gamma   89.80292148
_symmetry_Int_Tables_number   1
_chemical_formula_structural   AgGeF5
_chemical_formula_sum   'Ag4 Ge4 F20'
_cell_volume   438.31889955
_cell_formula_units_Z   4
loop_
 _symmetry_equiv_pos_site_id
 _symmetry_equiv_pos_as_xyz
  1  'x, y, z'
loop_
 _atom_site_type_symbol
 _atom_site_label
 _atom_site_symmetry_multiplicity
 _atom_site_fract_x
 _atom_site_fract_y
 _atom_site_fract_z
 _atom_site_occupancy
  Ag  Ag0  1  0.500019  0.000001  0.000006  1
  Ag  Ag1  1  0.500007  0.500003  0.999996  1
  Ag  Ag2  1  0.499966  0.000008  0.499981  1
  Ag  Ag3  1  0.499998  0.500002  0.499997  1
  Ge  Ge4  1  0.099544  0.248681  0.181053  1
  Ge  Ge5  1  0.903385  0.747263  0.321192  1
  Ge  Ge6  1  0.096607  0.252735  0.678808  1
  Ge  Ge7  1  0.900466  0.751320  0.818949  1
  F  F8  1  0.928833  0.763464  0.076175  1
  F  F9  1  0.854117  0.362223  0.136258  1
  F  F10  1  0.622479  0.650976  0.245403  1
  F  F11  1  0.354773  0.135411  0.224523  1
  F  F12  1  0.693924  0.880923  0.279576  1
  F  F13  1  0.340285  0.368168  0.210923  1
  F  F14  1  0.101635  0.612799  0.357682  1
  F  F15  1  0.873865  0.127647  0.162501  1
  F  F16  1  0.147788  0.263786  0.440098  1
  F  F17  1  0.176490  0.842893  0.404511  1
  F  F18  1  0.823506  0.157104  0.595493  1
  F  F19  1  0.852215  0.736209  0.559903  1
  F  F20  1  0.126187  0.872335  0.837519  1
  F  F21  1  0.898356  0.387199  0.642314  1
  F  F22  1  0.659689  0.631845  0.789067  1
  F  F23  1  0.306078  0.119078  0.720429  1
  F  F24  1  0.645270  0.864608  0.775477  1
  F  F25  1  0.377510  0.349025  0.754600  1
  F  F26  1  0.145857  0.637762  0.863743  1
  F  F27  1  0.071158  0.236532  0.923825  1
