# generated using pymatgen
data_Tm16Cd4NiIr3
_symmetry_space_group_name_H-M   'P 1'
_cell_length_a   9.47068016
_cell_length_b   9.47067907
_cell_length_c   9.47068010
_cell_angle_alpha   60.12966328
_cell_angle_beta   60.12966576
_cell_angle_gamma   60.12965815
_symmetry_Int_Tables_number   1
_chemical_formula_structural   Tm16Cd4NiIr3
_chemical_formula_sum   'Tm16 Cd4 Ni1 Ir3'
_cell_volume   602.42400366
_cell_formula_units_Z   1
loop_
 _symmetry_equiv_pos_site_id
 _symmetry_equiv_pos_as_xyz
  1  'x, y, z'
loop_
 _atom_site_type_symbol
 _atom_site_label
 _atom_site_symmetry_multiplicity
 _atom_site_fract_x
 _atom_site_fract_y
 _atom_site_fract_z
 _atom_site_occupancy
  Tm  Tm0  1  0.599360  0.599360  0.599360  1
  Tm  Tm1  1  0.598088  0.598088  0.202953  1
  Tm  Tm2  1  0.598088  0.202953  0.598088  1
  Tm  Tm3  1  0.202953  0.598088  0.598088  1
  Tm  Tm4  1  0.061439  0.440085  0.440085  1
  Tm  Tm5  1  0.439006  0.059775  0.059775  1
  Tm  Tm6  1  0.440085  0.061439  0.440085  1
  Tm  Tm7  1  0.059775  0.439006  0.059775  1
  Tm  Tm8  1  0.440085  0.440085  0.061439  1
  Tm  Tm9  1  0.059775  0.059775  0.439006  1
  Tm  Tm10  1  0.188688  0.811930  0.811930  1
  Tm  Tm11  1  0.813927  0.187022  0.187022  1
  Tm  Tm12  1  0.811930  0.188688  0.811930  1
  Tm  Tm13  1  0.187022  0.813927  0.187022  1
  Tm  Tm14  1  0.811930  0.811930  0.188688  1
  Tm  Tm15  1  0.187022  0.187022  0.813927  1
  Cd  Cd16  1  0.830289  0.830289  0.830289  1
  Cd  Cd17  1  0.831931  0.831931  0.505294  1
  Cd  Cd18  1  0.831931  0.505294  0.831931  1
  Cd  Cd19  1  0.505294  0.831931  0.831931  1
  Ni  Ni20  1  0.391995  0.391995  0.391995  1
  Ir  Ir21  1  0.392139  0.392139  0.825107  1
  Ir  Ir22  1  0.392139  0.825107  0.392139  1
  Ir  Ir23  1  0.825107  0.392139  0.392139  1
