# generated using pymatgen
data_Nb8CrGeSe16
_symmetry_space_group_name_H-M   'P 1'
_cell_length_a   6.99737300
_cell_length_b   6.99737481
_cell_length_c   13.51713900
_cell_angle_alpha   90.00000000
_cell_angle_beta   90.00000000
_cell_angle_gamma   120.00000563
_symmetry_Int_Tables_number   1
_chemical_formula_structural   Nb8CrGeSe16
_chemical_formula_sum   'Nb8 Cr1 Ge1 Se16'
_cell_volume   573.17276856
_cell_formula_units_Z   1
loop_
 _symmetry_equiv_pos_site_id
 _symmetry_equiv_pos_as_xyz
  1  'x, y, z'
loop_
 _atom_site_type_symbol
 _atom_site_label
 _atom_site_symmetry_multiplicity
 _atom_site_fract_x
 _atom_site_fract_y
 _atom_site_fract_z
 _atom_site_occupancy
  Nb  Nb0  1  0.000000  0.000000  0.265430  1
  Nb  Nb1  1  0.000000  0.000000  0.734570  1
  Nb  Nb2  1  0.506954  0.013906  0.266435  1
  Nb  Nb3  1  0.493046  0.986094  0.733565  1
  Nb  Nb4  1  0.986094  0.493046  0.266435  1
  Nb  Nb5  1  0.013906  0.506954  0.733565  1
  Nb  Nb6  1  0.506954  0.493046  0.266435  1
  Nb  Nb7  1  0.493046  0.506954  0.733565  1
  Cr  Cr8  1  0.000000  0.000000  0.500000  1
  Ge  Ge9  1  0.000000  0.000000  0.000000  1
  Se  Se10  1  0.333333  0.666667  0.606030  1
  Se  Se11  1  0.666667  0.333333  0.393970  1
  Se  Se12  1  0.666667  0.333333  0.138148  1
  Se  Se13  1  0.333333  0.666667  0.861852  1
  Se  Se14  1  0.168474  0.336948  0.142203  1
  Se  Se15  1  0.831526  0.663052  0.857797  1
  Se  Se16  1  0.663052  0.831526  0.142203  1
  Se  Se17  1  0.832858  0.665716  0.611997  1
  Se  Se18  1  0.336948  0.168474  0.857797  1
  Se  Se19  1  0.167142  0.334284  0.388003  1
  Se  Se20  1  0.168474  0.831526  0.142203  1
  Se  Se21  1  0.334284  0.167142  0.611997  1
  Se  Se22  1  0.831526  0.168474  0.857797  1
  Se  Se23  1  0.665716  0.832858  0.388003  1
  Se  Se24  1  0.832858  0.167142  0.611997  1
  Se  Se25  1  0.167142  0.832858  0.388003  1
