# generated using pymatgen
data_Tb5Tl2InS
_symmetry_space_group_name_H-M   'P 1'
_cell_length_a   9.04191200
_cell_length_b   9.01996300
_cell_length_c   6.57874500
_cell_angle_alpha   90.00000000
_cell_angle_beta   90.00000000
_cell_angle_gamma   119.91972756
_symmetry_Int_Tables_number   1
_chemical_formula_structural   Tb5Tl2InS
_chemical_formula_sum   'Tb10 Tl4 In2 S2'
_cell_volume   465.03906869
_cell_formula_units_Z   2
loop_
 _symmetry_equiv_pos_site_id
 _symmetry_equiv_pos_as_xyz
  1  'x, y, z'
loop_
 _atom_site_type_symbol
 _atom_site_label
 _atom_site_symmetry_multiplicity
 _atom_site_fract_x
 _atom_site_fract_y
 _atom_site_fract_z
 _atom_site_occupancy
  Tb  Tb0  1  0.665004  0.332519  0.499360  1
  Tb  Tb1  1  0.334996  0.667516  0.499360  1
  Tb  Tb2  1  0.334996  0.667516  0.000640  1
  Tb  Tb3  1  0.665004  0.332519  0.000640  1
  Tb  Tb4  1  0.755655  0.756729  0.250000  1
  Tb  Tb5  1  0.244345  0.001074  0.250000  1
  Tb  Tb6  1  0.000000  0.242299  0.250000  1
  Tb  Tb7  1  0.242922  0.243151  0.750000  1
  Tb  Tb8  1  0.757078  0.000229  0.750000  1
  Tb  Tb9  1  0.000000  0.756488  0.750000  1
  Tl  Tl10  1  0.000000  0.600296  0.250000  1
  Tl  Tl11  1  0.600275  0.599576  0.750000  1
  Tl  Tl12  1  0.399725  0.999301  0.750000  1
  Tl  Tl13  1  0.000000  0.401218  0.750000  1
  In  In14  1  0.397754  0.399371  0.250000  1
  In  In15  1  0.602246  0.001617  0.250000  1
  S  S16  1  0.000000  0.999289  0.499851  1
  S  S17  1  0.000000  0.999289  0.000149  1
