# generated using pymatgen
data_Lu8Sc12Si7Sb9
_symmetry_space_group_name_H-M   'P 1'
_cell_length_a   7.48288870
_cell_length_b   7.50317197
_cell_length_c   14.45760800
_cell_angle_alpha   90.00000000
_cell_angle_beta   90.00000000
_cell_angle_gamma   89.15560405
_symmetry_Int_Tables_number   1
_chemical_formula_structural   Lu8Sc12Si7Sb9
_chemical_formula_sum   'Lu8 Sc12 Si7 Sb9'
_cell_volume   811.64004491
_cell_formula_units_Z   1
loop_
 _symmetry_equiv_pos_site_id
 _symmetry_equiv_pos_as_xyz
  1  'x, y, z'
loop_
 _atom_site_type_symbol
 _atom_site_label
 _atom_site_symmetry_multiplicity
 _atom_site_fract_x
 _atom_site_fract_y
 _atom_site_fract_z
 _atom_site_occupancy
  Lu  Lu0  1  0.043094  0.691077  0.610923  1
  Lu  Lu1  1  0.958087  0.319536  0.385982  1
  Lu  Lu2  1  0.456128  0.175831  0.385093  1
  Lu  Lu3  1  0.958087  0.319536  0.114018  1
  Lu  Lu4  1  0.541040  0.823189  0.610346  1
  Lu  Lu5  1  0.043094  0.691077  0.889077  1
  Lu  Lu6  1  0.541040  0.823189  0.889654  1
  Lu  Lu7  1  0.456128  0.175831  0.114907  1
  Sc  Sc8  1  0.211209  0.993241  0.750000  1
  Sc  Sc9  1  0.789097  0.999241  0.250000  1
  Sc  Sc10  1  0.287441  0.496910  0.250000  1
  Sc  Sc11  1  0.702826  0.507283  0.750000  1
  Sc  Sc12  1  0.395760  0.337058  0.630136  1
  Sc  Sc13  1  0.615810  0.661176  0.366454  1
  Sc  Sc14  1  0.118989  0.835705  0.367070  1
  Sc  Sc15  1  0.615810  0.661176  0.133546  1
  Sc  Sc16  1  0.867867  0.151881  0.627894  1
  Sc  Sc17  1  0.395760  0.337058  0.869864  1
  Sc  Sc18  1  0.867867  0.151881  0.872106  1
  Sc  Sc19  1  0.118989  0.835705  0.132930  1
  Si  Si20  1  0.917375  0.620437  0.250000  1
  Si  Si21  1  0.416144  0.877453  0.250000  1
  Si  Si22  1  0.581438  0.119301  0.750000  1
  Si  Si23  1  0.355029  0.646169  0.750000  1
  Si  Si24  1  0.657577  0.363248  0.250000  1
  Si  Si25  1  0.157665  0.131801  0.250000  1
  Si  Si26  1  0.840461  0.866731  0.750000  1
  Sb  Sb27  1  0.078971  0.375312  0.750000  1
  Sb  Sb28  1  0.217826  0.039141  0.540750  1
  Sb  Sb29  1  0.779337  0.963961  0.455908  1
  Sb  Sb30  1  0.280498  0.531294  0.458772  1
  Sb  Sb31  1  0.779337  0.963961  0.044092  1
  Sb  Sb32  1  0.727947  0.471590  0.541322  1
  Sb  Sb33  1  0.217826  0.039141  0.959250  1
  Sb  Sb34  1  0.727947  0.471590  0.958678  1
  Sb  Sb35  1  0.280498  0.531294  0.041228  1
