# generated using pymatgen
data_TbYb3(Sn2Pd3)4
_symmetry_space_group_name_H-M   'P 1'
_cell_length_a   4.60278000
_cell_length_b   9.79534129
_cell_length_c   10.45700600
_cell_angle_alpha   90.13769824
_cell_angle_beta   90.00000000
_cell_angle_gamma   90.00000000
_symmetry_Int_Tables_number   1
_chemical_formula_structural   TbYb3(Sn2Pd3)4
_chemical_formula_sum   'Tb1 Yb3 Sn8 Pd12'
_cell_volume   471.46112976
_cell_formula_units_Z   1
loop_
 _symmetry_equiv_pos_site_id
 _symmetry_equiv_pos_as_xyz
  1  'x, y, z'
loop_
 _atom_site_type_symbol
 _atom_site_label
 _atom_site_symmetry_multiplicity
 _atom_site_fract_x
 _atom_site_fract_y
 _atom_site_fract_z
 _atom_site_occupancy
  Tb  Tb0  1  0.250000  0.440484  0.730385  1
  Yb  Yb1  1  0.250000  0.059611  0.229186  1
  Yb  Yb2  1  0.750000  0.560014  0.272048  1
  Yb  Yb3  1  0.750000  0.941392  0.770392  1
  Sn  Sn4  1  0.250000  0.882043  0.515211  1
  Sn  Sn5  1  0.250000  0.617310  0.015919  1
  Sn  Sn6  1  0.750000  0.118560  0.482646  1
  Sn  Sn7  1  0.750000  0.382642  0.984276  1
  Sn  Sn8  1  0.250000  0.151222  0.886119  1
  Sn  Sn9  1  0.250000  0.345434  0.386498  1
  Sn  Sn10  1  0.750000  0.847531  0.114845  1
  Sn  Sn11  1  0.750000  0.656463  0.611415  1
  Pd  Pd12  1  0.250000  0.141337  0.618237  1
  Pd  Pd13  1  0.250000  0.352972  0.114027  1
  Pd  Pd14  1  0.750000  0.856414  0.382846  1
  Pd  Pd15  1  0.750000  0.642018  0.881300  1
  Pd  Pd16  1  0.250000  0.740525  0.742541  1
  Pd  Pd17  1  0.250000  0.758892  0.241893  1
  Pd  Pd18  1  0.750000  0.262329  0.257292  1
  Pd  Pd19  1  0.750000  0.243469  0.757609  1
  Pd  Pd20  1  0.250000  0.896802  0.980202  1
  Pd  Pd21  1  0.250000  0.601034  0.478639  1
  Pd  Pd22  1  0.750000  0.103231  0.021397  1
  Pd  Pd23  1  0.750000  0.398273  0.525080  1
