# generated using pymatgen
data_Dy3Mn4Ni5As6
_symmetry_space_group_name_H-M   'P 1'
_cell_length_a   3.90578200
_cell_length_b   10.80688700
_cell_length_c   13.08600900
_cell_angle_alpha   90.00000000
_cell_angle_beta   90.00000000
_cell_angle_gamma   90.00000000
_symmetry_Int_Tables_number   1
_chemical_formula_structural   Dy3Mn4Ni5As6
_chemical_formula_sum   'Dy6 Mn8 Ni10 As12'
_cell_volume   552.35186490
_cell_formula_units_Z   2
loop_
 _symmetry_equiv_pos_site_id
 _symmetry_equiv_pos_as_xyz
  1  'x, y, z'
loop_
 _atom_site_type_symbol
 _atom_site_label
 _atom_site_symmetry_multiplicity
 _atom_site_fract_x
 _atom_site_fract_y
 _atom_site_fract_z
 _atom_site_occupancy
  Dy  Dy0  1  0.000000  0.500000  0.521255  1
  Dy  Dy1  1  0.500000  0.000000  0.478745  1
  Dy  Dy2  1  0.500000  0.817706  0.215630  1
  Dy  Dy3  1  0.500000  0.182294  0.215630  1
  Dy  Dy4  1  0.000000  0.682294  0.784370  1
  Dy  Dy5  1  0.000000  0.317706  0.784370  1
  Mn  Mn6  1  0.500000  0.500000  0.159289  1
  Mn  Mn7  1  0.000000  0.000000  0.840711  1
  Mn  Mn8  1  0.000000  0.500000  0.984777  1
  Mn  Mn9  1  0.500000  0.000000  0.015223  1
  Mn  Mn10  1  0.500000  0.336083  0.998558  1
  Mn  Mn11  1  0.500000  0.663917  0.998558  1
  Mn  Mn12  1  0.000000  0.163917  0.001442  1
  Mn  Mn13  1  0.000000  0.836083  0.001442  1
  Ni  Ni14  1  0.500000  0.500000  0.697315  1
  Ni  Ni15  1  0.000000  0.000000  0.302685  1
  Ni  Ni16  1  0.500000  0.301812  0.428301  1
  Ni  Ni17  1  0.500000  0.698188  0.428301  1
  Ni  Ni18  1  0.000000  0.198188  0.571699  1
  Ni  Ni19  1  0.000000  0.801812  0.571699  1
  Ni  Ni20  1  0.500000  0.879901  0.706013  1
  Ni  Ni21  1  0.500000  0.120099  0.706013  1
  Ni  Ni22  1  0.000000  0.620099  0.293987  1
  Ni  Ni23  1  0.000000  0.379901  0.293987  1
  As  As24  1  0.500000  0.500000  0.871898  1
  As  As25  1  0.000000  0.000000  0.128102  1
  As  As26  1  0.500000  0.500000  0.351008  1
  As  As27  1  0.000000  0.000000  0.648992  1
  As  As28  1  0.500000  0.313784  0.611131  1
  As  As29  1  0.500000  0.686216  0.611131  1
  As  As30  1  0.000000  0.186216  0.388869  1
  As  As31  1  0.000000  0.813784  0.388869  1
  As  As32  1  0.500000  0.842113  0.885706  1
  As  As33  1  0.500000  0.157887  0.885706  1
  As  As34  1  0.000000  0.657887  0.114294  1
  As  As35  1  0.000000  0.342113  0.114294  1
