# generated using pymatgen
data_DyEr3(GaNi)4
_symmetry_space_group_name_H-M   'P 1'
_cell_length_a   4.26119200
_cell_length_b   6.79807610
_cell_length_c   7.33298799
_cell_angle_alpha   89.12079597
_cell_angle_beta   90.00000000
_cell_angle_gamma   90.00000000
_symmetry_Int_Tables_number   1
_chemical_formula_structural   DyEr3(GaNi)4
_chemical_formula_sum   'Dy1 Er3 Ga4 Ni4'
_cell_volume   212.39630901
_cell_formula_units_Z   1
loop_
 _symmetry_equiv_pos_site_id
 _symmetry_equiv_pos_as_xyz
  1  'x, y, z'
loop_
 _atom_site_type_symbol
 _atom_site_label
 _atom_site_symmetry_multiplicity
 _atom_site_fract_x
 _atom_site_fract_y
 _atom_site_fract_z
 _atom_site_occupancy
  Dy  Dy0  1  0.250000  0.980576  0.306945  1
  Er  Er1  1  0.250000  0.481224  0.193795  1
  Er  Er2  1  0.750000  0.019346  0.695061  1
  Er  Er3  1  0.750000  0.519195  0.805725  1
  Ga  Ga4  1  0.250000  0.326739  0.574137  1
  Ga  Ga5  1  0.250000  0.825515  0.925674  1
  Ga  Ga6  1  0.750000  0.673078  0.426786  1
  Ga  Ga7  1  0.750000  0.175283  0.072874  1
  Ni  Ni8  1  0.250000  0.212939  0.898862  1
  Ni  Ni9  1  0.250000  0.712703  0.601671  1
  Ni  Ni10  1  0.750000  0.786407  0.099522  1
  Ni  Ni11  1  0.750000  0.286994  0.398949  1
