# generated using pymatgen
data_Er2Tm3Ru2
_symmetry_space_group_name_H-M   'P 1'
_cell_length_a   6.25133420
_cell_length_b   7.24292771
_cell_length_c   8.35477013
_cell_angle_alpha   96.82075115
_cell_angle_beta   111.96979010
_cell_angle_gamma   90.00000276
_symmetry_Int_Tables_number   1
_chemical_formula_structural   Er2Tm3Ru2
_chemical_formula_sum   'Er4 Tm6 Ru4'
_cell_volume   347.92760492
_cell_formula_units_Z   2
loop_
 _symmetry_equiv_pos_site_id
 _symmetry_equiv_pos_as_xyz
  1  'x, y, z'
loop_
 _atom_site_type_symbol
 _atom_site_label
 _atom_site_symmetry_multiplicity
 _atom_site_fract_x
 _atom_site_fract_y
 _atom_site_fract_z
 _atom_site_occupancy
  Er  Er0  1  0.790828  0.083966  0.813291  1
  Er  Er1  1  0.977537  0.416034  0.186709  1
  Er  Er2  1  0.209172  0.916034  0.186709  1
  Er  Er3  1  0.022463  0.583966  0.813291  1
  Tm  Tm4  1  0.205723  0.184370  0.565271  1
  Tm  Tm5  1  0.640451  0.315630  0.434729  1
  Tm  Tm6  1  0.794277  0.815630  0.434729  1
  Tm  Tm7  1  0.359549  0.684370  0.565271  1
  Tm  Tm8  1  0.418683  0.250000  0.000000  1
  Tm  Tm9  1  0.581317  0.750000  0.000000  1
  Ru  Ru10  1  0.602244  0.423701  0.779879  1
  Ru  Ru11  1  0.822364  0.076299  0.220121  1
  Ru  Ru12  1  0.397756  0.576299  0.220121  1
  Ru  Ru13  1  0.177636  0.923701  0.779879  1
