# generated using pymatgen
data_V10Si6HN
_symmetry_space_group_name_H-M   'P 1'
_cell_length_a   7.13982400
_cell_length_b   7.13982403
_cell_length_c   4.81883400
_cell_angle_alpha   90.00000000
_cell_angle_beta   90.00000000
_cell_angle_gamma   119.99999985
_symmetry_Int_Tables_number   1
_chemical_formula_structural   V10Si6HN
_chemical_formula_sum   'V10 Si6 H1 N1'
_cell_volume   212.73924466
_cell_formula_units_Z   1
loop_
 _symmetry_equiv_pos_site_id
 _symmetry_equiv_pos_as_xyz
  1  'x, y, z'
loop_
 _atom_site_type_symbol
 _atom_site_label
 _atom_site_symmetry_multiplicity
 _atom_site_fract_x
 _atom_site_fract_y
 _atom_site_fract_z
 _atom_site_occupancy
  V  V0  1  0.236284  0.000000  0.756370  1
  V  V1  1  0.763716  0.000000  0.243630  1
  V  V2  1  0.000000  0.236284  0.756370  1
  V  V3  1  0.000000  0.763716  0.243630  1
  V  V4  1  0.763716  0.763716  0.756370  1
  V  V5  1  0.236284  0.236284  0.243630  1
  V  V6  1  0.333333  0.666667  0.500000  1
  V  V7  1  0.666667  0.333333  0.500000  1
  V  V8  1  0.666667  0.333333  0.000000  1
  V  V9  1  0.333333  0.666667  0.000000  1
  Si  Si10  1  0.596167  0.000000  0.744964  1
  Si  Si11  1  0.403833  0.000000  0.255036  1
  Si  Si12  1  0.000000  0.596167  0.744964  1
  Si  Si13  1  0.000000  0.403833  0.255036  1
  Si  Si14  1  0.403833  0.403833  0.744964  1
  Si  Si15  1  0.596167  0.596167  0.255036  1
  H  H16  1  0.000000  0.000000  0.500000  1
  N  N17  1  0.000000  0.000000  0.000000  1
