# generated using pymatgen
data_Tb3Hf(Co5P3)4
_symmetry_space_group_name_H-M   'P 1'
_cell_length_a   3.63761100
_cell_length_b   10.23926414
_cell_length_c   11.69373758
_cell_angle_alpha   89.91027911
_cell_angle_beta   90.00000000
_cell_angle_gamma   90.00000000
_symmetry_Int_Tables_number   1
_chemical_formula_structural   Tb3Hf(Co5P3)4
_chemical_formula_sum   'Tb3 Hf1 Co20 P12'
_cell_volume   435.54979356
_cell_formula_units_Z   1
loop_
 _symmetry_equiv_pos_site_id
 _symmetry_equiv_pos_as_xyz
  1  'x, y, z'
loop_
 _atom_site_type_symbol
 _atom_site_label
 _atom_site_symmetry_multiplicity
 _atom_site_fract_x
 _atom_site_fract_y
 _atom_site_fract_z
 _atom_site_occupancy
  Tb  Tb0  1  0.250000  0.916788  0.202689  1
  Tb  Tb1  1  0.750000  0.417516  0.297406  1
  Tb  Tb2  1  0.750000  0.083140  0.797029  1
  Hf  Hf3  1  0.250000  0.581738  0.701042  1
  Co  Co4  1  0.250000  0.716403  0.991959  1
  Co  Co5  1  0.250000  0.782304  0.492488  1
  Co  Co6  1  0.750000  0.284141  0.007239  1
  Co  Co7  1  0.750000  0.217654  0.510522  1
  Co  Co8  1  0.250000  0.410205  0.491189  1
  Co  Co9  1  0.250000  0.093332  0.988475  1
  Co  Co10  1  0.750000  0.593811  0.518168  1
  Co  Co11  1  0.750000  0.906429  0.010848  1
  Co  Co12  1  0.250000  0.221992  0.176681  1
  Co  Co13  1  0.250000  0.279959  0.677546  1
  Co  Co14  1  0.750000  0.774652  0.821663  1
  Co  Co15  1  0.750000  0.719982  0.324448  1
  Co  Co16  1  0.250000  0.878967  0.699096  1
  Co  Co17  1  0.250000  0.616961  0.197838  1
  Co  Co18  1  0.750000  0.117605  0.302044  1
  Co  Co19  1  0.750000  0.387732  0.798343  1
  Co  Co20  1  0.250000  0.470615  0.927233  1
  Co  Co21  1  0.250000  0.031662  0.432497  1
  Co  Co22  1  0.750000  0.532536  0.065046  1
  Co  Co23  1  0.750000  0.965003  0.569150  1
  P  P24  1  0.250000  0.418744  0.109670  1
  P  P25  1  0.250000  0.081097  0.612381  1
  P  P26  1  0.750000  0.581215  0.883288  1
  P  P27  1  0.750000  0.917994  0.388544  1
  P  P28  1  0.250000  0.271366  0.870861  1
  P  P29  1  0.250000  0.229443  0.371504  1
  P  P30  1  0.750000  0.728452  0.129542  1
  P  P31  1  0.750000  0.766561  0.632237  1
  P  P32  1  0.250000  0.602262  0.391032  1
  P  P33  1  0.250000  0.897767  0.891353  1
  P  P34  1  0.750000  0.401369  0.610287  1
  P  P35  1  0.750000  0.102606  0.108663  1
