# generated using pymatgen
data_Gd6DyVO12
_symmetry_space_group_name_H-M   'P 1'
_cell_length_a   6.71996093
_cell_length_b   6.71996221
_cell_length_c   6.71996009
_cell_angle_alpha   93.47434756
_cell_angle_beta   93.47434573
_cell_angle_gamma   93.47434864
_symmetry_Int_Tables_number   1
_chemical_formula_structural   Gd6DyVO12
_chemical_formula_sum   'Gd6 Dy1 V1 O12'
_cell_volume   301.71491522
_cell_formula_units_Z   1
loop_
 _symmetry_equiv_pos_site_id
 _symmetry_equiv_pos_as_xyz
  1  'x, y, z'
loop_
 _atom_site_type_symbol
 _atom_site_label
 _atom_site_symmetry_multiplicity
 _atom_site_fract_x
 _atom_site_fract_y
 _atom_site_fract_z
 _atom_site_occupancy
  Gd  Gd0  1  0.738567  0.923753  0.435791  1
  Gd  Gd1  1  0.435791  0.738567  0.923753  1
  Gd  Gd2  1  0.076247  0.564209  0.261433  1
  Gd  Gd3  1  0.923753  0.435791  0.738567  1
  Gd  Gd4  1  0.564209  0.261433  0.076247  1
  Gd  Gd5  1  0.261433  0.076247  0.564209  1
  Dy  Dy6  1  0.000000  0.000000  0.000000  1
  V  V7  1  0.500000  0.500000  0.500000  1
  O  O8  1  0.066385  0.908463  0.316719  1
  O  O9  1  0.683281  0.933615  0.091537  1
  O  O10  1  0.460924  0.797129  0.587190  1
  O  O11  1  0.091537  0.683281  0.933615  1
  O  O12  1  0.797129  0.587190  0.460924  1
  O  O13  1  0.412810  0.539076  0.202871  1
  O  O14  1  0.587190  0.460924  0.797129  1
  O  O15  1  0.202871  0.412810  0.539076  1
  O  O16  1  0.908463  0.316719  0.066385  1
  O  O17  1  0.539076  0.202871  0.412810  1
  O  O18  1  0.316719  0.066385  0.908463  1
  O  O19  1  0.933615  0.091537  0.683281  1
