# generated using pymatgen
data_Ho5Lu3(ReB6)4
_symmetry_space_group_name_H-M   'P 1'
_cell_length_a   3.64835700
_cell_length_b   9.11303900
_cell_length_c   11.49223701
_cell_angle_alpha   90.00359297
_cell_angle_beta   90.00000000
_cell_angle_gamma   90.00000000
_symmetry_Int_Tables_number   1
_chemical_formula_structural   Ho5Lu3(ReB6)4
_chemical_formula_sum   'Ho5 Lu3 Re4 B24'
_cell_volume   382.08952406
_cell_formula_units_Z   1
loop_
 _symmetry_equiv_pos_site_id
 _symmetry_equiv_pos_as_xyz
  1  'x, y, z'
loop_
 _atom_site_type_symbol
 _atom_site_label
 _atom_site_symmetry_multiplicity
 _atom_site_fract_x
 _atom_site_fract_y
 _atom_site_fract_z
 _atom_site_occupancy
  Ho  Ho0  1  0.000000  0.323377  0.413869  1
  Ho  Ho1  1  0.000000  0.676502  0.586426  1
  Ho  Ho2  1  0.000000  0.823127  0.085897  1
  Ho  Ho3  1  0.000000  0.176861  0.913662  1
  Ho  Ho4  1  0.000000  0.943836  0.370749  1
  Lu  Lu5  1  0.000000  0.056506  0.630470  1
  Lu  Lu6  1  0.000000  0.443710  0.129369  1
  Lu  Lu7  1  0.000000  0.556386  0.870308  1
  Re  Re8  1  0.000000  0.638364  0.320041  1
  Re  Re9  1  0.000000  0.360557  0.680035  1
  Re  Re10  1  0.000000  0.140385  0.178958  1
  Re  Re11  1  0.000000  0.860254  0.820506  1
  B  B12  1  0.500000  0.552844  0.432890  1
  B  B13  1  0.500000  0.446270  0.567321  1
  B  B14  1  0.500000  0.053892  0.066662  1
  B  B15  1  0.500000  0.946349  0.932790  1
  B  B16  1  0.500000  0.749305  0.418805  1
  B  B17  1  0.500000  0.249309  0.581536  1
  B  B18  1  0.500000  0.251317  0.080855  1
  B  B19  1  0.500000  0.748979  0.918787  1
  B  B20  1  0.500000  0.792249  0.264981  1
  B  B21  1  0.500000  0.206727  0.734782  1
  B  B22  1  0.500000  0.293955  0.234200  1
  B  B23  1  0.500000  0.706530  0.765543  1
  B  B24  1  0.500000  0.629970  0.184440  1
  B  B25  1  0.500000  0.369687  0.815289  1
  B  B26  1  0.500000  0.131710  0.314550  1
  B  B27  1  0.500000  0.869473  0.685136  1
  B  B28  1  0.500000  0.982564  0.211708  1
  B  B29  1  0.500000  0.018050  0.787557  1
  B  B30  1  0.500000  0.481533  0.287156  1
  B  B31  1  0.500000  0.518180  0.712658  1
  B  B32  1  0.500000  0.598129  0.027166  1
  B  B33  1  0.500000  0.401915  0.972506  1
  B  B34  1  0.500000  0.100043  0.473585  1
  B  B35  1  0.500000  0.901155  0.528810  1
