# generated using pymatgen
data_Ac2La2Cu8As7
_symmetry_space_group_name_H-M   'P 1'
_cell_length_a   4.12671400
_cell_length_b   13.30816305
_cell_length_c   13.49962400
_cell_angle_alpha   81.99585809
_cell_angle_beta   90.00000000
_cell_angle_gamma   90.00000000
_symmetry_Int_Tables_number   1
_chemical_formula_structural   Ac2La2Cu8As7
_chemical_formula_sum   'Ac4 La4 Cu16 As14'
_cell_volume   734.16304335
_cell_formula_units_Z   2
loop_
 _symmetry_equiv_pos_site_id
 _symmetry_equiv_pos_as_xyz
  1  'x, y, z'
loop_
 _atom_site_type_symbol
 _atom_site_label
 _atom_site_symmetry_multiplicity
 _atom_site_fract_x
 _atom_site_fract_y
 _atom_site_fract_z
 _atom_site_occupancy
  Ac  Ac0  1  0.250000  0.112433  0.800931  1
  Ac  Ac1  1  0.750000  0.887567  0.199069  1
  Ac  Ac2  1  0.250000  0.276279  0.102105  1
  Ac  Ac3  1  0.750000  0.723721  0.897895  1
  La  La4  1  0.250000  0.521917  0.292422  1
  La  La5  1  0.750000  0.478083  0.707578  1
  La  La6  1  0.250000  0.208145  0.450609  1
  La  La7  1  0.750000  0.791855  0.549391  1
  Cu  Cu8  1  0.250000  0.980590  0.574808  1
  Cu  Cu9  1  0.750000  0.019410  0.425192  1
  Cu  Cu10  1  0.250000  0.659981  0.721961  1
  Cu  Cu11  1  0.750000  0.340019  0.278039  1
  Cu  Cu12  1  0.250000  0.552620  0.048840  1
  Cu  Cu13  1  0.750000  0.447380  0.951160  1
  Cu  Cu14  1  0.250000  0.065488  0.272447  1
  Cu  Cu15  1  0.750000  0.934512  0.727553  1
  Cu  Cu16  1  0.250000  0.439001  0.523871  1
  Cu  Cu17  1  0.750000  0.560999  0.476129  1
  Cu  Cu18  1  0.250000  0.903981  0.990533  1
  Cu  Cu19  1  0.750000  0.096019  0.009467  1
  Cu  Cu20  1  0.250000  0.736654  0.388730  1
  Cu  Cu21  1  0.750000  0.263346  0.611270  1
  Cu  Cu22  1  0.250000  0.349224  0.855179  1
  Cu  Cu23  1  0.750000  0.650776  0.144821  1
  As  As24  1  0.250000  0.044380  0.094189  1
  As  As25  1  0.750000  0.955620  0.905811  1
  As  As26  1  0.250000  0.320093  0.675475  1
  As  As27  1  0.750000  0.679907  0.324525  1
  As  As28  1  0.250000  0.615903  0.558233  1
  As  As29  1  0.750000  0.384097  0.441767  1
  As  As30  1  0.250000  0.837186  0.718296  1
  As  As31  1  0.750000  0.162814  0.281704  1
  As  As32  1  0.750000  0.264522  0.917053  1
  As  As33  1  0.250000  0.735478  0.082947  1
  As  As34  1  0.750000  0.081852  0.597434  1
  As  As35  1  0.250000  0.918148  0.402566  1
  As  As36  1  0.750000  0.464218  0.131584  1
  As  As37  1  0.250000  0.535782  0.868416  1
