# generated using pymatgen
data_Tb8Sc12Ga5Si10Ag
_symmetry_space_group_name_H-M   'P 1'
_cell_length_a   7.22234066
_cell_length_b   7.37764456
_cell_length_c   14.34999826
_cell_angle_alpha   90.01325494
_cell_angle_beta   89.33729715
_cell_angle_gamma   90.44630991
_symmetry_Int_Tables_number   1
_chemical_formula_structural   Tb8Sc12Ga5Si10Ag
_chemical_formula_sum   'Tb8 Sc12 Ga5 Si10 Ag1'
_cell_volume   764.54898180
_cell_formula_units_Z   1
loop_
 _symmetry_equiv_pos_site_id
 _symmetry_equiv_pos_as_xyz
  1  'x, y, z'
loop_
 _atom_site_type_symbol
 _atom_site_label
 _atom_site_symmetry_multiplicity
 _atom_site_fract_x
 _atom_site_fract_y
 _atom_site_fract_z
 _atom_site_occupancy
  Tb  Tb0  1  0.013118  0.172951  0.098270  1
  Tb  Tb1  1  0.987305  0.828613  0.901416  1
  Tb  Tb2  1  0.487889  0.677112  0.901605  1
  Tb  Tb3  1  0.990012  0.824186  0.601806  1
  Tb  Tb4  1  0.512882  0.322940  0.098596  1
  Tb  Tb5  1  0.007855  0.174006  0.396986  1
  Tb  Tb6  1  0.510448  0.322828  0.396354  1
  Tb  Tb7  1  0.496043  0.674099  0.603953  1
  Sc  Sc8  1  0.163902  0.500591  0.753860  1
  Sc  Sc9  1  0.835270  0.500655  0.250011  1
  Sc  Sc10  1  0.335270  0.000128  0.248016  1
  Sc  Sc11  1  0.664615  0.999582  0.752290  1
  Sc  Sc12  1  0.338626  0.171172  0.629580  1
  Sc  Sc13  1  0.664830  0.826989  0.372005  1
  Sc  Sc14  1  0.163647  0.672252  0.369457  1
  Sc  Sc15  1  0.667003  0.825405  0.125269  1
  Sc  Sc16  1  0.830654  0.328132  0.627056  1
  Sc  Sc17  1  0.332969  0.174385  0.874587  1
  Sc  Sc18  1  0.826217  0.324623  0.875747  1
  Sc  Sc19  1  0.173273  0.675139  0.124480  1
  Ga  Ga20  1  0.831648  0.539708  0.458956  1
  Ga  Ga21  1  0.335375  0.961250  0.462530  1
  Ga  Ga22  1  0.842106  0.540342  0.039779  1
  Ga  Ga23  1  0.662808  0.037448  0.539435  1
  Ga  Ga24  1  0.158001  0.460708  0.960547  1
  Si  Si25  1  0.033414  0.119513  0.750488  1
  Si  Si26  1  0.966303  0.882183  0.247799  1
  Si  Si27  1  0.464825  0.615770  0.247670  1
  Si  Si28  1  0.534786  0.384154  0.752627  1
  Si  Si29  1  0.286335  0.873112  0.752382  1
  Si  Si30  1  0.714162  0.126123  0.247411  1
  Si  Si31  1  0.213546  0.372900  0.247627  1
  Si  Si32  1  0.788978  0.626755  0.752779  1
  Si  Si33  1  0.653375  0.036581  0.962112  1
  Si  Si34  1  0.347234  0.963711  0.038123  1
  Ag  Ag35  1  0.165276  0.463956  0.538390  1
