# generated using pymatgen
data_HoTm3Al3ZnPt4
_symmetry_space_group_name_H-M   'P 1'
_cell_length_a   4.40381100
_cell_length_b   6.76361040
_cell_length_c   7.78288726
_cell_angle_alpha   89.61487707
_cell_angle_beta   90.00000000
_cell_angle_gamma   90.00000000
_symmetry_Int_Tables_number   1
_chemical_formula_structural   HoTm3Al3ZnPt4
_chemical_formula_sum   'Ho1 Tm3 Al3 Zn1 Pt4'
_cell_volume   231.81321140
_cell_formula_units_Z   1
loop_
 _symmetry_equiv_pos_site_id
 _symmetry_equiv_pos_as_xyz
  1  'x, y, z'
loop_
 _atom_site_type_symbol
 _atom_site_label
 _atom_site_symmetry_multiplicity
 _atom_site_fract_x
 _atom_site_fract_y
 _atom_site_fract_z
 _atom_site_occupancy
  Ho  Ho0  1  0.750000  0.972364  0.317287  1
  Tm  Tm1  1  0.250000  0.028311  0.686050  1
  Tm  Tm2  1  0.250000  0.526412  0.818237  1
  Tm  Tm3  1  0.750000  0.467983  0.178080  1
  Al  Al4  1  0.250000  0.648783  0.438473  1
  Al  Al5  1  0.750000  0.853835  0.937153  1
  Al  Al6  1  0.750000  0.356852  0.559779  1
  Zn  Zn7  1  0.250000  0.150269  0.066042  1
  Pt  Pt8  1  0.250000  0.273129  0.390763  1
  Pt  Pt9  1  0.250000  0.759594  0.115452  1
  Pt  Pt10  1  0.750000  0.730684  0.618676  1
  Pt  Pt11  1  0.750000  0.231784  0.874007  1
