# generated using pymatgen
data_DyHo9(Co2Rh)2
_symmetry_space_group_name_H-M   'P 1'
_cell_length_a   7.08120449
_cell_length_b   7.08118267
_cell_length_c   8.71384000
_cell_angle_alpha   113.97310507
_cell_angle_beta   113.97339200
_cell_angle_gamma   90.00089780
_symmetry_Int_Tables_number   1
_chemical_formula_structural   DyHo9(Co2Rh)2
_chemical_formula_sum   'Dy1 Ho9 Co4 Rh2'
_cell_volume   357.60310107
_cell_formula_units_Z   1
loop_
 _symmetry_equiv_pos_site_id
 _symmetry_equiv_pos_as_xyz
  1  'x, y, z'
loop_
 _atom_site_type_symbol
 _atom_site_label
 _atom_site_symmetry_multiplicity
 _atom_site_fract_x
 _atom_site_fract_y
 _atom_site_fract_z
 _atom_site_occupancy
  Dy  Dy0  1  0.463970  0.318615  0.282585  1
  Ho  Ho1  1  0.999971  0.999969  0.999988  1
  Ho  Ho2  1  0.500020  0.500018  0.999988  1
  Ho  Ho3  1  0.963953  0.463973  0.282561  1
  Ho  Ho4  1  0.318588  0.818608  0.282561  1
  Ho  Ho5  1  0.818625  0.963928  0.282553  1
  Ho  Ho6  1  0.181387  0.036038  0.717423  1
  Ho  Ho7  1  0.681394  0.181399  0.717449  1
  Ho  Ho8  1  0.036051  0.536053  0.717448  1
  Ho  Ho9  1  0.536056  0.681403  0.717461  1
  Co  Co10  1  0.612453  0.112431  0.999983  1
  Co  Co11  1  0.112425  0.387571  0.999996  1
  Co  Co12  1  0.887552  0.612444  0.999996  1
  Co  Co13  1  0.387552  0.887529  0.999982  1
  Rh  Rh14  1  0.249984  0.249993  0.500012  1
  Rh  Rh15  1  0.750018  0.750026  0.500011  1
