# generated using pymatgen
data_PrSmMg4(PaRh2)2
_symmetry_space_group_name_H-M   'P 1'
_cell_length_a   3.89219600
_cell_length_b   7.41791068
_cell_length_c   9.02168973
_cell_angle_alpha   88.11348903
_cell_angle_beta   90.00000000
_cell_angle_gamma   90.00000000
_symmetry_Int_Tables_number   1
_chemical_formula_structural   PrSmMg4(PaRh2)2
_chemical_formula_sum   'Pr1 Sm1 Mg4 Pa2 Rh4'
_cell_volume   260.33270735
_cell_formula_units_Z   1
loop_
 _symmetry_equiv_pos_site_id
 _symmetry_equiv_pos_as_xyz
  1  'x, y, z'
loop_
 _atom_site_type_symbol
 _atom_site_label
 _atom_site_symmetry_multiplicity
 _atom_site_fract_x
 _atom_site_fract_y
 _atom_site_fract_z
 _atom_site_occupancy
  Pr  Pr0  1  0.750000  0.467209  0.819867  1
  Sm  Sm1  1  0.250000  0.533132  0.184479  1
  Mg  Mg2  1  0.250000  0.139628  0.950506  1
  Mg  Mg3  1  0.750000  0.857401  0.051268  1
  Mg  Mg4  1  0.250000  0.639144  0.553120  1
  Mg  Mg5  1  0.750000  0.362274  0.445556  1
  Pa  Pa6  1  0.250000  0.033320  0.313973  1
  Pa  Pa7  1  0.750000  0.966916  0.684699  1
  Rh  Rh8  1  0.750000  0.226235  0.165613  1
  Rh  Rh9  1  0.250000  0.777681  0.833883  1
  Rh  Rh10  1  0.750000  0.787797  0.370547  1
  Rh  Rh11  1  0.250000  0.209263  0.626488  1
