# generated using pymatgen
data_LiTbY4(P2Ru3)6
_symmetry_space_group_name_H-M   'P 1'
_cell_length_a   12.62964200
_cell_length_b   12.43514830
_cell_length_c   3.97635200
_cell_angle_alpha   90.00000000
_cell_angle_beta   90.00000000
_cell_angle_gamma   119.49187051
_symmetry_Int_Tables_number   1
_chemical_formula_structural   LiTbY4(P2Ru3)6
_chemical_formula_sum   'Li1 Tb1 Y4 P12 Ru18'
_cell_volume   543.57373658
_cell_formula_units_Z   1
loop_
 _symmetry_equiv_pos_site_id
 _symmetry_equiv_pos_as_xyz
  1  'x, y, z'
loop_
 _atom_site_type_symbol
 _atom_site_label
 _atom_site_symmetry_multiplicity
 _atom_site_fract_x
 _atom_site_fract_y
 _atom_site_fract_z
 _atom_site_occupancy
  Li  Li0  1  0.000000  0.561872  0.000000  1
  Tb  Tb1  1  0.000000  0.181548  0.500000  1
  Y  Y2  1  0.817084  0.815947  0.500000  1
  Y  Y3  1  0.182916  0.998863  0.500000  1
  Y  Y4  1  0.658582  0.328833  0.000000  1
  Y  Y5  1  0.341418  0.670253  0.000000  1
  P  P6  1  0.000000  0.807511  0.000000  1
  P  P7  1  0.181730  0.183526  0.000000  1
  P  P8  1  0.818270  0.001796  0.000000  1
  P  P9  1  0.691936  0.173131  0.500000  1
  P  P10  1  0.819285  0.518625  0.500000  1
  P  P11  1  0.473082  0.306494  0.500000  1
  P  P12  1  0.180715  0.699340  0.500000  1
  P  P13  1  0.526918  0.833412  0.500000  1
  P  P14  1  0.308064  0.481194  0.500000  1
  P  P15  1  0.000000  0.368054  0.000000  1
  P  P16  1  0.625901  0.625020  0.000000  1
  P  P17  1  0.374099  0.999119  0.000000  1
  Ru  Ru18  1  0.443980  0.444594  0.000000  1
  Ru  Ru19  1  0.556020  0.000614  0.000000  1
  Ru  Ru20  1  0.000000  0.710752  0.500000  1
  Ru  Ru21  1  0.280392  0.283508  0.500000  1
  Ru  Ru22  1  0.719608  0.003115  0.500000  1
  Ru  Ru23  1  0.805946  0.186832  0.000000  1
  Ru  Ru24  1  0.812866  0.618370  0.000000  1
  Ru  Ru25  1  0.372141  0.188671  0.000000  1
  Ru  Ru26  1  0.187134  0.805503  0.000000  1
  Ru  Ru27  1  0.627859  0.816529  0.000000  1
  Ru  Ru28  1  0.194054  0.380884  0.000000  1
  Ru  Ru29  1  0.876587  0.367905  0.500000  1
  Ru  Ru30  1  0.630617  0.508725  0.500000  1
  Ru  Ru31  1  0.492105  0.128206  0.500000  1
  Ru  Ru32  1  0.369383  0.878108  0.500000  1
  Ru  Ru33  1  0.507895  0.636101  0.500000  1
  Ru  Ru34  1  0.123413  0.491318  0.500000  1
  Ru  Ru35  1  0.000000  0.995726  0.000000  1
