# generated using pymatgen
data_DyTh7(Nb3Si4)4
_symmetry_space_group_name_H-M   'P 1'
_cell_length_a   7.03342200
_cell_length_b   7.24436543
_cell_length_c   13.60028731
_cell_angle_alpha   90.08226201
_cell_angle_beta   89.89310689
_cell_angle_gamma   90.04632713
_symmetry_Int_Tables_number   1
_chemical_formula_structural   DyTh7(Nb3Si4)4
_chemical_formula_sum   'Dy1 Th7 Nb12 Si16'
_cell_volume   692.96893075
_cell_formula_units_Z   1
loop_
 _symmetry_equiv_pos_site_id
 _symmetry_equiv_pos_as_xyz
  1  'x, y, z'
loop_
 _atom_site_type_symbol
 _atom_site_label
 _atom_site_symmetry_multiplicity
 _atom_site_fract_x
 _atom_site_fract_y
 _atom_site_fract_z
 _atom_site_occupancy
  Dy  Dy0  1  0.999700  0.829105  0.596718  1
  Th  Th1  1  0.501486  0.668988  0.595233  1
  Th  Th2  1  0.000746  0.830488  0.903851  1
  Th  Th3  1  0.500422  0.330473  0.095795  1
  Th  Th4  1  0.998583  0.170591  0.405656  1
  Th  Th5  1  0.498311  0.330397  0.406354  1
  Th  Th6  1  0.000269  0.169767  0.095828  1
  Th  Th7  1  0.500767  0.669978  0.902542  1
  Nb  Nb8  1  0.662052  0.172839  0.623977  1
  Nb  Nb9  1  0.162692  0.327383  0.873856  1
  Nb  Nb10  1  0.337350  0.827865  0.125121  1
  Nb  Nb11  1  0.835428  0.673142  0.375803  1
  Nb  Nb12  1  0.336374  0.828001  0.375603  1
  Nb  Nb13  1  0.836715  0.671901  0.125191  1
  Nb  Nb14  1  0.665844  0.170553  0.874066  1
  Nb  Nb15  1  0.164383  0.327744  0.624404  1
  Nb  Nb16  1  0.836155  0.490747  0.750343  1
  Nb  Nb17  1  0.337349  0.005768  0.748778  1
  Nb  Nb18  1  0.163106  0.507807  0.250630  1
  Nb  Nb19  1  0.663102  0.993285  0.250946  1
  Si  Si20  1  0.660575  0.957090  0.457795  1
  Si  Si21  1  0.160322  0.543349  0.043308  1
  Si  Si22  1  0.341088  0.044017  0.955291  1
  Si  Si23  1  0.843763  0.462188  0.545244  1
  Si  Si24  1  0.333955  0.038709  0.544961  1
  Si  Si25  1  0.839691  0.456147  0.955914  1
  Si  Si26  1  0.660011  0.956323  0.043526  1
  Si  Si27  1  0.157407  0.546622  0.458400  1
  Si  Si28  1  0.459080  0.367262  0.749391  1
  Si  Si29  1  0.960729  0.128569  0.747249  1
  Si  Si30  1  0.540704  0.631397  0.250891  1
  Si  Si31  1  0.040733  0.869071  0.250708  1
  Si  Si32  1  0.703853  0.884285  0.746932  1
  Si  Si33  1  0.196833  0.617501  0.747571  1
  Si  Si34  1  0.300120  0.115201  0.250868  1
  Si  Si35  1  0.800304  0.385447  0.251255  1
