# generated using pymatgen
data_Tc3SnAs6
_symmetry_space_group_name_H-M   'P 1'
_cell_length_a   7.72123140
_cell_length_b   7.72123211
_cell_length_c   7.72101939
_cell_angle_alpha   108.72486257
_cell_angle_beta   108.72485695
_cell_angle_gamma   110.97555347
_symmetry_Int_Tables_number   1
_chemical_formula_structural   Tc3SnAs6
_chemical_formula_sum   'Tc6 Sn2 As12'
_cell_volume   354.15638875
_cell_formula_units_Z   2
loop_
 _symmetry_equiv_pos_site_id
 _symmetry_equiv_pos_as_xyz
  1  'x, y, z'
loop_
 _atom_site_type_symbol
 _atom_site_label
 _atom_site_symmetry_multiplicity
 _atom_site_fract_x
 _atom_site_fract_y
 _atom_site_fract_z
 _atom_site_occupancy
  Tc  Tc0  1  0.338297  0.008836  0.347133  1
  Tc  Tc1  1  0.008836  0.338297  0.347133  1
  Tc  Tc2  1  0.009069  0.661327  0.670396  1
  Tc  Tc3  1  0.323415  0.323415  0.983351  1
  Tc  Tc4  1  0.659937  0.659937  0.983351  1
  Tc  Tc5  1  0.661327  0.009069  0.670396  1
  Sn  Sn6  1  0.749802  0.495881  0.245683  1
  Sn  Sn7  1  0.495881  0.749802  0.245683  1
  As  As8  1  0.496810  0.251235  0.748045  1
  As  As9  1  0.753612  0.253612  0.507225  1
  As  As10  1  0.253612  0.753612  0.507225  1
  As  As11  1  0.251235  0.496810  0.748045  1
  As  As12  1  0.993772  0.993772  0.324657  1
  As  As13  1  0.673141  0.002922  0.004476  1
  As  As14  1  0.002922  0.673141  0.004476  1
  As  As15  1  0.330885  0.330885  0.324657  1
  As  As16  1  0.001554  0.331334  0.004476  1
  As  As17  1  0.673463  0.673463  0.664558  1
  As  As18  1  0.331334  0.001554  0.004476  1
  As  As19  1  0.991095  0.991095  0.664558  1
