# generated using pymatgen
data_Dy2Ho10Fe2Ni3Bi
_symmetry_space_group_name_H-M   'P 1'
_cell_length_a   8.29496745
_cell_length_b   8.29252444
_cell_length_c   8.28965100
_cell_angle_alpha   110.52455640
_cell_angle_beta   109.52653448
_cell_angle_gamma   108.36845929
_symmetry_Int_Tables_number   1
_chemical_formula_structural   Dy2Ho10Fe2Ni3Bi
_chemical_formula_sum   'Dy2 Ho10 Fe2 Ni3 Bi1'
_cell_volume   438.80217952
_cell_formula_units_Z   1
loop_
 _symmetry_equiv_pos_site_id
 _symmetry_equiv_pos_as_xyz
  1  'x, y, z'
loop_
 _atom_site_type_symbol
 _atom_site_label
 _atom_site_symmetry_multiplicity
 _atom_site_fract_x
 _atom_site_fract_y
 _atom_site_fract_z
 _atom_site_occupancy
  Dy  Dy0  1  0.819321  0.711388  0.530585  1
  Dy  Dy1  1  0.180679  0.288612  0.469415  1
  Ho  Ho2  1  0.181133  0.711031  0.892243  1
  Ho  Ho3  1  0.818867  0.288969  0.107757  1
  Ho  Ho4  1  0.685263  0.377624  0.692867  1
  Ho  Ho5  1  0.314737  0.622376  0.307133  1
  Ho  Ho6  1  0.684672  0.992363  0.306993  1
  Ho  Ho7  1  0.315328  0.007637  0.693007  1
  Ho  Ho8  1  0.593168  0.789960  0.804025  1
  Ho  Ho9  1  0.406832  0.210040  0.195975  1
  Ho  Ho10  1  0.986155  0.789196  0.196205  1
  Ho  Ho11  1  0.013845  0.210804  0.803795  1
  Fe  Fe12  1  0.109593  0.609942  0.499723  1
  Fe  Fe13  1  0.890407  0.390058  0.500277  1
  Ni  Ni14  1  0.631357  0.000579  0.631916  1
  Ni  Ni15  1  0.368643  0.999421  0.368084  1
  Ni  Ni16  1  0.000000  0.000000  0.000000  1
  Bi  Bi17  1  0.500000  0.500000  0.000000  1
