# generated using pymatgen
data_Y3ThAl16(GaIr3)2
_symmetry_space_group_name_H-M   'P 1'
_cell_length_a   7.56731938
_cell_length_b   7.57741758
_cell_length_c   9.53544000
_cell_angle_alpha   90.00000000
_cell_angle_beta   90.00000000
_cell_angle_gamma   119.49566803
_symmetry_Int_Tables_number   1
_chemical_formula_structural   Y3ThAl16(GaIr3)2
_chemical_formula_sum   'Y3 Th1 Al16 Ga2 Ir6'
_cell_volume   475.90402169
_cell_formula_units_Z   1
loop_
 _symmetry_equiv_pos_site_id
 _symmetry_equiv_pos_as_xyz
  1  'x, y, z'
loop_
 _atom_site_type_symbol
 _atom_site_label
 _atom_site_symmetry_multiplicity
 _atom_site_fract_x
 _atom_site_fract_y
 _atom_site_fract_z
 _atom_site_occupancy
  Y  Y0  1  0.003752  0.328237  0.750000  1
  Y  Y1  1  0.670885  0.991556  0.250000  1
  Y  Y2  1  0.327722  0.003146  0.750000  1
  Th  Th3  1  0.997394  0.674242  0.250000  1
  Al  Al4  1  0.870485  0.872433  0.750000  1
  Al  Al5  1  0.001321  0.331087  0.071090  1
  Al  Al6  1  0.998676  0.664055  0.919590  1
  Al  Al7  1  0.998676  0.664055  0.580410  1
  Al  Al8  1  0.340554  0.006326  0.428859  1
  Al  Al9  1  0.001321  0.331087  0.428910  1
  Al  Al10  1  0.664571  0.000331  0.575345  1
  Al  Al11  1  0.664571  0.000331  0.924655  1
  Al  Al12  1  0.340554  0.006326  0.071141  1
  Al  Al13  1  0.332236  0.332356  0.558440  1
  Al  Al14  1  0.662904  0.665682  0.456731  1
  Al  Al15  1  0.662904  0.665682  0.043269  1
  Al  Al16  1  0.332236  0.332356  0.941560  1
  Al  Al17  1  0.658903  0.449407  0.750000  1
  Al  Al18  1  0.545904  0.337802  0.250000  1
  Al  Al19  1  0.449974  0.661082  0.750000  1
  Ga  Ga20  1  0.133442  0.136382  0.250000  1
  Ga  Ga21  1  0.345121  0.547104  0.250000  1
  Ir  Ir22  1  0.672128  0.329977  0.000911  1
  Ir  Ir23  1  0.326195  0.671567  0.998605  1
  Ir  Ir24  1  0.326195  0.671567  0.501395  1
  Ir  Ir25  1  0.672128  0.329977  0.499089  1
  Ir  Ir26  1  0.999622  0.997924  0.998682  1
  Ir  Ir27  1  0.999622  0.997924  0.501318  1
