# generated using pymatgen
data_Nd2SmSi6(Pd4Pt)4
_symmetry_space_group_name_H-M   'P 1'
_cell_length_a   8.76458669
_cell_length_b   8.77715891
_cell_length_c   8.77715904
_cell_angle_alpha   59.95511616
_cell_angle_beta   59.92972891
_cell_angle_gamma   59.92973888
_symmetry_Int_Tables_number   1
_chemical_formula_structural   Nd2SmSi6(Pd4Pt)4
_chemical_formula_sum   'Nd2 Sm1 Si6 Pd16 Pt4'
_cell_volume   476.77676583
_cell_formula_units_Z   1
loop_
 _symmetry_equiv_pos_site_id
 _symmetry_equiv_pos_as_xyz
  1  'x, y, z'
loop_
 _atom_site_type_symbol
 _atom_site_label
 _atom_site_symmetry_multiplicity
 _atom_site_fract_x
 _atom_site_fract_y
 _atom_site_fract_z
 _atom_site_occupancy
  Nd  Nd0  1  0.250604  0.250381  0.250381  1
  Nd  Nd1  1  0.748677  0.750123  0.750123  1
  Sm  Sm2  1  0.000011  0.000113  0.000113  1
  Si  Si3  1  0.731728  0.266918  0.266918  1
  Si  Si4  1  0.269585  0.731370  0.731370  1
  Si  Si5  1  0.268532  0.731534  0.267485  1
  Si  Si6  1  0.731508  0.268235  0.733108  1
  Si  Si7  1  0.268532  0.267485  0.731534  1
  Si  Si8  1  0.731508  0.733108  0.268235  1
  Pd  Pd9  1  0.618085  0.614599  0.153264  1
  Pd  Pd10  1  0.618085  0.153264  0.614599  1
  Pd  Pd11  1  0.846989  0.383167  0.383167  1
  Pd  Pd12  1  0.151187  0.616486  0.616486  1
  Pd  Pd13  1  0.345814  0.000032  0.000032  1
  Pd  Pd14  1  0.653290  0.000899  0.000899  1
  Pd  Pd15  1  0.999204  0.346619  0.655229  1
  Pd  Pd16  1  0.999204  0.655229  0.346619  1
  Pd  Pd17  1  0.999030  0.346753  0.999769  1
  Pd  Pd18  1  0.654212  0.999899  0.346516  1
  Pd  Pd19  1  0.999812  0.654304  0.000770  1
  Pd  Pd20  1  0.345581  0.000065  0.655100  1
  Pd  Pd21  1  0.999030  0.999769  0.346753  1
  Pd  Pd22  1  0.999812  0.000770  0.654304  1
  Pd  Pd23  1  0.654212  0.346516  0.999899  1
  Pd  Pd24  1  0.345581  0.655100  0.000065  1
  Pt  Pt25  1  0.386011  0.386394  0.386394  1
  Pt  Pt26  1  0.616415  0.612877  0.612877  1
  Pt  Pt27  1  0.383881  0.384442  0.843552  1
  Pt  Pt28  1  0.383881  0.843552  0.384442  1
