# generated using pymatgen
data_Li2Dy11Y7(Cd3Ru)2
_symmetry_space_group_name_H-M   'P 1'
_cell_length_a   9.50207195
_cell_length_b   9.49928464
_cell_length_c   9.69965789
_cell_angle_alpha   90.00000146
_cell_angle_beta   90.08858042
_cell_angle_gamma   119.99029202
_symmetry_Int_Tables_number   1
_chemical_formula_structural   Li2Dy11Y7(Cd3Ru)2
_chemical_formula_sum   'Li2 Dy11 Y7 Cd6 Ru2'
_cell_volume   758.29474939
_cell_formula_units_Z   1
loop_
 _symmetry_equiv_pos_site_id
 _symmetry_equiv_pos_as_xyz
  1  'x, y, z'
loop_
 _atom_site_type_symbol
 _atom_site_label
 _atom_site_symmetry_multiplicity
 _atom_site_fract_x
 _atom_site_fract_y
 _atom_site_fract_z
 _atom_site_occupancy
  Li  Li0  1  0.999986  0.999993  0.500074  1
  Li  Li1  1  0.999868  0.999934  0.000029  1
  Dy  Dy2  1  0.208611  0.791529  0.441302  1
  Dy  Dy3  1  0.208611  0.417083  0.441302  1
  Dy  Dy4  1  0.582892  0.791446  0.441408  1
  Dy  Dy5  1  0.791564  0.208561  0.558596  1
  Dy  Dy6  1  0.791564  0.583002  0.558596  1
  Dy  Dy7  1  0.416950  0.208475  0.558599  1
  Dy  Dy8  1  0.791717  0.208769  0.941286  1
  Dy  Dy9  1  0.791717  0.582948  0.941286  1
  Dy  Dy10  1  0.416948  0.208473  0.941399  1
  Dy  Dy11  1  0.208460  0.791436  0.058798  1
  Dy  Dy12  1  0.208460  0.417025  0.058798  1
  Y  Y13  1  0.584482  0.792241  0.057560  1
  Y  Y14  1  0.542160  0.457584  0.250194  1
  Y  Y15  1  0.542160  0.084577  0.250194  1
  Y  Y16  1  0.915761  0.457881  0.249919  1
  Y  Y17  1  0.457810  0.542046  0.749731  1
  Y  Y18  1  0.457810  0.915763  0.749731  1
  Y  Y19  1  0.084463  0.542231  0.749987  1
  Cd  Cd20  1  0.891803  0.108113  0.249943  1
  Cd  Cd21  1  0.891803  0.783692  0.249943  1
  Cd  Cd22  1  0.216474  0.108238  0.250067  1
  Cd  Cd23  1  0.108242  0.891802  0.749994  1
  Cd  Cd24  1  0.108242  0.216439  0.749994  1
  Cd  Cd25  1  0.783499  0.891749  0.750178  1
  Ru  Ru26  1  0.331276  0.665638  0.251209  1
  Ru  Ru27  1  0.666667  0.333333  0.749883  1
