# generated using pymatgen
data_Pr6Ho10Cd4Ir3Pt
_symmetry_space_group_name_H-M   'P 1'
_cell_length_a   9.77062009
_cell_length_b   9.77061993
_cell_length_c   9.77062040
_cell_angle_alpha   60.07799887
_cell_angle_beta   60.07799921
_cell_angle_gamma   60.07799598
_symmetry_Int_Tables_number   1
_chemical_formula_structural   Pr6Ho10Cd4Ir3Pt
_chemical_formula_sum   'Pr6 Ho10 Cd4 Ir3 Pt1'
_cell_volume   660.72135522
_cell_formula_units_Z   1
loop_
 _symmetry_equiv_pos_site_id
 _symmetry_equiv_pos_as_xyz
  1  'x, y, z'
loop_
 _atom_site_type_symbol
 _atom_site_label
 _atom_site_symmetry_multiplicity
 _atom_site_fract_x
 _atom_site_fract_y
 _atom_site_fract_z
 _atom_site_occupancy
  Pr  Pr0  1  0.941498  0.558795  0.558795  1
  Pr  Pr1  1  0.559909  0.941257  0.941257  1
  Pr  Pr2  1  0.558795  0.941498  0.558795  1
  Pr  Pr3  1  0.941257  0.559909  0.941257  1
  Pr  Pr4  1  0.558795  0.558795  0.941498  1
  Pr  Pr5  1  0.941257  0.941257  0.559909  1
  Ho  Ho6  1  0.346541  0.346541  0.346541  1
  Ho  Ho7  1  0.349908  0.349908  0.955937  1
  Ho  Ho8  1  0.349908  0.955937  0.349908  1
  Ho  Ho9  1  0.955937  0.349908  0.349908  1
  Ho  Ho10  1  0.807698  0.188086  0.188086  1
  Ho  Ho11  1  0.184746  0.812883  0.812883  1
  Ho  Ho12  1  0.188086  0.807698  0.188086  1
  Ho  Ho13  1  0.812883  0.184746  0.812883  1
  Ho  Ho14  1  0.188086  0.188086  0.807698  1
  Ho  Ho15  1  0.812883  0.812883  0.184746  1
  Cd  Cd16  1  0.579028  0.579028  0.579028  1
  Cd  Cd17  1  0.579533  0.579533  0.262030  1
  Cd  Cd18  1  0.579533  0.262030  0.579533  1
  Cd  Cd19  1  0.262030  0.579533  0.579533  1
  Ir  Ir20  1  0.141908  0.141908  0.575876  1
  Ir  Ir21  1  0.141908  0.575876  0.141908  1
  Ir  Ir22  1  0.575876  0.141908  0.141908  1
  Pt  Pt23  1  0.141995  0.141995  0.141995  1
