# generated using pymatgen
data_BaAc3(MgTl)4
_symmetry_space_group_name_H-M   'P 1'
_cell_length_a   4.88760400
_cell_length_b   8.09157701
_cell_length_c   9.66998100
_cell_angle_alpha   90.48004926
_cell_angle_beta   90.00000000
_cell_angle_gamma   90.00000000
_symmetry_Int_Tables_number   1
_chemical_formula_structural   BaAc3(MgTl)4
_chemical_formula_sum   'Ba1 Ac3 Mg4 Tl4'
_cell_volume   382.41908704
_cell_formula_units_Z   1
loop_
 _symmetry_equiv_pos_site_id
 _symmetry_equiv_pos_as_xyz
  1  'x, y, z'
loop_
 _atom_site_type_symbol
 _atom_site_label
 _atom_site_symmetry_multiplicity
 _atom_site_fract_x
 _atom_site_fract_y
 _atom_site_fract_z
 _atom_site_occupancy
  Ba  Ba0  1  0.250000  0.016154  0.811419  1
  Ac  Ac1  1  0.750000  0.982067  0.190234  1
  Ac  Ac2  1  0.750000  0.482772  0.314266  1
  Ac  Ac3  1  0.250000  0.520533  0.685054  1
  Mg  Mg4  1  0.250000  0.641957  0.061563  1
  Mg  Mg5  1  0.250000  0.147437  0.438656  1
  Mg  Mg6  1  0.750000  0.853931  0.554482  1
  Mg  Mg7  1  0.750000  0.356415  0.943661  1
  Tl  Tl8  1  0.250000  0.273956  0.115922  1
  Tl  Tl9  1  0.250000  0.774150  0.385712  1
  Tl  Tl10  1  0.750000  0.232729  0.603854  1
  Tl  Tl11  1  0.750000  0.717901  0.895178  1
