# generated using pymatgen
data_Dy3Tm2Hf2P12Ir17
_symmetry_space_group_name_H-M   'P 1'
_cell_length_a   12.64828300
_cell_length_b   12.87613369
_cell_length_c   3.97214400
_cell_angle_alpha   90.00000000
_cell_angle_beta   90.00000000
_cell_angle_gamma   119.41634362
_symmetry_Int_Tables_number   1
_chemical_formula_structural   Dy3Tm2Hf2P12Ir17
_chemical_formula_sum   'Dy3 Tm2 Hf2 P12 Ir17'
_cell_volume   563.50394375
_cell_formula_units_Z   1
loop_
 _symmetry_equiv_pos_site_id
 _symmetry_equiv_pos_as_xyz
  1  'x, y, z'
loop_
 _atom_site_type_symbol
 _atom_site_label
 _atom_site_symmetry_multiplicity
 _atom_site_fract_x
 _atom_site_fract_y
 _atom_site_fract_z
 _atom_site_occupancy
  Dy  Dy0  1  0.330230  0.661678  0.500000  1
  Dy  Dy1  1  0.668553  0.338322  0.500000  1
  Dy  Dy2  1  0.813179  0.000000  0.000000  1
  Tm  Tm3  1  0.999709  0.815431  0.000000  1
  Tm  Tm4  1  0.184278  0.184569  0.000000  1
  Hf  Hf5  1  0.997669  0.447223  0.500000  1
  Hf  Hf6  1  0.550446  0.552777  0.500000  1
  P  P7  1  0.005475  0.651802  0.500000  1
  P  P8  1  0.353673  0.348198  0.500000  1
  P  P9  1  0.645273  0.000000  0.500000  1
  P  P10  1  0.515011  0.685965  0.000000  1
  P  P11  1  0.309874  0.825292  0.000000  1
  P  P12  1  0.164674  0.481180  0.000000  1
  P  P13  1  0.484582  0.174708  0.000000  1
  P  P14  1  0.683494  0.518820  0.000000  1
  P  P15  1  0.829046  0.314035  0.000000  1
  P  P16  1  0.999939  0.173666  0.500000  1
  P  P17  1  0.826273  0.826334  0.500000  1
  P  P18  1  0.181245  0.000000  0.500000  1
  Ir  Ir19  1  0.505149  0.864666  0.000000  1
  Ir  Ir20  1  0.127204  0.642780  0.000000  1
  Ir  Ir21  1  0.355936  0.495753  0.000000  1
  Ir  Ir22  1  0.484424  0.357220  0.000000  1
  Ir  Ir23  1  0.860185  0.504247  0.000000  1
  Ir  Ir24  1  0.640485  0.135334  0.000000  1
  Ir  Ir25  1  0.464894  0.000000  0.500000  1
  Ir  Ir26  1  0.997328  0.279472  0.000000  1
  Ir  Ir27  1  0.717855  0.720528  0.000000  1
  Ir  Ir28  1  0.289352  0.000000  0.000000  1
  Ir  Ir29  1  0.623972  0.807448  0.500000  1
  Ir  Ir30  1  0.202938  0.825313  0.500000  1
  Ir  Ir31  1  0.177575  0.365968  0.500000  1
  Ir  Ir32  1  0.377625  0.174687  0.500000  1
  Ir  Ir33  1  0.811607  0.634032  0.500000  1
  Ir  Ir34  1  0.816523  0.192552  0.500000  1
  Ir  Ir35  1  0.004322  0.000000  0.500000  1
