# generated using pymatgen
data_Hf3Sc(FeSi)4
_symmetry_space_group_name_H-M   'P 1'
_cell_length_a   4.02584600
_cell_length_b   6.39367628
_cell_length_c   6.82444779
_cell_angle_alpha   89.88161003
_cell_angle_beta   90.00000000
_cell_angle_gamma   90.00000000
_symmetry_Int_Tables_number   1
_chemical_formula_structural   Hf3Sc(FeSi)4
_chemical_formula_sum   'Hf3 Sc1 Fe4 Si4'
_cell_volume   175.66061127
_cell_formula_units_Z   1
loop_
 _symmetry_equiv_pos_site_id
 _symmetry_equiv_pos_as_xyz
  1  'x, y, z'
loop_
 _atom_site_type_symbol
 _atom_site_label
 _atom_site_symmetry_multiplicity
 _atom_site_fract_x
 _atom_site_fract_y
 _atom_site_fract_z
 _atom_site_occupancy
  Hf  Hf0  1  0.250000  0.487762  0.197571  1
  Hf  Hf1  1  0.750000  0.013589  0.696003  1
  Hf  Hf2  1  0.750000  0.512738  0.803255  1
  Sc  Sc3  1  0.250000  0.990066  0.305079  1
  Fe  Fe4  1  0.250000  0.157920  0.939090  1
  Fe  Fe5  1  0.250000  0.653549  0.561487  1
  Fe  Fe6  1  0.750000  0.838692  0.055587  1
  Fe  Fe7  1  0.750000  0.345057  0.442027  1
  Si  Si8  1  0.250000  0.293468  0.607397  1
  Si  Si9  1  0.250000  0.794058  0.890928  1
  Si  Si10  1  0.750000  0.708117  0.393008  1
  Si  Si11  1  0.750000  0.204984  0.108569  1
