# generated using pymatgen
data_Dy(Er3Se4)2
_symmetry_space_group_name_H-M   'P 1'
_cell_length_a   8.04034988
_cell_length_b   8.04035045
_cell_length_c   8.04035000
_cell_angle_alpha   120.01407799
_cell_angle_beta   89.96079258
_cell_angle_gamma   120.03120716
_symmetry_Int_Tables_number   1
_chemical_formula_structural   Dy(Er3Se4)2
_chemical_formula_sum   'Dy1 Er6 Se8'
_cell_volume   367.41855081
_cell_formula_units_Z   1
loop_
 _symmetry_equiv_pos_site_id
 _symmetry_equiv_pos_as_xyz
  1  'x, y, z'
loop_
 _atom_site_type_symbol
 _atom_site_label
 _atom_site_symmetry_multiplicity
 _atom_site_fract_x
 _atom_site_fract_y
 _atom_site_fract_z
 _atom_site_occupancy
  Dy  Dy0  1  0.249992  0.000000  0.249992  1
  Er  Er1  1  0.249997  0.500007  0.250002  1
  Er  Er2  1  0.749995  0.000005  0.250003  1
  Er  Er3  1  0.250053  0.500001  0.750054  1
  Er  Er4  1  0.249998  0.999995  0.749989  1
  Er  Er5  1  0.750015  0.000000  0.750015  1
  Er  Er6  1  0.749995  0.499992  0.749989  1
  Se  Se7  1  0.998995  0.000000  0.998995  1
  Se  Se8  1  0.501003  0.000000  0.501003  1
  Se  Se9  1  0.994963  0.992387  0.497410  1
  Se  Se10  1  0.996288  0.500001  0.496290  1
  Se  Se11  1  0.505023  0.502445  0.497410  1
  Se  Se12  1  0.994965  0.497557  0.002578  1
  Se  Se13  1  0.503701  0.500001  0.003702  1
  Se  Se14  1  0.505021  0.007612  0.002578  1
