# generated using pymatgen
data_HoZn2InIr2
_symmetry_space_group_name_H-M   'P 1'
_cell_length_a   5.22961142
_cell_length_b   5.13980844
_cell_length_c   5.22961200
_cell_angle_alpha   60.56643564
_cell_angle_beta   65.50491848
_cell_angle_gamma   60.56643211
_symmetry_Int_Tables_number   1
_chemical_formula_structural   HoZn2InIr2
_chemical_formula_sum   'Ho1 Zn2 In1 Ir2'
_cell_volume   103.80793036
_cell_formula_units_Z   1
loop_
 _symmetry_equiv_pos_site_id
 _symmetry_equiv_pos_as_xyz
  1  'x, y, z'
loop_
 _atom_site_type_symbol
 _atom_site_label
 _atom_site_symmetry_multiplicity
 _atom_site_fract_x
 _atom_site_fract_y
 _atom_site_fract_z
 _atom_site_occupancy
  Ho  Ho0  1  0.755081  0.744919  0.755081  1
  Zn  Zn1  1  0.374894  0.869600  0.374894  1
  Zn  Zn2  1  0.374894  0.380611  0.374894  1
  In  In3  1  0.995458  0.004542  0.995458  1
  Ir  Ir4  1  0.881461  0.375165  0.368211  1
  Ir  Ir5  1  0.368211  0.375165  0.881461  1
