# generated using pymatgen
data_ErTi4Re17Tc7
_symmetry_space_group_name_H-M   'P 1'
_cell_length_a   8.39867791
_cell_length_b   8.39828055
_cell_length_c   8.38733416
_cell_angle_alpha   109.54163184
_cell_angle_beta   109.47056254
_cell_angle_gamma   109.53721210
_symmetry_Int_Tables_number   1
_chemical_formula_structural   ErTi4Re17Tc7
_chemical_formula_sum   'Er1 Ti4 Re17 Tc7'
_cell_volume   454.64613498
_cell_formula_units_Z   1
loop_
 _symmetry_equiv_pos_site_id
 _symmetry_equiv_pos_as_xyz
  1  'x, y, z'
loop_
 _atom_site_type_symbol
 _atom_site_label
 _atom_site_symmetry_multiplicity
 _atom_site_fract_x
 _atom_site_fract_y
 _atom_site_fract_z
 _atom_site_occupancy
  Er  Er0  1  0.999104  0.999191  0.999515  1
  Ti  Ti1  1  0.626446  0.999493  0.999623  1
  Ti  Ti2  1  0.999357  0.626395  0.999583  1
  Ti  Ti3  1  0.000885  0.000978  0.628484  1
  Ti  Ti4  1  0.371204  0.371204  0.371850  1
  Re  Re5  1  0.000733  0.681084  0.400763  1
  Re  Re6  1  0.681271  0.000772  0.400751  1
  Re  Re7  1  0.598686  0.598630  0.279055  1
  Re  Re8  1  0.279851  0.600455  0.599072  1
  Re  Re9  1  0.600360  0.279850  0.598894  1
  Re  Re10  1  0.378894  0.195586  0.000943  1
  Re  Re11  1  0.182324  0.805669  0.804733  1
  Re  Re12  1  0.377266  0.000874  0.195178  1
  Re  Re13  1  0.195484  0.378732  0.000796  1
  Re  Re14  1  0.000870  0.377549  0.195222  1
  Re  Re15  1  0.805684  0.182070  0.804705  1
  Re  Re16  1  0.805228  0.805180  0.182753  1
  Re  Re17  1  0.001011  0.194563  0.379839  1
  Re  Re18  1  0.194563  0.000987  0.379680  1
  Re  Re19  1  0.620051  0.620050  0.814275  1
  Re  Re20  1  0.814331  0.620546  0.620045  1
  Re  Re21  1  0.620543  0.814368  0.620000  1
  Tc  Tc22  1  0.401360  0.683061  0.000900  1
  Tc  Tc23  1  0.720439  0.317969  0.317629  1
  Tc  Tc24  1  0.402892  0.002169  0.683609  1
  Tc  Tc25  1  0.683047  0.401181  0.000775  1
  Tc  Tc26  1  0.002183  0.402794  0.683504  1
  Tc  Tc27  1  0.317647  0.720229  0.317292  1
  Tc  Tc28  1  0.318289  0.318370  0.720533  1
