# generated using pymatgen
data_K4Ta5Nb3Si(P2O17)2
_symmetry_space_group_name_H-M   'P 1'
_cell_length_a   10.78115900
_cell_length_b   10.78115900
_cell_length_c   6.52508000
_cell_angle_alpha   90.00000000
_cell_angle_beta   90.00000000
_cell_angle_gamma   90.00000000
_symmetry_Int_Tables_number   1
_chemical_formula_structural   K4Ta5Nb3Si(P2O17)2
_chemical_formula_sum   'K4 Ta5 Nb3 Si1 P4 O34'
_cell_volume   758.43216440
_cell_formula_units_Z   1
loop_
 _symmetry_equiv_pos_site_id
 _symmetry_equiv_pos_as_xyz
  1  'x, y, z'
loop_
 _atom_site_type_symbol
 _atom_site_label
 _atom_site_symmetry_multiplicity
 _atom_site_fract_x
 _atom_site_fract_y
 _atom_site_fract_z
 _atom_site_occupancy
  K  K0  1  0.500000  0.500881  0.500472  1
  K  K1  1  0.000000  0.499887  0.300269  1
  K  K2  1  0.500000  0.999534  0.700942  1
  K  K3  1  0.000000  0.000068  0.499849  1
  Ta  Ta4  1  0.178201  0.177524  0.999675  1
  Ta  Ta5  1  0.822529  0.822633  0.000009  1
  Ta  Ta6  1  0.821799  0.177524  0.999675  1
  Ta  Ta7  1  0.177471  0.822633  0.000009  1
  Ta  Ta8  1  0.500000  0.187209  0.203233  1
  Nb  Nb9  1  0.813356  0.500051  0.799183  1
  Nb  Nb10  1  0.186644  0.500051  0.799183  1
  Nb  Nb11  1  0.500000  0.814253  0.201159  1
  Si  Si12  1  0.500000  0.499545  0.001035  1
  P  P13  1  0.240421  0.240092  0.499206  1
  P  P14  1  0.240190  0.759840  0.499974  1
  P  P15  1  0.759810  0.759840  0.499974  1
  P  P16  1  0.759579  0.240092  0.499206  1
  O  O17  1  0.161935  0.195875  0.311580  1
  O  O18  1  0.838102  0.803989  0.311666  1
  O  O19  1  0.802778  0.161669  0.687623  1
  O  O20  1  0.196054  0.838098  0.688328  1
  O  O21  1  0.838065  0.195875  0.311580  1
  O  O22  1  0.803946  0.838098  0.688328  1
  O  O23  1  0.197222  0.161669  0.687623  1
  O  O24  1  0.161898  0.803989  0.311666  1
  O  O25  1  0.824321  0.999841  0.025981  1
  O  O26  1  0.000000  0.823923  0.973751  1
  O  O27  1  0.000000  0.175774  0.974195  1
  O  O28  1  0.175679  0.999841  0.025981  1
  O  O29  1  0.500000  0.373487  0.149215  1
  O  O30  1  0.625354  0.499585  0.852044  1
  O  O31  1  0.374646  0.499585  0.852044  1
  O  O32  1  0.500000  0.625297  0.149001  1
  O  O33  1  0.378533  0.214010  0.456570  1
  O  O34  1  0.500000  0.001440  0.252577  1
  O  O35  1  0.000000  0.499916  0.747138  1
  O  O36  1  0.362062  0.827190  0.022497  1
  O  O37  1  0.172762  0.361939  0.977479  1
  O  O38  1  0.827062  0.637975  0.977690  1
  O  O39  1  0.638027  0.173067  0.024055  1
  O  O40  1  0.172938  0.637975  0.977690  1
  O  O41  1  0.827238  0.361939  0.977479  1
  O  O42  1  0.637938  0.827190  0.022497  1
  O  O43  1  0.361973  0.173067  0.024055  1
  O  O44  1  0.378010  0.786175  0.459558  1
  O  O45  1  0.214906  0.377872  0.540073  1
  O  O46  1  0.785888  0.621969  0.540391  1
  O  O47  1  0.621467  0.214010  0.456570  1
  O  O48  1  0.214112  0.621969  0.540391  1
  O  O49  1  0.785094  0.377872  0.540073  1
  O  O50  1  0.621990  0.786175  0.459558  1
