# generated using pymatgen
data_TbY3Ho2Ta2O14
_symmetry_space_group_name_H-M   'P 1'
_cell_length_a   6.49754727
_cell_length_b   6.51371368
_cell_length_c   7.47702509
_cell_angle_alpha   89.98534420
_cell_angle_beta   90.01494619
_cell_angle_gamma   108.54413391
_symmetry_Int_Tables_number   1
_chemical_formula_structural   TbY3Ho2Ta2O14
_chemical_formula_sum   'Tb1 Y3 Ho2 Ta2 O14'
_cell_volume   300.02084967
_cell_formula_units_Z   1
loop_
 _symmetry_equiv_pos_site_id
 _symmetry_equiv_pos_as_xyz
  1  'x, y, z'
loop_
 _atom_site_type_symbol
 _atom_site_label
 _atom_site_symmetry_multiplicity
 _atom_site_fract_x
 _atom_site_fract_y
 _atom_site_fract_z
 _atom_site_occupancy
  Tb  Tb0  1  0.536940  0.537856  0.499882  1
  Y  Y1  1  0.462901  0.462004  0.999881  1
  Y  Y2  1  0.999829  0.535059  0.240708  1
  Y  Y3  1  0.000265  0.464910  0.740948  1
  Ho  Ho4  1  0.534899  0.000505  0.759074  1
  Ho  Ho5  1  0.465079  0.999576  0.258833  1
  Ta  Ta6  1  0.002373  0.002373  0.500026  1
  Ta  Ta7  1  0.997752  0.997754  0.000028  1
  O  O8  1  0.930414  0.067237  0.750026  1
  O  O9  1  0.069573  0.932749  0.250116  1
  O  O10  1  0.360818  0.642066  0.249701  1
  O  O11  1  0.639272  0.358025  0.749982  1
  O  O12  1  0.372114  0.631051  0.750532  1
  O  O13  1  0.627874  0.368937  0.249902  1
  O  O14  1  0.328272  0.080479  0.975429  1
  O  O15  1  0.671660  0.919353  0.475450  1
  O  O16  1  0.306889  0.047225  0.545832  1
  O  O17  1  0.693179  0.952833  0.045849  1
  O  O18  1  0.049855  0.306569  0.455218  1
  O  O19  1  0.950200  0.693503  0.955201  1
  O  O20  1  0.917072  0.672329  0.523680  1
  O  O21  1  0.082771  0.327606  0.023702  1
