# generated using pymatgen
data_Th8Sc12Si7Ge9
_symmetry_space_group_name_H-M   'P 1'
_cell_length_a   7.42097565
_cell_length_b   7.51517368
_cell_length_c   14.21717400
_cell_angle_alpha   90.00000000
_cell_angle_beta   90.00000000
_cell_angle_gamma   89.92343321
_symmetry_Int_Tables_number   1
_chemical_formula_structural   Th8Sc12Si7Ge9
_chemical_formula_sum   'Th8 Sc12 Si7 Ge9'
_cell_volume   792.88996166
_cell_formula_units_Z   1
loop_
 _symmetry_equiv_pos_site_id
 _symmetry_equiv_pos_as_xyz
  1  'x, y, z'
loop_
 _atom_site_type_symbol
 _atom_site_label
 _atom_site_symmetry_multiplicity
 _atom_site_fract_x
 _atom_site_fract_y
 _atom_site_fract_z
 _atom_site_occupancy
  Th  Th0  1  0.008142  0.679652  0.598300  1
  Th  Th1  1  0.991905  0.322133  0.401112  1
  Th  Th2  1  0.491819  0.178090  0.401036  1
  Th  Th3  1  0.991905  0.322133  0.098888  1
  Th  Th4  1  0.508257  0.822162  0.598319  1
  Th  Th5  1  0.008142  0.679652  0.901700  1
  Th  Th6  1  0.508257  0.822162  0.901681  1
  Th  Th7  1  0.491819  0.178090  0.098964  1
  Sc  Sc8  1  0.181034  0.998018  0.750000  1
  Sc  Sc9  1  0.819459  0.999391  0.250000  1
  Sc  Sc10  1  0.319445  0.500497  0.250000  1
  Sc  Sc11  1  0.678497  0.500630  0.750000  1
  Sc  Sc12  1  0.354875  0.332240  0.626037  1
  Sc  Sc13  1  0.646701  0.667910  0.373596  1
  Sc  Sc14  1  0.146907  0.832018  0.373604  1
  Sc  Sc15  1  0.646701  0.667910  0.126404  1
  Sc  Sc16  1  0.851080  0.166089  0.625250  1
  Sc  Sc17  1  0.354875  0.332240  0.873963  1
  Sc  Sc18  1  0.851080  0.166089  0.874750  1
  Sc  Sc19  1  0.146907  0.832018  0.126396  1
  Si  Si20  1  0.944063  0.623173  0.250000  1
  Si  Si21  1  0.444098  0.876780  0.250000  1
  Si  Si22  1  0.555491  0.123638  0.750000  1
  Si  Si23  1  0.312514  0.627243  0.750000  1
  Si  Si24  1  0.690935  0.376274  0.250000  1
  Si  Si25  1  0.190772  0.123640  0.250000  1
  Si  Si26  1  0.809806  0.875825  0.750000  1
  Ge  Ge27  1  0.053238  0.373357  0.750000  1
  Ge  Ge28  1  0.188661  0.044048  0.543278  1
  Ge  Ge29  1  0.811497  0.956255  0.456549  1
  Ge  Ge30  1  0.311304  0.543611  0.456884  1
  Ge  Ge31  1  0.811497  0.956255  0.043451  1
  Ge  Ge32  1  0.689177  0.456560  0.543224  1
  Ge  Ge33  1  0.188661  0.044048  0.956722  1
  Ge  Ge34  1  0.689177  0.456560  0.956776  1
  Ge  Ge35  1  0.311304  0.543611  0.043116  1
