# generated using pymatgen
data_Y5TcAu2
_symmetry_space_group_name_H-M   'P 1'
_cell_length_a   11.29855700
_cell_length_b   11.29855700
_cell_length_c   6.47242200
_cell_angle_alpha   90.00000000
_cell_angle_beta   90.00000000
_cell_angle_gamma   90.00000000
_symmetry_Int_Tables_number   1
_chemical_formula_structural   Y5TcAu2
_chemical_formula_sum   'Y20 Tc4 Au8'
_cell_volume   826.25250133
_cell_formula_units_Z   4
loop_
 _symmetry_equiv_pos_site_id
 _symmetry_equiv_pos_as_xyz
  1  'x, y, z'
loop_
 _atom_site_type_symbol
 _atom_site_label
 _atom_site_symmetry_multiplicity
 _atom_site_fract_x
 _atom_site_fract_y
 _atom_site_fract_z
 _atom_site_occupancy
  Y  Y0  1  0.300484  0.081926  0.347930  1
  Y  Y1  1  0.300484  0.918074  0.847930  1
  Y  Y2  1  0.699516  0.081926  0.847930  1
  Y  Y3  1  0.699516  0.918074  0.347930  1
  Y  Y4  1  0.581926  0.800484  0.847930  1
  Y  Y5  1  0.581926  0.199516  0.347930  1
  Y  Y6  1  0.418074  0.800484  0.347930  1
  Y  Y7  1  0.418074  0.199516  0.847930  1
  Y  Y8  1  0.199516  0.418074  0.652070  1
  Y  Y9  1  0.199516  0.581926  0.152070  1
  Y  Y10  1  0.800484  0.418074  0.152070  1
  Y  Y11  1  0.800484  0.581926  0.652070  1
  Y  Y12  1  0.918074  0.699516  0.152070  1
  Y  Y13  1  0.918074  0.300484  0.652070  1
  Y  Y14  1  0.081926  0.699516  0.652070  1
  Y  Y15  1  0.081926  0.300484  0.152070  1
  Y  Y16  1  0.000000  0.000000  0.500000  1
  Y  Y17  1  0.000000  0.000000  0.000000  1
  Y  Y18  1  0.500000  0.500000  0.000000  1
  Y  Y19  1  0.500000  0.500000  0.500000  1
  Tc  Tc20  1  0.500000  0.000000  0.100372  1
  Tc  Tc21  1  0.500000  0.000000  0.600372  1
  Tc  Tc22  1  0.000000  0.500000  0.899628  1
  Tc  Tc23  1  0.000000  0.500000  0.399628  1
  Au  Au24  1  0.844223  0.155777  0.250000  1
  Au  Au25  1  0.844223  0.844223  0.750000  1
  Au  Au26  1  0.155777  0.155777  0.750000  1
  Au  Au27  1  0.155777  0.844223  0.250000  1
  Au  Au28  1  0.655777  0.344223  0.750000  1
  Au  Au29  1  0.655777  0.655777  0.250000  1
  Au  Au30  1  0.344223  0.344223  0.250000  1
  Au  Au31  1  0.344223  0.655777  0.750000  1
