# generated using pymatgen
data_Hf5In3B
_symmetry_space_group_name_H-M   'P 1'
_cell_length_a   5.72745400
_cell_length_b   8.56894790
_cell_length_c   8.56895000
_cell_angle_alpha   119.99995406
_cell_angle_beta   90.00000000
_cell_angle_gamma   90.00000000
_symmetry_Int_Tables_number   1
_chemical_formula_structural   Hf5In3B
_chemical_formula_sum   'Hf10 In6 B2'
_cell_volume   364.20638358
_cell_formula_units_Z   2
loop_
 _symmetry_equiv_pos_site_id
 _symmetry_equiv_pos_as_xyz
  1  'x, y, z'
loop_
 _atom_site_type_symbol
 _atom_site_label
 _atom_site_symmetry_multiplicity
 _atom_site_fract_x
 _atom_site_fract_y
 _atom_site_fract_z
 _atom_site_occupancy
  Hf  Hf0  1  0.250000  0.224996  0.000000  1
  Hf  Hf1  1  0.749999  0.775004  0.000000  1
  Hf  Hf2  1  0.750000  0.224997  0.224997  1
  Hf  Hf3  1  0.250000  0.000000  0.224997  1
  Hf  Hf4  1  0.000000  0.666667  0.333333  1
  Hf  Hf5  1  0.499999  0.666667  0.333333  1
  Hf  Hf6  1  0.000000  0.333333  0.666666  1
  Hf  Hf7  1  0.499999  0.333334  0.666667  1
  Hf  Hf8  1  0.250001  0.775003  0.775003  1
  Hf  Hf9  1  0.749999  0.000000  0.775004  1
  In  In10  1  0.749999  0.397434  0.000000  1
  In  In11  1  0.249998  0.602564  0.000000  1
  In  In12  1  0.250001  0.397435  0.397435  1
  In  In13  1  0.749999  0.000000  0.397435  1
  In  In14  1  0.750000  0.602565  0.602565  1
  In  In15  1  0.249998  0.000000  0.602566  1
  B  B16  1  0.000000  0.000000  0.000000  1
  B  B17  1  0.499999  0.000000  0.000000  1
