# generated using pymatgen
data_Y3ErGa5Ir9
_symmetry_space_group_name_H-M   'P 1'
_cell_length_a   5.57012800
_cell_length_b   5.57012806
_cell_length_c   23.67116800
_cell_angle_alpha   90.00000000
_cell_angle_beta   90.00000000
_cell_angle_gamma   119.99998775
_symmetry_Int_Tables_number   1
_chemical_formula_structural   Y3ErGa5Ir9
_chemical_formula_sum   'Y6 Er2 Ga10 Ir18'
_cell_volume   636.03458054
_cell_formula_units_Z   2
loop_
 _symmetry_equiv_pos_site_id
 _symmetry_equiv_pos_as_xyz
  1  'x, y, z'
loop_
 _atom_site_type_symbol
 _atom_site_label
 _atom_site_symmetry_multiplicity
 _atom_site_fract_x
 _atom_site_fract_y
 _atom_site_fract_z
 _atom_site_occupancy
  Y  Y0  1  0.666667  0.333333  0.029902  1
  Y  Y1  1  0.333333  0.666667  0.970098  1
  Y  Y2  1  0.333333  0.666667  0.677750  1
  Y  Y3  1  0.666667  0.333333  0.322250  1
  Y  Y4  1  0.666667  0.333333  0.177999  1
  Y  Y5  1  0.333333  0.666667  0.822001  1
  Er  Er6  1  0.333333  0.666667  0.529693  1
  Er  Er7  1  0.666667  0.333333  0.470307  1
  Ga  Ga8  1  0.000000  0.000000  0.000000  1
  Ga  Ga9  1  0.000000  0.000000  0.500000  1
  Ga  Ga10  1  0.333333  0.666667  0.168040  1
  Ga  Ga11  1  0.666667  0.333333  0.831960  1
  Ga  Ga12  1  0.666667  0.333333  0.667802  1
  Ga  Ga13  1  0.333333  0.666667  0.332198  1
  Ga  Ga14  1  0.000000  0.000000  0.165262  1
  Ga  Ga15  1  0.000000  0.000000  0.834738  1
  Ga  Ga16  1  0.000000  0.000000  0.664889  1
  Ga  Ga17  1  0.000000  0.000000  0.335111  1
  Ir  Ir18  1  0.170563  0.341126  0.083497  1
  Ir  Ir19  1  0.829437  0.658874  0.916503  1
  Ir  Ir20  1  0.658874  0.829437  0.083497  1
  Ir  Ir21  1  0.829113  0.658227  0.582902  1
  Ir  Ir22  1  0.341126  0.170563  0.916503  1
  Ir  Ir23  1  0.170887  0.341773  0.417098  1
  Ir  Ir24  1  0.170563  0.829437  0.083497  1
  Ir  Ir25  1  0.341773  0.170887  0.582902  1
  Ir  Ir26  1  0.829437  0.170563  0.916503  1
  Ir  Ir27  1  0.658227  0.829113  0.417098  1
  Ir  Ir28  1  0.829113  0.170887  0.582902  1
  Ir  Ir29  1  0.170887  0.829113  0.417098  1
  Ir  Ir30  1  0.165258  0.330514  0.250063  1
  Ir  Ir31  1  0.834742  0.669486  0.749937  1
  Ir  Ir32  1  0.669486  0.834742  0.250063  1
  Ir  Ir33  1  0.330514  0.165258  0.749937  1
  Ir  Ir34  1  0.165258  0.834742  0.250063  1
  Ir  Ir35  1  0.834742  0.165258  0.749937  1
