# generated using pymatgen
data_Pr2Ho7Tm(In2Pt)4
_symmetry_space_group_name_H-M   'P 1'
_cell_length_a   3.63422600
_cell_length_b   8.20321901
_cell_length_c   18.38783003
_cell_angle_alpha   89.99368340
_cell_angle_beta   90.00000000
_cell_angle_gamma   90.00000000
_symmetry_Int_Tables_number   1
_chemical_formula_structural   Pr2Ho7Tm(In2Pt)4
_chemical_formula_sum   'Pr2 Ho7 Tm1 In8 Pt4'
_cell_volume   548.18445465
_cell_formula_units_Z   1
loop_
 _symmetry_equiv_pos_site_id
 _symmetry_equiv_pos_as_xyz
  1  'x, y, z'
loop_
 _atom_site_type_symbol
 _atom_site_label
 _atom_site_symmetry_multiplicity
 _atom_site_fract_x
 _atom_site_fract_y
 _atom_site_fract_z
 _atom_site_occupancy
  Pr  Pr0  1  0.000000  0.999972  0.000016  1
  Pr  Pr1  1  0.000000  0.499986  0.499976  1
  Ho  Ho2  1  0.000000  0.881523  0.586143  1
  Ho  Ho3  1  0.000000  0.381558  0.913808  1
  Ho  Ho4  1  0.000000  0.618430  0.086212  1
  Ho  Ho5  1  0.000000  0.242540  0.220094  1
  Ho  Ho6  1  0.000000  0.757414  0.779988  1
  Ho  Ho7  1  0.000000  0.257432  0.720027  1
  Ho  Ho8  1  0.000000  0.742678  0.280050  1
  Tm  Tm9  1  0.000000  0.117973  0.413249  1
  In  In10  1  0.500000  0.421264  0.348289  1
  In  In11  1  0.500000  0.578201  0.651858  1
  In  In12  1  0.500000  0.078108  0.848152  1
  In  In13  1  0.500000  0.921917  0.151916  1
  In  In14  1  0.500000  0.299208  0.068042  1
  In  In15  1  0.500000  0.700769  0.931959  1
  In  In16  1  0.500000  0.200629  0.567736  1
  In  In17  1  0.500000  0.799941  0.431983  1
  Pt  Pt18  1  0.500000  0.024918  0.304060  1
  Pt  Pt19  1  0.500000  0.975591  0.696437  1
  Pt  Pt20  1  0.500000  0.475530  0.803491  1
  Pt  Pt21  1  0.500000  0.524418  0.196514  1
