# generated using pymatgen
data_Ca5Cd2Sb5Cl
_symmetry_space_group_name_H-M   'P 1'
_cell_length_a   4.63330800
_cell_length_b   11.39251051
_cell_length_c   14.57496800
_cell_angle_alpha   89.99989942
_cell_angle_beta   90.00000000
_cell_angle_gamma   78.26437365
_symmetry_Int_Tables_number   1
_chemical_formula_structural   Ca5Cd2Sb5Cl
_chemical_formula_sum   'Ca10 Cd4 Sb10 Cl2'
_cell_volume   753.25795989
_cell_formula_units_Z   2
loop_
 _symmetry_equiv_pos_site_id
 _symmetry_equiv_pos_as_xyz
  1  'x, y, z'
loop_
 _atom_site_type_symbol
 _atom_site_label
 _atom_site_symmetry_multiplicity
 _atom_site_fract_x
 _atom_site_fract_y
 _atom_site_fract_z
 _atom_site_occupancy
  Ca  Ca0  1  0.000000  0.000000  0.000000  1
  Ca  Ca1  1  0.738744  0.522316  0.112949  1
  Ca  Ca2  1  0.901214  0.197684  0.250000  1
  Ca  Ca3  1  0.085000  0.830198  0.250000  1
  Ca  Ca4  1  0.738745  0.522316  0.387051  1
  Ca  Ca5  1  0.000000  0.000000  0.500000  1
  Ca  Ca6  1  0.261255  0.477684  0.612949  1
  Ca  Ca7  1  0.914999  0.169802  0.750000  1
  Ca  Ca8  1  0.098785  0.802316  0.750000  1
  Ca  Ca9  1  0.261255  0.477684  0.887051  1
  Cd  Cd10  1  0.368750  0.262760  0.084531  1
  Cd  Cd11  1  0.368750  0.262760  0.415469  1
  Cd  Cd12  1  0.631249  0.737239  0.584531  1
  Cd  Cd13  1  0.631249  0.737239  0.915469  1
  Sb  Sb14  1  0.147581  0.704451  0.029911  1
  Sb  Sb15  1  0.493197  0.013625  0.151447  1
  Sb  Sb16  1  0.294076  0.411452  0.250000  1
  Sb  Sb17  1  0.493197  0.013625  0.348553  1
  Sb  Sb18  1  0.147581  0.704452  0.470085  1
  Sb  Sb19  1  0.852418  0.295548  0.529915  1
  Sb  Sb20  1  0.506802  0.986375  0.651447  1
  Sb  Sb21  1  0.705923  0.588547  0.750000  1
  Sb  Sb22  1  0.506802  0.986375  0.848553  1
  Sb  Sb23  1  0.852417  0.295549  0.970089  1
  Cl  Cl24  1  0.652816  0.694659  0.250000  1
  Cl  Cl25  1  0.347182  0.305341  0.750000  1
