# generated using pymatgen
data_DyHo11(Si3Ir)4
_symmetry_space_group_name_H-M   'P 1'
_cell_length_a   4.23154900
_cell_length_b   10.60774919
_cell_length_c   12.25720911
_cell_angle_alpha   90.02502891
_cell_angle_beta   90.00000000
_cell_angle_gamma   90.00000000
_symmetry_Int_Tables_number   1
_chemical_formula_structural   DyHo11(Si3Ir)4
_chemical_formula_sum   'Dy1 Ho11 Si12 Ir4'
_cell_volume   550.19187311
_cell_formula_units_Z   1
loop_
 _symmetry_equiv_pos_site_id
 _symmetry_equiv_pos_as_xyz
  1  'x, y, z'
loop_
 _atom_site_type_symbol
 _atom_site_label
 _atom_site_symmetry_multiplicity
 _atom_site_fract_x
 _atom_site_fract_y
 _atom_site_fract_z
 _atom_site_occupancy
  Dy  Dy0  1  0.750000  0.158366  0.699017  1
  Ho  Ho1  1  0.250000  0.880139  0.020534  1
  Ho  Ho2  1  0.250000  0.619849  0.520349  1
  Ho  Ho3  1  0.750000  0.119987  0.979578  1
  Ho  Ho4  1  0.750000  0.380106  0.479601  1
  Ho  Ho5  1  0.250000  0.918566  0.603230  1
  Ho  Ho6  1  0.250000  0.581315  0.103449  1
  Ho  Ho7  1  0.750000  0.081111  0.396782  1
  Ho  Ho8  1  0.750000  0.418988  0.896653  1
  Ho  Ho9  1  0.250000  0.659109  0.800787  1
  Ho  Ho10  1  0.250000  0.841381  0.300857  1
  Ho  Ho11  1  0.750000  0.340610  0.199258  1
  Si  Si12  1  0.250000  0.009971  0.821265  1
  Si  Si13  1  0.250000  0.489493  0.321008  1
  Si  Si14  1  0.750000  0.989894  0.178878  1
  Si  Si15  1  0.750000  0.510406  0.678995  1
  Si  Si16  1  0.250000  0.246749  0.840858  1
  Si  Si17  1  0.250000  0.253441  0.340915  1
  Si  Si18  1  0.750000  0.753675  0.159380  1
  Si  Si19  1  0.750000  0.746376  0.659072  1
  Si  Si20  1  0.250000  0.200739  0.543342  1
  Si  Si21  1  0.250000  0.299630  0.043602  1
  Si  Si22  1  0.750000  0.799247  0.456239  1
  Si  Si23  1  0.750000  0.700659  0.956433  1
  Ir  Ir24  1  0.250000  0.389998  0.680768  1
  Ir  Ir25  1  0.250000  0.110679  0.180785  1
  Ir  Ir26  1  0.750000  0.610293  0.319173  1
  Ir  Ir27  1  0.750000  0.889223  0.819192  1
