# generated using pymatgen
data_Sr4ScIrO8
_symmetry_space_group_name_H-M   'P 1'
_cell_length_a   6.96906449
_cell_length_b   6.96906396
_cell_length_c   5.69487700
_cell_angle_alpha   90.00000000
_cell_angle_beta   90.00000000
_cell_angle_gamma   131.84440497
_symmetry_Int_Tables_number   1
_chemical_formula_structural   Sr4ScIrO8
_chemical_formula_sum   'Sr4 Sc1 Ir1 O8'
_cell_volume   206.04675180
_cell_formula_units_Z   1
loop_
 _symmetry_equiv_pos_site_id
 _symmetry_equiv_pos_as_xyz
  1  'x, y, z'
loop_
 _atom_site_type_symbol
 _atom_site_label
 _atom_site_symmetry_multiplicity
 _atom_site_fract_x
 _atom_site_fract_y
 _atom_site_fract_z
 _atom_site_occupancy
  Sr  Sr0  1  0.644416  0.355584  0.000000  1
  Sr  Sr1  1  0.145686  0.854314  0.500000  1
  Sr  Sr2  1  0.854314  0.145686  0.500000  1
  Sr  Sr3  1  0.355584  0.644416  0.000000  1
  Sc  Sc4  1  0.500000  0.500000  0.500000  1
  Ir  Ir5  1  0.000000  0.000000  0.000000  1
  O  O6  1  0.755110  0.755110  0.757191  1
  O  O7  1  0.244890  0.244890  0.242809  1
  O  O8  1  0.244890  0.244890  0.757191  1
  O  O9  1  0.755110  0.755110  0.242809  1
  O  O10  1  0.840606  0.159394  0.000000  1
  O  O11  1  0.334015  0.665985  0.500000  1
  O  O12  1  0.665985  0.334015  0.500000  1
  O  O13  1  0.159394  0.840606  0.000000  1
