# generated using pymatgen
data_Y5Tm15Cd6FeRu
_symmetry_space_group_name_H-M   'P 1'
_cell_length_a   9.48832805
_cell_length_b   9.48833758
_cell_length_c   9.71750900
_cell_angle_alpha   90.00000000
_cell_angle_beta   90.00000000
_cell_angle_gamma   119.90375592
_symmetry_Int_Tables_number   1
_chemical_formula_structural   Y5Tm15Cd6FeRu
_chemical_formula_sum   'Y5 Tm15 Cd6 Fe1 Ru1'
_cell_volume   758.37808252
_cell_formula_units_Z   1
loop_
 _symmetry_equiv_pos_site_id
 _symmetry_equiv_pos_as_xyz
  1  'x, y, z'
loop_
 _atom_site_type_symbol
 _atom_site_label
 _atom_site_symmetry_multiplicity
 _atom_site_fract_x
 _atom_site_fract_y
 _atom_site_fract_z
 _atom_site_occupancy
  Y  Y0  1  0.539465  0.079432  0.250000  1
  Y  Y1  1  0.920518  0.460497  0.250000  1
  Y  Y2  1  0.459177  0.540804  0.750000  1
  Y  Y3  1  0.459345  0.919304  0.750000  1
  Y  Y4  1  0.080682  0.540660  0.750000  1
  Tm  Tm5  1  0.000310  0.999683  0.499693  1
  Tm  Tm6  1  0.000310  0.999683  0.000307  1
  Tm  Tm7  1  0.212358  0.787621  0.436613  1
  Tm  Tm8  1  0.213352  0.424551  0.436346  1
  Tm  Tm9  1  0.575466  0.786661  0.436341  1
  Tm  Tm10  1  0.790383  0.209608  0.559135  1
  Tm  Tm11  1  0.789207  0.580282  0.558602  1
  Tm  Tm12  1  0.419718  0.210792  0.558598  1
  Tm  Tm13  1  0.790383  0.209608  0.940865  1
  Tm  Tm14  1  0.789207  0.580282  0.941398  1
  Tm  Tm15  1  0.419718  0.210792  0.941402  1
  Tm  Tm16  1  0.212358  0.787621  0.063387  1
  Tm  Tm17  1  0.213352  0.424551  0.063654  1
  Tm  Tm18  1  0.575466  0.786661  0.063659  1
  Tm  Tm19  1  0.538580  0.461420  0.250000  1
  Cd  Cd20  1  0.886255  0.113737  0.250000  1
  Cd  Cd21  1  0.884259  0.771366  0.250000  1
  Cd  Cd22  1  0.228633  0.115784  0.250000  1
  Cd  Cd23  1  0.113493  0.886562  0.750000  1
  Cd  Cd24  1  0.113905  0.226694  0.750000  1
  Cd  Cd25  1  0.773298  0.886105  0.750000  1
  Fe  Fe26  1  0.333963  0.666059  0.250000  1
  Ru  Ru27  1  0.666839  0.333182  0.750000  1
