# generated using pymatgen
data_Tb3Tm5Hf12Si15As
_symmetry_space_group_name_H-M   'P 1'
_cell_length_a   7.26640439
_cell_length_b   7.27566883
_cell_length_c   13.34883831
_cell_angle_alpha   89.68547333
_cell_angle_beta   89.96073177
_cell_angle_gamma   89.96521052
_symmetry_Int_Tables_number   1
_chemical_formula_structural   Tb3Tm5Hf12Si15As
_chemical_formula_sum   'Tb3 Tm5 Hf12 Si15 As1'
_cell_volume   705.71481505
_cell_formula_units_Z   1
loop_
 _symmetry_equiv_pos_site_id
 _symmetry_equiv_pos_as_xyz
  1  'x, y, z'
loop_
 _atom_site_type_symbol
 _atom_site_label
 _atom_site_symmetry_multiplicity
 _atom_site_fract_x
 _atom_site_fract_y
 _atom_site_fract_z
 _atom_site_occupancy
  Tb  Tb0  1  0.495675  0.155529  0.535382  1
  Tb  Tb1  1  0.344721  0.995201  0.785396  1
  Tb  Tb2  1  0.655315  0.004677  0.283715  1
  Tm  Tm3  1  0.995983  0.346421  0.214601  1
  Tm  Tm4  1  0.004029  0.655255  0.715299  1
  Tm  Tm5  1  0.151654  0.500686  0.466792  1
  Tm  Tm6  1  0.506252  0.842449  0.033628  1
  Tm  Tm7  1  0.845021  0.502950  0.965005  1
  Hf  Hf8  1  0.174179  0.175287  0.000102  1
  Hf  Hf9  1  0.827173  0.825733  0.500160  1
  Hf  Hf10  1  0.324470  0.676971  0.249480  1
  Hf  Hf11  1  0.675220  0.326172  0.750399  1
  Hf  Hf12  1  0.148763  0.995591  0.372603  1
  Hf  Hf13  1  0.851525  0.002683  0.875287  1
  Hf  Hf14  1  0.503238  0.649372  0.624962  1
  Hf  Hf15  1  0.352176  0.497218  0.875693  1
  Hf  Hf16  1  0.495083  0.349541  0.125073  1
  Hf  Hf17  1  0.652737  0.505806  0.376461  1
  Hf  Hf18  1  0.997387  0.149609  0.625611  1
  Hf  Hf19  1  0.999627  0.848476  0.123852  1
  Si  Si20  1  0.640453  0.704272  0.817756  1
  Si  Si21  1  0.202715  0.860721  0.566849  1
  Si  Si22  1  0.137515  0.793265  0.932419  1
  Si  Si23  1  0.795226  0.140121  0.067897  1
  Si  Si24  1  0.864103  0.206234  0.432312  1
  Si  Si25  1  0.294069  0.363480  0.682510  1
  Si  Si26  1  0.703616  0.636038  0.182088  1
  Si  Si27  1  0.294479  0.038654  0.179115  1
  Si  Si28  1  0.706193  0.949855  0.685842  1
  Si  Si29  1  0.450370  0.794938  0.435786  1
  Si  Si30  1  0.202472  0.547295  0.064597  1
  Si  Si31  1  0.549858  0.203797  0.936382  1
  Si  Si32  1  0.797447  0.452699  0.565164  1
  Si  Si33  1  0.047815  0.298135  0.814393  1
  Si  Si34  1  0.952946  0.702423  0.314616  1
  As  As35  1  0.360495  0.302446  0.322769  1
