# generated using pymatgen
data_Nb2Fe7(Re7B3)2
_symmetry_space_group_name_H-M   'P 1'
_cell_length_a   7.99062688
_cell_length_b   7.99062689
_cell_length_c   7.99062714
_cell_angle_alpha   60.12236380
_cell_angle_beta   60.12236122
_cell_angle_gamma   60.12236055
_symmetry_Int_Tables_number   1
_chemical_formula_structural   Nb2Fe7(Re7B3)2
_chemical_formula_sum   'Nb2 Fe7 Re14 B6'
_cell_volume   361.76772204
_cell_formula_units_Z   1
loop_
 _symmetry_equiv_pos_site_id
 _symmetry_equiv_pos_as_xyz
  1  'x, y, z'
loop_
 _atom_site_type_symbol
 _atom_site_label
 _atom_site_symmetry_multiplicity
 _atom_site_fract_x
 _atom_site_fract_y
 _atom_site_fract_z
 _atom_site_occupancy
  Nb  Nb0  1  0.248238  0.248238  0.248238  1
  Nb  Nb1  1  0.751762  0.751762  0.751762  1
  Fe  Fe2  1  0.384266  0.384266  0.841883  1
  Fe  Fe3  1  0.384266  0.841883  0.384266  1
  Fe  Fe4  1  0.615734  0.615734  0.158117  1
  Fe  Fe5  1  0.615734  0.158117  0.615734  1
  Fe  Fe6  1  0.841883  0.384266  0.384266  1
  Fe  Fe7  1  0.158117  0.615734  0.615734  1
  Fe  Fe8  1  0.000000  0.000000  0.000000  1
  Re  Re9  1  0.340486  0.999660  0.999660  1
  Re  Re10  1  0.659514  0.000340  0.000340  1
  Re  Re11  1  0.000000  0.338786  0.661214  1
  Re  Re12  1  0.000000  0.661214  0.338786  1
  Re  Re13  1  0.999660  0.340486  0.999660  1
  Re  Re14  1  0.661214  0.000000  0.338786  1
  Re  Re15  1  0.000340  0.659514  0.000340  1
  Re  Re16  1  0.338786  0.000000  0.661214  1
  Re  Re17  1  0.999660  0.999660  0.340486  1
  Re  Re18  1  0.000340  0.000340  0.659514  1
  Re  Re19  1  0.661214  0.338786  0.000000  1
  Re  Re20  1  0.338786  0.661214  0.000000  1
  Re  Re21  1  0.384881  0.384881  0.384881  1
  Re  Re22  1  0.615119  0.615119  0.615119  1
  B  B23  1  0.725991  0.278739  0.278739  1
  B  B24  1  0.274009  0.721261  0.721261  1
  B  B25  1  0.278739  0.725991  0.278739  1
  B  B26  1  0.721261  0.274009  0.721261  1
  B  B27  1  0.278739  0.278739  0.725991  1
  B  B28  1  0.721261  0.721261  0.274009  1
