# generated using pymatgen
data_Np8B24MoW3
_symmetry_space_group_name_H-M   'P 1'
_cell_length_a   3.66296400
_cell_length_b   9.28993402
_cell_length_c   11.33911425
_cell_angle_alpha   89.94632115
_cell_angle_beta   90.00000000
_cell_angle_gamma   90.00000000
_symmetry_Int_Tables_number   1
_chemical_formula_structural   Np8B24MoW3
_chemical_formula_sum   'Np8 B24 Mo1 W3'
_cell_volume   385.85507809
_cell_formula_units_Z   1
loop_
 _symmetry_equiv_pos_site_id
 _symmetry_equiv_pos_as_xyz
  1  'x, y, z'
loop_
 _atom_site_type_symbol
 _atom_site_label
 _atom_site_symmetry_multiplicity
 _atom_site_fract_x
 _atom_site_fract_y
 _atom_site_fract_z
 _atom_site_occupancy
  Np  Np0  1  0.000000  0.338732  0.407225  1
  Np  Np1  1  0.000000  0.661489  0.592731  1
  Np  Np2  1  0.000000  0.838439  0.092615  1
  Np  Np3  1  0.000000  0.161802  0.907344  1
  Np  Np4  1  0.000000  0.958387  0.399287  1
  Np  Np5  1  0.000000  0.041063  0.600171  1
  Np  Np6  1  0.000000  0.458755  0.100712  1
  Np  Np7  1  0.000000  0.541072  0.900254  1
  B  B8  1  0.500000  0.551656  0.432484  1
  B  B9  1  0.500000  0.448658  0.567409  1
  B  B10  1  0.500000  0.051642  0.067395  1
  B  B11  1  0.500000  0.948492  0.932486  1
  B  B12  1  0.500000  0.744662  0.424276  1
  B  B13  1  0.500000  0.255075  0.575525  1
  B  B14  1  0.500000  0.245323  0.075718  1
  B  B15  1  0.500000  0.754771  0.924343  1
  B  B16  1  0.500000  0.806023  0.273744  1
  B  B17  1  0.500000  0.193867  0.726271  1
  B  B18  1  0.500000  0.306500  0.226167  1
  B  B19  1  0.500000  0.693587  0.773734  1
  B  B20  1  0.500000  0.646065  0.187076  1
  B  B21  1  0.500000  0.353957  0.813212  1
  B  B22  1  0.500000  0.146354  0.313011  1
  B  B23  1  0.500000  0.853549  0.686789  1
  B  B24  1  0.500000  0.987779  0.220567  1
  B  B25  1  0.500000  0.012206  0.779303  1
  B  B26  1  0.500000  0.487870  0.279292  1
  B  B27  1  0.500000  0.512395  0.720622  1
  B  B28  1  0.500000  0.641288  0.039460  1
  B  B29  1  0.500000  0.358929  0.960986  1
  B  B30  1  0.500000  0.141637  0.460740  1
  B  B31  1  0.500000  0.857971  0.539084  1
  Mo  Mo32  1  0.000000  0.646571  0.319367  1
  W  W33  1  0.000000  0.353359  0.680676  1
  W  W34  1  0.000000  0.147185  0.180630  1
  W  W35  1  0.000000  0.852889  0.819295  1
