# generated using pymatgen
data_Dy3HoS4
_symmetry_space_group_name_H-M   'P 1'
_cell_length_a   12.68765994
_cell_length_b   12.68766006
_cell_length_c   12.68765864
_cell_angle_alpha   17.86348620
_cell_angle_beta   17.86348394
_cell_angle_gamma   17.86348546
_symmetry_Int_Tables_number   1
_chemical_formula_structural   Dy3HoS4
_chemical_formula_sum   'Dy3 Ho1 S4'
_cell_volume   167.78293270
_cell_formula_units_Z   1
loop_
 _symmetry_equiv_pos_site_id
 _symmetry_equiv_pos_as_xyz
  1  'x, y, z'
loop_
 _atom_site_type_symbol
 _atom_site_label
 _atom_site_symmetry_multiplicity
 _atom_site_fract_x
 _atom_site_fract_y
 _atom_site_fract_z
 _atom_site_occupancy
  Dy  Dy0  1  0.250504  0.250504  0.250504  1
  Dy  Dy1  1  0.500000  0.500000  0.500000  1
  Dy  Dy2  1  0.749496  0.749496  0.749496  1
  Ho  Ho3  1  0.000000  0.000000  0.000000  1
  S  S4  1  0.374457  0.374457  0.374457  1
  S  S5  1  0.124738  0.124738  0.124738  1
  S  S6  1  0.625543  0.625543  0.625543  1
  S  S7  1  0.875262  0.875262  0.875262  1
