# generated using pymatgen
data_Nd8Tm12Si15Os
_symmetry_space_group_name_H-M   'P 1'
_cell_length_a   7.69945484
_cell_length_b   7.73441278
_cell_length_c   14.20278076
_cell_angle_alpha   89.77555333
_cell_angle_beta   89.94929523
_cell_angle_gamma   90.13091560
_symmetry_Int_Tables_number   1
_chemical_formula_structural   Nd8Tm12Si15Os
_chemical_formula_sum   'Nd8 Tm12 Si15 Os1'
_cell_volume   845.77737991
_cell_formula_units_Z   1
loop_
 _symmetry_equiv_pos_site_id
 _symmetry_equiv_pos_as_xyz
  1  'x, y, z'
loop_
 _atom_site_type_symbol
 _atom_site_label
 _atom_site_symmetry_multiplicity
 _atom_site_fract_x
 _atom_site_fract_y
 _atom_site_fract_z
 _atom_site_occupancy
  Nd  Nd0  1  0.635669  0.992629  0.461655  1
  Nd  Nd1  1  0.356917  0.006645  0.958929  1
  Nd  Nd2  1  0.994923  0.644645  0.539215  1
  Nd  Nd3  1  0.491948  0.856964  0.209431  1
  Nd  Nd4  1  0.503102  0.138322  0.704658  1
  Nd  Nd5  1  0.855995  0.491110  0.790717  1
  Nd  Nd6  1  0.143892  0.505100  0.290580  1
  Nd  Nd7  1  0.009476  0.355518  0.039965  1
  Tm  Tm8  1  0.491845  0.359259  0.122845  1
  Tm  Tm9  1  0.998909  0.137158  0.624510  1
  Tm  Tm10  1  0.859889  0.006460  0.874864  1
  Tm  Tm11  1  0.142309  0.988612  0.379026  1
  Tm  Tm12  1  0.502310  0.645186  0.620619  1
  Tm  Tm13  1  0.358797  0.493729  0.877065  1
  Tm  Tm14  1  0.639390  0.506210  0.376058  1
  Tm  Tm15  1  0.006987  0.862982  0.126202  1
  Tm  Tm16  1  0.317714  0.306003  0.502892  1
  Tm  Tm17  1  0.185624  0.826033  0.743704  1
  Tm  Tm18  1  0.820375  0.180580  0.251883  1
  Tm  Tm19  1  0.682952  0.682082  0.000945  1
  Si  Si20  1  0.710024  0.063425  0.061941  1
  Si  Si21  1  0.935012  0.294001  0.437438  1
  Si  Si22  1  0.436763  0.211512  0.309561  1
  Si  Si23  1  0.566386  0.788767  0.812516  1
  Si  Si24  1  0.209930  0.439923  0.691395  1
  Si  Si25  1  0.790182  0.563868  0.188469  1
  Si  Si26  1  0.060782  0.710570  0.938421  1
  Si  Si27  1  0.794958  0.848242  0.690137  1
  Si  Si28  1  0.205983  0.149079  0.187817  1
  Si  Si29  1  0.848123  0.793832  0.310666  1
  Si  Si30  1  0.351409  0.702313  0.436700  1
  Si  Si31  1  0.651214  0.296868  0.939812  1
  Si  Si32  1  0.708931  0.353194  0.561746  1
  Si  Si33  1  0.294816  0.650885  0.061580  1
  Si  Si34  1  0.147552  0.209329  0.814446  1
  Os  Os35  1  0.288912  0.938966  0.561590  1
