# generated using pymatgen
data_Dy13Tm7(Bi2Pt)4
_symmetry_space_group_name_H-M   'P 1'
_cell_length_a   8.01986399
_cell_length_b   9.00836349
_cell_length_c   12.43591502
_cell_angle_alpha   89.97737754
_cell_angle_beta   90.04240004
_cell_angle_gamma   90.01641872
_symmetry_Int_Tables_number   1
_chemical_formula_structural   Dy13Tm7(Bi2Pt)4
_chemical_formula_sum   'Dy13 Tm7 Bi8 Pt4'
_cell_volume   898.44289743
_cell_formula_units_Z   1
loop_
 _symmetry_equiv_pos_site_id
 _symmetry_equiv_pos_as_xyz
  1  'x, y, z'
loop_
 _atom_site_type_symbol
 _atom_site_label
 _atom_site_symmetry_multiplicity
 _atom_site_fract_x
 _atom_site_fract_y
 _atom_site_fract_z
 _atom_site_occupancy
  Dy  Dy0  1  0.839414  0.750504  0.790427  1
  Dy  Dy1  1  0.160693  0.249998  0.209659  1
  Dy  Dy2  1  0.339716  0.250161  0.709233  1
  Dy  Dy3  1  0.660488  0.750013  0.290353  1
  Dy  Dy4  1  0.369866  0.749852  0.697291  1
  Dy  Dy5  1  0.629844  0.250322  0.302145  1
  Dy  Dy6  1  0.869544  0.249418  0.802042  1
  Dy  Dy7  1  0.129199  0.750745  0.198049  1
  Dy  Dy8  1  0.948805  0.750077  0.499928  1
  Dy  Dy9  1  0.050633  0.250090  0.500175  1
  Dy  Dy10  1  0.450753  0.249044  0.000367  1
  Dy  Dy11  1  0.551721  0.750723  0.999939  1
  Dy  Dy12  1  0.179318  0.545006  0.933637  1
  Tm  Tm13  1  0.675996  0.046017  0.566126  1
  Tm  Tm14  1  0.323803  0.954011  0.433768  1
  Tm  Tm15  1  0.176048  0.953891  0.933864  1
  Tm  Tm16  1  0.323792  0.546031  0.433711  1
  Tm  Tm17  1  0.823969  0.046228  0.066804  1
  Tm  Tm18  1  0.676112  0.454110  0.566079  1
  Tm  Tm19  1  0.823622  0.454251  0.066484  1
  Bi  Bi20  1  0.568766  0.491332  0.827348  1
  Bi  Bi21  1  0.431961  0.508727  0.172089  1
  Bi  Bi22  1  0.066888  0.508327  0.672161  1
  Bi  Bi23  1  0.432417  0.991498  0.172687  1
  Bi  Bi24  1  0.932605  0.491553  0.327617  1
  Bi  Bi25  1  0.566914  0.008398  0.827263  1
  Bi  Bi26  1  0.932352  0.008856  0.327982  1
  Bi  Bi27  1  0.067277  0.991601  0.672283  1
  Pt  Pt28  1  0.573122  0.749996  0.511527  1
  Pt  Pt29  1  0.426687  0.250047  0.488045  1
  Pt  Pt30  1  0.072240  0.248445  0.988622  1
  Pt  Pt31  1  0.925435  0.750724  0.012297  1
