# generated using pymatgen
data_Y2Th(P2Rh3)3
_symmetry_space_group_name_H-M   'P 1'
_cell_length_a   3.95297000
_cell_length_b   11.23502600
_cell_length_c   12.82723900
_cell_angle_alpha   90.00000000
_cell_angle_beta   90.00000000
_cell_angle_gamma   90.00000000
_symmetry_Int_Tables_number   1
_chemical_formula_structural   Y2Th(P2Rh3)3
_chemical_formula_sum   'Y4 Th2 P12 Rh18'
_cell_volume   569.67975617
_cell_formula_units_Z   2
loop_
 _symmetry_equiv_pos_site_id
 _symmetry_equiv_pos_as_xyz
  1  'x, y, z'
loop_
 _atom_site_type_symbol
 _atom_site_label
 _atom_site_symmetry_multiplicity
 _atom_site_fract_x
 _atom_site_fract_y
 _atom_site_fract_z
 _atom_site_occupancy
  Y  Y0  1  0.500000  0.813529  0.204865  1
  Y  Y1  1  0.500000  0.186471  0.204865  1
  Y  Y2  1  0.000000  0.686471  0.795135  1
  Y  Y3  1  0.000000  0.313529  0.795135  1
  Th  Th4  1  0.000000  0.500000  0.524810  1
  Th  Th5  1  0.500000  0.000000  0.475190  1
  P  P6  1  0.500000  0.500000  0.879356  1
  P  P7  1  0.000000  0.000000  0.120644  1
  P  P8  1  0.500000  0.500000  0.348424  1
  P  P9  1  0.000000  0.000000  0.651576  1
  P  P10  1  0.500000  0.312787  0.620392  1
  P  P11  1  0.500000  0.687213  0.620392  1
  P  P12  1  0.000000  0.187213  0.379608  1
  P  P13  1  0.000000  0.812787  0.379608  1
  P  P14  1  0.500000  0.846471  0.893956  1
  P  P15  1  0.500000  0.153529  0.893956  1
  P  P16  1  0.000000  0.653529  0.106044  1
  P  P17  1  0.000000  0.346471  0.106044  1
  Rh  Rh18  1  0.500000  0.500000  0.169192  1
  Rh  Rh19  1  0.000000  0.000000  0.830808  1
  Rh  Rh20  1  0.500000  0.500000  0.702500  1
  Rh  Rh21  1  0.000000  0.000000  0.297500  1
  Rh  Rh22  1  0.000000  0.500000  0.979075  1
  Rh  Rh23  1  0.500000  0.000000  0.020925  1
  Rh  Rh24  1  0.500000  0.334014  0.993948  1
  Rh  Rh25  1  0.500000  0.665986  0.993948  1
  Rh  Rh26  1  0.000000  0.165986  0.006052  1
  Rh  Rh27  1  0.000000  0.834014  0.006052  1
  Rh  Rh28  1  0.500000  0.297718  0.431465  1
  Rh  Rh29  1  0.500000  0.702282  0.431465  1
  Rh  Rh30  1  0.000000  0.202282  0.568535  1
  Rh  Rh31  1  0.000000  0.797718  0.568535  1
  Rh  Rh32  1  0.500000  0.873166  0.711999  1
  Rh  Rh33  1  0.500000  0.126834  0.711999  1
  Rh  Rh34  1  0.000000  0.626834  0.288001  1
  Rh  Rh35  1  0.000000  0.373166  0.288001  1
