# generated using pymatgen
data_Er8Ti3Si16Mo5W4
_symmetry_space_group_name_H-M   'P 1'
_cell_length_a   6.89267310
_cell_length_b   6.89557929
_cell_length_c   12.77308456
_cell_angle_alpha   89.97855439
_cell_angle_beta   89.97710959
_cell_angle_gamma   89.82941342
_symmetry_Int_Tables_number   1
_chemical_formula_structural   Er8Ti3Si16Mo5W4
_chemical_formula_sum   'Er8 Ti3 Si16 Mo5 W4'
_cell_volume   607.08882128
_cell_formula_units_Z   1
loop_
 _symmetry_equiv_pos_site_id
 _symmetry_equiv_pos_as_xyz
  1  'x, y, z'
loop_
 _atom_site_type_symbol
 _atom_site_label
 _atom_site_symmetry_multiplicity
 _atom_site_fract_x
 _atom_site_fract_y
 _atom_site_fract_z
 _atom_site_occupancy
  Er  Er0  1  0.339368  0.001638  0.468651  1
  Er  Er1  1  0.497152  0.838893  0.719317  1
  Er  Er2  1  0.499606  0.161604  0.217587  1
  Er  Er3  1  0.838826  0.497228  0.280696  1
  Er  Er4  1  0.161552  0.498806  0.782475  1
  Er  Er5  1  0.659653  0.000158  0.968785  1
  Er  Er6  1  0.001486  0.339388  0.531553  1
  Er  Er7  1  0.000060  0.659835  0.031174  1
  Ti  Ti8  1  0.169502  0.832292  0.248676  1
  Ti  Ti9  1  0.831647  0.169660  0.751145  1
  Ti  Ti10  1  0.669403  0.669466  0.499995  1
  Si  Si11  1  0.201000  0.130181  0.682807  1
  Si  Si12  1  0.372791  0.697774  0.933449  1
  Si  Si13  1  0.629449  0.298857  0.432974  1
  Si  Si14  1  0.698310  0.372970  0.066762  1
  Si  Si15  1  0.298758  0.629540  0.567044  1
  Si  Si16  1  0.796836  0.871016  0.183382  1
  Si  Si17  1  0.130083  0.201106  0.317186  1
  Si  Si18  1  0.871257  0.796640  0.816264  1
  Si  Si19  1  0.289638  0.962373  0.062045  1
  Si  Si20  1  0.539293  0.791745  0.313773  1
  Si  Si21  1  0.458633  0.209426  0.814706  1
  Si  Si22  1  0.791625  0.539638  0.686348  1
  Si  Si23  1  0.209614  0.459231  0.185622  1
  Si  Si24  1  0.708608  0.041314  0.563990  1
  Si  Si25  1  0.962712  0.288874  0.937445  1
  Si  Si26  1  0.041390  0.708566  0.435999  1
  Mo  Mo27  1  0.156358  0.001586  0.873341  1
  Mo  Mo28  1  0.496069  0.665382  0.124433  1
  Mo  Mo29  1  0.505304  0.340371  0.624344  1
  Mo  Mo30  1  0.665218  0.495806  0.875667  1
  Mo  Mo31  1  0.340309  0.505031  0.375575  1
  W  W32  1  0.330648  0.331064  0.000493  1
  W  W33  1  0.840849  0.993971  0.374353  1
  W  W34  1  0.002838  0.157248  0.126247  1
  W  W35  1  0.994159  0.841324  0.625698  1
