# generated using pymatgen
data_Tb5Ho3Sc12Si15Ru
_symmetry_space_group_name_H-M   'P 1'
_cell_length_a   7.08630492
_cell_length_b   7.45290295
_cell_length_c   13.95134731
_cell_angle_alpha   89.99890160
_cell_angle_beta   89.97582946
_cell_angle_gamma   90.16298477
_symmetry_Int_Tables_number   1
_chemical_formula_structural   Tb5Ho3Sc12Si15Ru
_chemical_formula_sum   'Tb5 Ho3 Sc12 Si15 Ru1'
_cell_volume   736.81703143
_cell_formula_units_Z   1
loop_
 _symmetry_equiv_pos_site_id
 _symmetry_equiv_pos_as_xyz
  1  'x, y, z'
loop_
 _atom_site_type_symbol
 _atom_site_label
 _atom_site_symmetry_multiplicity
 _atom_site_fract_x
 _atom_site_fract_y
 _atom_site_fract_z
 _atom_site_occupancy
  Tb  Tb0  1  0.990713  0.827110  0.595823  1
  Tb  Tb1  1  0.511448  0.323183  0.095402  1
  Tb  Tb2  1  0.011274  0.178681  0.403969  1
  Tb  Tb3  1  0.511064  0.323330  0.403711  1
  Tb  Tb4  1  0.489195  0.676017  0.595886  1
  Ho  Ho5  1  0.011673  0.179200  0.095851  1
  Ho  Ho6  1  0.990762  0.826312  0.904464  1
  Ho  Ho7  1  0.488892  0.677100  0.904141  1
  Sc  Sc8  1  0.157871  0.502044  0.750365  1
  Sc  Sc9  1  0.838489  0.495564  0.249735  1
  Sc  Sc10  1  0.339166  0.005722  0.249724  1
  Sc  Sc11  1  0.669122  0.998067  0.750418  1
  Sc  Sc12  1  0.316050  0.171411  0.628590  1
  Sc  Sc13  1  0.672506  0.826344  0.373695  1
  Sc  Sc14  1  0.171760  0.677912  0.373758  1
  Sc  Sc15  1  0.672257  0.826202  0.125680  1
  Sc  Sc16  1  0.837065  0.319943  0.628205  1
  Sc  Sc17  1  0.314995  0.171073  0.872147  1
  Sc  Sc18  1  0.837680  0.319201  0.872463  1
  Sc  Sc19  1  0.171785  0.678060  0.125675  1
  Si  Si20  1  0.969095  0.885202  0.249498  1
  Si  Si21  1  0.469752  0.615333  0.249658  1
  Si  Si22  1  0.528992  0.387476  0.750798  1
  Si  Si23  1  0.286409  0.866663  0.750910  1
  Si  Si24  1  0.713926  0.129510  0.249290  1
  Si  Si25  1  0.213650  0.371682  0.249332  1
  Si  Si26  1  0.779679  0.626478  0.750982  1
  Si  Si27  1  0.159044  0.467992  0.537553  1
  Si  Si28  1  0.844788  0.536278  0.461653  1
  Si  Si29  1  0.345066  0.965544  0.460336  1
  Si  Si30  1  0.845179  0.536056  0.038267  1
  Si  Si31  1  0.654898  0.035288  0.538951  1
  Si  Si32  1  0.159841  0.468810  0.962242  1
  Si  Si33  1  0.655743  0.033670  0.960758  1
  Si  Si34  1  0.343939  0.965286  0.039506  1
  Ru  Ru35  1  0.026232  0.106252  0.750564  1
