# generated using pymatgen
data_Dy19ErIr11Ru
_symmetry_space_group_name_H-M   'P 1'
_cell_length_a   10.86649500
_cell_length_b   10.86649400
_cell_length_c   6.39238100
_cell_angle_alpha   90.00000000
_cell_angle_beta   90.00000000
_cell_angle_gamma   89.99863964
_symmetry_Int_Tables_number   1
_chemical_formula_structural   Dy19ErIr11Ru
_chemical_formula_sum   'Dy19 Er1 Ir11 Ru1'
_cell_volume   754.81684042
_cell_formula_units_Z   1
loop_
 _symmetry_equiv_pos_site_id
 _symmetry_equiv_pos_as_xyz
  1  'x, y, z'
loop_
 _atom_site_type_symbol
 _atom_site_label
 _atom_site_symmetry_multiplicity
 _atom_site_fract_x
 _atom_site_fract_y
 _atom_site_fract_z
 _atom_site_occupancy
  Dy  Dy0  1  0.292031  0.087298  0.377610  1
  Dy  Dy1  1  0.292602  0.912616  0.880309  1
  Dy  Dy2  1  0.707398  0.087384  0.880309  1
  Dy  Dy3  1  0.707969  0.912702  0.377610  1
  Dy  Dy4  1  0.587406  0.792710  0.880436  1
  Dy  Dy5  1  0.587420  0.207594  0.377489  1
  Dy  Dy6  1  0.412580  0.792406  0.377489  1
  Dy  Dy7  1  0.412594  0.207290  0.880436  1
  Dy  Dy8  1  0.208981  0.411423  0.621301  1
  Dy  Dy9  1  0.208982  0.588317  0.120891  1
  Dy  Dy10  1  0.791018  0.411683  0.120891  1
  Dy  Dy11  1  0.791019  0.588577  0.621301  1
  Dy  Dy12  1  0.911704  0.709092  0.121014  1
  Dy  Dy13  1  0.911569  0.290646  0.621192  1
  Dy  Dy14  1  0.088431  0.709354  0.621192  1
  Dy  Dy15  1  0.088296  0.290908  0.121014  1
  Dy  Dy16  1  0.000000  0.000000  0.999201  1
  Dy  Dy17  1  0.500000  0.500000  0.999200  1
  Dy  Dy18  1  0.500000  0.500000  0.499267  1
  Er  Er19  1  0.000000  0.000000  0.499309  1
  Ir  Ir20  1  0.847573  0.153281  0.250749  1
  Ir  Ir21  1  0.847607  0.847115  0.748943  1
  Ir  Ir22  1  0.152393  0.152885  0.748943  1
  Ir  Ir23  1  0.152427  0.846719  0.250749  1
  Ir  Ir24  1  0.653365  0.347169  0.749735  1
  Ir  Ir25  1  0.653731  0.652911  0.249996  1
  Ir  Ir26  1  0.346269  0.347089  0.249996  1
  Ir  Ir27  1  0.346635  0.652831  0.749735  1
  Ir  Ir28  1  0.500000  0.000000  0.624240  1
  Ir  Ir29  1  0.000000  0.500000  0.877139  1
  Ir  Ir30  1  0.000000  0.500000  0.377288  1
  Ru  Ru31  1  0.500000  0.000000  0.125027  1
