# generated using pymatgen
data_Pr17Ho3(Bi3Pb5)2
_symmetry_space_group_name_H-M   'P 1'
_cell_length_a   8.48795441
_cell_length_b   16.29171632
_cell_length_c   8.56256916
_cell_angle_alpha   90.12848676
_cell_angle_beta   89.90265040
_cell_angle_gamma   90.01039412
_symmetry_Int_Tables_number   1
_chemical_formula_structural   Pr17Ho3(Bi3Pb5)2
_chemical_formula_sum   'Pr17 Ho3 Bi6 Pb10'
_cell_volume   1184.05600412
_cell_formula_units_Z   1
loop_
 _symmetry_equiv_pos_site_id
 _symmetry_equiv_pos_as_xyz
  1  'x, y, z'
loop_
 _atom_site_type_symbol
 _atom_site_label
 _atom_site_symmetry_multiplicity
 _atom_site_fract_x
 _atom_site_fract_y
 _atom_site_fract_z
 _atom_site_occupancy
  Pr  Pr0  1  0.623060  0.619628  0.159071  1
  Pr  Pr1  1  0.123286  0.879838  0.340843  1
  Pr  Pr2  1  0.379289  0.120175  0.843058  1
  Pr  Pr3  1  0.879444  0.378464  0.657481  1
  Pr  Pr4  1  0.374890  0.379997  0.838936  1
  Pr  Pr5  1  0.875357  0.121280  0.661287  1
  Pr  Pr6  1  0.624338  0.880865  0.157212  1
  Pr  Pr7  1  0.124581  0.619748  0.342454  1
  Pr  Pr8  1  0.458732  0.603335  0.672568  1
  Pr  Pr9  1  0.958395  0.896468  0.827280  1
  Pr  Pr10  1  0.539821  0.104656  0.324372  1
  Pr  Pr11  1  0.039557  0.396208  0.176053  1
  Pr  Pr12  1  0.537002  0.395811  0.327191  1
  Pr  Pr13  1  0.036769  0.103259  0.173302  1
  Pr  Pr14  1  0.463230  0.897458  0.676941  1
  Pr  Pr15  1  0.962989  0.602654  0.822680  1
  Pr  Pr16  1  0.792881  0.750303  0.503245  1
  Ho  Ho17  1  0.291621  0.749666  0.998543  1
  Ho  Ho18  1  0.208022  0.251585  0.498305  1
  Ho  Ho19  1  0.707602  0.248343  0.001646  1
  Bi  Bi20  1  0.722503  0.450822  0.974353  1
  Bi  Bi21  1  0.222275  0.048876  0.525695  1
  Bi  Bi22  1  0.278021  0.951266  0.025473  1
  Bi  Bi23  1  0.777821  0.545089  0.472374  1
  Bi  Bi24  1  0.278244  0.548866  0.025155  1
  Bi  Bi25  1  0.777685  0.954907  0.472428  1
  Pb  Pb26  1  0.722159  0.047916  0.973550  1
  Pb  Pb27  1  0.221398  0.452439  0.526197  1
  Pb  Pb28  1  0.427213  0.750904  0.371975  1
  Pb  Pb29  1  0.931190  0.749452  0.123841  1
  Pb  Pb30  1  0.569559  0.249758  0.626257  1
  Pb  Pb31  1  0.070891  0.249965  0.874661  1
  Pb  Pb32  1  0.650867  0.749502  0.855128  1
  Pb  Pb33  1  0.158336  0.750735  0.651548  1
  Pb  Pb34  1  0.345065  0.249860  0.149266  1
  Pb  Pb35  1  0.845913  0.249900  0.349631  1
