# generated using pymatgen
data_DyHo2ZrAl16(GaRh3)2
_symmetry_space_group_name_H-M   'P 1'
_cell_length_a   7.53406900
_cell_length_b   7.52154862
_cell_length_c   9.40774800
_cell_angle_alpha   90.00000000
_cell_angle_beta   90.00000000
_cell_angle_gamma   119.52227905
_symmetry_Int_Tables_number   1
_chemical_formula_structural   DyHo2ZrAl16(GaRh3)2
_chemical_formula_sum   'Dy1 Ho2 Zr1 Al16 Ga2 Rh6'
_cell_volume   463.89930888
_cell_formula_units_Z   1
loop_
 _symmetry_equiv_pos_site_id
 _symmetry_equiv_pos_as_xyz
  1  'x, y, z'
loop_
 _atom_site_type_symbol
 _atom_site_label
 _atom_site_symmetry_multiplicity
 _atom_site_fract_x
 _atom_site_fract_y
 _atom_site_fract_z
 _atom_site_occupancy
  Dy  Dy0  1  0.329584  0.010292  0.250000  1
  Ho  Ho1  1  0.003512  0.324017  0.250000  1
  Ho  Ho2  1  0.671735  0.997233  0.750000  1
  Zr  Zr3  1  0.996603  0.671566  0.750000  1
  Al  Al4  1  0.124615  0.122453  0.750000  1
  Al  Al5  1  0.000025  0.338757  0.579787  1
  Al  Al6  1  0.999680  0.664962  0.429681  1
  Al  Al7  1  0.999680  0.664962  0.070319  1
  Al  Al8  1  0.332480  0.997288  0.920329  1
  Al  Al9  1  0.000025  0.338757  0.920213  1
  Al  Al10  1  0.663686  0.996431  0.074689  1
  Al  Al11  1  0.663686  0.996431  0.425311  1
  Al  Al12  1  0.332480  0.997288  0.579671  1
  Al  Al13  1  0.334094  0.335095  0.044630  1
  Al  Al14  1  0.670408  0.668104  0.939009  1
  Al  Al15  1  0.670408  0.668104  0.560991  1
  Al  Al16  1  0.334094  0.335095  0.455370  1
  Al  Al17  1  0.335316  0.551961  0.750000  1
  Al  Al18  1  0.556444  0.343309  0.750000  1
  Al  Al19  1  0.447030  0.657226  0.250000  1
  Ga  Ga20  1  0.870812  0.868288  0.250000  1
  Ga  Ga21  1  0.660288  0.451739  0.250000  1
  Rh  Rh22  1  0.673038  0.327695  0.502847  1
  Rh  Rh23  1  0.328738  0.672631  0.501324  1
  Rh  Rh24  1  0.328738  0.672631  0.998676  1
  Rh  Rh25  1  0.673038  0.327695  0.997153  1
  Rh  Rh26  1  0.999881  0.999998  0.503009  1
  Rh  Rh27  1  0.999881  0.999998  0.996991  1
