# generated using pymatgen
data_HoErTi6(BiO4)6
_symmetry_space_group_name_H-M   'P 1'
_cell_length_a   5.37843905
_cell_length_b   5.46966334
_cell_length_c   17.12741905
_cell_angle_alpha   81.07338631
_cell_angle_beta   90.00143018
_cell_angle_gamma   89.98502292
_symmetry_Int_Tables_number   1
_chemical_formula_structural   HoErTi6(BiO4)6
_chemical_formula_sum   'Ho1 Er1 Ti6 Bi6 O24'
_cell_volume   497.75590369
_cell_formula_units_Z   1
loop_
 _symmetry_equiv_pos_site_id
 _symmetry_equiv_pos_as_xyz
  1  'x, y, z'
loop_
 _atom_site_type_symbol
 _atom_site_label
 _atom_site_symmetry_multiplicity
 _atom_site_fract_x
 _atom_site_fract_y
 _atom_site_fract_z
 _atom_site_occupancy
  Ho  Ho0  1  0.266840  0.082292  0.868936  1
  Er  Er1  1  0.733162  0.581584  0.868825  1
  Ti  Ti2  1  0.764915  0.061323  0.985693  1
  Ti  Ti3  1  0.234910  0.561345  0.985687  1
  Ti  Ti4  1  0.762410  0.180540  0.750335  1
  Ti  Ti5  1  0.237507  0.680589  0.750320  1
  Ti  Ti6  1  0.756894  0.919378  0.258685  1
  Ti  Ti7  1  0.243097  0.419391  0.258646  1
  Bi  Bi8  1  0.272701  0.184287  0.589439  1
  Bi  Bi9  1  0.727295  0.684251  0.589453  1
  Bi  Bi10  1  0.262342  0.934596  0.132152  1
  Bi  Bi11  1  0.737635  0.434613  0.132118  1
  Bi  Bi12  1  0.234258  0.777723  0.434484  1
  Bi  Bi13  1  0.765705  0.277713  0.434491  1
  O  O14  1  0.450117  0.319801  0.957188  1
  O  O15  1  0.550837  0.818958  0.957064  1
  O  O16  1  0.506322  0.003476  0.506268  1
  O  O17  1  0.493693  0.503488  0.506270  1
  O  O18  1  0.854653  0.179690  0.875732  1
  O  O19  1  0.143664  0.678535  0.875732  1
  O  O20  1  0.676775  0.247377  0.645712  1
  O  O21  1  0.323158  0.747326  0.645713  1
  O  O22  1  0.454323  0.405963  0.788682  1
  O  O23  1  0.546842  0.904822  0.788762  1
  O  O24  1  0.935733  0.515406  0.747508  1
  O  O25  1  0.064205  0.015377  0.747321  1
  O  O26  1  0.933015  0.397841  0.002424  1
  O  O27  1  0.066990  0.897858  0.002471  1
  O  O28  1  0.993898  0.503386  0.507519  1
  O  O29  1  0.006113  0.003383  0.507528  1
  O  O30  1  0.676460  0.047479  0.098136  1
  O  O31  1  0.323502  0.547476  0.098146  1
  O  O32  1  0.795026  0.869110  0.360628  1
  O  O33  1  0.204978  0.369095  0.360663  1
  O  O34  1  0.013950  0.183137  0.219583  1
  O  O35  1  0.986060  0.683149  0.219578  1
  O  O36  1  0.526486  0.217521  0.236853  1
  O  O37  1  0.473528  0.717520  0.236856  1
