# generated using pymatgen
data_Er5Tm3Sc12(Ga7Si)2
_symmetry_space_group_name_H-M   'P 1'
_cell_length_a   7.22712669
_cell_length_b   7.45818945
_cell_length_c   14.44192603
_cell_angle_alpha   89.99580725
_cell_angle_beta   90.00613970
_cell_angle_gamma   90.26110513
_symmetry_Int_Tables_number   1
_chemical_formula_structural   Er5Tm3Sc12(Ga7Si)2
_chemical_formula_sum   'Er5 Tm3 Sc12 Ga14 Si2'
_cell_volume   778.43020869
_cell_formula_units_Z   1
loop_
 _symmetry_equiv_pos_site_id
 _symmetry_equiv_pos_as_xyz
  1  'x, y, z'
loop_
 _atom_site_type_symbol
 _atom_site_label
 _atom_site_symmetry_multiplicity
 _atom_site_fract_x
 _atom_site_fract_y
 _atom_site_fract_z
 _atom_site_occupancy
  Er  Er0  1  0.012875  0.179141  0.096385  1
  Er  Er1  1  0.987110  0.820878  0.903606  1
  Er  Er2  1  0.489355  0.678099  0.904478  1
  Er  Er3  1  0.987049  0.820957  0.596327  1
  Er  Er4  1  0.510583  0.321935  0.095505  1
  Tm  Tm5  1  0.012901  0.179236  0.403576  1
  Tm  Tm6  1  0.510610  0.321746  0.404463  1
  Tm  Tm7  1  0.489371  0.678144  0.595516  1
  Sc  Sc8  1  0.160872  0.503968  0.749938  1
  Sc  Sc9  1  0.839161  0.495866  0.250114  1
  Sc  Sc10  1  0.336781  0.006182  0.250115  1
  Sc  Sc11  1  0.663143  0.993875  0.749954  1
  Sc  Sc12  1  0.331336  0.174280  0.622856  1
  Sc  Sc13  1  0.668730  0.825808  0.377126  1
  Sc  Sc14  1  0.170837  0.671211  0.376160  1
  Sc  Sc15  1  0.668749  0.825860  0.122985  1
  Sc  Sc16  1  0.829174  0.328779  0.623787  1
  Sc  Sc17  1  0.331327  0.174150  0.877078  1
  Sc  Sc18  1  0.829268  0.328799  0.876120  1
  Sc  Sc19  1  0.170708  0.671212  0.123920  1
  Ga  Ga20  1  0.032618  0.117608  0.749982  1
  Ga  Ga21  1  0.967429  0.882536  0.250060  1
  Ga  Ga22  1  0.467345  0.612000  0.250074  1
  Ga  Ga23  1  0.532636  0.387963  0.749929  1
  Ga  Ga24  1  0.285709  0.870845  0.749912  1
  Ga  Ga25  1  0.714473  0.129203  0.250157  1
  Ga  Ga26  1  0.159999  0.465637  0.540442  1
  Ga  Ga27  1  0.840030  0.534054  0.459441  1
  Ga  Ga28  1  0.338433  0.965288  0.459177  1
  Ga  Ga29  1  0.840278  0.534405  0.040488  1
  Ga  Ga30  1  0.661460  0.034847  0.540733  1
  Ga  Ga31  1  0.159735  0.465579  0.959520  1
  Ga  Ga32  1  0.661510  0.035032  0.959228  1
  Ga  Ga33  1  0.338517  0.964997  0.040760  1
  Si  Si34  1  0.215102  0.373121  0.250171  1
  Si  Si35  1  0.784789  0.626758  0.749919  1
