# generated using pymatgen
data_Th2Al3ZnCuGe
_symmetry_space_group_name_H-M   'P 1'
_cell_length_a   9.20355157
_cell_length_b   9.20355117
_cell_length_c   4.25516000
_cell_angle_alpha   90.00000000
_cell_angle_beta   90.00000000
_cell_angle_gamma   153.50106309
_symmetry_Int_Tables_number   1
_chemical_formula_structural   Th2Al3ZnCuGe
_chemical_formula_sum   'Th2 Al3 Zn1 Cu1 Ge1'
_cell_volume   160.81925700
_cell_formula_units_Z   1
loop_
 _symmetry_equiv_pos_site_id
 _symmetry_equiv_pos_as_xyz
  1  'x, y, z'
loop_
 _atom_site_type_symbol
 _atom_site_label
 _atom_site_symmetry_multiplicity
 _atom_site_fract_x
 _atom_site_fract_y
 _atom_site_fract_z
 _atom_site_occupancy
  Th  Th0  1  0.897388  0.102612  0.750000  1
  Th  Th1  1  0.102164  0.897836  0.250000  1
  Al  Al2  1  0.254070  0.745930  0.750000  1
  Al  Al3  1  0.752965  0.247035  0.250000  1
  Al  Al4  1  0.534108  0.465892  0.750000  1
  Zn  Zn5  1  0.670325  0.329675  0.750000  1
  Cu  Cu6  1  0.326700  0.673300  0.250000  1
  Ge  Ge7  1  0.462279  0.537721  0.250000  1
