# generated using pymatgen
data_Cr4AgSnSe8
_symmetry_space_group_name_H-M   'P 1'
_cell_length_a   7.70134936
_cell_length_b   7.70134997
_cell_length_c   7.70134900
_cell_angle_alpha   59.99999989
_cell_angle_beta   59.99999723
_cell_angle_gamma   60.00000081
_symmetry_Int_Tables_number   1
_chemical_formula_structural   Cr4AgSnSe8
_chemical_formula_sum   'Cr4 Ag1 Sn1 Se8'
_cell_volume   322.98732853
_cell_formula_units_Z   1
loop_
 _symmetry_equiv_pos_site_id
 _symmetry_equiv_pos_as_xyz
  1  'x, y, z'
loop_
 _atom_site_type_symbol
 _atom_site_label
 _atom_site_symmetry_multiplicity
 _atom_site_fract_x
 _atom_site_fract_y
 _atom_site_fract_z
 _atom_site_occupancy
  Cr  Cr0  1  0.637487  0.120838  0.120838  1
  Cr  Cr1  1  0.120838  0.637487  0.120838  1
  Cr  Cr2  1  0.120838  0.120838  0.637487  1
  Cr  Cr3  1  0.120838  0.120838  0.120838  1
  Ag  Ag4  1  0.750000  0.750000  0.750000  1
  Sn  Sn5  1  0.500000  0.500000  0.500000  1
  Se  Se6  1  0.331155  0.889615  0.889615  1
  Se  Se7  1  0.889615  0.331155  0.889615  1
  Se  Se8  1  0.889615  0.889615  0.331155  1
  Se  Se9  1  0.889615  0.889615  0.889615  1
  Se  Se10  1  0.929784  0.356738  0.356738  1
  Se  Se11  1  0.356738  0.929784  0.356738  1
  Se  Se12  1  0.356738  0.356738  0.929784  1
  Se  Se13  1  0.356738  0.356738  0.356738  1
