# generated using pymatgen
data_ZrNp2(Co3B2)3
_symmetry_space_group_name_H-M   'P 1'
_cell_length_a   5.75280481
_cell_length_b   5.75280498
_cell_length_c   5.75280494
_cell_angle_alpha   95.59996912
_cell_angle_beta   95.59997521
_cell_angle_gamma   95.59999649
_symmetry_Int_Tables_number   1
_chemical_formula_structural   ZrNp2(Co3B2)3
_chemical_formula_sum   'Zr1 Np2 Co9 B6'
_cell_volume   187.46902994
_cell_formula_units_Z   1
loop_
 _symmetry_equiv_pos_site_id
 _symmetry_equiv_pos_as_xyz
  1  'x, y, z'
loop_
 _atom_site_type_symbol
 _atom_site_label
 _atom_site_symmetry_multiplicity
 _atom_site_fract_x
 _atom_site_fract_y
 _atom_site_fract_z
 _atom_site_occupancy
  Zr  Zr0  1  0.334157  0.334157  0.334157  1
  Np  Np1  1  0.972980  0.972980  0.972980  1
  Np  Np2  1  0.703391  0.703391  0.703391  1
  Co  Co3  1  0.001255  0.001255  0.491726  1
  Co  Co4  1  0.491726  0.001255  0.001255  1
  Co  Co5  1  0.001255  0.491726  0.001255  1
  Co  Co6  1  0.692123  0.209769  0.692123  1
  Co  Co7  1  0.692123  0.692123  0.209769  1
  Co  Co8  1  0.209769  0.692123  0.692123  1
  Co  Co9  1  0.301629  0.803913  0.301629  1
  Co  Co10  1  0.301629  0.301629  0.803913  1
  Co  Co11  1  0.803913  0.301629  0.301629  1
  B  B12  1  0.617391  0.374993  0.004640  1
  B  B13  1  0.004640  0.617391  0.374993  1
  B  B14  1  0.374993  0.004640  0.617391  1
  B  B15  1  0.004640  0.374993  0.617391  1
  B  B16  1  0.617391  0.004640  0.374993  1
  B  B17  1  0.374993  0.617391  0.004640  1
