# generated using pymatgen
data_Sn7IrRh4
_symmetry_space_group_name_H-M   'P 1'
_cell_length_a   6.95279073
_cell_length_b   6.95279172
_cell_length_c   6.95279119
_cell_angle_alpha   102.77596867
_cell_angle_beta   102.77597008
_cell_angle_gamma   123.89832690
_symmetry_Int_Tables_number   1
_chemical_formula_structural   Sn7IrRh4
_chemical_formula_sum   'Sn7 Ir1 Rh4'
_cell_volume   246.20704207
_cell_formula_units_Z   1
loop_
 _symmetry_equiv_pos_site_id
 _symmetry_equiv_pos_as_xyz
  1  'x, y, z'
loop_
 _atom_site_type_symbol
 _atom_site_label
 _atom_site_symmetry_multiplicity
 _atom_site_fract_x
 _atom_site_fract_y
 _atom_site_fract_z
 _atom_site_occupancy
  Sn  Sn0  1  0.723202  0.723202  0.430225  1
  Sn  Sn1  1  0.292977  0.723202  0.000000  1
  Sn  Sn2  1  0.723202  0.292977  0.000000  1
  Sn  Sn3  1  0.292977  0.292977  0.569775  1
  Sn  Sn4  1  0.416463  0.916463  0.500000  1
  Sn  Sn5  1  0.904137  0.904137  0.000000  1
  Sn  Sn6  1  0.916463  0.416463  0.500000  1
  Ir  Ir7  1  0.503544  0.503544  0.000000  1
  Rh  Rh8  1  0.936691  0.178259  0.758432  1
  Rh  Rh9  1  0.178259  0.936691  0.758432  1
  Rh  Rh10  1  0.178259  0.419826  0.241568  1
  Rh  Rh11  1  0.419826  0.178259  0.241568  1
