# generated using pymatgen
data_La3Pr5(Sc3Sn4)4
_symmetry_space_group_name_H-M   'P 1'
_cell_length_a   7.88303522
_cell_length_b   8.09204832
_cell_length_c   15.11513296
_cell_angle_alpha   90.00865471
_cell_angle_beta   90.00733565
_cell_angle_gamma   89.92886158
_symmetry_Int_Tables_number   1
_chemical_formula_structural   La3Pr5(Sc3Sn4)4
_chemical_formula_sum   'La3 Pr5 Sc12 Sn16'
_cell_volume   964.19208748
_cell_formula_units_Z   1
loop_
 _symmetry_equiv_pos_site_id
 _symmetry_equiv_pos_as_xyz
  1  'x, y, z'
loop_
 _atom_site_type_symbol
 _atom_site_label
 _atom_site_symmetry_multiplicity
 _atom_site_fract_x
 _atom_site_fract_y
 _atom_site_fract_z
 _atom_site_occupancy
  La  La0  1  0.996394  0.171387  0.405700  1
  La  La1  1  0.496366  0.328818  0.405546  1
  La  La2  1  0.503574  0.671743  0.905457  1
  Pr  Pr3  1  0.505292  0.672937  0.596218  1
  Pr  Pr4  1  0.004964  0.827368  0.595569  1
  Pr  Pr5  1  0.004304  0.827354  0.904989  1
  Pr  Pr6  1  0.495317  0.326960  0.095190  1
  Pr  Pr7  1  0.994824  0.173025  0.095067  1
  Sc  Sc8  1  0.335865  0.161774  0.627347  1
  Sc  Sc9  1  0.663403  0.837509  0.372083  1
  Sc  Sc10  1  0.667148  0.004707  0.750006  1
  Sc  Sc11  1  0.164032  0.662107  0.372183  1
  Sc  Sc12  1  0.836819  0.337646  0.872162  1
  Sc  Sc13  1  0.836046  0.338535  0.627684  1
  Sc  Sc14  1  0.832916  0.505410  0.249405  1
  Sc  Sc15  1  0.332507  0.995140  0.249348  1
  Sc  Sc16  1  0.336385  0.162054  0.872337  1
  Sc  Sc17  1  0.163523  0.661578  0.126814  1
  Sc  Sc18  1  0.664094  0.838728  0.126775  1
  Sc  Sc19  1  0.167018  0.494858  0.749925  1
  Sn  Sn20  1  0.308618  0.858650  0.749842  1
  Sn  Sn21  1  0.471198  0.633449  0.249180  1
  Sn  Sn22  1  0.028763  0.132123  0.749868  1
  Sn  Sn23  1  0.528871  0.366643  0.749684  1
  Sn  Sn24  1  0.172683  0.456858  0.544644  1
  Sn  Sn25  1  0.971027  0.867121  0.249551  1
  Sn  Sn26  1  0.690561  0.141461  0.249240  1
  Sn  Sn27  1  0.827434  0.544018  0.043727  1
  Sn  Sn28  1  0.325628  0.956630  0.043680  1
  Sn  Sn29  1  0.171972  0.453809  0.956601  1
  Sn  Sn30  1  0.672460  0.043074  0.544611  1
  Sn  Sn31  1  0.327984  0.952809  0.457005  1
  Sn  Sn32  1  0.827594  0.547032  0.457111  1
  Sn  Sn33  1  0.810262  0.642327  0.749919  1
  Sn  Sn34  1  0.190498  0.358464  0.249309  1
  Sn  Sn35  1  0.673656  0.045895  0.956226  1
