# generated using pymatgen
data_SmDy2SbO7
_symmetry_space_group_name_H-M   'P 1'
_cell_length_a   6.50362889
_cell_length_b   6.50362870
_cell_length_c   7.60050600
_cell_angle_alpha   90.00000000
_cell_angle_beta   90.00000000
_cell_angle_gamma   109.34709475
_symmetry_Int_Tables_number   1
_chemical_formula_structural   SmDy2SbO7
_chemical_formula_sum   'Sm2 Dy4 Sb2 O14'
_cell_volume   303.32571708
_cell_formula_units_Z   2
loop_
 _symmetry_equiv_pos_site_id
 _symmetry_equiv_pos_as_xyz
  1  'x, y, z'
loop_
 _atom_site_type_symbol
 _atom_site_label
 _atom_site_symmetry_multiplicity
 _atom_site_fract_x
 _atom_site_fract_y
 _atom_site_fract_z
 _atom_site_occupancy
  Sm  Sm0  1  0.500000  0.500000  0.500000  1
  Sm  Sm1  1  0.500000  0.500000  0.000000  1
  Dy  Dy2  1  0.531391  0.000300  0.750000  1
  Dy  Dy3  1  0.000300  0.531391  0.250000  1
  Dy  Dy4  1  0.468609  0.999700  0.250000  1
  Dy  Dy5  1  0.999700  0.468609  0.750000  1
  Sb  Sb6  1  0.000000  0.000000  0.500000  1
  Sb  Sb7  1  0.000000  0.000000  0.000000  1
  O  O8  1  0.678766  0.929996  0.471044  1
  O  O9  1  0.929996  0.678766  0.528956  1
  O  O10  1  0.678766  0.929996  0.028956  1
  O  O11  1  0.929996  0.678766  0.971044  1
  O  O12  1  0.321234  0.070004  0.528956  1
  O  O13  1  0.070004  0.321234  0.471044  1
  O  O14  1  0.321234  0.070004  0.971044  1
  O  O15  1  0.070004  0.321234  0.028956  1
  O  O16  1  0.931919  0.068081  0.750000  1
  O  O17  1  0.068081  0.931919  0.250000  1
  O  O18  1  0.366440  0.633560  0.750000  1
  O  O19  1  0.633560  0.366440  0.250000  1
  O  O20  1  0.639910  0.360090  0.750000  1
  O  O21  1  0.360090  0.639910  0.250000  1
