# generated using pymatgen
data_Cs8Sc2S7
_symmetry_space_group_name_H-M   'P 1'
_cell_length_a   21.89905200
_cell_length_b   8.62621307
_cell_length_c   8.83970912
_cell_angle_alpha   59.55720833
_cell_angle_beta   90.00000000
_cell_angle_gamma   90.00000000
_symmetry_Int_Tables_number   1
_chemical_formula_structural   Cs8Sc2S7
_chemical_formula_sum   'Cs16 Sc4 S14'
_cell_volume   1439.65687723
_cell_formula_units_Z   2
loop_
 _symmetry_equiv_pos_site_id
 _symmetry_equiv_pos_as_xyz
  1  'x, y, z'
loop_
 _atom_site_type_symbol
 _atom_site_label
 _atom_site_symmetry_multiplicity
 _atom_site_fract_x
 _atom_site_fract_y
 _atom_site_fract_z
 _atom_site_occupancy
  Cs  Cs0  1  0.994986  0.227509  0.226913  1
  Cs  Cs1  1  0.494986  0.272491  0.773087  1
  Cs  Cs2  1  0.005014  0.772491  0.773087  1
  Cs  Cs3  1  0.505014  0.727509  0.226913  1
  Cs  Cs4  1  0.188122  0.229119  0.216624  1
  Cs  Cs5  1  0.688122  0.270881  0.783376  1
  Cs  Cs6  1  0.811878  0.770881  0.783376  1
  Cs  Cs7  1  0.311878  0.729119  0.216624  1
  Cs  Cs8  1  0.786696  0.213209  0.232949  1
  Cs  Cs9  1  0.286696  0.286791  0.767051  1
  Cs  Cs10  1  0.213304  0.786791  0.767051  1
  Cs  Cs11  1  0.713304  0.713209  0.232949  1
  Cs  Cs12  1  0.920854  0.357276  0.636744  1
  Cs  Cs13  1  0.420854  0.142724  0.363256  1
  Cs  Cs14  1  0.079146  0.642724  0.363256  1
  Cs  Cs15  1  0.579146  0.857276  0.636744  1
  Sc  Sc16  1  0.598476  0.355967  0.145518  1
  Sc  Sc17  1  0.098476  0.144033  0.854482  1
  Sc  Sc18  1  0.401524  0.644033  0.854482  1
  Sc  Sc19  1  0.901524  0.855967  0.145518  1
  S  S20  1  0.500000  0.500000  0.000000  1
  S  S21  1  0.000000  0.000000  0.000000  1
  S  S22  1  0.600068  0.334292  0.431685  1
  S  S23  1  0.100068  0.165708  0.568315  1
  S  S24  1  0.399932  0.665708  0.568315  1
  S  S25  1  0.899932  0.834292  0.431685  1
  S  S26  1  0.320460  0.446108  0.047149  1
  S  S27  1  0.820460  0.053892  0.952851  1
  S  S28  1  0.679540  0.553892  0.952851  1
  S  S29  1  0.179540  0.946108  0.047149  1
  S  S30  1  0.606487  0.061489  0.170068  1
  S  S31  1  0.106487  0.438511  0.829932  1
  S  S32  1  0.393513  0.938511  0.829932  1
  S  S33  1  0.893513  0.561489  0.170068  1
