# generated using pymatgen
data_Y3HoEr4(WO6)4
_symmetry_space_group_name_H-M   'P 1'
_cell_length_a   5.39011900
_cell_length_b   7.69135543
_cell_length_c   11.42839979
_cell_angle_alpha   75.49042069
_cell_angle_beta   90.00000000
_cell_angle_gamma   90.00000000
_symmetry_Int_Tables_number   1
_chemical_formula_structural   Y3HoEr4(WO6)4
_chemical_formula_sum   'Y3 Ho1 Er4 W4 O24'
_cell_volume   458.67964283
_cell_formula_units_Z   1
loop_
 _symmetry_equiv_pos_site_id
 _symmetry_equiv_pos_as_xyz
  1  'x, y, z'
loop_
 _atom_site_type_symbol
 _atom_site_label
 _atom_site_symmetry_multiplicity
 _atom_site_fract_x
 _atom_site_fract_y
 _atom_site_fract_z
 _atom_site_occupancy
  Y  Y0  1  0.683915  0.500000  0.250000  1
  Y  Y1  1  0.315755  0.500000  0.750000  1
  Y  Y2  1  0.741333  0.000000  0.250000  1
  Ho  Ho3  1  0.259202  0.000000  0.750000  1
  Er  Er4  1  0.183528  0.205995  0.422103  1
  Er  Er5  1  0.183528  0.794005  0.077897  1
  Er  Er6  1  0.816702  0.794053  0.578386  1
  Er  Er7  1  0.816702  0.205947  0.921614  1
  W  W8  1  0.255883  0.276253  0.114528  1
  W  W9  1  0.255883  0.723747  0.385472  1
  W  W10  1  0.744017  0.724478  0.885106  1
  W  W11  1  0.744017  0.275522  0.614894  1
  O  O12  1  0.456209  0.208895  0.273539  1
  O  O13  1  0.456209  0.791105  0.226461  1
  O  O14  1  0.542637  0.792347  0.726336  1
  O  O15  1  0.542637  0.207653  0.773664  1
  O  O16  1  0.046202  0.059738  0.103316  1
  O  O17  1  0.046202  0.940262  0.396684  1
  O  O18  1  0.955209  0.940542  0.895795  1
  O  O19  1  0.955209  0.059458  0.604205  1
  O  O20  1  0.981443  0.288601  0.229028  1
  O  O21  1  0.981443  0.711399  0.270972  1
  O  O22  1  0.018620  0.712039  0.770752  1
  O  O23  1  0.018620  0.287961  0.729248  1
  O  O24  1  0.850407  0.364364  0.451667  1
  O  O25  1  0.850407  0.635636  0.048333  1
  O  O26  1  0.149201  0.634930  0.548642  1
  O  O27  1  0.149201  0.365070  0.951358  1
  O  O28  1  0.641177  0.510148  0.614251  1
  O  O29  1  0.641177  0.489852  0.885749  1
  O  O30  1  0.359049  0.489215  0.386137  1
  O  O31  1  0.359049  0.510785  0.113863  1
  O  O32  1  0.463624  0.154080  0.568981  1
  O  O33  1  0.463624  0.845920  0.931019  1
  O  O34  1  0.535991  0.844997  0.431734  1
  O  O35  1  0.535991  0.155003  0.068266  1
