# generated using pymatgen
data_RbNdDy2(SbAu)4
_symmetry_space_group_name_H-M   'P 1'
_cell_length_a   4.65084000
_cell_length_b   4.65084036
_cell_length_c   17.75900900
_cell_angle_alpha   90.00000000
_cell_angle_beta   90.00000000
_cell_angle_gamma   119.99999747
_symmetry_Int_Tables_number   1
_chemical_formula_structural   RbNdDy2(SbAu)4
_chemical_formula_sum   'Rb1 Nd1 Dy2 Sb4 Au4'
_cell_volume   332.66889938
_cell_formula_units_Z   1
loop_
 _symmetry_equiv_pos_site_id
 _symmetry_equiv_pos_as_xyz
  1  'x, y, z'
loop_
 _atom_site_type_symbol
 _atom_site_label
 _atom_site_symmetry_multiplicity
 _atom_site_fract_x
 _atom_site_fract_y
 _atom_site_fract_z
 _atom_site_occupancy
  Rb  Rb0  1  0.000000  0.000000  0.252803  1
  Nd  Nd1  1  0.000000  0.000000  0.979599  1
  Dy  Dy2  1  0.000000  0.000000  0.518093  1
  Dy  Dy3  1  0.000000  0.000000  0.745934  1
  Sb  Sb4  1  0.333333  0.666667  0.400428  1
  Sb  Sb5  1  0.666667  0.333333  0.617821  1
  Sb  Sb6  1  0.666667  0.333333  0.874586  1
  Sb  Sb7  1  0.333333  0.666667  0.101233  1
  Au  Au8  1  0.666667  0.333333  0.441629  1
  Au  Au9  1  0.333333  0.666667  0.666382  1
  Au  Au10  1  0.333333  0.666667  0.828089  1
  Au  Au11  1  0.666667  0.333333  0.073403  1
