# generated using pymatgen
data_Ca4CrSi2Pd27
_symmetry_space_group_name_H-M   'P 1'
_cell_length_a   8.92189961
_cell_length_b   8.92189961
_cell_length_c   7.10022315
_cell_angle_alpha   90.08826328
_cell_angle_beta   90.08826328
_cell_angle_gamma   89.46300111
_symmetry_Int_Tables_number   1
_chemical_formula_structural   Ca4CrSi2Pd27
_chemical_formula_sum   'Ca4 Cr1 Si2 Pd27'
_cell_volume   565.15368929
_cell_formula_units_Z   1
loop_
 _symmetry_equiv_pos_site_id
 _symmetry_equiv_pos_as_xyz
  1  'x, y, z'
loop_
 _atom_site_type_symbol
 _atom_site_label
 _atom_site_symmetry_multiplicity
 _atom_site_fract_x
 _atom_site_fract_y
 _atom_site_fract_z
 _atom_site_occupancy
  Ca  Ca0  1  0.508032  0.008032  0.937217  1
  Ca  Ca1  1  0.991968  0.491968  0.062783  1
  Ca  Ca2  1  0.001647  0.998353  0.500000  1
  Ca  Ca3  1  0.498353  0.501647  0.500000  1
  Cr  Cr4  1  0.250000  0.750000  0.000000  1
  Si  Si5  1  0.500696  0.000696  0.447348  1
  Si  Si6  1  0.999304  0.499304  0.552652  1
  Pd  Pd7  1  0.333584  0.833584  0.614381  1
  Pd  Pd8  1  0.332438  0.166276  0.619352  1
  Pd  Pd9  1  0.666276  0.832438  0.619352  1
  Pd  Pd10  1  0.666209  0.166209  0.615757  1
  Pd  Pd11  1  0.166416  0.666416  0.385619  1
  Pd  Pd12  1  0.167562  0.333724  0.380648  1
  Pd  Pd13  1  0.833724  0.667562  0.380648  1
  Pd  Pd14  1  0.833791  0.333791  0.384243  1
  Pd  Pd15  1  0.497182  0.770912  0.253960  1
  Pd  Pd16  1  0.497312  0.230826  0.257626  1
  Pd  Pd17  1  0.270912  0.997182  0.253960  1
  Pd  Pd18  1  0.730826  0.997312  0.257626  1
  Pd  Pd19  1  0.002818  0.729088  0.746040  1
  Pd  Pd20  1  0.002688  0.269174  0.742374  1
  Pd  Pd21  1  0.229088  0.502818  0.746040  1
  Pd  Pd22  1  0.769174  0.502688  0.742374  1
  Pd  Pd23  1  0.499091  0.353400  0.854625  1
  Pd  Pd24  1  0.492909  0.660598  0.864375  1
  Pd  Pd25  1  0.853400  0.999091  0.854625  1
  Pd  Pd26  1  0.160598  0.992909  0.864375  1
  Pd  Pd27  1  0.000909  0.146600  0.145375  1
  Pd  Pd28  1  0.007091  0.839402  0.135625  1
  Pd  Pd29  1  0.646600  0.500909  0.145375  1
  Pd  Pd30  1  0.339402  0.507091  0.135625  1
  Pd  Pd31  1  0.250000  0.250000  0.000000  1
  Pd  Pd32  1  0.750000  0.750000  0.000000  1
  Pd  Pd33  1  0.750000  0.250000  0.000000  1
