# generated using pymatgen
data_Na4In11GaTe20
_symmetry_space_group_name_H-M   'P 1'
_cell_length_a   10.95628552
_cell_length_b   10.97825520
_cell_length_c   10.92831771
_cell_angle_alpha   89.74719890
_cell_angle_beta   89.35096689
_cell_angle_gamma   90.30131405
_symmetry_Int_Tables_number   1
_chemical_formula_structural   Na4In11GaTe20
_chemical_formula_sum   'Na4 In11 Ga1 Te20'
_cell_volume   1314.35221984
_cell_formula_units_Z   1
loop_
 _symmetry_equiv_pos_site_id
 _symmetry_equiv_pos_as_xyz
  1  'x, y, z'
loop_
 _atom_site_type_symbol
 _atom_site_label
 _atom_site_symmetry_multiplicity
 _atom_site_fract_x
 _atom_site_fract_y
 _atom_site_fract_z
 _atom_site_occupancy
  Na  Na0  1  0.259337  0.999964  0.259684  1
  Na  Na1  1  0.000364  0.739877  0.739486  1
  Na  Na2  1  0.741008  0.259215  0.997962  1
  Na  Na3  1  0.500788  0.499537  0.500232  1
  In  In4  1  0.429076  0.124643  0.838761  1
  In  In5  1  0.122865  0.158473  0.575438  1
  In  In6  1  0.159897  0.425981  0.874535  1
  In  In7  1  0.874687  0.574951  0.160499  1
  In  In8  1  0.573660  0.840842  0.125404  1
  In  In9  1  0.840411  0.876023  0.427079  1
  In  In10  1  0.659673  0.835046  0.745315  1
  In  In11  1  0.831300  0.252565  0.342489  1
  In  In12  1  0.251652  0.659387  0.168227  1
  In  In13  1  0.166938  0.340457  0.252516  1
  In  In14  1  0.340407  0.747744  0.832296  1
  Ga  Ga15  1  0.747920  0.166868  0.657699  1
  Te  Te16  1  0.999139  0.167139  0.168071  1
  Te  Te17  1  0.829296  0.010546  0.821443  1
  Te  Te18  1  0.833338  0.835113  0.166561  1
  Te  Te19  1  0.168973  0.166528  0.835008  1
  Te  Te20  1  0.166330  0.832603  0.001081  1
  Te  Te21  1  0.916065  0.500981  0.915848  1
  Te  Te22  1  0.499604  0.084292  0.084113  1
  Te  Te23  1  0.084935  0.915010  0.499513  1
  Te  Te24  1  0.579632  0.315153  0.746312  1
  Te  Te25  1  0.321194  0.244625  0.431078  1
  Te  Te26  1  0.246248  0.569104  0.675808  1
  Te  Te27  1  0.676245  0.429946  0.245162  1
  Te  Te28  1  0.429169  0.755596  0.324085  1
  Te  Te29  1  0.757220  0.676431  0.569925  1
  Te  Te30  1  0.429916  0.930893  0.664952  1
  Te  Te31  1  0.923267  0.325432  0.577237  1
  Te  Te32  1  0.333649  0.431680  0.067738  1
  Te  Te33  1  0.066734  0.568190  0.335044  1
  Te  Te34  1  0.570303  0.668694  0.930338  1
  Te  Te35  1  0.668761  0.070470  0.443060  1
