# generated using pymatgen
data_IrRh3Pb4O13
_symmetry_space_group_name_H-M   'P 1'
_cell_length_a   7.32084124
_cell_length_b   7.30729264
_cell_length_c   7.30729400
_cell_angle_alpha   60.00000289
_cell_angle_beta   60.06120431
_cell_angle_gamma   60.06119631
_symmetry_Int_Tables_number   1
_chemical_formula_structural   IrRh3Pb4O13
_chemical_formula_sum   'Ir1 Rh3 Pb4 O13'
_cell_volume   276.66881077
_cell_formula_units_Z   1
loop_
 _symmetry_equiv_pos_site_id
 _symmetry_equiv_pos_as_xyz
  1  'x, y, z'
loop_
 _atom_site_type_symbol
 _atom_site_label
 _atom_site_symmetry_multiplicity
 _atom_site_fract_x
 _atom_site_fract_y
 _atom_site_fract_z
 _atom_site_occupancy
  Ir  Ir0  1  0.374850  0.875050  0.875050  1
  Rh  Rh1  1  0.874844  0.375693  0.874731  1
  Rh  Rh2  1  0.874844  0.874731  0.375693  1
  Rh  Rh3  1  0.874844  0.874731  0.874731  1
  Pb  Pb4  1  0.879517  0.373494  0.373494  1
  Pb  Pb5  1  0.373241  0.372264  0.372264  1
  Pb  Pb6  1  0.373241  0.372264  0.882233  1
  Pb  Pb7  1  0.373241  0.882233  0.372264  1
  O  O8  1  0.205698  0.797300  0.797300  1
  O  O9  1  0.205698  0.797300  0.199702  1
  O  O10  1  0.546542  0.950462  0.950462  1
  O  O11  1  0.546542  0.950462  0.552534  1
  O  O12  1  0.956359  0.951134  0.546253  1
  O  O13  1  0.792360  0.795417  0.206112  1
  O  O14  1  0.546542  0.552534  0.950462  1
  O  O15  1  0.792360  0.206112  0.795417  1
  O  O16  1  0.792360  0.206112  0.206112  1
  O  O17  1  0.956359  0.546253  0.951134  1
  O  O18  1  0.956359  0.546253  0.546253  1
  O  O19  1  0.205698  0.199702  0.797300  1
  O  O20  1  0.498498  0.500501  0.500501  1
