# generated using pymatgen
data_NaNb(MoSe3)2
_symmetry_space_group_name_H-M   'P 1'
_cell_length_a   5.88999300
_cell_length_b   5.88999363
_cell_length_c   17.51938300
_cell_angle_alpha   90.00000000
_cell_angle_beta   90.00000000
_cell_angle_gamma   120.00000210
_symmetry_Int_Tables_number   1
_chemical_formula_structural   NaNb(MoSe3)2
_chemical_formula_sum   'Na2 Nb2 Mo4 Se12'
_cell_volume   526.35533961
_cell_formula_units_Z   2
loop_
 _symmetry_equiv_pos_site_id
 _symmetry_equiv_pos_as_xyz
  1  'x, y, z'
loop_
 _atom_site_type_symbol
 _atom_site_label
 _atom_site_symmetry_multiplicity
 _atom_site_fract_x
 _atom_site_fract_y
 _atom_site_fract_z
 _atom_site_occupancy
  Na  Na0  1  0.000000  0.000000  0.000000  1
  Na  Na1  1  0.000000  0.000000  0.500000  1
  Nb  Nb2  1  0.666667  0.333333  0.250000  1
  Nb  Nb3  1  0.333333  0.666667  0.750000  1
  Mo  Mo4  1  0.000000  0.000000  0.750000  1
  Mo  Mo5  1  0.000000  0.000000  0.250000  1
  Mo  Mo6  1  0.333333  0.666667  0.250000  1
  Mo  Mo7  1  0.666667  0.333333  0.750000  1
  Se  Se8  1  0.327126  0.993873  0.154642  1
  Se  Se9  1  0.006127  0.333252  0.154642  1
  Se  Se10  1  0.666748  0.672874  0.154642  1
  Se  Se11  1  0.333252  0.327126  0.654642  1
  Se  Se12  1  0.666748  0.672874  0.345358  1
  Se  Se13  1  0.672874  0.006127  0.654642  1
  Se  Se14  1  0.993873  0.666748  0.654642  1
  Se  Se15  1  0.993873  0.666748  0.845358  1
  Se  Se16  1  0.333252  0.327126  0.845358  1
  Se  Se17  1  0.006127  0.333252  0.345358  1
  Se  Se18  1  0.327126  0.993873  0.345358  1
  Se  Se19  1  0.672874  0.006127  0.845358  1
