# generated using pymatgen
data_Ac2La(SnPd)3
_symmetry_space_group_name_H-M   'P 1'
_cell_length_a   7.81607000
_cell_length_b   7.86724843
_cell_length_c   4.31095300
_cell_angle_alpha   90.00000000
_cell_angle_beta   90.00000000
_cell_angle_gamma   119.78504033
_symmetry_Int_Tables_number   1
_chemical_formula_structural   Ac2La(SnPd)3
_chemical_formula_sum   'Ac2 La1 Sn3 Pd3'
_cell_volume   230.06569689
_cell_formula_units_Z   1
loop_
 _symmetry_equiv_pos_site_id
 _symmetry_equiv_pos_as_xyz
  1  'x, y, z'
loop_
 _atom_site_type_symbol
 _atom_site_label
 _atom_site_symmetry_multiplicity
 _atom_site_fract_x
 _atom_site_fract_y
 _atom_site_fract_z
 _atom_site_occupancy
  Ac  Ac0  1  0.000593  0.584933  0.000000  1
  Ac  Ac1  1  0.415660  0.415067  0.000000  1
  La  La2  1  0.586101  0.000000  0.000000  1
  Sn  Sn3  1  0.754951  0.760212  0.500000  1
  Sn  Sn4  1  0.994740  0.239788  0.500000  1
  Sn  Sn5  1  0.248700  0.000000  0.500000  1
  Pd  Pd6  1  0.665195  0.329053  0.500000  1
  Pd  Pd7  1  0.997920  0.000000  0.000000  1
  Pd  Pd8  1  0.336141  0.670947  0.500000  1
