# generated using pymatgen
data_Tb6MgCo17P12
_symmetry_space_group_name_H-M   'P 1'
_cell_length_a   3.72748000
_cell_length_b   10.58640000
_cell_length_c   12.27131400
_cell_angle_alpha   90.00000000
_cell_angle_beta   90.00000000
_cell_angle_gamma   90.00000000
_symmetry_Int_Tables_number   1
_chemical_formula_structural   Tb6MgCo17P12
_chemical_formula_sum   'Tb6 Mg1 Co17 P12'
_cell_volume   484.23334294
_cell_formula_units_Z   1
loop_
 _symmetry_equiv_pos_site_id
 _symmetry_equiv_pos_as_xyz
  1  'x, y, z'
loop_
 _atom_site_type_symbol
 _atom_site_label
 _atom_site_symmetry_multiplicity
 _atom_site_fract_x
 _atom_site_fract_y
 _atom_site_fract_z
 _atom_site_occupancy
  Tb  Tb0  1  0.000000  0.500000  0.524872  1
  Tb  Tb1  1  0.500000  0.000000  0.478742  1
  Tb  Tb2  1  0.500000  0.821152  0.207114  1
  Tb  Tb3  1  0.500000  0.178848  0.207114  1
  Tb  Tb4  1  0.000000  0.682989  0.794461  1
  Tb  Tb5  1  0.000000  0.317011  0.794461  1
  Mg  Mg6  1  0.500000  0.500000  0.153161  1
  Co  Co7  1  0.000000  0.000000  0.839939  1
  Co  Co8  1  0.500000  0.500000  0.703956  1
  Co  Co9  1  0.000000  0.000000  0.296175  1
  Co  Co10  1  0.000000  0.500000  0.985705  1
  Co  Co11  1  0.500000  0.000000  0.012318  1
  Co  Co12  1  0.500000  0.329507  0.993137  1
  Co  Co13  1  0.500000  0.670493  0.993137  1
  Co  Co14  1  0.000000  0.163347  0.002193  1
  Co  Co15  1  0.000000  0.836653  0.002193  1
  Co  Co16  1  0.500000  0.295794  0.432422  1
  Co  Co17  1  0.500000  0.704206  0.432422  1
  Co  Co18  1  0.000000  0.202337  0.570352  1
  Co  Co19  1  0.000000  0.797663  0.570352  1
  Co  Co20  1  0.500000  0.880392  0.709215  1
  Co  Co21  1  0.500000  0.119608  0.709215  1
  Co  Co22  1  0.000000  0.622380  0.293105  1
  Co  Co23  1  0.000000  0.377620  0.293105  1
  P  P24  1  0.500000  0.500000  0.883274  1
  P  P25  1  0.000000  0.000000  0.116188  1
  P  P26  1  0.500000  0.500000  0.352917  1
  P  P27  1  0.000000  0.000000  0.656422  1
  P  P28  1  0.500000  0.308685  0.616637  1
  P  P29  1  0.500000  0.691315  0.616637  1
  P  P30  1  0.000000  0.189971  0.385900  1
  P  P31  1  0.000000  0.810029  0.385900  1
  P  P32  1  0.500000  0.849478  0.891013  1
  P  P33  1  0.500000  0.150522  0.891013  1
  P  P34  1  0.000000  0.662148  0.102617  1
  P  P35  1  0.000000  0.337852  0.102617  1
