# generated using pymatgen
data_Lu12Nb(Si4Ir)3
_symmetry_space_group_name_H-M   'P 1'
_cell_length_a   4.13988600
_cell_length_b   10.65457776
_cell_length_c   12.15819668
_cell_angle_alpha   90.24797542
_cell_angle_beta   90.00000000
_cell_angle_gamma   90.00000000
_symmetry_Int_Tables_number   1
_chemical_formula_structural   Lu12Nb(Si4Ir)3
_chemical_formula_sum   'Lu12 Nb1 Si12 Ir3'
_cell_volume   536.27768086
_cell_formula_units_Z   1
loop_
 _symmetry_equiv_pos_site_id
 _symmetry_equiv_pos_as_xyz
  1  'x, y, z'
loop_
 _atom_site_type_symbol
 _atom_site_label
 _atom_site_symmetry_multiplicity
 _atom_site_fract_x
 _atom_site_fract_y
 _atom_site_fract_z
 _atom_site_occupancy
  Lu  Lu0  1  0.250000  0.878171  0.020475  1
  Lu  Lu1  1  0.250000  0.624581  0.518607  1
  Lu  Lu2  1  0.750000  0.117895  0.983026  1
  Lu  Lu3  1  0.750000  0.378433  0.476872  1
  Lu  Lu4  1  0.250000  0.921456  0.602953  1
  Lu  Lu5  1  0.250000  0.579920  0.104174  1
  Lu  Lu6  1  0.750000  0.077776  0.393830  1
  Lu  Lu7  1  0.750000  0.420639  0.896890  1
  Lu  Lu8  1  0.250000  0.666861  0.800234  1
  Lu  Lu9  1  0.250000  0.840010  0.299638  1
  Lu  Lu10  1  0.750000  0.341062  0.199830  1
  Lu  Lu11  1  0.750000  0.155199  0.700428  1
  Nb  Nb12  1  0.250000  0.385939  0.679407  1
  Si  Si13  1  0.250000  0.010512  0.822334  1
  Si  Si14  1  0.250000  0.486948  0.321715  1
  Si  Si15  1  0.750000  0.986115  0.178395  1
  Si  Si16  1  0.750000  0.528211  0.677920  1
  Si  Si17  1  0.250000  0.242724  0.849631  1
  Si  Si18  1  0.250000  0.250424  0.340203  1
  Si  Si19  1  0.750000  0.752633  0.158850  1
  Si  Si20  1  0.750000  0.755651  0.657657  1
  Si  Si21  1  0.250000  0.189667  0.537542  1
  Si  Si22  1  0.250000  0.299149  0.045436  1
  Si  Si23  1  0.750000  0.802760  0.454958  1
  Si  Si24  1  0.750000  0.697951  0.957590  1
  Ir  Ir25  1  0.250000  0.109687  0.178901  1
  Ir  Ir26  1  0.750000  0.610742  0.319561  1
  Ir  Ir27  1  0.750000  0.888885  0.822941  1
