# generated using pymatgen
data_Ce3Er13(MgCo)4
_symmetry_space_group_name_H-M   'P 1'
_cell_length_a   9.49423770
_cell_length_b   9.53013262
_cell_length_c   9.53013200
_cell_angle_alpha   60.00000215
_cell_angle_beta   59.87485843
_cell_angle_gamma   59.87485948
_symmetry_Int_Tables_number   1
_chemical_formula_structural   Ce3Er13(MgCo)4
_chemical_formula_sum   'Ce3 Er13 Mg4 Co4'
_cell_volume   608.58172163
_cell_formula_units_Z   1
loop_
 _symmetry_equiv_pos_site_id
 _symmetry_equiv_pos_as_xyz
  1  'x, y, z'
loop_
 _atom_site_type_symbol
 _atom_site_label
 _atom_site_symmetry_multiplicity
 _atom_site_fract_x
 _atom_site_fract_y
 _atom_site_fract_z
 _atom_site_occupancy
  Ce  Ce0  1  0.588052  0.594054  0.594054  1
  Ce  Ce1  1  0.588052  0.594054  0.223840  1
  Ce  Ce2  1  0.588052  0.223840  0.594054  1
  Er  Er3  1  0.208019  0.597327  0.597327  1
  Er  Er4  1  0.064469  0.436281  0.436281  1
  Er  Er5  1  0.436560  0.064037  0.064037  1
  Er  Er6  1  0.436560  0.064037  0.435366  1
  Er  Er7  1  0.064469  0.436281  0.062968  1
  Er  Er8  1  0.436560  0.435366  0.064037  1
  Er  Er9  1  0.064469  0.062968  0.436281  1
  Er  Er10  1  0.184935  0.814953  0.814953  1
  Er  Er11  1  0.812332  0.187123  0.187123  1
  Er  Er12  1  0.812332  0.187123  0.813423  1
  Er  Er13  1  0.184935  0.814953  0.185160  1
  Er  Er14  1  0.812332  0.813423  0.187123  1
  Er  Er15  1  0.184935  0.185160  0.814953  1
  Mg  Mg16  1  0.828952  0.830071  0.830071  1
  Mg  Mg17  1  0.828952  0.830071  0.510905  1
  Mg  Mg18  1  0.828952  0.510905  0.830071  1
  Mg  Mg19  1  0.508583  0.830472  0.830472  1
  Co  Co20  1  0.407894  0.388062  0.388062  1
  Co  Co21  1  0.407894  0.388062  0.815983  1
  Co  Co22  1  0.407894  0.815983  0.388062  1
  Co  Co23  1  0.813818  0.395394  0.395394  1
