# generated using pymatgen
data_Ba4ZrMn3O12
_symmetry_space_group_name_H-M   'P 1'
_cell_length_a   10.13756803
_cell_length_b   10.13756789
_cell_length_c   10.13756800
_cell_angle_alpha   33.40004330
_cell_angle_beta   33.40004494
_cell_angle_gamma   33.40003786
_symmetry_Int_Tables_number   1
_chemical_formula_structural   Ba4ZrMn3O12
_chemical_formula_sum   'Ba4 Zr1 Mn3 O12'
_cell_volume   281.13661651
_cell_formula_units_Z   1
loop_
 _symmetry_equiv_pos_site_id
 _symmetry_equiv_pos_as_xyz
  1  'x, y, z'
loop_
 _atom_site_type_symbol
 _atom_site_label
 _atom_site_symmetry_multiplicity
 _atom_site_fract_x
 _atom_site_fract_y
 _atom_site_fract_z
 _atom_site_occupancy
  Ba  Ba0  1  0.714443  0.714443  0.714443  1
  Ba  Ba1  1  0.285557  0.285557  0.285557  1
  Ba  Ba2  1  0.871233  0.871233  0.871233  1
  Ba  Ba3  1  0.128767  0.128767  0.128767  1
  Zr  Zr4  1  0.000000  0.000000  0.000000  1
  Mn  Mn5  1  0.410877  0.410877  0.410877  1
  Mn  Mn6  1  0.500000  0.500000  0.500000  1
  Mn  Mn7  1  0.589123  0.589123  0.589123  1
  O  O8  1  0.214084  0.214084  0.698090  1
  O  O9  1  0.698090  0.214084  0.214084  1
  O  O10  1  0.214084  0.698090  0.214084  1
  O  O11  1  0.785916  0.301910  0.785916  1
  O  O12  1  0.785916  0.785916  0.301910  1
  O  O13  1  0.301910  0.785916  0.785916  1
  O  O14  1  0.396966  0.396966  0.836108  1
  O  O15  1  0.836108  0.396966  0.396966  1
  O  O16  1  0.163892  0.603034  0.603034  1
  O  O17  1  0.603034  0.603034  0.163892  1
  O  O18  1  0.603034  0.163892  0.603034  1
  O  O19  1  0.396966  0.836108  0.396966  1
