# generated using pymatgen
data_CaPr7(ReC2)4
_symmetry_space_group_name_H-M   'P 1'
_cell_length_a   5.39085500
_cell_length_b   6.71446049
_cell_length_c   10.35469137
_cell_angle_alpha   89.67407965
_cell_angle_beta   90.00000000
_cell_angle_gamma   90.00000000
_symmetry_Int_Tables_number   1
_chemical_formula_structural   CaPr7(ReC2)4
_chemical_formula_sum   'Ca1 Pr7 Re4 C8'
_cell_volume   374.79941630
_cell_formula_units_Z   1
loop_
 _symmetry_equiv_pos_site_id
 _symmetry_equiv_pos_as_xyz
  1  'x, y, z'
loop_
 _atom_site_type_symbol
 _atom_site_label
 _atom_site_symmetry_multiplicity
 _atom_site_fract_x
 _atom_site_fract_y
 _atom_site_fract_z
 _atom_site_occupancy
  Ca  Ca0  1  0.750000  0.528899  0.779935  1
  Pr  Pr1  1  0.250000  0.971870  0.286517  1
  Pr  Pr2  1  0.750000  0.688986  0.451241  1
  Pr  Pr3  1  0.250000  0.804306  0.948686  1
  Pr  Pr4  1  0.750000  0.192083  0.048502  1
  Pr  Pr5  1  0.250000  0.309315  0.551533  1
  Pr  Pr6  1  0.250000  0.472369  0.216056  1
  Pr  Pr7  1  0.750000  0.026344  0.717285  1
  Re  Re8  1  0.250000  0.269616  0.855975  1
  Re  Re9  1  0.250000  0.770710  0.643520  1
  Re  Re10  1  0.750000  0.230305  0.355013  1
  Re  Re11  1  0.750000  0.732600  0.144858  1
  C  C12  1  0.250000  0.687441  0.466342  1
  C  C13  1  0.250000  0.533507  0.757826  1
  C  C14  1  0.750000  0.468722  0.241911  1
  C  C15  1  0.750000  0.811391  0.967301  1
  C  C16  1  0.250000  0.033449  0.742981  1
  C  C17  1  0.250000  0.194345  0.034247  1
  C  C18  1  0.750000  0.306087  0.532255  1
  C  C19  1  0.750000  0.967656  0.258017  1
