# generated using pymatgen
data_Ca3Er(Ru2O7)2
_symmetry_space_group_name_H-M   'P 1'
_cell_length_a   7.26600979
_cell_length_b   7.26600880
_cell_length_c   7.27460854
_cell_angle_alpha   60.03909231
_cell_angle_beta   60.03909213
_cell_angle_gamma   59.99999749
_symmetry_Int_Tables_number   1
_chemical_formula_structural   Ca3Er(Ru2O7)2
_chemical_formula_sum   'Ca3 Er1 Ru4 O14'
_cell_volume   271.73331250
_cell_formula_units_Z   1
loop_
 _symmetry_equiv_pos_site_id
 _symmetry_equiv_pos_as_xyz
  1  'x, y, z'
loop_
 _atom_site_type_symbol
 _atom_site_label
 _atom_site_symmetry_multiplicity
 _atom_site_fract_x
 _atom_site_fract_y
 _atom_site_fract_z
 _atom_site_occupancy
  Ca  Ca0  1  0.625000  0.125000  0.625000  1
  Ca  Ca1  1  0.125000  0.625000  0.625000  1
  Ca  Ca2  1  0.625000  0.625000  0.625000  1
  Er  Er3  1  0.625000  0.625000  0.125000  1
  Ru  Ru4  1  0.625000  0.125000  0.125000  1
  Ru  Ru5  1  0.125000  0.625000  0.125000  1
  Ru  Ru6  1  0.125000  0.125000  0.625000  1
  Ru  Ru7  1  0.125000  0.125000  0.125000  1
  O  O8  1  0.194021  0.194021  0.807542  1
  O  O9  1  0.204261  0.799176  0.197388  1
  O  O10  1  0.450824  0.045739  0.052612  1
  O  O11  1  0.194021  0.804416  0.807542  1
  O  O12  1  0.055979  0.445584  0.442458  1
  O  O13  1  0.799176  0.799176  0.197388  1
  O  O14  1  0.450824  0.450824  0.052612  1
  O  O15  1  0.504039  0.504039  0.487884  1
  O  O16  1  0.055979  0.055979  0.442458  1
  O  O17  1  0.445584  0.055979  0.442458  1
  O  O18  1  0.045739  0.450824  0.052612  1
  O  O19  1  0.745961  0.745961  0.762116  1
  O  O20  1  0.804416  0.194021  0.807542  1
  O  O21  1  0.799176  0.204261  0.197388  1
