# generated using pymatgen
data_Sr2CaPd2
_symmetry_space_group_name_H-M   'P 1'
_cell_length_a   7.94947323
_cell_length_b   7.94947352
_cell_length_c   7.94947436
_cell_angle_alpha   70.74457463
_cell_angle_beta   70.74458430
_cell_angle_gamma   70.74457823
_symmetry_Int_Tables_number   1
_chemical_formula_structural   Sr2CaPd2
_chemical_formula_sum   'Sr6 Ca3 Pd6'
_cell_volume   433.73953174
_cell_formula_units_Z   3
loop_
 _symmetry_equiv_pos_site_id
 _symmetry_equiv_pos_as_xyz
  1  'x, y, z'
loop_
 _atom_site_type_symbol
 _atom_site_label
 _atom_site_symmetry_multiplicity
 _atom_site_fract_x
 _atom_site_fract_y
 _atom_site_fract_z
 _atom_site_occupancy
  Sr  Sr0  1  0.331693  0.606585  0.843927  1
  Sr  Sr1  1  0.843927  0.331693  0.606585  1
  Sr  Sr2  1  0.606585  0.843927  0.331693  1
  Sr  Sr3  1  0.668307  0.393415  0.156073  1
  Sr  Sr4  1  0.156073  0.668307  0.393415  1
  Sr  Sr5  1  0.393415  0.156073  0.668307  1
  Ca  Ca6  1  0.000000  0.000000  0.000000  1
  Ca  Ca7  1  0.803176  0.803176  0.803176  1
  Ca  Ca8  1  0.196824  0.196824  0.196824  1
  Pd  Pd9  1  0.146010  0.962547  0.587373  1
  Pd  Pd10  1  0.587373  0.146010  0.962547  1
  Pd  Pd11  1  0.962547  0.587373  0.146010  1
  Pd  Pd12  1  0.853990  0.037453  0.412627  1
  Pd  Pd13  1  0.412627  0.853990  0.037453  1
  Pd  Pd14  1  0.037453  0.412627  0.853990  1
