# generated using pymatgen
data_Ca2Al16RuPt8
_symmetry_space_group_name_H-M   'P 1'
_cell_length_a   11.11005441
_cell_length_b   11.11005463
_cell_length_c   11.11005500
_cell_angle_alpha   158.41554780
_cell_angle_beta   116.30046575
_cell_angle_gamma   68.10203545
_symmetry_Int_Tables_number   1
_chemical_formula_structural   Ca2Al16RuPt8
_chemical_formula_sum   'Ca2 Al16 Ru1 Pt8'
_cell_volume   449.07717233
_cell_formula_units_Z   1
loop_
 _symmetry_equiv_pos_site_id
 _symmetry_equiv_pos_as_xyz
  1  'x, y, z'
loop_
 _atom_site_type_symbol
 _atom_site_label
 _atom_site_symmetry_multiplicity
 _atom_site_fract_x
 _atom_site_fract_y
 _atom_site_fract_z
 _atom_site_occupancy
  Ca  Ca0  1  0.229536  0.229561  0.999974  1
  Ca  Ca1  1  0.770414  0.770439  0.999974  1
  Al  Al2  1  0.275457  0.391635  0.883822  1
  Al  Al3  1  0.088466  0.923448  0.165017  1
  Al  Al4  1  0.505948  0.201710  0.304239  1
  Al  Al5  1  0.241569  0.076552  0.165017  1
  Al  Al6  1  0.909668  0.416206  0.493462  1
  Al  Al7  1  0.724719  0.599918  0.124801  1
  Al  Al8  1  0.902600  0.208663  0.693937  1
  Al  Al9  1  0.485276  0.791337  0.693937  1
  Al  Al10  1  0.386823  0.000000  0.386823  1
  Al  Al11  1  0.626975  0.000000  0.626975  1
  Al  Al12  1  0.492187  0.608365  0.883822  1
  Al  Al13  1  0.102528  0.798290  0.304239  1
  Al  Al14  1  0.905053  0.084264  0.820789  1
  Al  Al15  1  0.736525  0.915736  0.820789  1
  Al  Al16  1  0.524885  0.400082  0.124801  1
  Al  Al17  1  0.077256  0.583794  0.493462  1
  Ru  Ru18  1  0.779038  0.500000  0.279038  1
  Pt  Pt19  1  0.027327  0.343960  0.683367  1
  Pt  Pt20  1  0.626953  0.123594  0.503360  1
  Pt  Pt21  1  0.252603  0.500000  0.752603  1
  Pt  Pt22  1  0.379766  0.876406  0.503360  1
  Pt  Pt23  1  0.985573  0.000000  0.985573  1
  Pt  Pt24  1  0.648433  0.336710  0.311724  1
  Pt  Pt25  1  0.339410  0.656040  0.683367  1
  Pt  Pt26  1  0.975013  0.663290  0.311724  1
