# generated using pymatgen
data_Rb3PSeO3
_symmetry_space_group_name_H-M   'P 1'
_cell_length_a   7.42669685
_cell_length_b   7.42669615
_cell_length_c   7.42669579
_cell_angle_alpha   84.76478122
_cell_angle_beta   84.76478712
_cell_angle_gamma   84.76477444
_symmetry_Int_Tables_number   1
_chemical_formula_structural   Rb3PSeO3
_chemical_formula_sum   'Rb6 P2 Se2 O6'
_cell_volume   404.79260467
_cell_formula_units_Z   2
loop_
 _symmetry_equiv_pos_site_id
 _symmetry_equiv_pos_as_xyz
  1  'x, y, z'
loop_
 _atom_site_type_symbol
 _atom_site_label
 _atom_site_symmetry_multiplicity
 _atom_site_fract_x
 _atom_site_fract_y
 _atom_site_fract_z
 _atom_site_occupancy
  Rb  Rb0  1  0.509329  0.883045  0.191620  1
  Rb  Rb1  1  0.191620  0.509329  0.883045  1
  Rb  Rb2  1  0.883045  0.191620  0.509329  1
  Rb  Rb3  1  0.383045  0.009329  0.691620  1
  Rb  Rb4  1  0.691620  0.383045  0.009329  1
  Rb  Rb5  1  0.009329  0.691620  0.383045  1
  P  P6  1  0.902953  0.902953  0.902953  1
  P  P7  1  0.402953  0.402953  0.402953  1
  Se  Se8  1  0.568780  0.568780  0.568780  1
  Se  Se9  1  0.068780  0.068780  0.068780  1
  O  O10  1  0.865981  0.726225  0.022935  1
  O  O11  1  0.022935  0.865981  0.726225  1
  O  O12  1  0.726225  0.022935  0.865981  1
  O  O13  1  0.226225  0.365981  0.522935  1
  O  O14  1  0.522935  0.226225  0.365981  1
  O  O15  1  0.365981  0.522935  0.226225  1
