# generated using pymatgen
data_Tb2Nd6YRh6
_symmetry_space_group_name_H-M   'P 1'
_cell_length_a   7.56049264
_cell_length_b   7.56049244
_cell_length_c   7.56049284
_cell_angle_alpha   71.15202013
_cell_angle_beta   71.15201424
_cell_angle_gamma   71.15200843
_symmetry_Int_Tables_number   1
_chemical_formula_structural   Tb2Nd6YRh6
_chemical_formula_sum   'Tb2 Nd6 Y1 Rh6'
_cell_volume   375.34601471
_cell_formula_units_Z   1
loop_
 _symmetry_equiv_pos_site_id
 _symmetry_equiv_pos_as_xyz
  1  'x, y, z'
loop_
 _atom_site_type_symbol
 _atom_site_label
 _atom_site_symmetry_multiplicity
 _atom_site_fract_x
 _atom_site_fract_y
 _atom_site_fract_z
 _atom_site_occupancy
  Tb  Tb0  1  0.799149  0.799149  0.799149  1
  Tb  Tb1  1  0.200851  0.200851  0.200851  1
  Nd  Nd2  1  0.162187  0.391623  0.665836  1
  Nd  Nd3  1  0.665836  0.162187  0.391623  1
  Nd  Nd4  1  0.391623  0.665836  0.162187  1
  Nd  Nd5  1  0.837813  0.608377  0.334164  1
  Nd  Nd6  1  0.334164  0.837813  0.608377  1
  Nd  Nd7  1  0.608377  0.334164  0.837813  1
  Y  Y8  1  0.000000  0.000000  0.000000  1
  Rh  Rh9  1  0.959466  0.158386  0.591151  1
  Rh  Rh10  1  0.591151  0.959466  0.158386  1
  Rh  Rh11  1  0.158386  0.591151  0.959466  1
  Rh  Rh12  1  0.040534  0.841614  0.408849  1
  Rh  Rh13  1  0.408849  0.040534  0.841614  1
  Rh  Rh14  1  0.841614  0.408849  0.040534  1
