# generated using pymatgen
data_TbEr3Al18(OsRh2)2
_symmetry_space_group_name_H-M   'P 1'
_cell_length_a   7.51079299
_cell_length_b   7.51396581
_cell_length_c   9.47616600
_cell_angle_alpha   90.00000000
_cell_angle_beta   90.00000000
_cell_angle_gamma   118.45828568
_symmetry_Int_Tables_number   1
_chemical_formula_structural   TbEr3Al18(OsRh2)2
_chemical_formula_sum   'Tb1 Er3 Al18 Os2 Rh4'
_cell_volume   470.17301514
_cell_formula_units_Z   1
loop_
 _symmetry_equiv_pos_site_id
 _symmetry_equiv_pos_as_xyz
  1  'x, y, z'
loop_
 _atom_site_type_symbol
 _atom_site_label
 _atom_site_symmetry_multiplicity
 _atom_site_fract_x
 _atom_site_fract_y
 _atom_site_fract_z
 _atom_site_occupancy
  Tb  Tb0  1  0.993397  0.680189  0.750000  1
  Er  Er1  1  0.006565  0.318649  0.250000  1
  Er  Er2  1  0.680705  0.993563  0.750000  1
  Er  Er3  1  0.318805  0.006738  0.250000  1
  Al  Al4  1  0.134428  0.134831  0.750000  1
  Al  Al5  1  0.865551  0.865923  0.250000  1
  Al  Al6  1  0.002435  0.337612  0.574288  1
  Al  Al7  1  0.997608  0.661682  0.423729  1
  Al  Al8  1  0.997608  0.661682  0.076271  1
  Al  Al9  1  0.338462  0.002960  0.925420  1
  Al  Al10  1  0.002435  0.337612  0.925712  1
  Al  Al11  1  0.661723  0.997753  0.075516  1
  Al  Al12  1  0.661723  0.997753  0.424484  1
  Al  Al13  1  0.338462  0.002960  0.574580  1
  Al  Al14  1  0.331796  0.331785  0.046065  1
  Al  Al15  1  0.668172  0.668555  0.955777  1
  Al  Al16  1  0.668172  0.668555  0.544223  1
  Al  Al17  1  0.331796  0.331785  0.453935  1
  Al  Al18  1  0.341823  0.554402  0.750000  1
  Al  Al19  1  0.658320  0.444431  0.250000  1
  Al  Al20  1  0.554001  0.340291  0.750000  1
  Al  Al21  1  0.444638  0.658650  0.250000  1
  Os  Os22  1  0.000472  0.000916  0.499328  1
  Os  Os23  1  0.000472  0.000916  0.000672  1
  Rh  Rh24  1  0.671919  0.327763  0.499649  1
  Rh  Rh25  1  0.328296  0.672141  0.499910  1
  Rh  Rh26  1  0.328296  0.672141  0.000090  1
  Rh  Rh27  1  0.671919  0.327763  0.000351  1
