# generated using pymatgen
data_Tb2TmTa3(B2Ru5)2
_symmetry_space_group_name_H-M   'P 1'
_cell_length_a   9.60900169
_cell_length_b   9.60900120
_cell_length_c   3.11944600
_cell_angle_alpha   90.00000000
_cell_angle_beta   90.00000000
_cell_angle_gamma   90.54497910
_symmetry_Int_Tables_number   1
_chemical_formula_structural   Tb2TmTa3(B2Ru5)2
_chemical_formula_sum   'Tb2 Tm1 Ta3 B4 Ru10'
_cell_volume   288.01449376
_cell_formula_units_Z   1
loop_
 _symmetry_equiv_pos_site_id
 _symmetry_equiv_pos_as_xyz
  1  'x, y, z'
loop_
 _atom_site_type_symbol
 _atom_site_label
 _atom_site_symmetry_multiplicity
 _atom_site_fract_x
 _atom_site_fract_y
 _atom_site_fract_z
 _atom_site_occupancy
  Tb  Tb0  1  0.824049  0.675233  0.000000  1
  Tb  Tb1  1  0.175233  0.324049  0.000000  1
  Tm  Tm2  1  0.325650  0.825650  0.000000  1
  Ta  Ta3  1  0.675525  0.175525  0.000000  1
  Ta  Ta4  1  0.498031  0.502867  0.000000  1
  Ta  Ta5  1  0.002867  0.998031  0.000000  1
  B  B6  1  0.622255  0.881403  0.000000  1
  B  B7  1  0.381403  0.122255  0.000000  1
  B  B8  1  0.120145  0.620145  0.000000  1
  B  B9  1  0.875900  0.375900  0.000000  1
  Ru  Ru10  1  0.569437  0.722439  0.500000  1
  Ru  Ru11  1  0.441310  0.279787  0.500000  1
  Ru  Ru12  1  0.071239  0.781261  0.500000  1
  Ru  Ru13  1  0.915201  0.213122  0.500000  1
  Ru  Ru14  1  0.281261  0.571239  0.500000  1
  Ru  Ru15  1  0.713122  0.415201  0.500000  1
  Ru  Ru16  1  0.222439  0.069437  0.500000  1
  Ru  Ru17  1  0.779787  0.941310  0.500000  1
  Ru  Ru18  1  0.508910  0.008910  0.500000  1
  Ru  Ru19  1  0.996235  0.496235  0.500000  1
