# generated using pymatgen
data_Tb3Er(In2Cl5)4
_symmetry_space_group_name_H-M   'P 1'
_cell_length_a   8.26402314
_cell_length_b   8.58609600
_cell_length_c   13.02063288
_cell_angle_alpha   90.00000000
_cell_angle_beta   90.12682752
_cell_angle_gamma   90.00000000
_symmetry_Int_Tables_number   1
_chemical_formula_structural   Tb3Er(In2Cl5)4
_chemical_formula_sum   'Tb3 Er1 In8 Cl20'
_cell_volume   923.88580461
_cell_formula_units_Z   1
loop_
 _symmetry_equiv_pos_site_id
 _symmetry_equiv_pos_as_xyz
  1  'x, y, z'
loop_
 _atom_site_type_symbol
 _atom_site_label
 _atom_site_symmetry_multiplicity
 _atom_site_fract_x
 _atom_site_fract_y
 _atom_site_fract_z
 _atom_site_occupancy
  Tb  Tb0  1  0.927707  0.750000  0.504329  1
  Tb  Tb1  1  0.572126  0.750000  0.004326  1
  Tb  Tb2  1  0.073211  0.250000  0.495722  1
  Er  Er3  1  0.427470  0.250000  0.996012  1
  In  In4  1  0.941319  0.006283  0.828153  1
  In  In5  1  0.057936  0.993739  0.171483  1
  In  In6  1  0.557874  0.493955  0.329052  1
  In  In7  1  0.057936  0.506261  0.171483  1
  In  In8  1  0.941319  0.493717  0.828153  1
  In  In9  1  0.441478  0.506795  0.670842  1
  In  In10  1  0.557874  0.006045  0.329052  1
  In  In11  1  0.441478  0.993205  0.670842  1
  Cl  Cl12  1  0.594488  0.750000  0.508288  1
  Cl  Cl13  1  0.163194  0.954516  0.433046  1
  Cl  Cl14  1  0.837743  0.045255  0.566952  1
  Cl  Cl15  1  0.338466  0.543113  0.932488  1
  Cl  Cl16  1  0.163194  0.545484  0.433046  1
  Cl  Cl17  1  0.349253  0.250000  0.194499  1
  Cl  Cl18  1  0.338466  0.956887  0.932488  1
  Cl  Cl19  1  0.837743  0.454745  0.566952  1
  Cl  Cl20  1  0.402051  0.750000  0.181207  1
  Cl  Cl21  1  0.660766  0.046518  0.067261  1
  Cl  Cl22  1  0.152583  0.250000  0.696581  1
  Cl  Cl23  1  0.595232  0.250000  0.821825  1
  Cl  Cl24  1  0.406246  0.250000  0.491969  1
  Cl  Cl25  1  0.099157  0.750000  0.681168  1
  Cl  Cl26  1  0.660766  0.453482  0.067261  1
  Cl  Cl27  1  0.097343  0.250000  0.991557  1
  Cl  Cl28  1  0.905004  0.750000  0.008345  1
  Cl  Cl29  1  0.847000  0.750000  0.303458  1
  Cl  Cl30  1  0.651676  0.750000  0.803042  1
  Cl  Cl31  1  0.901898  0.250000  0.319117  1
