# generated using pymatgen
data_Sc8Zn5In4Pd3
_symmetry_space_group_name_H-M   'P 1'
_cell_length_a   7.50320733
_cell_length_b   7.51184113
_cell_length_c   6.95023401
_cell_angle_alpha   89.88796801
_cell_angle_beta   89.94848215
_cell_angle_gamma   89.86060307
_symmetry_Int_Tables_number   1
_chemical_formula_structural   Sc8Zn5In4Pd3
_chemical_formula_sum   'Sc8 Zn5 In4 Pd3'
_cell_volume   391.73328955
_cell_formula_units_Z   1
loop_
 _symmetry_equiv_pos_site_id
 _symmetry_equiv_pos_as_xyz
  1  'x, y, z'
loop_
 _atom_site_type_symbol
 _atom_site_label
 _atom_site_symmetry_multiplicity
 _atom_site_fract_x
 _atom_site_fract_y
 _atom_site_fract_z
 _atom_site_occupancy
  Sc  Sc0  1  0.162742  0.150922  0.996520  1
  Sc  Sc1  1  0.852849  0.841292  0.001923  1
  Sc  Sc2  1  0.647379  0.344317  0.506607  1
  Sc  Sc3  1  0.335338  0.658568  0.505895  1
  Sc  Sc4  1  0.679978  0.314039  0.994784  1
  Sc  Sc5  1  0.308113  0.687338  0.994089  1
  Sc  Sc6  1  0.824420  0.813724  0.499178  1
  Sc  Sc7  1  0.191749  0.179707  0.504408  1
  Zn  Zn8  1  0.374659  0.378450  0.214815  1
  Zn  Zn9  1  0.624967  0.627548  0.785008  1
  Zn  Zn10  1  0.621200  0.623732  0.218047  1
  Zn  Zn11  1  0.874764  0.125258  0.715985  1
  Zn  Zn12  1  0.875546  0.128321  0.283549  1
  In  In13  1  0.501671  0.998229  0.250877  1
  In  In14  1  0.502183  0.001284  0.749607  1
  In  In15  1  0.998580  0.497575  0.251286  1
  In  In16  1  0.000688  0.497541  0.749102  1
  Pd  Pd17  1  0.376827  0.378602  0.779142  1
  Pd  Pd18  1  0.124178  0.876276  0.272624  1
  Pd  Pd19  1  0.122168  0.877275  0.726554  1
