# generated using pymatgen
data_Ca12Ti12Cr5In3O48
_symmetry_space_group_name_H-M   'P 1'
_cell_length_a   10.99807230
_cell_length_b   11.02261473
_cell_length_c   11.02520901
_cell_angle_alpha   109.55133946
_cell_angle_beta   109.45749031
_cell_angle_gamma   109.41479162
_symmetry_Int_Tables_number   1
_chemical_formula_structural   Ca12Ti12Cr5In3O48
_chemical_formula_sum   'Ca12 Ti12 Cr5 In3 O48'
_cell_volume   1028.75571890
_cell_formula_units_Z   1
loop_
 _symmetry_equiv_pos_site_id
 _symmetry_equiv_pos_as_xyz
  1  'x, y, z'
loop_
 _atom_site_type_symbol
 _atom_site_label
 _atom_site_symmetry_multiplicity
 _atom_site_fract_x
 _atom_site_fract_y
 _atom_site_fract_z
 _atom_site_occupancy
  Ca  Ca0  1  0.244906  0.372043  0.121926  1
  Ca  Ca1  1  0.755094  0.627957  0.878074  1
  Ca  Ca2  1  0.748868  0.119759  0.378368  1
  Ca  Ca3  1  0.119452  0.239763  0.371034  1
  Ca  Ca4  1  0.371210  0.744874  0.124597  1
  Ca  Ca5  1  0.251132  0.880241  0.621632  1
  Ca  Ca6  1  0.880548  0.760237  0.628966  1
  Ca  Ca7  1  0.628790  0.255126  0.875403  1
  Ca  Ca8  1  0.375131  0.123537  0.251880  1
  Ca  Ca9  1  0.624869  0.876463  0.748120  1
  Ca  Ca10  1  0.127049  0.372705  0.752292  1
  Ca  Ca11  1  0.872951  0.627295  0.247708  1
  Ti  Ti12  1  0.248591  0.629868  0.369715  1
  Ti  Ti13  1  0.751409  0.370132  0.630285  1
  Ti  Ti14  1  0.754612  0.873512  0.129204  1
  Ti  Ti15  1  0.371604  0.244817  0.625279  1
  Ti  Ti16  1  0.628396  0.755183  0.374721  1
  Ti  Ti17  1  0.245388  0.126488  0.870796  1
  Ti  Ti18  1  0.120395  0.750974  0.879883  1
  Ti  Ti19  1  0.879605  0.249026  0.120117  1
  Ti  Ti20  1  0.621002  0.376648  0.245644  1
  Ti  Ti21  1  0.378998  0.623352  0.754356  1
  Ti  Ti22  1  0.875160  0.124553  0.750302  1
  Ti  Ti23  1  0.124840  0.875447  0.249698  1
  Cr  Cr24  1  0.000000  0.000000  0.000000  1
  Cr  Cr25  1  0.500000  0.000000  0.500000  1
  Cr  Cr26  1  0.500000  0.500000  0.000000  1
  Cr  Cr27  1  0.000000  0.000000  0.500000  1
  Cr  Cr28  1  0.000000  0.500000  0.000000  1
  In  In29  1  0.000000  0.500000  0.500000  1
  In  In30  1  0.500000  0.000000  0.000000  1
  In  In31  1  0.500000  0.500000  0.500000  1
  O  O32  1  0.470000  0.373068  0.283635  1
  O  O33  1  0.530000  0.626932  0.716365  1
  O  O34  1  0.589651  0.191601  0.213244  1
  O  O35  1  0.918835  0.115040  0.601706  1
  O  O36  1  0.287534  0.482669  0.375974  1
  O  O37  1  0.317162  0.918855  0.304473  1
  O  O38  1  0.410349  0.808399  0.786756  1
  O  O39  1  0.081165  0.884960  0.398294  1
  O  O40  1  0.712466  0.517331  0.624026  1
  O  O41  1  0.682838  0.081145  0.695527  1
  O  O42  1  0.015323  0.317493  0.898858  1
  O  O43  1  0.201721  0.583385  0.177188  1
  O  O44  1  0.117893  0.015737  0.196874  1
  O  O45  1  0.984677  0.682507  0.101142  1
  O  O46  1  0.798279  0.416615  0.822812  1
  O  O47  1  0.882107  0.984263  0.803126  1
  O  O48  1  0.604606  0.912770  0.124829  1
  O  O49  1  0.191316  0.474435  0.603077  1
  O  O50  1  0.395394  0.087230  0.875171  1
  O  O51  1  0.808684  0.525565  0.396923  1
  O  O52  1  0.902870  0.018452  0.320871  1
  O  O53  1  0.382811  0.584463  0.905138  1
  O  O54  1  0.097130  0.981548  0.679129  1
  O  O55  1  0.617189  0.415537  0.094862  1
  O  O56  1  0.372510  0.287127  0.477743  1
  O  O57  1  0.580178  0.900853  0.380178  1
  O  O58  1  0.627490  0.712873  0.522257  1
  O  O59  1  0.419822  0.099147  0.619822  1
  O  O60  1  0.112332  0.597334  0.914441  1
  O  O61  1  0.023078  0.200170  0.117011  1
  O  O62  1  0.887668  0.402666  0.085559  1
  O  O63  1  0.976922  0.799830  0.882989  1
  O  O64  1  0.311057  0.897677  0.027658  1
  O  O65  1  0.913526  0.287536  0.307136  1
  O  O66  1  0.688943  0.102323  0.972342  1
  O  O67  1  0.086474  0.712464  0.692864  1
  O  O68  1  0.180977  0.196441  0.584535  1
  O  O69  1  0.487352  0.602321  0.184485  1
  O  O70  1  0.819023  0.803559  0.415465  1
  O  O71  1  0.512648  0.397679  0.815515  1
  O  O72  1  0.298678  0.320803  0.919588  1
  O  O73  1  0.701322  0.679197  0.080412  1
  O  O74  1  0.195694  0.113403  0.010559  1
  O  O75  1  0.804306  0.886597  0.989441  1
  O  O76  1  0.898556  0.370543  0.586521  1
  O  O77  1  0.101444  0.629457  0.413479  1
  O  O78  1  0.598196  0.181435  0.484169  1
  O  O79  1  0.401804  0.818565  0.515831  1
