# generated using pymatgen
data_Ho8V11Si16Mo
_symmetry_space_group_name_H-M   'P 1'
_cell_length_a   6.66117610
_cell_length_b   6.86050197
_cell_length_c   12.87259400
_cell_angle_alpha   90.00000000
_cell_angle_beta   90.00000000
_cell_angle_gamma   90.04345140
_symmetry_Int_Tables_number   1
_chemical_formula_structural   Ho8V11Si16Mo
_chemical_formula_sum   'Ho8 V11 Si16 Mo1'
_cell_volume   588.26465492
_cell_formula_units_Z   1
loop_
 _symmetry_equiv_pos_site_id
 _symmetry_equiv_pos_as_xyz
  1  'x, y, z'
loop_
 _atom_site_type_symbol
 _atom_site_label
 _atom_site_symmetry_multiplicity
 _atom_site_fract_x
 _atom_site_fract_y
 _atom_site_fract_z
 _atom_site_occupancy
  Ho  Ho0  1  0.499668  0.331245  0.094730  1
  Ho  Ho1  1  0.999165  0.168867  0.405280  1
  Ho  Ho2  1  0.499933  0.669177  0.595799  1
  Ho  Ho3  1  0.000220  0.831737  0.904209  1
  Ho  Ho4  1  0.499933  0.669177  0.904201  1
  Ho  Ho5  1  0.000220  0.831737  0.595791  1
  Ho  Ho6  1  0.499668  0.331245  0.405270  1
  Ho  Ho7  1  0.999165  0.168867  0.094720  1
  V  V8  1  0.836494  0.328156  0.627073  1
  V  V9  1  0.336153  0.171979  0.873139  1
  V  V10  1  0.164306  0.670194  0.126729  1
  V  V11  1  0.663387  0.828821  0.373469  1
  V  V12  1  0.164306  0.670194  0.373271  1
  V  V13  1  0.663387  0.828821  0.126531  1
  V  V14  1  0.836494  0.328156  0.872927  1
  V  V15  1  0.336153  0.171979  0.626861  1
  V  V16  1  0.663576  0.014016  0.750000  1
  V  V17  1  0.163118  0.485773  0.750000  1
  V  V18  1  0.336673  0.985943  0.250000  1
  Si  Si19  1  0.659807  0.043900  0.545058  1
  Si  Si20  1  0.160370  0.456404  0.954943  1
  Si  Si21  1  0.339967  0.956187  0.044288  1
  Si  Si22  1  0.840039  0.544819  0.457191  1
  Si  Si23  1  0.339967  0.956187  0.455712  1
  Si  Si24  1  0.840039  0.544819  0.042809  1
  Si  Si25  1  0.659807  0.043900  0.954942  1
  Si  Si26  1  0.160370  0.456404  0.545057  1
  Si  Si27  1  0.538427  0.365922  0.750000  1
  Si  Si28  1  0.038223  0.133495  0.750000  1
  Si  Si29  1  0.460115  0.634879  0.250000  1
  Si  Si30  1  0.963376  0.868820  0.250000  1
  Si  Si31  1  0.803299  0.617882  0.750000  1
  Si  Si32  1  0.303417  0.882501  0.750000  1
  Si  Si33  1  0.199409  0.378482  0.250000  1
  Si  Si34  1  0.695483  0.118012  0.250000  1
  Mo  Mo35  1  0.835870  0.511303  0.250000  1
