# generated using pymatgen
data_Zr10ZnSiSnBi5
_symmetry_space_group_name_H-M   'P 1'
_cell_length_a   8.83866361
_cell_length_b   8.81452427
_cell_length_c   5.93350901
_cell_angle_alpha   89.93309232
_cell_angle_beta   90.03336719
_cell_angle_gamma   119.90969411
_symmetry_Int_Tables_number   1
_chemical_formula_structural   Zr10ZnSiSnBi5
_chemical_formula_sum   'Zr10 Zn1 Si1 Sn1 Bi5'
_cell_volume   400.70236537
_cell_formula_units_Z   1
loop_
 _symmetry_equiv_pos_site_id
 _symmetry_equiv_pos_as_xyz
  1  'x, y, z'
loop_
 _atom_site_type_symbol
 _atom_site_label
 _atom_site_symmetry_multiplicity
 _atom_site_fract_x
 _atom_site_fract_y
 _atom_site_fract_z
 _atom_site_occupancy
  Zr  Zr0  1  0.670274  0.334211  0.001670  1
  Zr  Zr1  1  0.329726  0.663936  0.001670  1
  Zr  Zr2  1  0.329629  0.663879  0.498273  1
  Zr  Zr3  1  0.670371  0.334250  0.498273  1
  Zr  Zr4  1  0.742051  0.740955  0.745104  1
  Zr  Zr5  1  0.257949  0.998902  0.745104  1
  Zr  Zr6  1  0.000000  0.259660  0.745932  1
  Zr  Zr7  1  0.256666  0.262406  0.254453  1
  Zr  Zr8  1  0.743334  0.005740  0.254453  1
  Zr  Zr9  1  0.000000  0.736878  0.254406  1
  Zn  Zn10  1  0.000000  0.999814  0.001899  1
  Si  Si11  1  0.000000  0.999785  0.498194  1
  Sn  Sn12  1  0.000000  0.390316  0.247512  1
  Bi  Bi13  1  0.391403  0.390400  0.752539  1
  Bi  Bi14  1  0.608597  0.998997  0.752539  1
  Bi  Bi15  1  0.000000  0.607458  0.753314  1
  Bi  Bi16  1  0.610246  0.611330  0.247333  1
  Bi  Bi17  1  0.389754  0.001083  0.247333  1
