# generated using pymatgen
data_Tb2Mn4Ni8GeP6
_symmetry_space_group_name_H-M   'P 1'
_cell_length_a   9.18931981
_cell_length_b   9.21884075
_cell_length_c   3.69112800
_cell_angle_alpha   90.00000000
_cell_angle_beta   90.00000000
_cell_angle_gamma   119.91791808
_symmetry_Int_Tables_number   1
_chemical_formula_structural   Tb2Mn4Ni8GeP6
_chemical_formula_sum   'Tb2 Mn4 Ni8 Ge1 P6'
_cell_volume   271.02417599
_cell_formula_units_Z   1
loop_
 _symmetry_equiv_pos_site_id
 _symmetry_equiv_pos_as_xyz
  1  'x, y, z'
loop_
 _atom_site_type_symbol
 _atom_site_label
 _atom_site_symmetry_multiplicity
 _atom_site_fract_x
 _atom_site_fract_y
 _atom_site_fract_z
 _atom_site_occupancy
  Tb  Tb0  1  0.665972  0.332408  0.000000  1
  Tb  Tb1  1  0.335251  0.662065  0.500000  1
  Mn  Mn2  1  0.882521  0.156431  0.000000  1
  Mn  Mn3  1  0.089981  0.881114  0.500000  1
  Mn  Mn4  1  0.780383  0.900323  0.500000  1
  Mn  Mn5  1  0.124002  0.225251  0.500000  1
  Ni  Ni6  1  0.047761  0.611889  0.000000  1
  Ni  Ni7  1  0.574194  0.937826  0.000000  1
  Ni  Ni8  1  0.373846  0.435504  0.000000  1
  Ni  Ni9  1  0.274696  0.129455  0.000000  1
  Ni  Ni10  1  0.845337  0.721337  0.000000  1
  Ni  Ni11  1  0.443517  0.062309  0.500000  1
  Ni  Ni12  1  0.615113  0.564152  0.500000  1
  Ni  Ni13  1  0.947966  0.383037  0.500000  1
  Ge  Ge14  1  0.291490  0.883843  0.000000  1
  P  P15  1  0.594389  0.705296  0.000000  1
  P  P16  1  0.112228  0.406600  0.000000  1
  P  P17  1  0.405558  0.292253  0.500000  1
  P  P18  1  0.885912  0.595559  0.500000  1
  P  P19  1  0.712823  0.113645  0.500000  1
  P  P20  1  0.997061  0.999702  0.000000  1
