# generated using pymatgen
data_Ni8Mo7W9C4
_symmetry_space_group_name_H-M   'P 1'
_cell_length_a   8.02221236
_cell_length_b   8.02657240
_cell_length_c   8.02221245
_cell_angle_alpha   59.98202506
_cell_angle_beta   59.97573154
_cell_angle_gamma   59.98202421
_symmetry_Int_Tables_number   1
_chemical_formula_structural   Ni8Mo7W9C4
_chemical_formula_sum   'Ni8 Mo7 W9 C4'
_cell_volume   365.09486020
_cell_formula_units_Z   1
loop_
 _symmetry_equiv_pos_site_id
 _symmetry_equiv_pos_as_xyz
  1  'x, y, z'
loop_
 _atom_site_type_symbol
 _atom_site_label
 _atom_site_symmetry_multiplicity
 _atom_site_fract_x
 _atom_site_fract_y
 _atom_site_fract_z
 _atom_site_occupancy
  Ni  Ni0  1  0.833412  0.833211  0.833412  1
  Ni  Ni1  1  0.833202  0.833352  0.500093  1
  Ni  Ni2  1  0.500093  0.833352  0.833202  1
  Ni  Ni3  1  0.833412  0.499964  0.833412  1
  Ni  Ni4  1  0.416731  0.416750  0.416731  1
  Ni  Ni5  1  0.416724  0.416708  0.749861  1
  Ni  Ni6  1  0.416731  0.749789  0.416731  1
  Ni  Ni7  1  0.749861  0.416708  0.416724  1
  Mo  Mo8  1  0.440905  0.058825  0.058901  1
  Mo  Mo9  1  0.058901  0.441369  0.440905  1
  Mo  Mo10  1  0.058714  0.441286  0.058714  1
  Mo  Mo11  1  0.058901  0.058825  0.440905  1
  Mo  Mo12  1  0.441306  0.058694  0.441306  1
  Mo  Mo13  1  0.440905  0.441369  0.058901  1
  Mo  Mo14  1  0.190338  0.809662  0.190338  1
  W  W15  1  0.809752  0.190248  0.809752  1
  W  W16  1  0.809836  0.190434  0.190354  1
  W  W17  1  0.190354  0.190434  0.809836  1
  W  W18  1  0.190354  0.809377  0.809836  1
  W  W19  1  0.809836  0.809377  0.190354  1
  W  W20  1  0.624982  0.624957  0.624982  1
  W  W21  1  0.625000  0.624920  0.125160  1
  W  W22  1  0.125160  0.624920  0.625000  1
  W  W23  1  0.624982  0.125078  0.624982  1
  C  C24  1  0.124642  0.125041  0.124642  1
  C  C25  1  0.124755  0.124837  0.625571  1
  C  C26  1  0.625571  0.124837  0.124755  1
  C  C27  1  0.124642  0.625676  0.124642  1
