# generated using pymatgen
data_Nd2H8PdPt
_symmetry_space_group_name_H-M   'P 1'
_cell_length_a   3.83120155
_cell_length_b   5.18680700
_cell_length_c   6.45379747
_cell_angle_alpha   90.00000000
_cell_angle_beta   107.29439551
_cell_angle_gamma   90.00000000
_symmetry_Int_Tables_number   1
_chemical_formula_structural   Nd2H8PdPt
_chemical_formula_sum   'Nd2 H8 Pd1 Pt1'
_cell_volume   122.44984218
_cell_formula_units_Z   1
loop_
 _symmetry_equiv_pos_site_id
 _symmetry_equiv_pos_as_xyz
  1  'x, y, z'
loop_
 _atom_site_type_symbol
 _atom_site_label
 _atom_site_symmetry_multiplicity
 _atom_site_fract_x
 _atom_site_fract_y
 _atom_site_fract_z
 _atom_site_occupancy
  Nd  Nd0  1  0.862456  0.750000  0.222250  1
  Nd  Nd1  1  0.135063  0.249999  0.771877  1
  H  H2  1  0.306060  0.999057  0.112259  1
  H  H3  1  0.306060  0.500942  0.112259  1
  H  H4  1  0.910363  0.249999  0.321013  1
  H  H5  1  0.499187  0.004264  0.498268  1
  H  H6  1  0.499187  0.495737  0.498268  1
  H  H7  1  0.085866  0.750000  0.671172  1
  H  H8  1  0.697190  0.487358  0.894518  1
  H  H9  1  0.697190  0.012641  0.894518  1
  Pd  Pd10  1  0.596040  0.750000  0.692771  1
  Pt  Pt11  1  0.405336  0.249999  0.310828  1
