# generated using pymatgen
data_Ce6Cd23I
_symmetry_space_group_name_H-M   'P 1'
_cell_length_a   10.16582861
_cell_length_b   10.16582823
_cell_length_c   10.16582900
_cell_angle_alpha   60.00000074
_cell_angle_beta   60.00000198
_cell_angle_gamma   60.00000008
_symmetry_Int_Tables_number   1
_chemical_formula_structural   Ce6Cd23I
_chemical_formula_sum   'Ce6 Cd23 I1'
_cell_volume   742.87092674
_cell_formula_units_Z   1
loop_
 _symmetry_equiv_pos_site_id
 _symmetry_equiv_pos_as_xyz
  1  'x, y, z'
loop_
 _atom_site_type_symbol
 _atom_site_label
 _atom_site_symmetry_multiplicity
 _atom_site_fract_x
 _atom_site_fract_y
 _atom_site_fract_z
 _atom_site_occupancy
  Ce  Ce0  1  0.778871  0.778871  0.221129  1
  Ce  Ce1  1  0.221129  0.778871  0.221129  1
  Ce  Ce2  1  0.778871  0.221129  0.221129  1
  Ce  Ce3  1  0.221129  0.221129  0.778871  1
  Ce  Ce4  1  0.778871  0.221129  0.778871  1
  Ce  Ce5  1  0.221129  0.778871  0.778871  1
  Cd  Cd6  1  0.836867  0.836867  0.489401  1
  Cd  Cd7  1  0.836867  0.489401  0.836867  1
  Cd  Cd8  1  0.489401  0.836867  0.836867  1
  Cd  Cd9  1  0.836867  0.836867  0.836867  1
  Cd  Cd10  1  0.163133  0.163133  0.510599  1
  Cd  Cd11  1  0.163133  0.510599  0.163133  1
  Cd  Cd12  1  0.510599  0.163133  0.163133  1
  Cd  Cd13  1  0.163133  0.163133  0.163133  1
  Cd  Cd14  1  0.623361  0.623361  0.129919  1
  Cd  Cd15  1  0.623361  0.129919  0.623361  1
  Cd  Cd16  1  0.129919  0.623361  0.623361  1
  Cd  Cd17  1  0.623361  0.623361  0.623361  1
  Cd  Cd18  1  0.376639  0.376639  0.870081  1
  Cd  Cd19  1  0.376639  0.870081  0.376639  1
  Cd  Cd20  1  0.870081  0.376639  0.376639  1
  Cd  Cd21  1  0.376639  0.376639  0.376639  1
  Cd  Cd22  1  0.000000  0.000000  0.500000  1
  Cd  Cd23  1  0.500000  0.000000  0.500000  1
  Cd  Cd24  1  0.000000  0.500000  0.500000  1
  Cd  Cd25  1  0.500000  0.500000  0.000000  1
  Cd  Cd26  1  0.000000  0.500000  0.000000  1
  Cd  Cd27  1  0.500000  0.000000  0.000000  1
  Cd  Cd28  1  0.500000  0.500000  0.500000  1
  I  I29  1  0.000000  0.000000  0.000000  1
