# generated using pymatgen
data_Yb4MgIrPd2
_symmetry_space_group_name_H-M   'P 1'
_cell_length_a   6.01472200
_cell_length_b   10.99033700
_cell_length_c   10.99033700
_cell_angle_alpha   90.00000000
_cell_angle_beta   90.00000000
_cell_angle_gamma   90.00000000
_symmetry_Int_Tables_number   1
_chemical_formula_structural   Yb4MgIrPd2
_chemical_formula_sum   'Yb16 Mg4 Ir4 Pd8'
_cell_volume   726.50327792
_cell_formula_units_Z   4
loop_
 _symmetry_equiv_pos_site_id
 _symmetry_equiv_pos_as_xyz
  1  'x, y, z'
loop_
 _atom_site_type_symbol
 _atom_site_label
 _atom_site_symmetry_multiplicity
 _atom_site_fract_x
 _atom_site_fract_y
 _atom_site_fract_z
 _atom_site_occupancy
  Yb  Yb0  1  0.346489  0.832146  0.540267  1
  Yb  Yb1  1  0.846489  0.667854  0.540267  1
  Yb  Yb2  1  0.846489  0.832146  0.959733  1
  Yb  Yb3  1  0.346489  0.667854  0.959733  1
  Yb  Yb4  1  0.846489  0.540267  0.832146  1
  Yb  Yb5  1  0.346489  0.959733  0.832146  1
  Yb  Yb6  1  0.346489  0.540267  0.667854  1
  Yb  Yb7  1  0.846489  0.959733  0.667854  1
  Yb  Yb8  1  0.653511  0.167854  0.459734  1
  Yb  Yb9  1  0.153511  0.332146  0.459734  1
  Yb  Yb10  1  0.153511  0.167854  0.040267  1
  Yb  Yb11  1  0.653511  0.332146  0.040267  1
  Yb  Yb12  1  0.153511  0.459734  0.167854  1
  Yb  Yb13  1  0.653511  0.040267  0.167854  1
  Yb  Yb14  1  0.653511  0.459734  0.332146  1
  Yb  Yb15  1  0.153511  0.040267  0.332146  1
  Mg  Mg16  1  0.500000  0.750000  0.250000  1
  Mg  Mg17  1  0.000000  0.750000  0.250000  1
  Mg  Mg18  1  0.000000  0.250000  0.750000  1
  Mg  Mg19  1  0.500000  0.250000  0.750000  1
  Ir  Ir20  1  0.097510  0.750000  0.750000  1
  Ir  Ir21  1  0.597510  0.750000  0.750000  1
  Ir  Ir22  1  0.902490  0.250000  0.250000  1
  Ir  Ir23  1  0.402490  0.250000  0.250000  1
  Pd  Pd24  1  0.250000  0.899623  0.100377  1
  Pd  Pd25  1  0.750000  0.600377  0.100377  1
  Pd  Pd26  1  0.750000  0.899623  0.399623  1
  Pd  Pd27  1  0.250000  0.600377  0.399623  1
  Pd  Pd28  1  0.750000  0.100377  0.899623  1
  Pd  Pd29  1  0.250000  0.399623  0.899623  1
  Pd  Pd30  1  0.250000  0.100377  0.600377  1
  Pd  Pd31  1  0.750000  0.399623  0.600377  1
