# generated using pymatgen
data_Tb3Y5(Er3Pt4)4
_symmetry_space_group_name_H-M   'P 1'
_cell_length_a   7.47149703
_cell_length_b   7.54744702
_cell_length_c   14.70186901
_cell_angle_alpha   90.00115745
_cell_angle_beta   90.00468485
_cell_angle_gamma   90.00851482
_symmetry_Int_Tables_number   1
_chemical_formula_structural   Tb3Y5(Er3Pt4)4
_chemical_formula_sum   'Tb3 Y5 Er12 Pt16'
_cell_volume   829.04908421
_cell_formula_units_Z   1
loop_
 _symmetry_equiv_pos_site_id
 _symmetry_equiv_pos_as_xyz
  1  'x, y, z'
loop_
 _atom_site_type_symbol
 _atom_site_label
 _atom_site_symmetry_multiplicity
 _atom_site_fract_x
 _atom_site_fract_y
 _atom_site_fract_z
 _atom_site_occupancy
  Tb  Tb0  1  0.998202  0.820191  0.406977  1
  Tb  Tb1  1  0.498211  0.679844  0.093013  1
  Tb  Tb2  1  0.501800  0.320192  0.593029  1
  Y  Y3  1  0.001729  0.179787  0.907019  1
  Y  Y4  1  0.001615  0.179698  0.593075  1
  Y  Y5  1  0.501693  0.320162  0.907022  1
  Y  Y6  1  0.498324  0.679718  0.406963  1
  Y  Y7  1  0.998300  0.820241  0.092987  1
  Er  Er8  1  0.681072  0.989064  0.249975  1
  Er  Er9  1  0.181134  0.510931  0.250002  1
  Er  Er10  1  0.819002  0.489056  0.750004  1
  Er  Er11  1  0.318791  0.010970  0.750056  1
  Er  Er12  1  0.656208  0.832481  0.622450  1
  Er  Er13  1  0.156078  0.667632  0.877622  1
  Er  Er14  1  0.843790  0.332419  0.377594  1
  Er  Er15  1  0.343716  0.167563  0.122359  1
  Er  Er16  1  0.343742  0.167553  0.377532  1
  Er  Er17  1  0.843841  0.332347  0.122366  1
  Er  Er18  1  0.156188  0.667572  0.622463  1
  Er  Er19  1  0.656428  0.832600  0.877564  1
  Pt  Pt20  1  0.816182  0.641680  0.250150  1
  Pt  Pt21  1  0.316137  0.858338  0.249939  1
  Pt  Pt22  1  0.683784  0.141681  0.749873  1
  Pt  Pt23  1  0.183968  0.358394  0.749981  1
  Pt  Pt24  1  0.546475  0.385485  0.249989  1
  Pt  Pt25  1  0.046464  0.114541  0.250080  1
  Pt  Pt26  1  0.953550  0.885308  0.749977  1
  Pt  Pt27  1  0.453524  0.614515  0.749923  1
  Pt  Pt28  1  0.817433  0.533374  0.542049  1
  Pt  Pt29  1  0.317609  0.966548  0.957948  1
  Pt  Pt30  1  0.682573  0.033335  0.457894  1
  Pt  Pt31  1  0.182594  0.466699  0.042154  1
  Pt  Pt32  1  0.182502  0.466773  0.457870  1
  Pt  Pt33  1  0.682311  0.033283  0.042112  1
  Pt  Pt34  1  0.317523  0.966726  0.542111  1
  Pt  Pt35  1  0.817506  0.533296  0.957878  1
