# generated using pymatgen
data_HoEr4(FeB3)2
_symmetry_space_group_name_H-M   'P 1'
_cell_length_a   8.20561899
_cell_length_b   8.20561892
_cell_length_c   8.20561830
_cell_angle_alpha   38.38823147
_cell_angle_beta   38.38824050
_cell_angle_gamma   38.38823211
_symmetry_Int_Tables_number   1
_chemical_formula_structural   HoEr4(FeB3)2
_chemical_formula_sum   'Ho1 Er4 Fe2 B6'
_cell_volume   191.38802517
_cell_formula_units_Z   1
loop_
 _symmetry_equiv_pos_site_id
 _symmetry_equiv_pos_as_xyz
  1  'x, y, z'
loop_
 _atom_site_type_symbol
 _atom_site_label
 _atom_site_symmetry_multiplicity
 _atom_site_fract_x
 _atom_site_fract_y
 _atom_site_fract_z
 _atom_site_occupancy
  Ho  Ho0  1  0.000000  0.000000  0.000000  1
  Er  Er1  1  0.583417  0.583417  0.583417  1
  Er  Er2  1  0.416583  0.416583  0.416583  1
  Er  Er3  1  0.748786  0.748786  0.748786  1
  Er  Er4  1  0.251214  0.251214  0.251214  1
  Fe  Fe5  1  0.882487  0.882487  0.882487  1
  Fe  Fe6  1  0.117513  0.117513  0.117513  1
  B  B7  1  0.500000  0.831765  0.168235  1
  B  B8  1  0.168235  0.500000  0.831765  1
  B  B9  1  0.831765  0.168235  0.500000  1
  B  B10  1  0.500000  0.168235  0.831765  1
  B  B11  1  0.831765  0.500000  0.168235  1
  B  B12  1  0.168235  0.831765  0.500000  1
