# generated using pymatgen
data_Cs4CeNiCl12
_symmetry_space_group_name_H-M   'P 1'
_cell_length_a   7.47142600
_cell_length_b   7.47142600
_cell_length_c   10.62582900
_cell_angle_alpha   90.00000000
_cell_angle_beta   90.00000000
_cell_angle_gamma   90.00000000
_symmetry_Int_Tables_number   1
_chemical_formula_structural   Cs4CeNiCl12
_chemical_formula_sum   'Cs4 Ce1 Ni1 Cl12'
_cell_volume   593.15722039
_cell_formula_units_Z   1
loop_
 _symmetry_equiv_pos_site_id
 _symmetry_equiv_pos_as_xyz
  1  'x, y, z'
loop_
 _atom_site_type_symbol
 _atom_site_label
 _atom_site_symmetry_multiplicity
 _atom_site_fract_x
 _atom_site_fract_y
 _atom_site_fract_z
 _atom_site_occupancy
  Cs  Cs0  1  0.500000  0.000000  0.762521  1
  Cs  Cs1  1  0.000000  0.500000  0.237479  1
  Cs  Cs2  1  0.500000  0.000000  0.237479  1
  Cs  Cs3  1  0.000000  0.500000  0.762521  1
  Ce  Ce4  1  0.500000  0.500000  0.500000  1
  Ni  Ni5  1  0.000000  0.000000  0.000000  1
  Cl  Cl6  1  0.000000  0.000000  0.788456  1
  Cl  Cl7  1  0.500000  0.500000  0.250382  1
  Cl  Cl8  1  0.747943  0.747943  0.500000  1
  Cl  Cl9  1  0.213262  0.213262  0.000000  1
  Cl  Cl10  1  0.747943  0.252057  0.500000  1
  Cl  Cl11  1  0.213262  0.786738  0.000000  1
  Cl  Cl12  1  0.000000  0.000000  0.211544  1
  Cl  Cl13  1  0.500000  0.500000  0.749618  1
  Cl  Cl14  1  0.252057  0.252057  0.500000  1
  Cl  Cl15  1  0.786738  0.786738  0.000000  1
  Cl  Cl16  1  0.252057  0.747943  0.500000  1
  Cl  Cl17  1  0.786738  0.213262  0.000000  1
