# generated using pymatgen
data_Tm7Lu9(Ga3Fe)2
_symmetry_space_group_name_H-M   'P 1'
_cell_length_a   9.82386800
_cell_length_b   9.82386595
_cell_length_c   6.80929300
_cell_angle_alpha   90.00175552
_cell_angle_beta   89.99824448
_cell_angle_gamma   119.98839723
_symmetry_Int_Tables_number   1
_chemical_formula_structural   Tm7Lu9(Ga3Fe)2
_chemical_formula_sum   'Tm7 Lu9 Ga6 Fe2'
_cell_volume   569.17833965
_cell_formula_units_Z   1
loop_
 _symmetry_equiv_pos_site_id
 _symmetry_equiv_pos_as_xyz
  1  'x, y, z'
loop_
 _atom_site_type_symbol
 _atom_site_label
 _atom_site_symmetry_multiplicity
 _atom_site_fract_x
 _atom_site_fract_y
 _atom_site_fract_z
 _atom_site_occupancy
  Tm  Tm0  1  0.928470  0.464217  0.792310  1
  Tm  Tm1  1  0.535783  0.071530  0.792310  1
  Tm  Tm2  1  0.464239  0.928308  0.292385  1
  Tm  Tm3  1  0.071692  0.535761  0.292385  1
  Tm  Tm4  1  0.535680  0.464320  0.792531  1
  Tm  Tm5  1  0.999986  0.000014  0.267680  1
  Tm  Tm6  1  0.999982  0.000018  0.767529  1
  Lu  Lu7  1  0.173734  0.826266  0.989270  1
  Lu  Lu8  1  0.347598  0.174020  0.489087  1
  Lu  Lu9  1  0.825980  0.652402  0.489087  1
  Lu  Lu10  1  0.174006  0.347722  0.989545  1
  Lu  Lu11  1  0.652278  0.825994  0.989545  1
  Lu  Lu12  1  0.826296  0.173704  0.489290  1
  Lu  Lu13  1  0.333456  0.666544  0.671456  1
  Lu  Lu14  1  0.666487  0.333513  0.171861  1
  Lu  Lu15  1  0.464014  0.535986  0.292535  1
  Ga  Ga16  1  0.163649  0.836351  0.540581  1
  Ga  Ga17  1  0.327353  0.163657  0.040597  1
  Ga  Ga18  1  0.836343  0.672647  0.040597  1
  Ga  Ga19  1  0.163883  0.327478  0.540450  1
  Ga  Ga20  1  0.672522  0.836117  0.540450  1
  Ga  Ga21  1  0.836316  0.163684  0.040696  1
  Fe  Fe22  1  0.333559  0.666441  0.055985  1
  Fe  Fe23  1  0.666693  0.333307  0.555849  1
