# generated using pymatgen
data_TmLuTa4(B2Ru5)2
_symmetry_space_group_name_H-M   'P 1'
_cell_length_a   9.51642331
_cell_length_b   9.51642354
_cell_length_c   3.08851700
_cell_angle_alpha   90.00000000
_cell_angle_beta   90.00000000
_cell_angle_gamma   90.38852613
_symmetry_Int_Tables_number   1
_chemical_formula_structural   TmLuTa4(B2Ru5)2
_chemical_formula_sum   'Tm1 Lu1 Ta4 B4 Ru10'
_cell_volume   279.69681827
_cell_formula_units_Z   1
loop_
 _symmetry_equiv_pos_site_id
 _symmetry_equiv_pos_as_xyz
  1  'x, y, z'
loop_
 _atom_site_type_symbol
 _atom_site_label
 _atom_site_symmetry_multiplicity
 _atom_site_fract_x
 _atom_site_fract_y
 _atom_site_fract_z
 _atom_site_occupancy
  Tm  Tm0  1  0.824098  0.675902  0.000000  1
  Lu  Lu1  1  0.176015  0.323985  0.000000  1
  Ta  Ta2  1  0.323319  0.823380  0.000000  1
  Ta  Ta3  1  0.676620  0.176681  0.000000  1
  Ta  Ta4  1  0.499710  0.499877  0.000000  1
  Ta  Ta5  1  0.000123  0.000290  0.000000  1
  B  B6  1  0.621015  0.878985  0.000000  1
  B  B7  1  0.378706  0.121294  0.000000  1
  B  B8  1  0.120639  0.620459  0.000000  1
  B  B9  1  0.879541  0.379361  0.000000  1
  Ru  Ru10  1  0.560096  0.722648  0.500000  1
  Ru  Ru11  1  0.439448  0.277515  0.500000  1
  Ru  Ru12  1  0.080636  0.785102  0.500000  1
  Ru  Ru13  1  0.919771  0.215021  0.500000  1
  Ru  Ru14  1  0.284979  0.580229  0.500000  1
  Ru  Ru15  1  0.714898  0.419364  0.500000  1
  Ru  Ru16  1  0.222485  0.060552  0.500000  1
  Ru  Ru17  1  0.777352  0.939904  0.500000  1
  Ru  Ru18  1  0.499930  0.000070  0.500000  1
  Ru  Ru19  1  0.000621  0.499379  0.500000  1
