# generated using pymatgen
data_Pr3In3CuHgRu
_symmetry_space_group_name_H-M   'P 1'
_cell_length_a   7.87432200
_cell_length_b   7.87432260
_cell_length_c   4.09702400
_cell_angle_alpha   90.00000000
_cell_angle_beta   90.00000000
_cell_angle_gamma   120.00001318
_symmetry_Int_Tables_number   1
_chemical_formula_structural   Pr3In3CuHgRu
_chemical_formula_sum   'Pr3 In3 Cu1 Hg1 Ru1'
_cell_volume   220.00140543
_cell_formula_units_Z   1
loop_
 _symmetry_equiv_pos_site_id
 _symmetry_equiv_pos_as_xyz
  1  'x, y, z'
loop_
 _atom_site_type_symbol
 _atom_site_label
 _atom_site_symmetry_multiplicity
 _atom_site_fract_x
 _atom_site_fract_y
 _atom_site_fract_z
 _atom_site_occupancy
  Pr  Pr0  1  0.424817  0.397854  0.500000  1
  Pr  Pr1  1  0.602146  0.026963  0.500000  1
  Pr  Pr2  1  0.973037  0.575183  0.500000  1
  In  In3  1  0.761095  0.752486  0.000000  1
  In  In4  1  0.247514  0.008609  0.000000  1
  In  In5  1  0.991391  0.238905  0.000000  1
  Cu  Cu6  1  0.000000  0.000000  0.500000  1
  Hg  Hg7  1  0.333333  0.666667  0.000000  1
  Ru  Ru8  1  0.666667  0.333333  0.000000  1
