# generated using pymatgen
data_Hf4V5Co3
_symmetry_space_group_name_H-M   'P 1'
_cell_length_a   5.08781600
_cell_length_b   5.05476698
_cell_length_c   8.24477000
_cell_angle_alpha   90.00000000
_cell_angle_beta   90.00000000
_cell_angle_gamma   119.45760005
_symmetry_Int_Tables_number   1
_chemical_formula_structural   Hf4V5Co3
_chemical_formula_sum   'Hf4 V5 Co3'
_cell_volume   184.62458494
_cell_formula_units_Z   1
loop_
 _symmetry_equiv_pos_site_id
 _symmetry_equiv_pos_as_xyz
  1  'x, y, z'
loop_
 _atom_site_type_symbol
 _atom_site_label
 _atom_site_symmetry_multiplicity
 _atom_site_fract_x
 _atom_site_fract_y
 _atom_site_fract_z
 _atom_site_occupancy
  Hf  Hf0  1  0.669239  0.331350  0.938400  1
  Hf  Hf1  1  0.338041  0.665280  0.067067  1
  Hf  Hf2  1  0.338041  0.665280  0.432933  1
  Hf  Hf3  1  0.669239  0.331350  0.561600  1
  V  V4  1  0.166300  0.825297  0.750000  1
  V  V5  1  0.817728  0.188606  0.250000  1
  V  V6  1  0.655608  0.817442  0.750000  1
  V  V7  1  0.005450  0.002746  0.009255  1
  V  V8  1  0.005450  0.002746  0.490745  1
  Co  Co9  1  0.337051  0.168429  0.250000  1
  Co  Co10  1  0.166738  0.333634  0.750000  1
  Co  Co11  1  0.831118  0.667840  0.250000  1
