# generated using pymatgen
data_EuDy6CoI12
_symmetry_space_group_name_H-M   'P 1'
_cell_length_a   9.77188358
_cell_length_b   9.77188444
_cell_length_c   9.77188466
_cell_angle_alpha   106.77651267
_cell_angle_beta   106.77651290
_cell_angle_gamma   106.77651992
_symmetry_Int_Tables_number   1
_chemical_formula_structural   EuDy6CoI12
_chemical_formula_sum   'Eu1 Dy6 Co1 I12'
_cell_volume   781.79587244
_cell_formula_units_Z   1
loop_
 _symmetry_equiv_pos_site_id
 _symmetry_equiv_pos_as_xyz
  1  'x, y, z'
loop_
 _atom_site_type_symbol
 _atom_site_label
 _atom_site_symmetry_multiplicity
 _atom_site_fract_x
 _atom_site_fract_y
 _atom_site_fract_z
 _atom_site_occupancy
  Eu  Eu0  1  0.500000  0.500000  0.500000  1
  Dy  Dy1  1  0.979496  0.908895  0.710582  1
  Dy  Dy2  1  0.020504  0.091105  0.289418  1
  Dy  Dy3  1  0.091105  0.289418  0.020504  1
  Dy  Dy4  1  0.289418  0.020504  0.091105  1
  Dy  Dy5  1  0.908895  0.710582  0.979496  1
  Dy  Dy6  1  0.710582  0.979496  0.908895  1
  Co  Co7  1  0.000000  0.000000  0.000000  1
  I  I8  1  0.548083  0.627622  0.860518  1
  I  I9  1  0.451917  0.372378  0.139482  1
  I  I10  1  0.320957  0.926314  0.775355  1
  I  I11  1  0.372378  0.139482  0.451917  1
  I  I12  1  0.926314  0.775355  0.320957  1
  I  I13  1  0.679043  0.073686  0.224645  1
  I  I14  1  0.073686  0.224645  0.679043  1
  I  I15  1  0.775355  0.320957  0.926314  1
  I  I16  1  0.224645  0.679043  0.073686  1
  I  I17  1  0.860518  0.548083  0.627622  1
  I  I18  1  0.139482  0.451917  0.372378  1
  I  I19  1  0.627622  0.860518  0.548083  1
