# generated using pymatgen
data_Y4ZnBr6
_symmetry_space_group_name_H-M   'P 1'
_cell_length_a   4.02616100
_cell_length_b   13.44994600
_cell_length_c   14.19273400
_cell_angle_alpha   90.00000000
_cell_angle_beta   90.00000000
_cell_angle_gamma   90.00000000
_symmetry_Int_Tables_number   1
_chemical_formula_structural   Y4ZnBr6
_chemical_formula_sum   'Y8 Zn2 Br12'
_cell_volume   768.55993626
_cell_formula_units_Z   2
loop_
 _symmetry_equiv_pos_site_id
 _symmetry_equiv_pos_as_xyz
  1  'x, y, z'
loop_
 _atom_site_type_symbol
 _atom_site_label
 _atom_site_symmetry_multiplicity
 _atom_site_fract_x
 _atom_site_fract_y
 _atom_site_fract_z
 _atom_site_occupancy
  Y  Y0  1  0.500000  0.118385  0.341034  1
  Y  Y1  1  0.500000  0.881615  0.658966  1
  Y  Y2  1  0.500000  0.618385  0.158966  1
  Y  Y3  1  0.500000  0.381615  0.841034  1
  Y  Y4  1  0.000000  0.121314  0.581034  1
  Y  Y5  1  0.000000  0.878686  0.418966  1
  Y  Y6  1  0.000000  0.621314  0.918966  1
  Y  Y7  1  0.000000  0.378686  0.081034  1
  Zn  Zn8  1  0.500000  0.000000  0.500000  1
  Zn  Zn9  1  0.500000  0.500000  0.000000  1
  Br  Br10  1  0.500000  0.243953  0.163160  1
  Br  Br11  1  0.500000  0.756047  0.836840  1
  Br  Br12  1  0.500000  0.743953  0.336840  1
  Br  Br13  1  0.500000  0.256047  0.663160  1
  Br  Br14  1  0.000000  0.255231  0.410579  1
  Br  Br15  1  0.000000  0.744769  0.589421  1
  Br  Br16  1  0.000000  0.755231  0.089421  1
  Br  Br17  1  0.000000  0.244769  0.910579  1
  Br  Br18  1  0.000000  0.002654  0.242858  1
  Br  Br19  1  0.000000  0.997346  0.757142  1
  Br  Br20  1  0.000000  0.502654  0.257142  1
  Br  Br21  1  0.000000  0.497346  0.742858  1
