# generated using pymatgen
data_Sr4ScFe3O10
_symmetry_space_group_name_H-M   'P 1'
_cell_length_a   5.67749800
_cell_length_b   5.87072790
_cell_length_c   16.68755843
_cell_angle_alpha   69.23110895
_cell_angle_beta   90.00000000
_cell_angle_gamma   90.00000000
_symmetry_Int_Tables_number   1
_chemical_formula_structural   Sr4ScFe3O10
_chemical_formula_sum   'Sr8 Sc2 Fe6 O20'
_cell_volume   520.07008428
_cell_formula_units_Z   2
loop_
 _symmetry_equiv_pos_site_id
 _symmetry_equiv_pos_as_xyz
  1  'x, y, z'
loop_
 _atom_site_type_symbol
 _atom_site_label
 _atom_site_symmetry_multiplicity
 _atom_site_fract_x
 _atom_site_fract_y
 _atom_site_fract_z
 _atom_site_occupancy
  Sr  Sr0  1  0.507888  0.129048  0.890237  1
  Sr  Sr1  1  0.007888  0.870952  0.609763  1
  Sr  Sr2  1  0.493966  0.588861  0.390133  1
  Sr  Sr3  1  0.993966  0.411139  0.109867  1
  Sr  Sr4  1  0.492112  0.870952  0.109763  1
  Sr  Sr5  1  0.992112  0.129048  0.390237  1
  Sr  Sr6  1  0.506034  0.411139  0.609867  1
  Sr  Sr7  1  0.006034  0.588861  0.890133  1
  Sc  Sc8  1  0.500000  0.500000  0.000000  1
  Sc  Sc9  1  0.000000  0.500000  0.500000  1
  Fe  Fe10  1  0.540641  0.819408  0.749880  1
  Fe  Fe11  1  0.040641  0.180592  0.750120  1
  Fe  Fe12  1  0.459359  0.180592  0.250120  1
  Fe  Fe13  1  0.959359  0.819408  0.249880  1
  Fe  Fe14  1  0.500000  0.000000  0.500000  1
  Fe  Fe15  1  0.000000  0.000000  0.000000  1
  O  O16  1  0.485740  0.583899  0.859505  1
  O  O17  1  0.985740  0.416101  0.640495  1
  O  O18  1  0.517340  0.204681  0.357458  1
  O  O19  1  0.017340  0.795319  0.142542  1
  O  O20  1  0.514260  0.416101  0.140495  1
  O  O21  1  0.014260  0.583899  0.359505  1
  O  O22  1  0.482660  0.795319  0.642542  1
  O  O23  1  0.982660  0.204681  0.857458  1
  O  O24  1  0.244277  0.235646  0.010172  1
  O  O25  1  0.744277  0.764354  0.489828  1
  O  O26  1  0.746731  0.233302  0.510253  1
  O  O27  1  0.246731  0.766698  0.989747  1
  O  O28  1  0.755723  0.764354  0.989828  1
  O  O29  1  0.255723  0.235646  0.510172  1
  O  O30  1  0.253269  0.766698  0.489747  1
  O  O31  1  0.753269  0.233302  0.010253  1
  O  O32  1  0.377607  0.109798  0.750088  1
  O  O33  1  0.877607  0.890202  0.749912  1
  O  O34  1  0.622393  0.890202  0.249912  1
  O  O35  1  0.122393  0.109798  0.250088  1
