# generated using pymatgen
data_Tc7Ge2MoAs10
_symmetry_space_group_name_H-M   'P 1'
_cell_length_a   6.31382753
_cell_length_b   6.85545228
_cell_length_c   8.18951019
_cell_angle_alpha   94.94620684
_cell_angle_beta   101.11619713
_cell_angle_gamma   103.29402050
_symmetry_Int_Tables_number   1
_chemical_formula_structural   Tc7Ge2MoAs10
_chemical_formula_sum   'Tc7 Ge2 Mo1 As10'
_cell_volume   335.32623561
_cell_formula_units_Z   1
loop_
 _symmetry_equiv_pos_site_id
 _symmetry_equiv_pos_as_xyz
  1  'x, y, z'
loop_
 _atom_site_type_symbol
 _atom_site_label
 _atom_site_symmetry_multiplicity
 _atom_site_fract_x
 _atom_site_fract_y
 _atom_site_fract_z
 _atom_site_occupancy
  Tc  Tc0  1  0.109724  0.576637  0.868271  1
  Tc  Tc1  1  0.386472  0.423315  0.130598  1
  Tc  Tc2  1  0.613690  0.576621  0.869344  1
  Tc  Tc3  1  0.557109  0.874059  0.370334  1
  Tc  Tc4  1  0.441202  0.126247  0.630844  1
  Tc  Tc5  1  0.064976  0.875700  0.370150  1
  Tc  Tc6  1  0.937070  0.124240  0.630249  1
  Ge  Ge7  1  0.735601  0.577080  0.368738  1
  Ge  Ge8  1  0.264011  0.423145  0.631981  1
  Mo  Mo9  1  0.891131  0.425639  0.129069  1
  As  As10  1  0.235276  0.575924  0.368736  1
  As  As11  1  0.764489  0.423957  0.632221  1
  As  As12  1  0.866632  0.149296  0.322148  1
  As  As13  1  0.132424  0.849207  0.678356  1
  As  As14  1  0.369627  0.153324  0.322527  1
  As  As15  1  0.631139  0.846863  0.678005  1
  As  As16  1  0.536633  0.196666  0.950680  1
  As  As17  1  0.461761  0.801100  0.048779  1
  As  As18  1  0.036968  0.195988  0.949038  1
  As  As19  1  0.964066  0.804991  0.049934  1
