# generated using pymatgen
data_Rb8Ta3InBr24
_symmetry_space_group_name_H-M   'P 1'
_cell_length_a   13.37769565
_cell_length_b   13.37769631
_cell_length_c   13.36361800
_cell_angle_alpha   131.53474504
_cell_angle_beta   131.53474752
_cell_angle_gamma   70.94624391
_symmetry_Int_Tables_number   1
_chemical_formula_structural   Rb8Ta3InBr24
_chemical_formula_sum   'Rb8 Ta3 In1 Br24'
_cell_volume   1312.44851768
_cell_formula_units_Z   1
loop_
 _symmetry_equiv_pos_site_id
 _symmetry_equiv_pos_as_xyz
  1  'x, y, z'
loop_
 _atom_site_type_symbol
 _atom_site_label
 _atom_site_symmetry_multiplicity
 _atom_site_fract_x
 _atom_site_fract_y
 _atom_site_fract_z
 _atom_site_occupancy
  Rb  Rb0  1  0.117168  0.643942  0.999388  1
  Rb  Rb1  1  0.356058  0.882832  0.000612  1
  Rb  Rb2  1  0.644538  0.643958  0.526743  1
  Rb  Rb3  1  0.356042  0.355462  0.473257  1
  Rb  Rb4  1  0.882230  0.355434  0.999406  1
  Rb  Rb5  1  0.882186  0.882770  0.526644  1
  Rb  Rb6  1  0.117230  0.117814  0.473356  1
  Rb  Rb7  1  0.644566  0.117770  0.000594  1
  Ta  Ta8  1  0.749973  0.250027  0.500000  1
  Ta  Ta9  1  0.500021  0.499979  0.000000  1
  Ta  Ta10  1  0.250049  0.749951  0.500000  1
  In  In11  1  0.999993  0.000007  0.000000  1
  Br  Br12  1  0.247490  0.999832  0.247820  1
  Br  Br13  1  0.000168  0.752510  0.752180  1
  Br  Br14  1  0.251487  0.985386  0.734356  1
  Br  Br15  1  0.748706  0.482910  0.734546  1
  Br  Br16  1  0.482773  0.748725  0.734308  1
  Br  Br17  1  0.124626  0.124640  0.999965  1
  Br  Br18  1  0.499961  0.733995  0.234288  1
  Br  Br19  1  0.867927  0.368003  0.499746  1
  Br  Br20  1  0.000167  0.247840  0.247877  1
  Br  Br21  1  0.382321  0.382314  0.000316  1
  Br  Br22  1  0.617686  0.617679  0.999684  1
  Br  Br23  1  0.499964  0.265858  0.765781  1
  Br  Br24  1  0.266005  0.500039  0.765712  1
  Br  Br25  1  0.517090  0.251294  0.265454  1
  Br  Br26  1  0.367748  0.867750  0.499651  1
  Br  Br27  1  0.631997  0.132073  0.500254  1
  Br  Br28  1  0.251275  0.517227  0.265692  1
  Br  Br29  1  0.132250  0.632252  0.500349  1
  Br  Br30  1  0.014614  0.748513  0.265644  1
  Br  Br31  1  0.985570  0.251537  0.734475  1
  Br  Br32  1  0.752160  0.999833  0.752123  1
  Br  Br33  1  0.734142  0.500036  0.234219  1
  Br  Br34  1  0.748463  0.014430  0.265525  1
  Br  Br35  1  0.875360  0.875374  0.000035  1
