# generated using pymatgen
data_TbSmY2(B4W)4
_symmetry_space_group_name_H-M   'P 1'
_cell_length_a   6.06284805
_cell_length_b   11.71645502
_cell_length_c   3.64159800
_cell_angle_alpha   90.00000000
_cell_angle_beta   90.00000000
_cell_angle_gamma   89.92546161
_symmetry_Int_Tables_number   1
_chemical_formula_structural   TbSmY2(B4W)4
_chemical_formula_sum   'Tb1 Sm1 Y2 B16 W4'
_cell_volume   258.68100998
_cell_formula_units_Z   1
loop_
 _symmetry_equiv_pos_site_id
 _symmetry_equiv_pos_as_xyz
  1  'x, y, z'
loop_
 _atom_site_type_symbol
 _atom_site_label
 _atom_site_symmetry_multiplicity
 _atom_site_fract_x
 _atom_site_fract_y
 _atom_site_fract_z
 _atom_site_occupancy
  Tb  Tb0  1  0.373317  0.649930  0.000000  1
  Sm  Sm1  1  0.626620  0.349903  0.000000  1
  Y  Y2  1  0.126694  0.149290  0.000000  1
  Y  Y3  1  0.873370  0.850372  0.000000  1
  B  B4  1  0.786929  0.185232  0.500000  1
  B  B5  1  0.213413  0.813754  0.500000  1
  B  B6  1  0.284763  0.313406  0.500000  1
  B  B7  1  0.713514  0.686754  0.500000  1
  B  B8  1  0.866320  0.031539  0.500000  1
  B  B9  1  0.133858  0.967713  0.500000  1
  B  B10  1  0.365395  0.468788  0.500000  1
  B  B11  1  0.634419  0.533118  0.500000  1
  B  B12  1  0.887804  0.453810  0.500000  1
  B  B13  1  0.114043  0.547941  0.500000  1
  B  B14  1  0.385950  0.046706  0.500000  1
  B  B15  1  0.613615  0.952409  0.500000  1
  B  B16  1  0.977079  0.306968  0.500000  1
  B  B17  1  0.023892  0.693553  0.500000  1
  B  B18  1  0.474999  0.191831  0.500000  1
  B  B19  1  0.523767  0.806875  0.500000  1
  W  W20  1  0.630377  0.083527  0.000000  1
  W  W21  1  0.369388  0.915370  0.000000  1
  W  W22  1  0.130553  0.416106  0.000000  1
  W  W23  1  0.869921  0.585107  0.000000  1
