# generated using pymatgen
data_Tb5Sm8Ho7Sn16
_symmetry_space_group_name_H-M   'P 1'
_cell_length_a   8.09516834
_cell_length_b   8.25446733
_cell_length_c   15.59672512
_cell_angle_alpha   89.99087231
_cell_angle_beta   89.98913348
_cell_angle_gamma   89.96868408
_symmetry_Int_Tables_number   1
_chemical_formula_structural   Tb5Sm8Ho7Sn16
_chemical_formula_sum   'Tb5 Sm8 Ho7 Sn16'
_cell_volume   1042.19330144
_cell_formula_units_Z   1
loop_
 _symmetry_equiv_pos_site_id
 _symmetry_equiv_pos_as_xyz
  1  'x, y, z'
loop_
 _atom_site_type_symbol
 _atom_site_label
 _atom_site_symmetry_multiplicity
 _atom_site_fract_x
 _atom_site_fract_y
 _atom_site_fract_z
 _atom_site_occupancy
  Tb  Tb0  1  0.366122  0.835576  0.878009  1
  Tb  Tb1  1  0.866049  0.664493  0.622039  1
  Tb  Tb2  1  0.633929  0.164501  0.378001  1
  Tb  Tb3  1  0.134019  0.335457  0.122118  1
  Tb  Tb4  1  0.634107  0.164415  0.121893  1
  Sm  Sm5  1  0.518682  0.320835  0.902025  1
  Sm  Sm6  1  0.018767  0.179266  0.597748  1
  Sm  Sm7  1  0.481233  0.679248  0.402312  1
  Sm  Sm8  1  0.981413  0.820632  0.097713  1
  Sm  Sm9  1  0.481349  0.679344  0.097901  1
  Sm  Sm10  1  0.981421  0.820480  0.402146  1
  Sm  Sm11  1  0.518656  0.320562  0.597902  1
  Sm  Sm12  1  0.018535  0.179380  0.902143  1
  Ho  Ho13  1  0.134193  0.335802  0.377975  1
  Ho  Ho14  1  0.365671  0.835751  0.622063  1
  Ho  Ho15  1  0.865728  0.664192  0.877787  1
  Ho  Ho16  1  0.198173  0.502825  0.749880  1
  Ho  Ho17  1  0.698169  0.997154  0.750077  1
  Ho  Ho18  1  0.802096  0.497469  0.250060  1
  Ho  Ho19  1  0.301701  0.002673  0.250237  1
  Sn  Sn20  1  0.295886  0.036882  0.042092  1
  Sn  Sn21  1  0.796687  0.462895  0.457802  1
  Sn  Sn22  1  0.703297  0.962898  0.542171  1
  Sn  Sn23  1  0.203219  0.537132  0.957826  1
  Sn  Sn24  1  0.704580  0.962386  0.957818  1
  Sn  Sn25  1  0.204443  0.537178  0.541787  1
  Sn  Sn26  1  0.295607  0.037147  0.458231  1
  Sn  Sn27  1  0.796074  0.463564  0.041652  1
  Sn  Sn28  1  0.564506  0.621192  0.750000  1
  Sn  Sn29  1  0.064536  0.878813  0.749975  1
  Sn  Sn30  1  0.435278  0.379108  0.250202  1
  Sn  Sn31  1  0.935963  0.121229  0.250204  1
  Sn  Sn32  1  0.326952  0.144067  0.749851  1
  Sn  Sn33  1  0.826916  0.355883  0.750154  1
  Sn  Sn34  1  0.673032  0.855455  0.250034  1
  Sn  Sn35  1  0.173011  0.644116  0.250172  1
