# generated using pymatgen
data_SmEu(TaN2)2
_symmetry_space_group_name_H-M   'P 1'
_cell_length_a   3.36577100
_cell_length_b   5.79365307
_cell_length_c   11.02658016
_cell_angle_alpha   89.98120120
_cell_angle_beta   90.00000000
_cell_angle_gamma   90.00000000
_symmetry_Int_Tables_number   1
_chemical_formula_structural   SmEu(TaN2)2
_chemical_formula_sum   'Sm2 Eu2 Ta4 N8'
_cell_volume   215.01950889
_cell_formula_units_Z   2
loop_
 _symmetry_equiv_pos_site_id
 _symmetry_equiv_pos_as_xyz
  1  'x, y, z'
loop_
 _atom_site_type_symbol
 _atom_site_label
 _atom_site_symmetry_multiplicity
 _atom_site_fract_x
 _atom_site_fract_y
 _atom_site_fract_z
 _atom_site_occupancy
  Sm  Sm0  1  0.750000  0.913496  0.363197  1
  Sm  Sm1  1  0.250000  0.086504  0.636803  1
  Eu  Eu2  1  0.250000  0.584138  0.863140  1
  Eu  Eu3  1  0.750000  0.415862  0.136860  1
  Ta  Ta4  1  0.250000  0.916663  0.112213  1
  Ta  Ta5  1  0.750000  0.083337  0.887787  1
  Ta  Ta6  1  0.750000  0.584062  0.611560  1
  Ta  Ta7  1  0.250000  0.415938  0.388440  1
  N  N8  1  0.250000  0.664861  0.247324  1
  N  N9  1  0.750000  0.335139  0.752676  1
  N  N10  1  0.750000  0.839248  0.744221  1
  N  N11  1  0.250000  0.160752  0.255779  1
  N  N12  1  0.250000  0.726663  0.512866  1
  N  N13  1  0.750000  0.273337  0.487134  1
  N  N14  1  0.750000  0.783461  0.015017  1
  N  N15  1  0.250000  0.216539  0.984983  1
