# generated using pymatgen
data_DyLu4(FeB3)2
_symmetry_space_group_name_H-M   'P 1'
_cell_length_a   5.36501677
_cell_length_b   5.36501510
_cell_length_c   8.10142427
_cell_angle_alpha   70.66349111
_cell_angle_beta   70.66349975
_cell_angle_gamma   60.00000283
_symmetry_Int_Tables_number   1
_chemical_formula_structural   DyLu4(FeB3)2
_chemical_formula_sum   'Dy1 Lu4 Fe2 B6'
_cell_volume   186.60202075
_cell_formula_units_Z   1
loop_
 _symmetry_equiv_pos_site_id
 _symmetry_equiv_pos_as_xyz
  1  'x, y, z'
loop_
 _atom_site_type_symbol
 _atom_site_label
 _atom_site_symmetry_multiplicity
 _atom_site_fract_x
 _atom_site_fract_y
 _atom_site_fract_z
 _atom_site_occupancy
  Dy  Dy0  1  0.000000  0.000000  0.000000  1
  Lu  Lu1  1  0.749213  0.749213  0.752361  1
  Lu  Lu2  1  0.250787  0.250787  0.247639  1
  Lu  Lu3  1  0.583167  0.583167  0.250498  1
  Lu  Lu4  1  0.416833  0.416833  0.749502  1
  Fe  Fe5  1  0.883831  0.883831  0.348507  1
  Fe  Fe6  1  0.116169  0.116169  0.651493  1
  B  B7  1  0.500000  0.168642  0.500000  1
  B  B8  1  0.831358  0.500000  0.500000  1
  B  B9  1  0.168642  0.831358  0.500000  1
  B  B10  1  0.168642  0.500000  0.500000  1
  B  B11  1  0.831358  0.168642  0.500000  1
  B  B12  1  0.500000  0.831358  0.500000  1
