# generated using pymatgen
data_LiTb2Pr17Ir12
_symmetry_space_group_name_H-M   'P 1'
_cell_length_a   11.30361300
_cell_length_b   11.30361300
_cell_length_c   6.48793300
_cell_angle_alpha   90.00000000
_cell_angle_beta   90.00000000
_cell_angle_gamma   90.00000000
_symmetry_Int_Tables_number   1
_chemical_formula_structural   LiTb2Pr17Ir12
_chemical_formula_sum   'Li1 Tb2 Pr17 Ir12'
_cell_volume   828.97401385
_cell_formula_units_Z   1
loop_
 _symmetry_equiv_pos_site_id
 _symmetry_equiv_pos_as_xyz
  1  'x, y, z'
loop_
 _atom_site_type_symbol
 _atom_site_label
 _atom_site_symmetry_multiplicity
 _atom_site_fract_x
 _atom_site_fract_y
 _atom_site_fract_z
 _atom_site_occupancy
  Li  Li0  1  0.000000  0.000000  0.500000  1
  Tb  Tb1  1  0.500000  0.500000  0.000000  1
  Tb  Tb2  1  0.500000  0.500000  0.500000  1
  Pr  Pr3  1  0.277830  0.083343  0.384689  1
  Pr  Pr4  1  0.292069  0.911267  0.883465  1
  Pr  Pr5  1  0.707931  0.088733  0.883465  1
  Pr  Pr6  1  0.722170  0.916657  0.384689  1
  Pr  Pr7  1  0.589968  0.789488  0.884096  1
  Pr  Pr8  1  0.585081  0.209874  0.381370  1
  Pr  Pr9  1  0.414919  0.790126  0.381370  1
  Pr  Pr10  1  0.410032  0.210512  0.884096  1
  Pr  Pr11  1  0.209874  0.414919  0.618630  1
  Pr  Pr12  1  0.210512  0.589968  0.115904  1
  Pr  Pr13  1  0.789488  0.410032  0.115904  1
  Pr  Pr14  1  0.790126  0.585081  0.618630  1
  Pr  Pr15  1  0.911267  0.707931  0.116535  1
  Pr  Pr16  1  0.916657  0.277830  0.615311  1
  Pr  Pr17  1  0.083343  0.722170  0.615311  1
  Pr  Pr18  1  0.088733  0.292069  0.116535  1
  Pr  Pr19  1  0.000000  0.000000  0.000000  1
  Ir  Ir20  1  0.845671  0.156397  0.242649  1
  Ir  Ir21  1  0.843603  0.845671  0.757351  1
  Ir  Ir22  1  0.156397  0.154329  0.757351  1
  Ir  Ir23  1  0.154329  0.843603  0.242649  1
  Ir  Ir24  1  0.648668  0.350738  0.747471  1
  Ir  Ir25  1  0.649262  0.648668  0.252529  1
  Ir  Ir26  1  0.350738  0.351332  0.252529  1
  Ir  Ir27  1  0.351332  0.649262  0.747471  1
  Ir  Ir28  1  0.500000  0.000000  0.120227  1
  Ir  Ir29  1  0.500000  0.000000  0.611118  1
  Ir  Ir30  1  0.000000  0.500000  0.879773  1
  Ir  Ir31  1  0.000000  0.500000  0.388882  1
