# generated using pymatgen
data_SrMn4B2P2PbO14
_symmetry_space_group_name_H-M   'P 1'
_cell_length_a   9.26202300
_cell_length_b   6.77070139
_cell_length_c   10.44047300
_cell_angle_alpha   68.16911554
_cell_angle_beta   90.00000000
_cell_angle_gamma   90.00000000
_symmetry_Int_Tables_number   1
_chemical_formula_structural   SrMn4B2P2PbO14
_chemical_formula_sum   'Sr2 Mn8 B4 P4 Pb2 O28'
_cell_volume   607.77280293
_cell_formula_units_Z   2
loop_
 _symmetry_equiv_pos_site_id
 _symmetry_equiv_pos_as_xyz
  1  'x, y, z'
loop_
 _atom_site_type_symbol
 _atom_site_label
 _atom_site_symmetry_multiplicity
 _atom_site_fract_x
 _atom_site_fract_y
 _atom_site_fract_z
 _atom_site_occupancy
  Sr  Sr0  1  0.300159  0.837157  0.525063  1
  Sr  Sr1  1  0.800159  0.162843  0.974937  1
  Mn  Mn2  1  0.817087  0.707196  0.854933  1
  Mn  Mn3  1  0.317087  0.292804  0.645067  1
  Mn  Mn4  1  0.182260  0.293623  0.141494  1
  Mn  Mn5  1  0.682260  0.706377  0.358506  1
  Mn  Mn6  1  0.057035  0.424903  0.382059  1
  Mn  Mn7  1  0.557035  0.575097  0.117941  1
  Mn  Mn8  1  0.942576  0.571357  0.622079  1
  Mn  Mn9  1  0.442576  0.428643  0.877921  1
  B  B10  1  0.622441  0.535587  0.671084  1
  B  B11  1  0.122441  0.464413  0.828916  1
  B  B12  1  0.377057  0.464913  0.328820  1
  B  B13  1  0.877057  0.535087  0.171180  1
  P  P14  1  0.007941  0.041545  0.688265  1
  P  P15  1  0.507941  0.958455  0.811735  1
  P  P16  1  0.992960  0.958701  0.311255  1
  P  P17  1  0.492960  0.041299  0.188745  1
  Pb  Pb18  1  0.697129  0.169114  0.471627  1
  Pb  Pb19  1  0.197129  0.830886  0.028373  1
  O  O20  1  0.957073  0.268239  0.590504  1
  O  O21  1  0.457073  0.731761  0.909496  1
  O  O22  1  0.045105  0.733408  0.407699  1
  O  O23  1  0.545105  0.266592  0.092301  1
  O  O24  1  0.976457  0.995342  0.843712  1
  O  O25  1  0.476457  0.004658  0.656288  1
  O  O26  1  0.018895  0.008420  0.153920  1
  O  O27  1  0.518895  0.991580  0.346080  1
  O  O28  1  0.914898  0.879727  0.648391  1
  O  O29  1  0.414898  0.120273  0.851609  1
  O  O30  1  0.089161  0.118107  0.350719  1
  O  O31  1  0.589161  0.881893  0.149281  1
  O  O32  1  0.669077  0.490865  0.806629  1
  O  O33  1  0.169077  0.509135  0.693371  1
  O  O34  1  0.330488  0.508172  0.193050  1
  O  O35  1  0.830488  0.491828  0.306950  1
  O  O36  1  0.974633  0.461906  0.851336  1
  O  O37  1  0.474633  0.538094  0.648664  1
  O  O38  1  0.026015  0.536043  0.151963  1
  O  O39  1  0.526015  0.463957  0.348037  1
  O  O40  1  0.171157  0.018099  0.666961  1
  O  O41  1  0.671157  0.981901  0.833039  1
  O  O42  1  0.829058  0.984712  0.330621  1
  O  O43  1  0.329058  0.015288  0.169379  1
  O  O44  1  0.779107  0.573245  0.066756  1
  O  O45  1  0.279107  0.426755  0.433244  1
  O  O46  1  0.222231  0.424925  0.933069  1
  O  O47  1  0.722231  0.575075  0.566931  1
