# generated using pymatgen
data_Ba2EuAg5Se6
_symmetry_space_group_name_H-M   'P 1'
_cell_length_a   4.40449200
_cell_length_b   7.64950870
_cell_length_c   11.65287142
_cell_angle_alpha   93.79108055
_cell_angle_beta   90.00000000
_cell_angle_gamma   106.73190965
_symmetry_Int_Tables_number   1
_chemical_formula_structural   Ba2EuAg5Se6
_chemical_formula_sum   'Ba2 Eu1 Ag5 Se6'
_cell_volume   375.09144298
_cell_formula_units_Z   1
loop_
 _symmetry_equiv_pos_site_id
 _symmetry_equiv_pos_as_xyz
  1  'x, y, z'
loop_
 _atom_site_type_symbol
 _atom_site_label
 _atom_site_symmetry_multiplicity
 _atom_site_fract_x
 _atom_site_fract_y
 _atom_site_fract_z
 _atom_site_occupancy
  Ba  Ba0  1  0.252797  0.505595  0.702370  1
  Ba  Ba1  1  0.747203  0.494405  0.297630  1
  Eu  Eu2  1  0.500000  0.000000  0.500000  1
  Ag  Ag3  1  0.019179  0.038359  0.255278  1
  Ag  Ag4  1  0.980821  0.961641  0.744722  1
  Ag  Ag5  1  0.353643  0.707288  0.036573  1
  Ag  Ag6  1  0.646357  0.292712  0.963427  1
  Ag  Ag7  1  0.000000  0.000000  0.000000  1
  Se  Se8  1  0.131597  0.263192  0.449217  1
  Se  Se9  1  0.868403  0.736808  0.550783  1
  Se  Se10  1  0.158755  0.317510  0.100804  1
  Se  Se11  1  0.841245  0.682490  0.899196  1
  Se  Se12  1  0.412795  0.825591  0.256848  1
  Se  Se13  1  0.587205  0.174409  0.743152  1
