# generated using pymatgen
data_Cs4Hf6FeCl18
_symmetry_space_group_name_H-M   'P 1'
_cell_length_a   10.32169509
_cell_length_b   10.69009468
_cell_length_c   10.78631000
_cell_angle_alpha   118.19552151
_cell_angle_beta   100.60630394
_cell_angle_gamma   104.41126236
_symmetry_Int_Tables_number   1
_chemical_formula_structural   Cs4Hf6FeCl18
_chemical_formula_sum   'Cs4 Hf6 Fe1 Cl18'
_cell_volume   950.38156477
_cell_formula_units_Z   1
loop_
 _symmetry_equiv_pos_site_id
 _symmetry_equiv_pos_as_xyz
  1  'x, y, z'
loop_
 _atom_site_type_symbol
 _atom_site_label
 _atom_site_symmetry_multiplicity
 _atom_site_fract_x
 _atom_site_fract_y
 _atom_site_fract_z
 _atom_site_occupancy
  Cs  Cs0  1  0.666506  0.537973  0.232069  1
  Cs  Cs1  1  0.333494  0.462027  0.767931  1
  Cs  Cs2  1  0.699688  0.228792  0.564630  1
  Cs  Cs3  1  0.300312  0.771208  0.435370  1
  Hf  Hf4  1  0.154855  0.058212  0.231827  1
  Hf  Hf5  1  0.845145  0.941788  0.768173  1
  Hf  Hf6  1  0.856912  0.121770  0.128443  1
  Hf  Hf7  1  0.143088  0.878230  0.871557  1
  Hf  Hf8  1  0.148724  0.240284  0.046203  1
  Hf  Hf9  1  0.851276  0.759716  0.953797  1
  Fe  Fe10  1  0.000000  0.000000  0.000000  1
  Cl  Cl11  1  0.007089  0.388879  0.186141  1
  Cl  Cl12  1  0.992911  0.611121  0.813859  1
  Cl  Cl13  1  0.322755  0.322286  0.300137  1
  Cl  Cl14  1  0.677245  0.677714  0.699863  1
  Cl  Cl15  1  0.313991  0.501647  0.099235  1
  Cl  Cl16  1  0.686009  0.498353  0.900765  1
  Cl  Cl17  1  0.004607  0.805230  0.200545  1
  Cl  Cl18  1  0.995393  0.194770  0.799455  1
  Cl  Cl19  1  0.708161  0.253959  0.267876  1
  Cl  Cl20  1  0.291839  0.746041  0.732124  1
  Cl  Cl21  1  0.309901  0.127599  0.911566  1
  Cl  Cl22  1  0.690099  0.872401  0.088434  1
  Cl  Cl23  1  0.014870  0.193868  0.388093  1
  Cl  Cl24  1  0.985130  0.806132  0.611907  1
  Cl  Cl25  1  0.314334  0.930544  0.110426  1
  Cl  Cl26  1  0.685666  0.069456  0.889574  1
  Cl  Cl27  1  0.326870  0.120973  0.482520  1
  Cl  Cl28  1  0.673130  0.879027  0.517480  1
