# generated using pymatgen
data_Mn7Fe4Co(Mo3N)4
_symmetry_space_group_name_H-M   'P 1'
_cell_length_a   7.80904571
_cell_length_b   7.80904608
_cell_length_c   7.80904800
_cell_angle_alpha   60.10450460
_cell_angle_beta   60.10450123
_cell_angle_gamma   60.10451038
_symmetry_Int_Tables_number   1
_chemical_formula_structural   Mn7Fe4Co(Mo3N)4
_chemical_formula_sum   'Mn7 Fe4 Co1 Mo12 N4'
_cell_volume   337.52517152
_cell_formula_units_Z   1
loop_
 _symmetry_equiv_pos_site_id
 _symmetry_equiv_pos_as_xyz
  1  'x, y, z'
loop_
 _atom_site_type_symbol
 _atom_site_label
 _atom_site_symmetry_multiplicity
 _atom_site_fract_x
 _atom_site_fract_y
 _atom_site_fract_z
 _atom_site_occupancy
  Mn  Mn0  1  0.124335  0.627174  0.627174  1
  Mn  Mn1  1  0.627174  0.124335  0.627174  1
  Mn  Mn2  1  0.627174  0.627174  0.124335  1
  Mn  Mn3  1  0.624528  0.624528  0.624528  1
  Mn  Mn4  1  0.730834  0.421033  0.421033  1
  Mn  Mn5  1  0.421033  0.730834  0.421033  1
  Mn  Mn6  1  0.421033  0.421033  0.730834  1
  Fe  Fe7  1  0.517381  0.827298  0.827298  1
  Fe  Fe8  1  0.827298  0.517381  0.827298  1
  Fe  Fe9  1  0.827298  0.827298  0.517381  1
  Fe  Fe10  1  0.827127  0.827127  0.827127  1
  Co  Co11  1  0.418499  0.418499  0.418499  1
  Mo  Mo12  1  0.799728  0.799728  0.200168  1
  Mo  Mo13  1  0.202214  0.202214  0.798206  1
  Mo  Mo14  1  0.799728  0.200168  0.799728  1
  Mo  Mo15  1  0.202214  0.798206  0.202214  1
  Mo  Mo16  1  0.200168  0.799728  0.799728  1
  Mo  Mo17  1  0.798206  0.202214  0.202214  1
  Mo  Mo18  1  0.453197  0.453197  0.046417  1
  Mo  Mo19  1  0.049943  0.049943  0.450335  1
  Mo  Mo20  1  0.453197  0.046417  0.453197  1
  Mo  Mo21  1  0.049943  0.450335  0.049943  1
  Mo  Mo22  1  0.046417  0.453197  0.453197  1
  Mo  Mo23  1  0.450335  0.049943  0.049943  1
  N  N24  1  0.623983  0.126052  0.126052  1
  N  N25  1  0.126052  0.623983  0.126052  1
  N  N26  1  0.126052  0.126052  0.623983  1
  N  N27  1  0.124909  0.124909  0.124909  1
