# generated using pymatgen
data_Lu12TcIrRh2
_symmetry_space_group_name_H-M   'P 1'
_cell_length_a   6.19013439
_cell_length_b   7.19885911
_cell_length_c   8.95510500
_cell_angle_alpha   90.00000000
_cell_angle_beta   90.00000000
_cell_angle_gamma   90.03281782
_symmetry_Int_Tables_number   1
_chemical_formula_structural   Lu12TcIrRh2
_chemical_formula_sum   'Lu12 Tc1 Ir1 Rh2'
_cell_volume   399.05647605
_cell_formula_units_Z   1
loop_
 _symmetry_equiv_pos_site_id
 _symmetry_equiv_pos_as_xyz
  1  'x, y, z'
loop_
 _atom_site_type_symbol
 _atom_site_label
 _atom_site_symmetry_multiplicity
 _atom_site_fract_x
 _atom_site_fract_y
 _atom_site_fract_z
 _atom_site_occupancy
  Lu  Lu0  1  0.331828  0.674982  0.061694  1
  Lu  Lu1  1  0.170595  0.179156  0.436504  1
  Lu  Lu2  1  0.664770  0.324829  0.559044  1
  Lu  Lu3  1  0.829746  0.821172  0.937188  1
  Lu  Lu4  1  0.664770  0.324829  0.940956  1
  Lu  Lu5  1  0.829746  0.821172  0.562812  1
  Lu  Lu6  1  0.331828  0.674982  0.438306  1
  Lu  Lu7  1  0.170595  0.179156  0.063496  1
  Lu  Lu8  1  0.877179  0.536801  0.250000  1
  Lu  Lu9  1  0.626166  0.036177  0.250000  1
  Lu  Lu10  1  0.127722  0.461650  0.750000  1
  Lu  Lu11  1  0.372600  0.964023  0.750000  1
  Tc  Tc12  1  0.463148  0.384937  0.250000  1
  Ir  Ir13  1  0.541137  0.617275  0.750000  1
  Rh  Rh14  1  0.040304  0.884152  0.250000  1
  Rh  Rh15  1  0.957865  0.114709  0.750000  1
