# generated using pymatgen
data_La2Nd2Zn3Ir11
_symmetry_space_group_name_H-M   'P 1'
_cell_length_a   13.06177334
_cell_length_b   13.06177383
_cell_length_c   13.06177414
_cell_angle_alpha   24.19993364
_cell_angle_beta   24.19992829
_cell_angle_gamma   24.19993148
_symmetry_Int_Tables_number   1
_chemical_formula_structural   La2Nd2Zn3Ir11
_chemical_formula_sum   'La2 Nd2 Zn3 Ir11'
_cell_volume   329.11252125
_cell_formula_units_Z   1
loop_
 _symmetry_equiv_pos_site_id
 _symmetry_equiv_pos_as_xyz
  1  'x, y, z'
loop_
 _atom_site_type_symbol
 _atom_site_label
 _atom_site_symmetry_multiplicity
 _atom_site_fract_x
 _atom_site_fract_y
 _atom_site_fract_z
 _atom_site_occupancy
  La  La0  1  0.952329  0.952329  0.952329  1
  La  La1  1  0.051972  0.051972  0.051972  1
  Nd  Nd2  1  0.853357  0.853357  0.853357  1
  Nd  Nd3  1  0.148560  0.148560  0.148560  1
  Zn  Zn4  1  0.721194  0.721194  0.721194  1
  Zn  Zn5  1  0.278439  0.278439  0.278439  1
  Zn  Zn6  1  0.609861  0.609861  0.609861  1
  Ir  Ir7  1  0.500564  0.500564  0.500564  1
  Ir  Ir8  1  0.387165  0.387165  0.387165  1
  Ir  Ir9  1  0.500951  0.500951  0.996369  1
  Ir  Ir10  1  0.996369  0.500951  0.500951  1
  Ir  Ir11  1  0.500951  0.996369  0.500951  1
  Ir  Ir12  1  0.386397  0.895036  0.386397  1
  Ir  Ir13  1  0.386397  0.386397  0.895036  1
  Ir  Ir14  1  0.895036  0.386397  0.386397  1
  Ir  Ir15  1  0.611721  0.107020  0.611721  1
  Ir  Ir16  1  0.611721  0.611721  0.107020  1
  Ir  Ir17  1  0.107020  0.611721  0.611721  1
