# generated using pymatgen
data_BaThPPt8
_symmetry_space_group_name_H-M   'P 1'
_cell_length_a   9.41149170
_cell_length_b   9.41035817
_cell_length_c   4.30179400
_cell_angle_alpha   90.00000000
_cell_angle_beta   90.00000000
_cell_angle_gamma   145.78499975
_symmetry_Int_Tables_number   1
_chemical_formula_structural   BaThPPt8
_chemical_formula_sum   'Ba1 Th1 P1 Pt8'
_cell_volume   214.23095613
_cell_formula_units_Z   1
loop_
 _symmetry_equiv_pos_site_id
 _symmetry_equiv_pos_as_xyz
  1  'x, y, z'
loop_
 _atom_site_type_symbol
 _atom_site_label
 _atom_site_symmetry_multiplicity
 _atom_site_fract_x
 _atom_site_fract_y
 _atom_site_fract_z
 _atom_site_occupancy
  Ba  Ba0  1  0.618397  0.379899  0.500000  1
  Th  Th1  1  0.366263  0.624750  0.500000  1
  P  P2  1  0.214490  0.210338  0.000000  1
  Pt  Pt3  1  0.110560  0.887085  0.000000  1
  Pt  Pt4  1  0.897698  0.114244  0.000000  1
  Pt  Pt5  1  0.494872  0.974064  0.000000  1
  Pt  Pt6  1  0.003964  0.491978  0.000000  1
  Pt  Pt7  1  0.200568  0.791138  0.500000  1
  Pt  Pt8  1  0.797200  0.193456  0.500000  1
  Pt  Pt9  1  0.003890  0.011120  0.500000  1
  Pt  Pt10  1  0.605698  0.635528  0.000000  1
