# generated using pymatgen
data_Yb11Eu9Ag16
_symmetry_space_group_name_H-M   'P 1'
_cell_length_a   8.05592204
_cell_length_b   8.11726071
_cell_length_c   15.33097200
_cell_angle_alpha   90.11249157
_cell_angle_beta   89.90953207
_cell_angle_gamma   90.09478278
_symmetry_Int_Tables_number   1
_chemical_formula_structural   Yb11Eu9Ag16
_chemical_formula_sum   'Yb11 Eu9 Ag16'
_cell_volume   1002.51867109
_cell_formula_units_Z   1
loop_
 _symmetry_equiv_pos_site_id
 _symmetry_equiv_pos_as_xyz
  1  'x, y, z'
loop_
 _atom_site_type_symbol
 _atom_site_label
 _atom_site_symmetry_multiplicity
 _atom_site_fract_x
 _atom_site_fract_y
 _atom_site_fract_z
 _atom_site_occupancy
  Yb  Yb0  1  0.326007  0.833342  0.877334  1
  Yb  Yb1  1  0.827535  0.666067  0.622177  1
  Yb  Yb2  1  0.672334  0.165785  0.377916  1
  Yb  Yb3  1  0.174577  0.332696  0.123524  1
  Yb  Yb4  1  0.670895  0.164543  0.123451  1
  Yb  Yb5  1  0.172792  0.334320  0.378110  1
  Yb  Yb6  1  0.326979  0.835071  0.621659  1
  Yb  Yb7  1  0.161369  0.492308  0.749459  1
  Yb  Yb8  1  0.660756  0.007730  0.749165  1
  Yb  Yb9  1  0.838592  0.507673  0.250702  1
  Yb  Yb10  1  0.337579  0.991486  0.250142  1
  Eu  Eu11  1  0.826251  0.666713  0.879082  1
  Eu  Eu12  1  0.491972  0.326231  0.903987  1
  Eu  Eu13  1  0.992141  0.174269  0.593642  1
  Eu  Eu14  1  0.507795  0.673923  0.405286  1
  Eu  Eu15  1  0.009078  0.826163  0.096132  1
  Eu  Eu16  1  0.509530  0.673985  0.094562  1
  Eu  Eu17  1  0.007733  0.826152  0.404978  1
  Eu  Eu18  1  0.491614  0.324923  0.594317  1
  Eu  Eu19  1  0.992545  0.175455  0.904881  1
  Ag  Ag20  1  0.336193  0.037872  0.041001  1
  Ag  Ag21  1  0.837572  0.463069  0.458042  1
  Ag  Ag22  1  0.662161  0.962378  0.541699  1
  Ag  Ag23  1  0.168214  0.533382  0.959586  1
  Ag  Ag24  1  0.658083  0.972688  0.957865  1
  Ag  Ag25  1  0.161326  0.537421  0.542385  1
  Ag  Ag26  1  0.338242  0.036948  0.457386  1
  Ag  Ag27  1  0.842519  0.456036  0.046402  1
  Ag  Ag28  1  0.525695  0.618006  0.746816  1
  Ag  Ag29  1  0.031180  0.885317  0.748051  1
  Ag  Ag30  1  0.470649  0.380109  0.250574  1
  Ag  Ag31  1  0.969676  0.120433  0.250833  1
  Ag  Ag32  1  0.284395  0.133664  0.750017  1
  Ag  Ag33  1  0.783977  0.364422  0.747964  1
  Ag  Ag34  1  0.715291  0.867689  0.250678  1
  Ag  Ag35  1  0.216751  0.631728  0.250197  1
