# generated using pymatgen
data_Tb2Pr3P12PdRu18
_symmetry_space_group_name_H-M   'P 1'
_cell_length_a   4.01941500
_cell_length_b   12.66645651
_cell_length_c   12.55655923
_cell_angle_alpha   119.71750113
_cell_angle_beta   90.00000000
_cell_angle_gamma   90.00000000
_symmetry_Int_Tables_number   1
_chemical_formula_structural   Tb2Pr3P12PdRu18
_chemical_formula_sum   'Tb2 Pr3 P12 Pd1 Ru18'
_cell_volume   555.19880677
_cell_formula_units_Z   1
loop_
 _symmetry_equiv_pos_site_id
 _symmetry_equiv_pos_as_xyz
  1  'x, y, z'
loop_
 _atom_site_type_symbol
 _atom_site_label
 _atom_site_symmetry_multiplicity
 _atom_site_fract_x
 _atom_site_fract_y
 _atom_site_fract_z
 _atom_site_occupancy
  Tb  Tb0  1  0.000000  0.339261  0.669083  1
  Tb  Tb1  1  0.000000  0.660725  0.329841  1
  Pr  Pr2  1  0.500000  0.999985  0.182666  1
  Pr  Pr3  1  0.500000  0.183787  0.998670  1
  Pr  Pr4  1  0.500000  0.816205  0.814890  1
  P  P5  1  0.000000  0.999979  0.807086  1
  P  P6  1  0.000000  0.812993  0.001251  1
  P  P7  1  0.000000  0.186966  0.188248  1
  P  P8  1  0.500000  0.305596  0.480934  1
  P  P9  1  0.500000  0.183447  0.701679  1
  P  P10  1  0.500000  0.524680  0.829023  1
  P  P11  1  0.500000  0.816574  0.518225  1
  P  P12  1  0.500000  0.475293  0.304332  1
  P  P13  1  0.500000  0.694404  0.175351  1
  P  P14  1  0.000000  0.999998  0.367123  1
  P  P15  1  0.000000  0.375571  0.000873  1
  P  P16  1  0.000000  0.624425  0.625281  1
  Pd  Pd17  1  0.000000  0.000054  0.551994  1
  Ru  Ru18  1  0.000000  0.555390  0.002140  1
  Ru  Ru19  1  0.000000  0.444593  0.446710  1
  Ru  Ru20  1  0.500000  0.000006  0.707277  1
  Ru  Ru21  1  0.500000  0.714629  0.002264  1
  Ru  Ru22  1  0.500000  0.285288  0.287559  1
  Ru  Ru23  1  0.000000  0.195765  0.382776  1
  Ru  Ru24  1  0.000000  0.186951  0.803372  1
  Ru  Ru25  1  0.000000  0.621912  0.816496  1
  Ru  Ru26  1  0.000000  0.813070  0.616428  1
  Ru  Ru27  1  0.000000  0.378065  0.194511  1
  Ru  Ru28  1  0.000000  0.804171  0.186975  1
  Ru  Ru29  1  0.500000  0.125947  0.495040  1
  Ru  Ru30  1  0.500000  0.371787  0.878223  1
  Ru  Ru31  1  0.500000  0.506904  0.633924  1
  Ru  Ru32  1  0.500000  0.628249  0.506453  1
  Ru  Ru33  1  0.500000  0.493153  0.127037  1
  Ru  Ru34  1  0.500000  0.874073  0.369085  1
  Ru  Ru35  1  0.000000  0.000003  0.997181  1
