# generated using pymatgen
data_Pr3Tm5(Si3Pt)4
_symmetry_space_group_name_H-M   'P 1'
_cell_length_a   8.14157400
_cell_length_b   8.15753716
_cell_length_c   8.26620200
_cell_angle_alpha   90.00000000
_cell_angle_beta   90.00000000
_cell_angle_gamma   119.93529676
_symmetry_Int_Tables_number   1
_chemical_formula_structural   Pr3Tm5(Si3Pt)4
_chemical_formula_sum   'Pr3 Tm5 Si12 Pt4'
_cell_volume   475.75884252
_cell_formula_units_Z   1
loop_
 _symmetry_equiv_pos_site_id
 _symmetry_equiv_pos_as_xyz
  1  'x, y, z'
loop_
 _atom_site_type_symbol
 _atom_site_label
 _atom_site_symmetry_multiplicity
 _atom_site_fract_x
 _atom_site_fract_y
 _atom_site_fract_z
 _atom_site_occupancy
  Pr  Pr0  1  0.500301  0.000603  0.250000  1
  Pr  Pr1  1  0.999983  0.999966  0.750000  1
  Pr  Pr2  1  0.999996  0.999992  0.250000  1
  Tm  Tm3  1  0.499642  0.500305  0.750000  1
  Tm  Tm4  1  0.500224  0.499838  0.250000  1
  Tm  Tm5  1  0.000664  0.500305  0.750000  1
  Tm  Tm6  1  0.999613  0.499838  0.250000  1
  Tm  Tm7  1  0.499683  0.999366  0.750000  1
  Si  Si8  1  0.834005  0.167585  0.997435  1
  Si  Si9  1  0.166040  0.832439  0.996740  1
  Si  Si10  1  0.333579  0.167585  0.997435  1
  Si  Si11  1  0.166040  0.832439  0.503260  1
  Si  Si12  1  0.666400  0.832439  0.996740  1
  Si  Si13  1  0.834005  0.167585  0.502565  1
  Si  Si14  1  0.833643  0.667286  0.000799  1
  Si  Si15  1  0.666400  0.832439  0.503260  1
  Si  Si16  1  0.166323  0.332646  0.999825  1
  Si  Si17  1  0.333579  0.167585  0.502565  1
  Si  Si18  1  0.166323  0.332646  0.500175  1
  Si  Si19  1  0.833643  0.667286  0.499201  1
  Pt  Pt20  1  0.668214  0.336428  0.992398  1
  Pt  Pt21  1  0.331743  0.663487  0.994656  1
  Pt  Pt22  1  0.331743  0.663487  0.505344  1
  Pt  Pt23  1  0.668214  0.336428  0.507602  1
