# generated using pymatgen
data_Mn2Fe6Re3W
_symmetry_space_group_name_H-M   'P 1'
_cell_length_a   4.66096884
_cell_length_b   4.66096861
_cell_length_c   7.67680500
_cell_angle_alpha   89.93000592
_cell_angle_beta   90.07000639
_cell_angle_gamma   119.85406101
_symmetry_Int_Tables_number   1
_chemical_formula_structural   Mn2Fe6Re3W
_chemical_formula_sum   'Mn2 Fe6 Re3 W1'
_cell_volume   144.64381661
_cell_formula_units_Z   1
loop_
 _symmetry_equiv_pos_site_id
 _symmetry_equiv_pos_as_xyz
  1  'x, y, z'
loop_
 _atom_site_type_symbol
 _atom_site_label
 _atom_site_symmetry_multiplicity
 _atom_site_fract_x
 _atom_site_fract_y
 _atom_site_fract_z
 _atom_site_occupancy
  Mn  Mn0  1  0.000700  0.999300  0.002056  1
  Mn  Mn1  1  0.170112  0.829888  0.250207  1
  Fe  Fe2  1  0.999668  0.000332  0.498623  1
  Fe  Fe3  1  0.341931  0.170174  0.750768  1
  Fe  Fe4  1  0.829826  0.658069  0.750768  1
  Fe  Fe5  1  0.170035  0.344984  0.250137  1
  Fe  Fe6  1  0.655016  0.829965  0.250137  1
  Fe  Fe7  1  0.829121  0.170879  0.750595  1
  Re  Re8  1  0.334776  0.665224  0.934555  1
  Re  Re9  1  0.667754  0.332246  0.427895  1
  Re  Re10  1  0.666581  0.333419  0.066949  1
  W  W11  1  0.334481  0.665519  0.567308  1
