# generated using pymatgen
data_CrSb(P2O7)2
_symmetry_space_group_name_H-M   'P 1'
_cell_length_a   4.89511691
_cell_length_b   6.99737490
_cell_length_c   8.16703177
_cell_angle_alpha   90.53153223
_cell_angle_beta   89.67971688
_cell_angle_gamma   106.14458595
_symmetry_Int_Tables_number   1
_chemical_formula_structural   CrSb(P2O7)2
_chemical_formula_sum   'Cr1 Sb1 P4 O14'
_cell_volume   268.69990776
_cell_formula_units_Z   1
loop_
 _symmetry_equiv_pos_site_id
 _symmetry_equiv_pos_as_xyz
  1  'x, y, z'
loop_
 _atom_site_type_symbol
 _atom_site_label
 _atom_site_symmetry_multiplicity
 _atom_site_fract_x
 _atom_site_fract_y
 _atom_site_fract_z
 _atom_site_occupancy
  Cr  Cr0  1  0.784961  0.271850  0.004656  1
  Sb  Sb1  1  0.216537  0.727766  0.504488  1
  P  P2  1  0.611877  0.488372  0.692936  1
  P  P3  1  0.385386  0.502923  0.185775  1
  P  P4  1  0.237573  0.107386  0.774686  1
  P  P5  1  0.765376  0.897620  0.268462  1
  O  O6  1  0.275263  0.507866  0.367151  1
  O  O7  1  0.724983  0.491865  0.863735  1
  O  O8  1  0.133840  0.917269  0.663418  1
  O  O9  1  0.861400  0.083974  0.171811  1
  O  O10  1  0.976353  0.170808  0.818617  1
  O  O11  1  0.029149  0.830676  0.321732  1
  O  O12  1  0.426166  0.083048  0.914140  1
  O  O13  1  0.583845  0.914177  0.424277  1
  O  O14  1  0.424718  0.269682  0.644010  1
  O  O15  1  0.575014  0.730267  0.152089  1
  O  O16  1  0.576851  0.367356  0.184271  1
  O  O17  1  0.419311  0.632338  0.684595  1
  O  O18  1  0.150492  0.468358  0.062343  1
  O  O19  1  0.840908  0.536397  0.556007  1
