# generated using pymatgen
data_K2Ga2Se3
_symmetry_space_group_name_H-M   'P 1'
_cell_length_a   7.25638953
_cell_length_b   7.25638888
_cell_length_c   9.41373729
_cell_angle_alpha   82.55395282
_cell_angle_beta   82.55395671
_cell_angle_gamma   120.17239526
_symmetry_Int_Tables_number   1
_chemical_formula_structural   K2Ga2Se3
_chemical_formula_sum   'K4 Ga4 Se6'
_cell_volume   413.80388386
_cell_formula_units_Z   2
loop_
 _symmetry_equiv_pos_site_id
 _symmetry_equiv_pos_as_xyz
  1  'x, y, z'
loop_
 _atom_site_type_symbol
 _atom_site_label
 _atom_site_symmetry_multiplicity
 _atom_site_fract_x
 _atom_site_fract_y
 _atom_site_fract_z
 _atom_site_occupancy
  K  K0  1  0.657660  0.342340  0.000000  1
  K  K1  1  0.342340  0.657660  0.000000  1
  K  K2  1  0.000000  0.000000  0.000000  1
  K  K3  1  0.500000  0.500000  0.500000  1
  Ga  Ga4  1  0.877621  0.212087  0.363911  1
  Ga  Ga5  1  0.787913  0.122379  0.636089  1
  Ga  Ga6  1  0.212087  0.877621  0.363911  1
  Ga  Ga7  1  0.122379  0.787913  0.636089  1
  Se  Se8  1  0.417956  0.055805  0.745747  1
  Se  Se9  1  0.055805  0.417956  0.745747  1
  Se  Se10  1  0.944195  0.582044  0.254253  1
  Se  Se11  1  0.779791  0.779791  0.742672  1
  Se  Se12  1  0.582044  0.944195  0.254253  1
  Se  Se13  1  0.220209  0.220209  0.257328  1
