# generated using pymatgen
data_HfZr6Ta3Si8
_symmetry_space_group_name_H-M   'P 1'
_cell_length_a   7.01124889
_cell_length_b   7.01158288
_cell_length_c   12.86662944
_cell_angle_alpha   90.02569530
_cell_angle_beta   89.97508054
_cell_angle_gamma   89.99825613
_symmetry_Int_Tables_number   1
_chemical_formula_structural   HfZr6Ta3Si8
_chemical_formula_sum   'Hf2 Zr12 Ta6 Si16'
_cell_volume   632.52277096
_cell_formula_units_Z   2
loop_
 _symmetry_equiv_pos_site_id
 _symmetry_equiv_pos_as_xyz
  1  'x, y, z'
loop_
 _atom_site_type_symbol
 _atom_site_label
 _atom_site_symmetry_multiplicity
 _atom_site_fract_x
 _atom_site_fract_y
 _atom_site_fract_z
 _atom_site_occupancy
  Hf  Hf0  1  0.350617  0.505663  0.376697  1
  Hf  Hf1  1  0.853472  0.000150  0.373285  1
  Zr  Zr2  1  0.649813  0.495461  0.876478  1
  Zr  Zr3  1  0.501340  0.352595  0.622994  1
  Zr  Zr4  1  0.499495  0.646950  0.124702  1
  Zr  Zr5  1  0.146712  0.998714  0.873397  1
  Zr  Zr6  1  0.000392  0.652331  0.033311  1
  Zr  Zr7  1  0.999365  0.346483  0.530933  1
  Zr  Zr8  1  0.656344  0.997731  0.968094  1
  Zr  Zr9  1  0.152175  0.498541  0.781214  1
  Zr  Zr10  1  0.847326  0.501804  0.281305  1
  Zr  Zr11  1  0.501762  0.153989  0.218814  1
  Zr  Zr12  1  0.498527  0.846925  0.716603  1
  Zr  Zr13  1  0.342898  0.001913  0.468354  1
  Ta  Ta14  1  0.008279  0.147247  0.126396  1
  Ta  Ta15  1  0.992504  0.853542  0.624600  1
  Ta  Ta16  1  0.674189  0.676901  0.500648  1
  Ta  Ta17  1  0.827332  0.170546  0.749413  1
  Ta  Ta18  1  0.172851  0.829971  0.250678  1
  Ta  Ta19  1  0.325895  0.322540  0.001913  1
  Si  Si20  1  0.045356  0.701867  0.436792  1
  Si  Si21  1  0.954980  0.298297  0.937818  1
  Si  Si22  1  0.701209  0.046257  0.564208  1
  Si  Si23  1  0.199311  0.450731  0.186087  1
  Si  Si24  1  0.801864  0.549163  0.684359  1
  Si  Si25  1  0.451817  0.197782  0.814965  1
  Si  Si26  1  0.548494  0.802165  0.315814  1
  Si  Si27  1  0.299845  0.953955  0.065845  1
  Si  Si28  1  0.854306  0.796371  0.817838  1
  Si  Si29  1  0.143729  0.206072  0.320534  1
  Si  Si30  1  0.799639  0.861754  0.177262  1
  Si  Si31  1  0.289380  0.646015  0.573126  1
  Si  Si32  1  0.710889  0.352865  0.074165  1
  Si  Si33  1  0.643353  0.297564  0.426341  1
  Si  Si34  1  0.354097  0.699722  0.928824  1
  Si  Si35  1  0.200444  0.139420  0.676192  1
