# generated using pymatgen
data_Tb2Yb(PrSn2)2
_symmetry_space_group_name_H-M   'P 1'
_cell_length_a   8.06144400
_cell_length_b   8.37866200
_cell_length_c   15.88129100
_cell_angle_alpha   90.00000000
_cell_angle_beta   90.00000000
_cell_angle_gamma   90.00000000
_symmetry_Int_Tables_number   1
_chemical_formula_structural   Tb2Yb(PrSn2)2
_chemical_formula_sum   'Tb8 Yb4 Pr8 Sn16'
_cell_volume   1072.68773784
_cell_formula_units_Z   4
loop_
 _symmetry_equiv_pos_site_id
 _symmetry_equiv_pos_as_xyz
  1  'x, y, z'
loop_
 _atom_site_type_symbol
 _atom_site_label
 _atom_site_symmetry_multiplicity
 _atom_site_fract_x
 _atom_site_fract_y
 _atom_site_fract_z
 _atom_site_occupancy
  Tb  Tb0  1  0.653699  0.171900  0.624318  1
  Tb  Tb1  1  0.153699  0.328100  0.875682  1
  Tb  Tb2  1  0.346301  0.828100  0.124318  1
  Tb  Tb3  1  0.846301  0.671900  0.375682  1
  Tb  Tb4  1  0.346301  0.828100  0.375682  1
  Tb  Tb5  1  0.846301  0.671900  0.124318  1
  Tb  Tb6  1  0.653699  0.171900  0.875682  1
  Tb  Tb7  1  0.153699  0.328100  0.624318  1
  Yb  Yb8  1  0.823154  0.501061  0.750000  1
  Yb  Yb9  1  0.323154  0.998939  0.750000  1
  Yb  Yb10  1  0.176846  0.498939  0.250000  1
  Yb  Yb11  1  0.676846  0.001061  0.250000  1
  Pr  Pr12  1  0.499462  0.681364  0.595540  1
  Pr  Pr13  1  0.999462  0.818636  0.904460  1
  Pr  Pr14  1  0.500538  0.318636  0.095540  1
  Pr  Pr15  1  0.000538  0.181364  0.404460  1
  Pr  Pr16  1  0.500538  0.318636  0.404460  1
  Pr  Pr17  1  0.000538  0.181364  0.095540  1
  Pr  Pr18  1  0.499462  0.681364  0.904460  1
  Pr  Pr19  1  0.999462  0.818636  0.595540  1
  Sn  Sn20  1  0.682451  0.960506  0.462667  1
  Sn  Sn21  1  0.182451  0.539494  0.037333  1
  Sn  Sn22  1  0.317549  0.039494  0.962667  1
  Sn  Sn23  1  0.817549  0.460506  0.537333  1
  Sn  Sn24  1  0.317549  0.039494  0.537333  1
  Sn  Sn25  1  0.817549  0.460506  0.962667  1
  Sn  Sn26  1  0.682451  0.960506  0.037333  1
  Sn  Sn27  1  0.182451  0.539494  0.462667  1
  Sn  Sn28  1  0.454707  0.387867  0.750000  1
  Sn  Sn29  1  0.954707  0.112133  0.750000  1
  Sn  Sn30  1  0.545293  0.612133  0.250000  1
  Sn  Sn31  1  0.045293  0.887867  0.250000  1
  Sn  Sn32  1  0.694548  0.862818  0.750000  1
  Sn  Sn33  1  0.194548  0.637182  0.750000  1
  Sn  Sn34  1  0.305452  0.137182  0.250000  1
  Sn  Sn35  1  0.805452  0.362818  0.250000  1
