# generated using pymatgen
data_Yb7HoSi13Pd3
_symmetry_space_group_name_H-M   'P 1'
_cell_length_a   8.20927700
_cell_length_b   8.20927551
_cell_length_c   8.25721600
_cell_angle_alpha   90.00000000
_cell_angle_beta   90.00000000
_cell_angle_gamma   120.00000196
_symmetry_Int_Tables_number   1
_chemical_formula_structural   Yb7HoSi13Pd3
_chemical_formula_sum   'Yb7 Ho1 Si13 Pd3'
_cell_volume   481.91895658
_cell_formula_units_Z   1
loop_
 _symmetry_equiv_pos_site_id
 _symmetry_equiv_pos_as_xyz
  1  'x, y, z'
loop_
 _atom_site_type_symbol
 _atom_site_label
 _atom_site_symmetry_multiplicity
 _atom_site_fract_x
 _atom_site_fract_y
 _atom_site_fract_z
 _atom_site_occupancy
  Yb  Yb0  1  0.500774  0.001546  0.253813  1
  Yb  Yb1  1  0.498602  0.997206  0.746247  1
  Yb  Yb2  1  0.998454  0.499226  0.253813  1
  Yb  Yb3  1  0.002794  0.501398  0.746247  1
  Yb  Yb4  1  0.500774  0.499226  0.253813  1
  Yb  Yb5  1  0.498602  0.501398  0.746247  1
  Yb  Yb6  1  0.000000  0.000000  0.251477  1
  Ho  Ho7  1  0.000000  0.000000  0.747610  1
  Si  Si8  1  0.161935  0.323868  0.998095  1
  Si  Si9  1  0.833593  0.667186  0.995438  1
  Si  Si10  1  0.676132  0.838065  0.998095  1
  Si  Si11  1  0.835838  0.671677  0.504034  1
  Si  Si12  1  0.332814  0.166407  0.995438  1
  Si  Si13  1  0.164338  0.328677  0.502191  1
  Si  Si14  1  0.161935  0.838065  0.998095  1
  Si  Si15  1  0.328323  0.164162  0.504034  1
  Si  Si16  1  0.833593  0.166407  0.995438  1
  Si  Si17  1  0.671323  0.835662  0.502191  1
  Si  Si18  1  0.835838  0.164162  0.504034  1
  Si  Si19  1  0.164338  0.835662  0.502191  1
  Si  Si20  1  0.333333  0.666667  0.003776  1
  Pd  Pd21  1  0.666667  0.333333  0.997243  1
  Pd  Pd22  1  0.666667  0.333333  0.503087  1
  Pd  Pd23  1  0.333333  0.666667  0.497343  1
