# generated using pymatgen
data_YbDy2Al7Zn2
_symmetry_space_group_name_H-M   'P 1'
_cell_length_a   9.25918545
_cell_length_b   9.25918606
_cell_length_c   9.25918473
_cell_angle_alpha   34.95131212
_cell_angle_beta   34.95130473
_cell_angle_gamma   34.95130434
_symmetry_Int_Tables_number   1
_chemical_formula_structural   YbDy2Al7Zn2
_chemical_formula_sum   'Yb1 Dy2 Al7 Zn2'
_cell_volume   232.59645384
_cell_formula_units_Z   1
loop_
 _symmetry_equiv_pos_site_id
 _symmetry_equiv_pos_as_xyz
  1  'x, y, z'
loop_
 _atom_site_type_symbol
 _atom_site_label
 _atom_site_symmetry_multiplicity
 _atom_site_fract_x
 _atom_site_fract_y
 _atom_site_fract_z
 _atom_site_occupancy
  Yb  Yb0  1  0.000000  0.000000  0.000000  1
  Dy  Dy1  1  0.857947  0.857947  0.857947  1
  Dy  Dy2  1  0.142053  0.142053  0.142053  1
  Al  Al3  1  0.413562  0.413562  0.924503  1
  Al  Al4  1  0.924503  0.413562  0.413562  1
  Al  Al5  1  0.413562  0.924503  0.413562  1
  Al  Al6  1  0.500000  0.500000  0.500000  1
  Al  Al7  1  0.586438  0.075497  0.586438  1
  Al  Al8  1  0.075497  0.586438  0.586438  1
  Al  Al9  1  0.586438  0.586438  0.075497  1
  Zn  Zn10  1  0.664802  0.664802  0.664802  1
  Zn  Zn11  1  0.335198  0.335198  0.335198  1
