# generated using pymatgen
data_LiLuTc3Ge4
_symmetry_space_group_name_H-M   'P 1'
_cell_length_a   6.83245900
_cell_length_b   6.66156544
_cell_length_c   6.83980600
_cell_angle_alpha   70.82365686
_cell_angle_beta   90.00000000
_cell_angle_gamma   90.00000000
_symmetry_Int_Tables_number   1
_chemical_formula_structural   LiLuTc3Ge4
_chemical_formula_sum   'Li2 Lu2 Tc6 Ge8'
_cell_volume   294.03879302
_cell_formula_units_Z   2
loop_
 _symmetry_equiv_pos_site_id
 _symmetry_equiv_pos_as_xyz
  1  'x, y, z'
loop_
 _atom_site_type_symbol
 _atom_site_label
 _atom_site_symmetry_multiplicity
 _atom_site_fract_x
 _atom_site_fract_y
 _atom_site_fract_z
 _atom_site_occupancy
  Li  Li0  1  0.328950  0.546263  0.817789  1
  Li  Li1  1  0.828950  0.953737  0.182211  1
  Lu  Lu2  1  0.664691  0.448956  0.188701  1
  Lu  Lu3  1  0.164691  0.051044  0.811299  1
  Tc  Tc4  1  0.497214  0.003129  0.499904  1
  Tc  Tc5  1  0.997214  0.496871  0.500096  1
  Tc  Tc6  1  0.842721  0.750062  0.764108  1
  Tc  Tc7  1  0.342721  0.749938  0.235892  1
  Tc  Tc8  1  0.159956  0.243160  0.244788  1
  Tc  Tc9  1  0.659956  0.256840  0.755212  1
  Ge  Ge10  1  0.541441  0.859932  0.898641  1
  Ge  Ge11  1  0.041441  0.640068  0.101359  1
  Ge  Ge12  1  0.463543  0.134123  0.093646  1
  Ge  Ge13  1  0.963543  0.365877  0.906354  1
  Ge  Ge14  1  0.143842  0.849463  0.503080  1
  Ge  Ge15  1  0.643842  0.650537  0.496920  1
  Ge  Ge16  1  0.857642  0.128169  0.493088  1
  Ge  Ge17  1  0.357642  0.371831  0.506912  1
