# generated using pymatgen
data_TbDyZn3Ga
_symmetry_space_group_name_H-M   'P 1'
_cell_length_a   5.68800539
_cell_length_b   5.65551842
_cell_length_c   5.65551849
_cell_angle_alpha   133.31558924
_cell_angle_beta   102.24860248
_cell_angle_gamma   95.74127287
_symmetry_Int_Tables_number   1
_chemical_formula_structural   TbDyZn3Ga
_chemical_formula_sum   'Tb1 Dy1 Zn3 Ga1'
_cell_volume   121.39616192
_cell_formula_units_Z   1
loop_
 _symmetry_equiv_pos_site_id
 _symmetry_equiv_pos_as_xyz
  1  'x, y, z'
loop_
 _atom_site_type_symbol
 _atom_site_label
 _atom_site_symmetry_multiplicity
 _atom_site_fract_x
 _atom_site_fract_y
 _atom_site_fract_z
 _atom_site_occupancy
  Tb  Tb0  1  0.719769  0.471738  0.248031  1
  Dy  Dy1  1  0.280692  0.527549  0.753142  1
  Zn  Zn2  1  0.124681  0.166355  0.958325  1
  Zn  Zn3  1  0.708031  0.164685  0.543346  1
  Zn  Zn4  1  0.287580  0.832556  0.455024  1
  Ga  Ga5  1  0.879248  0.837116  0.042132  1
