# generated using pymatgen
data_Hf8Ti9Ge16Mo3
_symmetry_space_group_name_H-M   'P 1'
_cell_length_a   6.72849948
_cell_length_b   6.85447149
_cell_length_c   13.13524500
_cell_angle_alpha   90.00000000
_cell_angle_beta   90.00000000
_cell_angle_gamma   90.02543805
_symmetry_Int_Tables_number   1
_chemical_formula_structural   Hf8Ti9Ge16Mo3
_chemical_formula_sum   'Hf8 Ti9 Ge16 Mo3'
_cell_volume   605.80148346
_cell_formula_units_Z   1
loop_
 _symmetry_equiv_pos_site_id
 _symmetry_equiv_pos_as_xyz
  1  'x, y, z'
loop_
 _atom_site_type_symbol
 _atom_site_label
 _atom_site_symmetry_multiplicity
 _atom_site_fract_x
 _atom_site_fract_y
 _atom_site_fract_z
 _atom_site_occupancy
  Hf  Hf0  1  0.491049  0.674927  0.591701  1
  Hf  Hf1  1  0.992288  0.826716  0.908069  1
  Hf  Hf2  1  0.508782  0.326063  0.091348  1
  Hf  Hf3  1  0.010694  0.174352  0.408284  1
  Hf  Hf4  1  0.508782  0.326063  0.408652  1
  Hf  Hf5  1  0.010694  0.174352  0.091716  1
  Hf  Hf6  1  0.491049  0.674927  0.908299  1
  Hf  Hf7  1  0.992288  0.826716  0.591931  1
  Ti  Ti8  1  0.659354  0.165753  0.625344  1
  Ti  Ti9  1  0.162991  0.333199  0.875306  1
  Ti  Ti10  1  0.339585  0.835199  0.124971  1
  Ti  Ti11  1  0.839386  0.664360  0.375031  1
  Ti  Ti12  1  0.339585  0.835199  0.375029  1
  Ti  Ti13  1  0.839386  0.664360  0.124969  1
  Ti  Ti14  1  0.659354  0.165753  0.874656  1
  Ti  Ti15  1  0.162991  0.333199  0.624694  1
  Ti  Ti16  1  0.833606  0.491807  0.750000  1
  Ge  Ge17  1  0.681913  0.959138  0.460489  1
  Ge  Ge18  1  0.181390  0.541455  0.039501  1
  Ge  Ge19  1  0.318436  0.041074  0.960684  1
  Ge  Ge20  1  0.818730  0.459269  0.540359  1
  Ge  Ge21  1  0.318436  0.041074  0.539316  1
  Ge  Ge22  1  0.818730  0.459269  0.959641  1
  Ge  Ge23  1  0.681913  0.959138  0.039511  1
  Ge  Ge24  1  0.181390  0.541455  0.460499  1
  Ge  Ge25  1  0.463687  0.382850  0.750000  1
  Ge  Ge26  1  0.962194  0.120890  0.750000  1
  Ge  Ge27  1  0.535759  0.617707  0.250000  1
  Ge  Ge28  1  0.036005  0.881638  0.250000  1
  Ge  Ge29  1  0.694343  0.850910  0.750000  1
  Ge  Ge30  1  0.189464  0.645718  0.750000  1
  Ge  Ge31  1  0.306644  0.147606  0.250000  1
  Ge  Ge32  1  0.805824  0.351477  0.250000  1
  Mo  Mo33  1  0.333877  0.007404  0.750000  1
  Mo  Mo34  1  0.164581  0.508711  0.250000  1
  Mo  Mo35  1  0.664819  0.990275  0.250000  1
