# generated using pymatgen
data_Tb7PrSc12Ga3Si13
_symmetry_space_group_name_H-M   'P 1'
_cell_length_a   7.17379414
_cell_length_b   7.44443817
_cell_length_c   14.17281852
_cell_angle_alpha   90.01395604
_cell_angle_beta   90.07425149
_cell_angle_gamma   90.08258360
_symmetry_Int_Tables_number   1
_chemical_formula_structural   Tb7PrSc12Ga3Si13
_chemical_formula_sum   'Tb7 Pr1 Sc12 Ga3 Si13'
_cell_volume   756.89604277
_cell_formula_units_Z   1
loop_
 _symmetry_equiv_pos_site_id
 _symmetry_equiv_pos_as_xyz
  1  'x, y, z'
loop_
 _atom_site_type_symbol
 _atom_site_label
 _atom_site_symmetry_multiplicity
 _atom_site_fract_x
 _atom_site_fract_y
 _atom_site_fract_z
 _atom_site_occupancy
  Tb  Tb0  1  0.011900  0.174222  0.401434  1
  Tb  Tb1  1  0.513758  0.324064  0.402687  1
  Tb  Tb2  1  0.488973  0.674771  0.898705  1
  Tb  Tb3  1  0.489282  0.678180  0.598415  1
  Tb  Tb4  1  0.986333  0.825917  0.598385  1
  Tb  Tb5  1  0.988001  0.826427  0.898261  1
  Tb  Tb6  1  0.510535  0.324687  0.099101  1
  Pr  Pr7  1  0.010619  0.173523  0.097521  1
  Sc  Sc8  1  0.332519  0.173600  0.626294  1
  Sc  Sc9  1  0.669461  0.823469  0.376002  1
  Sc  Sc10  1  0.662287  0.998834  0.749555  1
  Sc  Sc11  1  0.172464  0.676652  0.375470  1
  Sc  Sc12  1  0.829881  0.323729  0.872781  1
  Sc  Sc13  1  0.826930  0.324203  0.625172  1
  Sc  Sc14  1  0.837713  0.498686  0.253115  1
  Sc  Sc15  1  0.337461  0.000676  0.252591  1
  Sc  Sc16  1  0.330555  0.176477  0.872885  1
  Sc  Sc17  1  0.170397  0.672718  0.126456  1
  Sc  Sc18  1  0.669112  0.826110  0.126911  1
  Sc  Sc19  1  0.161412  0.500834  0.750808  1
  Ga  Ga20  1  0.159573  0.460798  0.539502  1
  Ga  Ga21  1  0.840019  0.543164  0.036921  1
  Ga  Ga22  1  0.344787  0.958070  0.037222  1
  Si  Si23  1  0.285657  0.874031  0.748820  1
  Si  Si24  1  0.466949  0.618534  0.251117  1
  Si  Si25  1  0.033514  0.119872  0.749372  1
  Si  Si26  1  0.532664  0.382877  0.748970  1
  Si  Si27  1  0.965429  0.877535  0.252099  1
  Si  Si28  1  0.711321  0.124454  0.252780  1
  Si  Si29  1  0.157797  0.466344  0.958824  1
  Si  Si30  1  0.655512  0.036394  0.538711  1
  Si  Si31  1  0.344305  0.963978  0.461557  1
  Si  Si32  1  0.843826  0.536829  0.461257  1
  Si  Si33  1  0.786923  0.626389  0.749174  1
  Si  Si34  1  0.216364  0.376131  0.252390  1
  Si  Si35  1  0.655764  0.036819  0.958735  1
