# generated using pymatgen
data_Tm3AlGa4Ni
_symmetry_space_group_name_H-M   'P 1'
_cell_length_a   6.78915100
_cell_length_b   6.82954584
_cell_length_c   4.21123900
_cell_angle_alpha   90.00000000
_cell_angle_beta   90.00000000
_cell_angle_gamma   119.80453966
_symmetry_Int_Tables_number   1
_chemical_formula_structural   Tm3AlGa4Ni
_chemical_formula_sum   'Tm3 Al1 Ga4 Ni1'
_cell_volume   169.43371361
_cell_formula_units_Z   1
loop_
 _symmetry_equiv_pos_site_id
 _symmetry_equiv_pos_as_xyz
  1  'x, y, z'
loop_
 _atom_site_type_symbol
 _atom_site_label
 _atom_site_symmetry_multiplicity
 _atom_site_fract_x
 _atom_site_fract_y
 _atom_site_fract_z
 _atom_site_occupancy
  Tm  Tm0  1  0.593802  0.000000  0.000000  1
  Tm  Tm1  1  0.999251  0.591814  0.000000  1
  Tm  Tm2  1  0.407436  0.408186  0.000000  1
  Al  Al3  1  0.228586  0.000000  0.500000  1
  Ga  Ga4  1  0.003373  0.238898  0.500000  1
  Ga  Ga5  1  0.764474  0.761102  0.500000  1
  Ga  Ga6  1  0.334197  0.670244  0.500000  1
  Ga  Ga7  1  0.663954  0.329756  0.500000  1
  Ni  Ni8  1  0.004926  0.000000  0.000000  1
