# generated using pymatgen
data_Yb2DyTm(Pt2O7)2
_symmetry_space_group_name_H-M   'P 1'
_cell_length_a   7.25213855
_cell_length_b   7.22980520
_cell_length_c   7.25213760
_cell_angle_alpha   60.06401563
_cell_angle_beta   60.05615817
_cell_angle_gamma   60.06401640
_symmetry_Int_Tables_number   1
_chemical_formula_structural   Yb2DyTm(Pt2O7)2
_chemical_formula_sum   'Yb2 Dy1 Tm1 Pt4 O14'
_cell_volume   269.24497834
_cell_formula_units_Z   1
loop_
 _symmetry_equiv_pos_site_id
 _symmetry_equiv_pos_as_xyz
  1  'x, y, z'
loop_
 _atom_site_type_symbol
 _atom_site_label
 _atom_site_symmetry_multiplicity
 _atom_site_fract_x
 _atom_site_fract_y
 _atom_site_fract_z
 _atom_site_occupancy
  Yb  Yb0  1  0.625000  0.625000  0.125000  1
  Yb  Yb1  1  0.125000  0.625000  0.625000  1
  Dy  Dy2  1  0.625000  0.625000  0.625000  1
  Tm  Tm3  1  0.625000  0.125000  0.625000  1
  Pt  Pt4  1  0.125000  0.125000  0.125000  1
  Pt  Pt5  1  0.625000  0.125000  0.125000  1
  Pt  Pt6  1  0.125000  0.625000  0.125000  1
  Pt  Pt7  1  0.125000  0.125000  0.625000  1
  O  O8  1  0.034260  0.460058  0.461148  1
  O  O9  1  0.788852  0.789942  0.215740  1
  O  O10  1  0.788502  0.203316  0.218931  1
  O  O11  1  0.462962  0.039652  0.462962  1
  O  O12  1  0.031069  0.046684  0.461498  1
  O  O13  1  0.040256  0.459537  0.040256  1
  O  O14  1  0.744138  0.758967  0.744138  1
  O  O15  1  0.505862  0.491033  0.505862  1
  O  O16  1  0.787038  0.210348  0.787038  1
  O  O17  1  0.209744  0.790463  0.209744  1
  O  O18  1  0.218931  0.203316  0.788502  1
  O  O19  1  0.461498  0.046684  0.031069  1
  O  O20  1  0.461148  0.460058  0.034260  1
  O  O21  1  0.215740  0.789942  0.788852  1
