# generated using pymatgen
data_TbPr2Si4(PPd10)2
_symmetry_space_group_name_H-M   'P 1'
_cell_length_a   8.76189217
_cell_length_b   8.76189248
_cell_length_c   8.76142000
_cell_angle_alpha   60.00178380
_cell_angle_beta   60.00178264
_cell_angle_gamma   59.99643406
_symmetry_Int_Tables_number   1
_chemical_formula_structural   TbPr2Si4(PPd10)2
_chemical_formula_sum   'Tb1 Pr2 Si4 P2 Pd20'
_cell_volume   475.61476125
_cell_formula_units_Z   1
loop_
 _symmetry_equiv_pos_site_id
 _symmetry_equiv_pos_as_xyz
  1  'x, y, z'
loop_
 _atom_site_type_symbol
 _atom_site_label
 _atom_site_symmetry_multiplicity
 _atom_site_fract_x
 _atom_site_fract_y
 _atom_site_fract_z
 _atom_site_occupancy
  Tb  Tb0  1  0.000000  0.000000  0.000000  1
  Pr  Pr1  1  0.250000  0.250000  0.250000  1
  Pr  Pr2  1  0.750000  0.750000  0.750000  1
  Si  Si3  1  0.734498  0.265502  0.265502  1
  Si  Si4  1  0.265502  0.734498  0.734498  1
  Si  Si5  1  0.265502  0.734498  0.265502  1
  Si  Si6  1  0.734498  0.265502  0.734498  1
  P  P7  1  0.264500  0.264500  0.735500  1
  P  P8  1  0.735500  0.735500  0.264500  1
  Pd  Pd9  1  0.385355  0.385355  0.387486  1
  Pd  Pd10  1  0.614645  0.614645  0.612514  1
  Pd  Pd11  1  0.385355  0.385355  0.841802  1
  Pd  Pd12  1  0.387486  0.841802  0.385355  1
  Pd  Pd13  1  0.614645  0.614645  0.158198  1
  Pd  Pd14  1  0.612514  0.158198  0.614645  1
  Pd  Pd15  1  0.841802  0.387486  0.385355  1
  Pd  Pd16  1  0.158198  0.612514  0.614645  1
  Pd  Pd17  1  0.345091  0.001239  0.998761  1
  Pd  Pd18  1  0.654909  0.998761  0.001239  1
  Pd  Pd19  1  0.001239  0.345091  0.654909  1
  Pd  Pd20  1  0.998761  0.654909  0.345091  1
  Pd  Pd21  1  0.001239  0.345091  0.998761  1
  Pd  Pd22  1  0.654909  0.998761  0.345091  1
  Pd  Pd23  1  0.998761  0.654909  0.001239  1
  Pd  Pd24  1  0.345091  0.001239  0.654909  1
  Pd  Pd25  1  0.000000  0.000000  0.346350  1
  Pd  Pd26  1  0.000000  0.000000  0.653650  1
  Pd  Pd27  1  0.653650  0.346350  0.000000  1
  Pd  Pd28  1  0.346350  0.653650  0.000000  1
