# generated using pymatgen
data_PrMn(NbS2)8
_symmetry_space_group_name_H-M   'P 1'
_cell_length_a   6.73667000
_cell_length_b   6.73666969
_cell_length_c   13.45064600
_cell_angle_alpha   90.00000000
_cell_angle_beta   90.00000000
_cell_angle_gamma   120.00000152
_symmetry_Int_Tables_number   1
_chemical_formula_structural   PrMn(NbS2)8
_chemical_formula_sum   'Pr1 Mn1 Nb8 S16'
_cell_volume   528.64520261
_cell_formula_units_Z   1
loop_
 _symmetry_equiv_pos_site_id
 _symmetry_equiv_pos_as_xyz
  1  'x, y, z'
loop_
 _atom_site_type_symbol
 _atom_site_label
 _atom_site_symmetry_multiplicity
 _atom_site_fract_x
 _atom_site_fract_y
 _atom_site_fract_z
 _atom_site_occupancy
  Pr  Pr0  1  0.000000  0.000000  0.000000  1
  Mn  Mn1  1  0.000000  0.000000  0.500000  1
  Nb  Nb2  1  0.989883  0.494942  0.270450  1
  Nb  Nb3  1  0.010117  0.505058  0.729550  1
  Nb  Nb4  1  0.494942  0.505058  0.729550  1
  Nb  Nb5  1  0.505058  0.010117  0.270450  1
  Nb  Nb6  1  0.000000  0.000000  0.731729  1
  Nb  Nb7  1  0.000000  0.000000  0.268271  1
  Nb  Nb8  1  0.505058  0.494942  0.270450  1
  Nb  Nb9  1  0.494942  0.989883  0.729550  1
  S  S10  1  0.333333  0.666667  0.612291  1
  S  S11  1  0.666667  0.333333  0.150657  1
  S  S12  1  0.666667  0.333333  0.387709  1
  S  S13  1  0.333333  0.666667  0.849343  1
  S  S14  1  0.167083  0.334167  0.385115  1
  S  S15  1  0.830996  0.169004  0.846712  1
  S  S16  1  0.338007  0.169004  0.846712  1
  S  S17  1  0.665833  0.832917  0.385115  1
  S  S18  1  0.167083  0.832917  0.385115  1
  S  S19  1  0.830996  0.661993  0.846712  1
  S  S20  1  0.169004  0.338007  0.153288  1
  S  S21  1  0.832917  0.167083  0.614885  1
  S  S22  1  0.334167  0.167083  0.614885  1
  S  S23  1  0.661993  0.830996  0.153288  1
  S  S24  1  0.169004  0.830996  0.153288  1
  S  S25  1  0.832917  0.665833  0.614885  1
