# generated using pymatgen
data_Ba8LuPaSe12
_symmetry_space_group_name_H-M   'P 1'
_cell_length_a   9.05083352
_cell_length_b   9.05083379
_cell_length_c   9.05083500
_cell_angle_alpha   89.52082426
_cell_angle_beta   89.52082424
_cell_angle_gamma   89.52082804
_symmetry_Int_Tables_number   1
_chemical_formula_structural   Ba8LuPaSe12
_chemical_formula_sum   'Ba8 Lu1 Pa1 Se12'
_cell_volume   741.34523552
_cell_formula_units_Z   1
loop_
 _symmetry_equiv_pos_site_id
 _symmetry_equiv_pos_as_xyz
  1  'x, y, z'
loop_
 _atom_site_type_symbol
 _atom_site_label
 _atom_site_symmetry_multiplicity
 _atom_site_fract_x
 _atom_site_fract_y
 _atom_site_fract_z
 _atom_site_occupancy
  Ba  Ba0  1  0.870692  0.621053  0.258952  1
  Ba  Ba1  1  0.258952  0.870692  0.621053  1
  Ba  Ba2  1  0.621053  0.258952  0.870692  1
  Ba  Ba3  1  0.741048  0.129308  0.378947  1
  Ba  Ba4  1  0.378947  0.741048  0.129308  1
  Ba  Ba5  1  0.129308  0.378947  0.741048  1
  Ba  Ba6  1  0.255618  0.255618  0.255618  1
  Ba  Ba7  1  0.744382  0.744382  0.744382  1
  Lu  Lu8  1  0.500000  0.500000  0.500000  1
  Pa  Pa9  1  0.000000  0.000000  0.000000  1
  Se  Se10  1  0.202578  0.564350  0.421696  1
  Se  Se11  1  0.421696  0.202578  0.564350  1
  Se  Se12  1  0.564350  0.421696  0.202578  1
  Se  Se13  1  0.927031  0.058658  0.705630  1
  Se  Se14  1  0.705630  0.927031  0.058658  1
  Se  Se15  1  0.058658  0.705630  0.927031  1
  Se  Se16  1  0.797422  0.435650  0.578304  1
  Se  Se17  1  0.578304  0.797422  0.435650  1
  Se  Se18  1  0.435650  0.578304  0.797422  1
  Se  Se19  1  0.072969  0.941342  0.294370  1
  Se  Se20  1  0.294370  0.072969  0.941342  1
  Se  Se21  1  0.941342  0.294370  0.072969  1
