# generated using pymatgen
data_Cs6SmYCl12
_symmetry_space_group_name_H-M   'P 1'
_cell_length_a   9.50721600
_cell_length_b   9.49939420
_cell_length_c   7.89311200
_cell_angle_alpha   90.00000000
_cell_angle_beta   90.00000000
_cell_angle_gamma   89.98822044
_symmetry_Int_Tables_number   1
_chemical_formula_structural   Cs6SmYCl12
_chemical_formula_sum   'Cs6 Sm1 Y1 Cl12'
_cell_volume   712.84897145
_cell_formula_units_Z   1
loop_
 _symmetry_equiv_pos_site_id
 _symmetry_equiv_pos_as_xyz
  1  'x, y, z'
loop_
 _atom_site_type_symbol
 _atom_site_label
 _atom_site_symmetry_multiplicity
 _atom_site_fract_x
 _atom_site_fract_y
 _atom_site_fract_z
 _atom_site_occupancy
  Cs  Cs0  1  0.000000  0.000000  0.500000  1
  Cs  Cs1  1  0.000000  0.000000  0.000000  1
  Cs  Cs2  1  0.237474  0.583106  0.500000  1
  Cs  Cs3  1  0.762526  0.416894  0.500000  1
  Cs  Cs4  1  0.417270  0.234071  0.000000  1
  Cs  Cs5  1  0.582730  0.765929  0.000000  1
  Sm  Sm6  1  0.000000  0.500000  0.000000  1
  Y  Y7  1  0.500000  0.000000  0.500000  1
  Cl  Cl8  1  0.690691  0.056529  0.738654  1
  Cl  Cl9  1  0.309309  0.943471  0.738654  1
  Cl  Cl10  1  0.942245  0.694201  0.242749  1
  Cl  Cl11  1  0.057755  0.305799  0.242749  1
  Cl  Cl12  1  0.309309  0.943471  0.261346  1
  Cl  Cl13  1  0.690691  0.056529  0.261346  1
  Cl  Cl14  1  0.057755  0.305799  0.757251  1
  Cl  Cl15  1  0.942245  0.694201  0.757251  1
  Cl  Cl16  1  0.569961  0.730278  0.500000  1
  Cl  Cl17  1  0.430039  0.269722  0.500000  1
  Cl  Cl18  1  0.274435  0.570858  0.000000  1
  Cl  Cl19  1  0.725565  0.429142  0.000000  1
