# generated using pymatgen
data_Ta3ZnPd9Pt2Rh
_symmetry_space_group_name_H-M   'P 1'
_cell_length_a   5.61932141
_cell_length_b   5.60461118
_cell_length_c   9.08179700
_cell_angle_alpha   90.00000000
_cell_angle_beta   90.00000000
_cell_angle_gamma   119.91343738
_symmetry_Int_Tables_number   1
_chemical_formula_structural   Ta3ZnPd9Pt2Rh
_chemical_formula_sum   'Ta3 Zn1 Pd9 Pt2 Rh1'
_cell_volume   247.91907466
_cell_formula_units_Z   1
loop_
 _symmetry_equiv_pos_site_id
 _symmetry_equiv_pos_as_xyz
  1  'x, y, z'
loop_
 _atom_site_type_symbol
 _atom_site_label
 _atom_site_symmetry_multiplicity
 _atom_site_fract_x
 _atom_site_fract_y
 _atom_site_fract_z
 _atom_site_occupancy
  Ta  Ta0  1  0.668651  0.334325  0.500000  1
  Ta  Ta1  1  0.994811  0.997406  0.746601  1
  Ta  Ta2  1  0.994811  0.997406  0.253399  1
  Zn  Zn3  1  0.333554  0.666777  0.000000  1
  Pd  Pd4  1  0.832789  0.166396  0.000000  1
  Pd  Pd5  1  0.832789  0.666392  0.000000  1
  Pd  Pd6  1  0.332634  0.166316  0.000000  1
  Pd  Pd7  1  0.997517  0.498759  0.750092  1
  Pd  Pd8  1  0.501985  0.499570  0.749374  1
  Pd  Pd9  1  0.501985  0.002416  0.749374  1
  Pd  Pd10  1  0.997517  0.498759  0.249908  1
  Pd  Pd11  1  0.501985  0.499570  0.250626  1
  Pd  Pd12  1  0.501985  0.002416  0.250626  1
  Pt  Pt13  1  0.169435  0.833748  0.500000  1
  Pt  Pt14  1  0.169435  0.335688  0.500000  1
  Rh  Rh15  1  0.668117  0.834059  0.500000  1
