# generated using pymatgen
data_Dy2Ho2Al24Pt8Au
_symmetry_space_group_name_H-M   'P 1'
_cell_length_a   7.55141313
_cell_length_b   7.56951101
_cell_length_c   13.16338712
_cell_angle_alpha   84.55387940
_cell_angle_beta   79.01618826
_cell_angle_gamma   59.89404498
_symmetry_Int_Tables_number   1
_chemical_formula_structural   Dy2Ho2Al24Pt8Au
_chemical_formula_sum   'Dy2 Ho2 Al24 Pt8 Au1'
_cell_volume   638.99865456
_cell_formula_units_Z   1
loop_
 _symmetry_equiv_pos_site_id
 _symmetry_equiv_pos_as_xyz
  1  'x, y, z'
loop_
 _atom_site_type_symbol
 _atom_site_label
 _atom_site_symmetry_multiplicity
 _atom_site_fract_x
 _atom_site_fract_y
 _atom_site_fract_z
 _atom_site_occupancy
  Dy  Dy0  1  0.734058  0.499026  0.808594  1
  Dy  Dy1  1  0.266725  0.501110  0.191674  1
  Ho  Ho2  1  0.392923  0.169058  0.808648  1
  Ho  Ho3  1  0.605994  0.831811  0.192510  1
  Al  Al4  1  0.683135  0.834214  0.945393  1
  Al  Al5  1  0.315720  0.165990  0.055952  1
  Al  Al6  1  0.146902  0.838889  0.559964  1
  Al  Al7  1  0.854213  0.167281  0.436593  1
  Al  Al8  1  0.488057  0.159785  0.557540  1
  Al  Al9  1  0.520129  0.833544  0.439793  1
  Al  Al10  1  0.217786  0.165148  0.329071  1
  Al  Al11  1  0.777399  0.839202  0.672950  1
  Al  Al12  1  0.440618  0.506838  0.673097  1
  Al  Al13  1  0.562802  0.493645  0.328819  1
  Al  Al14  1  0.109038  0.154581  0.671877  1
  Al  Al15  1  0.890244  0.839810  0.330096  1
  Al  Al16  1  0.353207  0.498846  0.945145  1
  Al  Al17  1  0.647212  0.500761  0.056018  1
  Al  Al18  1  0.015324  0.167648  0.953876  1
  Al  Al19  1  0.984067  0.832489  0.047449  1
  Al  Al20  1  0.188069  0.499559  0.436488  1
  Al  Al21  1  0.807053  0.500145  0.557434  1
  Al  Al22  1  0.734178  0.163721  0.183591  1
  Al  Al23  1  0.266658  0.835661  0.816619  1
  Al  Al24  1  0.060728  0.633316  0.817938  1
  Al  Al25  1  0.938291  0.368961  0.184935  1
  Al  Al26  1  0.854159  0.042024  0.816134  1
  Al  Al27  1  0.144774  0.958301  0.184028  1
  Pt  Pt28  1  0.879349  0.508495  0.361385  1
  Pt  Pt29  1  0.657358  0.171310  0.999469  1
  Pt  Pt30  1  0.342879  0.828492  0.999708  1
  Pt  Pt31  1  0.537521  0.166613  0.361455  1
  Pt  Pt32  1  0.462457  0.833413  0.637980  1
  Pt  Pt33  1  0.779231  0.175081  0.636695  1
  Pt  Pt34  1  0.221178  0.824774  0.362669  1
  Pt  Pt35  1  0.999964  0.499918  0.000216  1
  Au  Au36  1  0.120603  0.490541  0.638198  1
