# generated using pymatgen
data_Ta4Al3Cr3GaCu
_symmetry_space_group_name_H-M   'P 1'
_cell_length_a   4.91998164
_cell_length_b   4.92817220
_cell_length_c   8.28863800
_cell_angle_alpha   90.00000000
_cell_angle_beta   90.00000000
_cell_angle_gamma   60.88664157
_symmetry_Int_Tables_number   1
_chemical_formula_structural   Ta4Al3Cr3GaCu
_chemical_formula_sum   'Ta4 Al3 Cr3 Ga1 Cu1'
_cell_volume   175.57973538
_cell_formula_units_Z   1
loop_
 _symmetry_equiv_pos_site_id
 _symmetry_equiv_pos_as_xyz
  1  'x, y, z'
loop_
 _atom_site_type_symbol
 _atom_site_label
 _atom_site_symmetry_multiplicity
 _atom_site_fract_x
 _atom_site_fract_y
 _atom_site_fract_z
 _atom_site_occupancy
  Ta  Ta0  1  0.332908  0.333984  0.553457  1
  Ta  Ta1  1  0.662840  0.664543  0.430715  1
  Ta  Ta2  1  0.662840  0.664543  0.069285  1
  Ta  Ta3  1  0.332908  0.333984  0.946543  1
  Al  Al4  1  0.994705  0.994331  0.495919  1
  Al  Al5  1  0.994705  0.994331  0.004081  1
  Al  Al6  1  0.350987  0.833854  0.750000  1
  Cr  Cr7  1  0.172140  0.650086  0.250000  1
  Cr  Cr8  1  0.650625  0.171830  0.250000  1
  Cr  Cr9  1  0.172723  0.172587  0.250000  1
  Ga  Ga10  1  0.835275  0.348832  0.750000  1
  Cu  Cu11  1  0.837344  0.837096  0.750000  1
