# generated using pymatgen
data_SmGdSi4CN6
_symmetry_space_group_name_H-M   'P 1'
_cell_length_a   6.00613787
_cell_length_b   10.03163200
_cell_length_c   12.03967169
_cell_angle_alpha   90.00000000
_cell_angle_beta   119.49336748
_cell_angle_gamma   90.00000000
_symmetry_Int_Tables_number   1
_chemical_formula_structural   SmGdSi4CN6
_chemical_formula_sum   'Sm4 Gd4 Si16 C4 N24'
_cell_volume   631.40315733
_cell_formula_units_Z   4
loop_
 _symmetry_equiv_pos_site_id
 _symmetry_equiv_pos_as_xyz
  1  'x, y, z'
loop_
 _atom_site_type_symbol
 _atom_site_label
 _atom_site_symmetry_multiplicity
 _atom_site_fract_x
 _atom_site_fract_y
 _atom_site_fract_z
 _atom_site_occupancy
  Sm  Sm0  1  0.335931  0.914960  0.078281  1
  Sm  Sm1  1  0.334593  0.560099  0.097036  1
  Sm  Sm2  1  0.665407  0.060100  0.402963  1
  Sm  Sm3  1  0.664069  0.414961  0.421719  1
  Gd  Gd4  1  0.337983  0.586502  0.580239  1
  Gd  Gd5  1  0.333624  0.937945  0.597011  1
  Gd  Gd6  1  0.666377  0.437946  0.902989  1
  Gd  Gd7  1  0.662017  0.086503  0.919761  1
  Si  Si8  1  0.832413  0.712349  0.078939  1
  Si  Si9  1  0.677503  0.229931  0.159289  1
  Si  Si10  1  0.199627  0.208146  0.175518  1
  Si  Si11  1  0.993295  0.981869  0.249598  1
  Si  Si12  1  0.006705  0.481868  0.250402  1
  Si  Si13  1  0.800371  0.708145  0.324481  1
  Si  Si14  1  0.322497  0.729930  0.340711  1
  Si  Si15  1  0.167587  0.212350  0.421061  1
  Si  Si16  1  0.834665  0.786671  0.579991  1
  Si  Si17  1  0.677463  0.271051  0.660202  1
  Si  Si18  1  0.201514  0.291873  0.676443  1
  Si  Si19  1  0.992570  0.518399  0.749804  1
  Si  Si20  1  0.007430  0.018398  0.750196  1
  Si  Si21  1  0.798487  0.791872  0.823557  1
  Si  Si22  1  0.322538  0.771050  0.839798  1
  Si  Si23  1  0.165334  0.286672  0.920008  1
  C  C24  1  0.975578  0.793843  0.246448  1
  C  C25  1  0.024422  0.293843  0.253552  1
  C  C26  1  0.976321  0.706420  0.747075  1
  C  C27  1  0.023679  0.206420  0.752925  1
  N  N28  1  0.504300  0.291931  0.002276  1
  N  N29  1  0.044705  0.213761  0.010123  1
  N  N30  1  0.935319  0.545048  0.101182  1
  N  N31  1  0.702494  0.056982  0.139793  1
  N  N32  1  0.231653  0.038890  0.218908  1
  N  N33  1  0.514857  0.265379  0.243322  1
  N  N34  1  0.485143  0.765379  0.256677  1
  N  N35  1  0.768348  0.538889  0.281093  1
  N  N36  1  0.297506  0.556981  0.360207  1
  N  N37  1  0.064681  0.045048  0.398818  1
  N  N38  1  0.955295  0.713760  0.489877  1
  N  N39  1  0.495700  0.791931  0.497724  1
  N  N40  1  0.505913  0.209001  0.503467  1
  N  N41  1  0.047344  0.283708  0.511530  1
  N  N42  1  0.942062  0.952914  0.602853  1
  N  N43  1  0.699151  0.444796  0.640421  1
  N  N44  1  0.232279  0.461744  0.719113  1
  N  N45  1  0.517746  0.235791  0.745673  1
  N  N46  1  0.482252  0.735791  0.754327  1
  N  N47  1  0.767722  0.961743  0.780887  1
  N  N48  1  0.300848  0.944795  0.859579  1
  N  N49  1  0.057938  0.452914  0.897147  1
  N  N50  1  0.952656  0.783707  0.988470  1
  N  N51  1  0.494087  0.709001  0.996533  1
