# generated using pymatgen
data_RbLiGe2O5
_symmetry_space_group_name_H-M   'P 1'
_cell_length_a   5.11624800
_cell_length_b   6.30684202
_cell_length_c   8.71191198
_cell_angle_alpha   85.38362879
_cell_angle_beta   90.00000000
_cell_angle_gamma   90.00000000
_symmetry_Int_Tables_number   1
_chemical_formula_structural   RbLiGe2O5
_chemical_formula_sum   'Rb2 Li2 Ge4 O10'
_cell_volume   280.19852464
_cell_formula_units_Z   2
loop_
 _symmetry_equiv_pos_site_id
 _symmetry_equiv_pos_as_xyz
  1  'x, y, z'
loop_
 _atom_site_type_symbol
 _atom_site_label
 _atom_site_symmetry_multiplicity
 _atom_site_fract_x
 _atom_site_fract_y
 _atom_site_fract_z
 _atom_site_occupancy
  Rb  Rb0  1  0.312363  0.031918  0.312612  1
  Rb  Rb1  1  0.812363  0.968082  0.687388  1
  Li  Li2  1  0.301035  0.128324  0.908713  1
  Li  Li3  1  0.801035  0.871676  0.091287  1
  Ge  Ge4  1  0.777601  0.363811  0.063132  1
  Ge  Ge5  1  0.862021  0.558651  0.390268  1
  Ge  Ge6  1  0.362021  0.441349  0.609732  1
  Ge  Ge7  1  0.277601  0.636189  0.936868  1
  O  O8  1  0.640425  0.135667  0.005565  1
  O  O9  1  0.804922  0.814203  0.315244  1
  O  O10  1  0.615213  0.610711  0.000343  1
  O  O11  1  0.207235  0.522136  0.429739  1
  O  O12  1  0.285884  0.652743  0.730881  1
  O  O13  1  0.785884  0.347257  0.269119  1
  O  O14  1  0.115213  0.389289  0.999657  1
  O  O15  1  0.707235  0.477864  0.570261  1
  O  O16  1  0.304922  0.185797  0.684756  1
  O  O17  1  0.140425  0.864333  0.994435  1
