# generated using pymatgen
data_Ho16In6IrAu
_symmetry_space_group_name_H-M   'P 1'
_cell_length_a   10.48846900
_cell_length_b   10.48846873
_cell_length_c   6.95197100
_cell_angle_alpha   90.00000000
_cell_angle_beta   90.00000000
_cell_angle_gamma   120.00000401
_symmetry_Int_Tables_number   1
_chemical_formula_structural   Ho16In6IrAu
_chemical_formula_sum   'Ho16 In6 Ir1 Au1'
_cell_volume   662.31219643
_cell_formula_units_Z   1
loop_
 _symmetry_equiv_pos_site_id
 _symmetry_equiv_pos_as_xyz
  1  'x, y, z'
loop_
 _atom_site_type_symbol
 _atom_site_label
 _atom_site_symmetry_multiplicity
 _atom_site_fract_x
 _atom_site_fract_y
 _atom_site_fract_z
 _atom_site_occupancy
  Ho  Ho0  1  0.526085  0.052169  0.510152  1
  Ho  Ho1  1  0.947831  0.473915  0.510152  1
  Ho  Ho2  1  0.526085  0.473915  0.510152  1
  Ho  Ho3  1  0.467634  0.935267  0.007599  1
  Ho  Ho4  1  0.064733  0.532366  0.007599  1
  Ho  Ho5  1  0.467634  0.532366  0.007599  1
  Ho  Ho6  1  0.176446  0.352890  0.719432  1
  Ho  Ho7  1  0.647110  0.823554  0.719432  1
  Ho  Ho8  1  0.176446  0.823554  0.719432  1
  Ho  Ho9  1  0.826987  0.653976  0.216215  1
  Ho  Ho10  1  0.346024  0.173013  0.216215  1
  Ho  Ho11  1  0.826987  0.173013  0.216215  1
  Ho  Ho12  1  0.666667  0.333333  0.867726  1
  Ho  Ho13  1  0.333333  0.666667  0.387389  1
  Ho  Ho14  1  0.000000  0.000000  0.490241  1
  Ho  Ho15  1  0.000000  0.000000  0.992148  1
  In  In16  1  0.836484  0.672968  0.746552  1
  In  In17  1  0.327032  0.163516  0.746552  1
  In  In18  1  0.836484  0.163516  0.746552  1
  In  In19  1  0.162841  0.325682  0.252114  1
  In  In20  1  0.674318  0.837159  0.252114  1
  In  In21  1  0.162841  0.837159  0.252114  1
  Ir  Ir22  1  0.333333  0.666667  0.786172  1
  Au  Au23  1  0.666667  0.333333  0.278173  1
