# generated using pymatgen
data_Dy4TmBi2Rh
_symmetry_space_group_name_H-M   'P 1'
_cell_length_a   7.98981699
_cell_length_b   8.99201948
_cell_length_c   12.44283984
_cell_angle_alpha   89.96238267
_cell_angle_beta   90.11430715
_cell_angle_gamma   90.00044421
_symmetry_Int_Tables_number   1
_chemical_formula_structural   Dy4TmBi2Rh
_chemical_formula_sum   'Dy16 Tm4 Bi8 Rh4'
_cell_volume   893.94875552
_cell_formula_units_Z   4
loop_
 _symmetry_equiv_pos_site_id
 _symmetry_equiv_pos_as_xyz
  1  'x, y, z'
loop_
 _atom_site_type_symbol
 _atom_site_label
 _atom_site_symmetry_multiplicity
 _atom_site_fract_x
 _atom_site_fract_y
 _atom_site_fract_z
 _atom_site_occupancy
  Dy  Dy0  1  0.841499  0.750315  0.793703  1
  Dy  Dy1  1  0.159022  0.249866  0.206371  1
  Dy  Dy2  1  0.341623  0.249679  0.705916  1
  Dy  Dy3  1  0.657978  0.750120  0.294125  1
  Dy  Dy4  1  0.375257  0.750168  0.692936  1
  Dy  Dy5  1  0.623964  0.249661  0.307089  1
  Dy  Dy6  1  0.875771  0.249827  0.806419  1
  Dy  Dy7  1  0.124977  0.750348  0.193566  1
  Dy  Dy8  1  0.953384  0.750366  0.501378  1
  Dy  Dy9  1  0.047715  0.249701  0.498510  1
  Dy  Dy10  1  0.452703  0.249564  0.998622  1
  Dy  Dy11  1  0.546231  0.750338  0.001304  1
  Dy  Dy12  1  0.822528  0.041203  0.065759  1
  Dy  Dy13  1  0.677263  0.459025  0.565607  1
  Dy  Dy14  1  0.822000  0.458967  0.065844  1
  Dy  Dy15  1  0.177858  0.541279  0.934073  1
  Tm  Tm16  1  0.675250  0.041127  0.565297  1
  Tm  Tm17  1  0.324827  0.958583  0.434650  1
  Tm  Tm18  1  0.175808  0.958548  0.934438  1
  Tm  Tm19  1  0.324439  0.541286  0.434572  1
  Bi  Bi20  1  0.569277  0.491478  0.826449  1
  Bi  Bi21  1  0.430572  0.508627  0.173803  1
  Bi  Bi22  1  0.069032  0.508622  0.673526  1
  Bi  Bi23  1  0.430748  0.991349  0.173813  1
  Bi  Bi24  1  0.931403  0.491585  0.326655  1
  Bi  Bi25  1  0.568818  0.008478  0.826347  1
  Bi  Bi26  1  0.931538  0.008438  0.326668  1
  Bi  Bi27  1  0.068560  0.991451  0.673531  1
  Rh  Rh28  1  0.569055  0.750936  0.509556  1
  Rh  Rh29  1  0.428932  0.249194  0.489955  1
  Rh  Rh30  1  0.071524  0.249098  0.989624  1
  Rh  Rh31  1  0.930443  0.750771  0.009892  1
