# generated using pymatgen
data_Sr2InPtRh
_symmetry_space_group_name_H-M   'P 1'
_cell_length_a   6.07404997
_cell_length_b   6.07405098
_cell_length_c   8.29190723
_cell_angle_alpha   78.40924444
_cell_angle_beta   78.40924171
_cell_angle_gamma   59.58618011
_symmetry_Int_Tables_number   1
_chemical_formula_structural   Sr2InPtRh
_chemical_formula_sum   'Sr4 In2 Pt2 Rh2'
_cell_volume   256.65672057
_cell_formula_units_Z   2
loop_
 _symmetry_equiv_pos_site_id
 _symmetry_equiv_pos_as_xyz
  1  'x, y, z'
loop_
 _atom_site_type_symbol
 _atom_site_label
 _atom_site_symmetry_multiplicity
 _atom_site_fract_x
 _atom_site_fract_y
 _atom_site_fract_z
 _atom_site_occupancy
  Sr  Sr0  1  0.502974  0.789081  0.353308  1
  Sr  Sr1  1  0.210919  0.497026  0.146692  1
  Sr  Sr2  1  0.495307  0.208554  0.646346  1
  Sr  Sr3  1  0.791446  0.504693  0.853654  1
  In  In4  1  0.885909  0.114091  0.250000  1
  In  In5  1  0.123196  0.876804  0.750000  1
  Pt  Pt6  1  0.708812  0.004691  0.004567  1
  Pt  Pt7  1  0.995309  0.291188  0.495433  1
  Rh  Rh8  1  0.281137  0.995010  0.993056  1
  Rh  Rh9  1  0.004990  0.718863  0.506944  1
