# generated using pymatgen
data_La4Dy3Y3Ir4
_symmetry_space_group_name_H-M   'P 1'
_cell_length_a   6.59865959
_cell_length_b   7.24694972
_cell_length_c   8.87982665
_cell_angle_alpha   96.85692277
_cell_angle_beta   111.71157550
_cell_angle_gamma   89.99568004
_symmetry_Int_Tables_number   1
_chemical_formula_structural   La4Dy3Y3Ir4
_chemical_formula_sum   'La4 Dy3 Y3 Ir4'
_cell_volume   391.24067815
_cell_formula_units_Z   1
loop_
 _symmetry_equiv_pos_site_id
 _symmetry_equiv_pos_as_xyz
  1  'x, y, z'
loop_
 _atom_site_type_symbol
 _atom_site_label
 _atom_site_symmetry_multiplicity
 _atom_site_fract_x
 _atom_site_fract_y
 _atom_site_fract_z
 _atom_site_occupancy
  La  La0  1  0.784619  0.082992  0.807391  1
  La  La1  1  0.977403  0.416864  0.192613  1
  La  La2  1  0.215497  0.916821  0.192738  1
  La  La3  1  0.022532  0.583095  0.807356  1
  Dy  Dy4  1  0.358080  0.683640  0.566939  1
  Dy  Dy5  1  0.430179  0.250525  0.000080  1
  Dy  Dy6  1  0.569710  0.749561  0.999925  1
  Y  Y7  1  0.208677  0.183192  0.565615  1
  Y  Y8  1  0.641990  0.316038  0.433452  1
  Y  Y9  1  0.791515  0.816784  0.434418  1
  Ir  Ir10  1  0.590369  0.424437  0.774248  1
  Ir  Ir11  1  0.816733  0.076627  0.225694  1
  Ir  Ir12  1  0.409002  0.576431  0.225534  1
  Ir  Ir13  1  0.183695  0.922993  0.773995  1
