# generated using pymatgen
data_Pr19SmSi15Pb
_symmetry_space_group_name_H-M   'P 1'
_cell_length_a   7.98486186
_cell_length_b   7.96888474
_cell_length_c   15.32415900
_cell_angle_alpha   90.11010676
_cell_angle_beta   89.70081406
_cell_angle_gamma   89.70923424
_symmetry_Int_Tables_number   1
_chemical_formula_structural   Pr19SmSi15Pb
_chemical_formula_sum   'Pr19 Sm1 Si15 Pb1'
_cell_volume   975.05533823
_cell_formula_units_Z   1
loop_
 _symmetry_equiv_pos_site_id
 _symmetry_equiv_pos_as_xyz
  1  'x, y, z'
loop_
 _atom_site_type_symbol
 _atom_site_label
 _atom_site_symmetry_multiplicity
 _atom_site_fract_x
 _atom_site_fract_y
 _atom_site_fract_z
 _atom_site_occupancy
  Pr  Pr0  1  0.191884  0.808764  0.249600  1
  Pr  Pr1  1  0.797868  0.189727  0.752966  1
  Pr  Pr2  1  0.688620  0.692424  0.496671  1
  Pr  Pr3  1  0.376278  0.013605  0.448995  1
  Pr  Pr4  1  0.497202  0.870761  0.698098  1
  Pr  Pr5  1  0.509666  0.121078  0.197199  1
  Pr  Pr6  1  0.878505  0.489052  0.300707  1
  Pr  Pr7  1  0.119582  0.517155  0.806601  1
  Pr  Pr8  1  0.622993  0.986541  0.949894  1
  Pr  Pr9  1  0.003263  0.385629  0.545685  1
  Pr  Pr10  1  0.988508  0.621320  0.053597  1
  Pr  Pr11  1  0.127680  0.980265  0.880298  1
  Pr  Pr12  1  0.519350  0.627080  0.126888  1
  Pr  Pr13  1  0.492465  0.383992  0.625814  1
  Pr  Pr14  1  0.628826  0.521381  0.876559  1
  Pr  Pr15  1  0.374176  0.481387  0.371932  1
  Pr  Pr16  1  0.872272  0.019057  0.375796  1
  Pr  Pr17  1  0.981416  0.127792  0.124432  1
  Pr  Pr18  1  0.006127  0.855912  0.620159  1
  Sm  Sm19  1  0.309764  0.310083  0.000966  1
  Si  Si20  1  0.330006  0.693010  0.954764  1
  Si  Si21  1  0.666387  0.303819  0.450827  1
  Si  Si22  1  0.695012  0.330347  0.048277  1
  Si  Si23  1  0.304886  0.669863  0.546182  1
  Si  Si24  1  0.804183  0.831751  0.201911  1
  Si  Si25  1  0.167964  0.196289  0.298482  1
  Si  Si26  1  0.835063  0.804047  0.799188  1
  Si  Si27  1  0.288372  0.924173  0.060304  1
  Si  Si28  1  0.578296  0.789590  0.309057  1
  Si  Si29  1  0.431387  0.213085  0.818070  1
  Si  Si30  1  0.789305  0.576721  0.691966  1
  Si  Si31  1  0.213002  0.419066  0.188995  1
  Si  Si32  1  0.710685  0.080162  0.559692  1
  Si  Si33  1  0.925488  0.289199  0.941556  1
  Si  Si34  1  0.079738  0.713233  0.438151  1
  Pb  Pb35  1  0.193780  0.162640  0.689723  1
