# generated using pymatgen
data_Mn5Nb4FeGe2
_symmetry_space_group_name_H-M   'P 1'
_cell_length_a   4.89898345
_cell_length_b   4.90721426
_cell_length_c   8.01828300
_cell_angle_alpha   90.00000000
_cell_angle_beta   90.00000000
_cell_angle_gamma   120.05560190
_symmetry_Int_Tables_number   1
_chemical_formula_structural   Mn5Nb4FeGe2
_chemical_formula_sum   'Mn5 Nb4 Fe1 Ge2'
_cell_volume   166.84354337
_cell_formula_units_Z   1
loop_
 _symmetry_equiv_pos_site_id
 _symmetry_equiv_pos_as_xyz
  1  'x, y, z'
loop_
 _atom_site_type_symbol
 _atom_site_label
 _atom_site_symmetry_multiplicity
 _atom_site_fract_x
 _atom_site_fract_y
 _atom_site_fract_z
 _atom_site_occupancy
  Mn  Mn0  1  0.827460  0.174621  0.250000  1
  Mn  Mn1  1  0.827460  0.652839  0.250000  1
  Mn  Mn2  1  0.347194  0.173598  0.250000  1
  Mn  Mn3  1  0.174199  0.827631  0.750000  1
  Mn  Mn4  1  0.174199  0.346568  0.750000  1
  Nb  Nb5  1  0.331860  0.665931  0.435165  1
  Nb  Nb6  1  0.666272  0.333135  0.563919  1
  Nb  Nb7  1  0.666272  0.333135  0.936081  1
  Nb  Nb8  1  0.331860  0.665931  0.064835  1
  Fe  Fe9  1  0.655745  0.827873  0.750000  1
  Ge  Ge10  1  0.998738  0.999369  0.499757  1
  Ge  Ge11  1  0.998738  0.999369  0.000243  1
