# generated using pymatgen
data_Mn2Fe(BO3)2
_symmetry_space_group_name_H-M   'P 1'
_cell_length_a   4.67517000
_cell_length_b   5.68611700
_cell_length_c   8.88782500
_cell_angle_alpha   89.99991175
_cell_angle_beta   90.00023987
_cell_angle_gamma   90.00207032
_symmetry_Int_Tables_number   1
_chemical_formula_structural   Mn2Fe(BO3)2
_chemical_formula_sum   'Mn4 Fe2 B4 O12'
_cell_volume   236.27006121
_cell_formula_units_Z   2
loop_
 _symmetry_equiv_pos_site_id
 _symmetry_equiv_pos_as_xyz
  1  'x, y, z'
loop_
 _atom_site_type_symbol
 _atom_site_label
 _atom_site_symmetry_multiplicity
 _atom_site_fract_x
 _atom_site_fract_y
 _atom_site_fract_z
 _atom_site_occupancy
  Mn  Mn0  1  0.499960  0.999988  0.689053  1
  Mn  Mn1  1  0.999986  0.500097  0.189078  1
  Mn  Mn2  1  0.999993  0.500014  0.810977  1
  Mn  Mn3  1  0.500045  0.999934  0.310897  1
  Fe  Fe4  1  0.999967  0.999934  0.999976  1
  Fe  Fe5  1  0.500007  0.500043  0.500032  1
  B  B6  1  0.039270  0.247433  0.499995  1
  B  B7  1  0.460710  0.747426  0.999991  1
  B  B8  1  0.960735  0.752567  0.500010  1
  B  B9  1  0.539277  0.252575  0.000003  1
  O  O10  1  0.250340  0.308254  0.000001  1
  O  O11  1  0.750333  0.191717  0.499997  1
  O  O12  1  0.249668  0.808276  0.499976  1
  O  O13  1  0.749657  0.691747  0.000022  1
  O  O14  1  0.309245  0.788631  0.133092  1
  O  O15  1  0.809225  0.711369  0.366899  1
  O  O16  1  0.309263  0.788624  0.866886  1
  O  O17  1  0.690733  0.211377  0.866883  1
  O  O18  1  0.809261  0.711368  0.633116  1
  O  O19  1  0.190737  0.288620  0.633120  1
  O  O20  1  0.690799  0.211357  0.133097  1
  O  O21  1  0.190788  0.288646  0.366898  1
