# generated using pymatgen
data_Eu2CdIn3Rh2
_symmetry_space_group_name_H-M   'P 1'
_cell_length_a   5.66928652
_cell_length_b   5.66948286
_cell_length_c   8.33452569
_cell_angle_alpha   90.20259118
_cell_angle_beta   89.80139080
_cell_angle_gamma   135.66515390
_symmetry_Int_Tables_number   1
_chemical_formula_structural   Eu2CdIn3Rh2
_chemical_formula_sum   'Eu2 Cd1 In3 Rh2'
_cell_volume   187.21208118
_cell_formula_units_Z   1
loop_
 _symmetry_equiv_pos_site_id
 _symmetry_equiv_pos_as_xyz
  1  'x, y, z'
loop_
 _atom_site_type_symbol
 _atom_site_label
 _atom_site_symmetry_multiplicity
 _atom_site_fract_x
 _atom_site_fract_y
 _atom_site_fract_z
 _atom_site_occupancy
  Eu  Eu0  1  0.064059  0.935933  0.250092  1
  Eu  Eu1  1  0.936704  0.063289  0.747754  1
  Cd  Cd2  1  0.645750  0.354245  0.549798  1
  In  In3  1  0.347861  0.652137  0.451692  1
  In  In4  1  0.648716  0.351294  0.946605  1
  In  In5  1  0.352065  0.647943  0.051260  1
  Rh  Rh6  1  0.220762  0.779236  0.756320  1
  Rh  Rh7  1  0.784083  0.215924  0.246479  1
