# generated using pymatgen
data_Er4Al3FeB16
_symmetry_space_group_name_H-M   'P 1'
_cell_length_a   3.47650500
_cell_length_b   5.92442331
_cell_length_c   11.46316003
_cell_angle_alpha   90.26102446
_cell_angle_beta   90.00000000
_cell_angle_gamma   90.00000000
_symmetry_Int_Tables_number   1
_chemical_formula_structural   Er4Al3FeB16
_chemical_formula_sum   'Er4 Al3 Fe1 B16'
_cell_volume   236.09608675
_cell_formula_units_Z   1
loop_
 _symmetry_equiv_pos_site_id
 _symmetry_equiv_pos_as_xyz
  1  'x, y, z'
loop_
 _atom_site_type_symbol
 _atom_site_label
 _atom_site_symmetry_multiplicity
 _atom_site_fract_x
 _atom_site_fract_y
 _atom_site_fract_z
 _atom_site_occupancy
  Er  Er0  1  0.000000  0.628925  0.344405  1
  Er  Er1  1  0.000000  0.372391  0.652994  1
  Er  Er2  1  0.000000  0.124380  0.149703  1
  Er  Er3  1  0.000000  0.872340  0.853725  1
  Al  Al4  1  0.000000  0.367164  0.916480  1
  Al  Al5  1  0.000000  0.139094  0.406217  1
  Al  Al6  1  0.000000  0.862443  0.589621  1
  Fe  Fe7  1  0.000000  0.627745  0.082646  1
  B  B8  1  0.500000  0.783096  0.183062  1
  B  B9  1  0.500000  0.210507  0.813316  1
  B  B10  1  0.500000  0.292386  0.311778  1
  B  B11  1  0.500000  0.710712  0.688040  1
  B  B12  1  0.500000  0.862810  0.033620  1
  B  B13  1  0.500000  0.134042  0.969876  1
  B  B14  1  0.500000  0.367759  0.469209  1
  B  B15  1  0.500000  0.633543  0.531056  1
  B  B16  1  0.500000  0.885334  0.452750  1
  B  B17  1  0.500000  0.114377  0.547014  1
  B  B18  1  0.500000  0.389965  0.049653  1
  B  B19  1  0.500000  0.617047  0.956173  1
  B  B20  1  0.500000  0.970918  0.306206  1
  B  B21  1  0.500000  0.027077  0.693827  1
  B  B22  1  0.500000  0.480078  0.190532  1
  B  B23  1  0.500000  0.525867  0.808099  1
