# generated using pymatgen
data_CaLu(CuO2)4
_symmetry_space_group_name_H-M   'P 1'
_cell_length_a   6.25087563
_cell_length_b   6.25087653
_cell_length_c   6.25087528
_cell_angle_alpha   125.91352199
_cell_angle_beta   125.91351592
_cell_angle_gamma   80.03032355
_symmetry_Int_Tables_number   1
_chemical_formula_structural   CaLu(CuO2)4
_chemical_formula_sum   'Ca1 Lu1 Cu4 O8'
_cell_volume   154.67458614
_cell_formula_units_Z   1
loop_
 _symmetry_equiv_pos_site_id
 _symmetry_equiv_pos_as_xyz
  1  'x, y, z'
loop_
 _atom_site_type_symbol
 _atom_site_label
 _atom_site_symmetry_multiplicity
 _atom_site_fract_x
 _atom_site_fract_y
 _atom_site_fract_z
 _atom_site_occupancy
  Ca  Ca0  1  0.000000  0.000000  0.000000  1
  Lu  Lu1  1  0.750000  0.250000  0.500000  1
  Cu  Cu2  1  0.873071  0.630364  0.253560  1
  Cu  Cu3  1  0.376804  0.619512  0.746440  1
  Cu  Cu4  1  0.380488  0.126929  0.757293  1
  Cu  Cu5  1  0.369636  0.623196  0.242707  1
  O  O6  1  0.013791  0.958521  0.375300  1
  O  O7  1  0.041479  0.416778  0.055270  1
  O  O8  1  0.361509  0.986209  0.944730  1
  O  O9  1  0.156790  0.580874  0.844370  1
  O  O10  1  0.419126  0.263496  0.575916  1
  O  O11  1  0.687580  0.843210  0.424084  1
  O  O12  1  0.583222  0.638491  0.624700  1
  O  O13  1  0.736504  0.312420  0.155630  1
