# generated using pymatgen
data_Ba5Tm4OsO15
_symmetry_space_group_name_H-M   'P 1'
_cell_length_a   6.07461792
_cell_length_b   7.45023490
_cell_length_c   9.62989800
_cell_angle_alpha   105.04214029
_cell_angle_beta   71.60854134
_cell_angle_gamma   90.00108016
_symmetry_Int_Tables_number   1
_chemical_formula_structural   Ba5Tm4OsO15
_chemical_formula_sum   'Ba5 Tm4 Os1 O15'
_cell_volume   397.79548563
_cell_formula_units_Z   1
loop_
 _symmetry_equiv_pos_site_id
 _symmetry_equiv_pos_as_xyz
  1  'x, y, z'
loop_
 _atom_site_type_symbol
 _atom_site_label
 _atom_site_symmetry_multiplicity
 _atom_site_fract_x
 _atom_site_fract_y
 _atom_site_fract_z
 _atom_site_occupancy
  Ba  Ba0  1  0.600029  0.600011  0.799929  1
  Ba  Ba1  1  0.213088  0.209164  0.573850  1
  Ba  Ba2  1  0.986988  0.990754  0.026139  1
  Ba  Ba3  1  0.392475  0.408857  0.214930  1
  Ba  Ba4  1  0.807559  0.791158  0.385116  1
  Tm  Tm5  1  0.001264  0.499817  0.997590  1
  Tm  Tm6  1  0.198802  0.700162  0.602425  1
  Tm  Tm7  1  0.397644  0.895066  0.204797  1
  Tm  Tm8  1  0.802430  0.304940  0.395203  1
  Os  Os9  1  0.599871  0.100023  0.799920  1
  O  O10  1  0.100055  0.600219  0.800145  1
  O  O11  1  0.100035  0.099995  0.300071  1
  O  O12  1  0.600070  0.099971  0.299989  1
  O  O13  1  0.690585  0.178011  0.619001  1
  O  O14  1  0.509206  0.022033  0.981001  1
  O  O15  1  0.905721  0.385498  0.189527  1
  O  O16  1  0.294404  0.814508  0.410473  1
  O  O17  1  0.496749  0.505194  0.508683  1
  O  O18  1  0.703320  0.694790  0.091379  1
  O  O19  1  0.994156  0.505388  0.508947  1
  O  O20  1  0.205822  0.694612  0.091166  1
  O  O21  1  0.861441  0.922683  0.718662  1
  O  O22  1  0.338305  0.277160  0.881181  1
  O  O23  1  0.420742  0.922234  0.718195  1
  O  O24  1  0.779237  0.277750  0.881688  1
