# generated using pymatgen
data_PrDy(SeO3)3
_symmetry_space_group_name_H-M   'P 1'
_cell_length_a   7.08162742
_cell_length_b   8.04349361
_cell_length_c   9.27678568
_cell_angle_alpha   69.44847340
_cell_angle_beta   76.36795806
_cell_angle_gamma   64.57849033
_symmetry_Int_Tables_number   1
_chemical_formula_structural   PrDy(SeO3)3
_chemical_formula_sum   'Pr2 Dy2 Se6 O18'
_cell_volume   444.61489688
_cell_formula_units_Z   2
loop_
 _symmetry_equiv_pos_site_id
 _symmetry_equiv_pos_as_xyz
  1  'x, y, z'
loop_
 _atom_site_type_symbol
 _atom_site_label
 _atom_site_symmetry_multiplicity
 _atom_site_fract_x
 _atom_site_fract_y
 _atom_site_fract_z
 _atom_site_occupancy
  Pr  Pr0  1  0.630103  0.350477  0.321882  1
  Pr  Pr1  1  0.369897  0.649523  0.678118  1
  Dy  Dy2  1  0.233560  0.308801  0.125106  1
  Dy  Dy3  1  0.766440  0.691199  0.874894  1
  Se  Se4  1  0.451285  0.169443  0.753066  1
  Se  Se5  1  0.186116  0.758639  0.035115  1
  Se  Se6  1  0.858442  0.779770  0.500669  1
  Se  Se7  1  0.813884  0.241361  0.964885  1
  Se  Se8  1  0.548715  0.830557  0.246934  1
  Se  Se9  1  0.141558  0.220230  0.499331  1
  O  O10  1  0.677059  0.009919  0.837707  1
  O  O11  1  0.322941  0.990081  0.162293  1
  O  O12  1  0.628761  0.802716  0.627590  1
  O  O13  1  0.371239  0.197284  0.372410  1
  O  O14  1  0.393336  0.770371  0.896550  1
  O  O15  1  0.334387  0.328240  0.864920  1
  O  O16  1  0.908738  0.351753  0.050843  1
  O  O17  1  0.530351  0.330155  0.595750  1
  O  O18  1  0.712210  0.443803  0.816821  1
  O  O19  1  0.091262  0.648247  0.949157  1
  O  O20  1  0.162291  0.992754  0.586475  1
  O  O21  1  0.018789  0.684388  0.653017  1
  O  O22  1  0.606664  0.229629  0.103450  1
  O  O23  1  0.665613  0.671760  0.135080  1
  O  O24  1  0.469649  0.669845  0.404250  1
  O  O25  1  0.287790  0.556197  0.183179  1
  O  O26  1  0.837709  0.007246  0.413525  1
  O  O27  1  0.981211  0.315612  0.346983  1
