# generated using pymatgen
data_MgGaFeCl8
_symmetry_space_group_name_H-M   'P 1'
_cell_length_a   8.31034510
_cell_length_b   8.31034486
_cell_length_c   11.95839226
_cell_angle_alpha   87.38226531
_cell_angle_beta   87.38226735
_cell_angle_gamma   59.74693409
_symmetry_Int_Tables_number   1
_chemical_formula_structural   MgGaFeCl8
_chemical_formula_sum   'Mg2 Ga2 Fe2 Cl16'
_cell_volume   712.40203366
_cell_formula_units_Z   2
loop_
 _symmetry_equiv_pos_site_id
 _symmetry_equiv_pos_as_xyz
  1  'x, y, z'
loop_
 _atom_site_type_symbol
 _atom_site_label
 _atom_site_symmetry_multiplicity
 _atom_site_fract_x
 _atom_site_fract_y
 _atom_site_fract_z
 _atom_site_occupancy
  Mg  Mg0  1  0.998929  0.001071  0.750000  1
  Mg  Mg1  1  0.996956  0.003044  0.250000  1
  Ga  Ga2  1  0.324772  0.837330  0.945744  1
  Ga  Ga3  1  0.162670  0.675228  0.554256  1
  Fe  Fe4  1  0.838920  0.322744  0.446219  1
  Fe  Fe5  1  0.677256  0.161080  0.053781  1
  Cl  Cl6  1  0.835321  0.877845  0.138919  1
  Cl  Cl7  1  0.878843  0.835051  0.637243  1
  Cl  Cl8  1  0.692407  0.612396  0.397530  1
  Cl  Cl9  1  0.839081  0.285888  0.117149  1
  Cl  Cl10  1  0.854340  0.300570  0.633640  1
  Cl  Cl11  1  0.614156  0.691997  0.897886  1
  Cl  Cl12  1  0.714112  0.160919  0.382851  1
  Cl  Cl13  1  0.699430  0.145660  0.866360  1
  Cl  Cl14  1  0.300711  0.853784  0.132736  1
  Cl  Cl15  1  0.283765  0.840596  0.616001  1
  Cl  Cl16  1  0.387604  0.307593  0.102470  1
  Cl  Cl17  1  0.146216  0.699289  0.367264  1
  Cl  Cl18  1  0.159404  0.716235  0.883999  1
  Cl  Cl19  1  0.308003  0.385844  0.602114  1
  Cl  Cl20  1  0.122155  0.164679  0.361081  1
  Cl  Cl21  1  0.164949  0.121157  0.862757  1
