# generated using pymatgen
data_Pr2Lu3Pb4
_symmetry_space_group_name_H-M   'P 1'
_cell_length_a   8.22084700
_cell_length_b   8.31437800
_cell_length_c   15.62883100
_cell_angle_alpha   90.00000000
_cell_angle_beta   90.00000000
_cell_angle_gamma   90.00000000
_symmetry_Int_Tables_number   1
_chemical_formula_structural   Pr2Lu3Pb4
_chemical_formula_sum   'Pr8 Lu12 Pb16'
_cell_volume   1068.24981353
_cell_formula_units_Z   4
loop_
 _symmetry_equiv_pos_site_id
 _symmetry_equiv_pos_as_xyz
  1  'x, y, z'
loop_
 _atom_site_type_symbol
 _atom_site_label
 _atom_site_symmetry_multiplicity
 _atom_site_fract_x
 _atom_site_fract_y
 _atom_site_fract_z
 _atom_site_occupancy
  Pr  Pr0  1  0.472118  0.677535  0.597623  1
  Pr  Pr1  1  0.972118  0.822465  0.902377  1
  Pr  Pr2  1  0.527882  0.322465  0.097623  1
  Pr  Pr3  1  0.027882  0.177535  0.402377  1
  Pr  Pr4  1  0.527882  0.322465  0.402377  1
  Pr  Pr5  1  0.027882  0.177535  0.097623  1
  Pr  Pr6  1  0.472118  0.677535  0.902377  1
  Pr  Pr7  1  0.972118  0.822465  0.597623  1
  Lu  Lu8  1  0.632380  0.157975  0.622775  1
  Lu  Lu9  1  0.132380  0.342025  0.877225  1
  Lu  Lu10  1  0.367620  0.842025  0.122775  1
  Lu  Lu11  1  0.867620  0.657975  0.377225  1
  Lu  Lu12  1  0.367620  0.842025  0.377225  1
  Lu  Lu13  1  0.867620  0.657975  0.122775  1
  Lu  Lu14  1  0.632380  0.157975  0.877225  1
  Lu  Lu15  1  0.132380  0.342025  0.622775  1
  Lu  Lu16  1  0.799236  0.493243  0.750000  1
  Lu  Lu17  1  0.299236  0.006757  0.750000  1
  Lu  Lu18  1  0.200764  0.506757  0.250000  1
  Lu  Lu19  1  0.700764  0.993243  0.250000  1
  Pb  Pb20  1  0.706011  0.958994  0.456356  1
  Pb  Pb21  1  0.206011  0.541006  0.043644  1
  Pb  Pb22  1  0.293989  0.041006  0.956356  1
  Pb  Pb23  1  0.793989  0.458994  0.543644  1
  Pb  Pb24  1  0.293989  0.041006  0.543644  1
  Pb  Pb25  1  0.793989  0.458994  0.956356  1
  Pb  Pb26  1  0.706011  0.958994  0.043644  1
  Pb  Pb27  1  0.206011  0.541006  0.456356  1
  Pb  Pb28  1  0.436897  0.370264  0.750000  1
  Pb  Pb29  1  0.936897  0.129736  0.750000  1
  Pb  Pb30  1  0.563103  0.629736  0.250000  1
  Pb  Pb31  1  0.063103  0.870264  0.250000  1
  Pb  Pb32  1  0.661872  0.849554  0.750000  1
  Pb  Pb33  1  0.161872  0.650446  0.750000  1
  Pb  Pb34  1  0.338128  0.150446  0.250000  1
  Pb  Pb35  1  0.838128  0.349554  0.250000  1
