# generated using pymatgen
data_YHo5ScFeO12
_symmetry_space_group_name_H-M   'P 1'
_cell_length_a   6.54925968
_cell_length_b   6.54771328
_cell_length_c   6.54842604
_cell_angle_alpha   92.64406757
_cell_angle_beta   92.63258484
_cell_angle_gamma   92.65600119
_symmetry_Int_Tables_number   1
_chemical_formula_structural   YHo5ScFeO12
_chemical_formula_sum   'Y1 Ho5 Sc1 Fe1 O12'
_cell_volume   279.88841217
_cell_formula_units_Z   1
loop_
 _symmetry_equiv_pos_site_id
 _symmetry_equiv_pos_as_xyz
  1  'x, y, z'
loop_
 _atom_site_type_symbol
 _atom_site_label
 _atom_site_symmetry_multiplicity
 _atom_site_fract_x
 _atom_site_fract_y
 _atom_site_fract_z
 _atom_site_occupancy
  Y  Y0  1  0.743622  0.927563  0.436645  1
  Ho  Ho1  1  0.927601  0.436704  0.743896  1
  Ho  Ho2  1  0.436317  0.743562  0.927364  1
  Ho  Ho3  1  0.256281  0.072759  0.563611  1
  Ho  Ho4  1  0.072801  0.563166  0.256278  1
  Ho  Ho5  1  0.563273  0.256540  0.072303  1
  Sc  Sc6  1  0.000285  0.000104  0.999892  1
  Fe  Fe7  1  0.499706  0.499833  0.500148  1
  O  O8  1  0.589273  0.461125  0.801500  1
  O  O9  1  0.459658  0.800780  0.589837  1
  O  O10  1  0.801652  0.587518  0.461142  1
  O  O11  1  0.410778  0.538959  0.198542  1
  O  O12  1  0.537767  0.199541  0.410550  1
  O  O13  1  0.198474  0.410739  0.538815  1
  O  O14  1  0.070002  0.914135  0.307911  1
  O  O15  1  0.914143  0.308355  0.068909  1
  O  O16  1  0.691565  0.931443  0.084085  1
  O  O17  1  0.085717  0.691656  0.931302  1
  O  O18  1  0.932584  0.086795  0.693002  1
  O  O19  1  0.308502  0.068724  0.914270  1
