# generated using pymatgen
data_LiLa2Pr14Cd3Pt4
_symmetry_space_group_name_H-M   'P 1'
_cell_length_a   10.11826982
_cell_length_b   10.11827025
_cell_length_c   10.15722150
_cell_angle_alpha   60.08954642
_cell_angle_beta   60.08953769
_cell_angle_gamma   60.05102088
_symmetry_Int_Tables_number   1
_chemical_formula_structural   LiLa2Pr14Cd3Pt4
_chemical_formula_sum   'Li1 La2 Pr14 Cd3 Pt4'
_cell_volume   736.59124191
_cell_formula_units_Z   1
loop_
 _symmetry_equiv_pos_site_id
 _symmetry_equiv_pos_as_xyz
  1  'x, y, z'
loop_
 _atom_site_type_symbol
 _atom_site_label
 _atom_site_symmetry_multiplicity
 _atom_site_fract_x
 _atom_site_fract_y
 _atom_site_fract_z
 _atom_site_occupancy
  Li  Li0  1  0.571441  0.571441  0.570449  1
  La  La1  1  0.348789  0.348789  0.350008  1
  La  La2  1  0.348722  0.348722  0.953014  1
  Pr  Pr3  1  0.349716  0.948911  0.350690  1
  Pr  Pr4  1  0.948911  0.349716  0.350690  1
  Pr  Pr5  1  0.810629  0.192531  0.191895  1
  Pr  Pr6  1  0.188139  0.812342  0.811152  1
  Pr  Pr7  1  0.192531  0.810629  0.191895  1
  Pr  Pr8  1  0.812342  0.188139  0.811152  1
  Pr  Pr9  1  0.192365  0.192365  0.810257  1
  Pr  Pr10  1  0.811319  0.811319  0.187852  1
  Pr  Pr11  1  0.936530  0.565003  0.564844  1
  Pr  Pr12  1  0.562543  0.936115  0.935632  1
  Pr  Pr13  1  0.565003  0.936530  0.564844  1
  Pr  Pr14  1  0.936115  0.562543  0.935632  1
  Pr  Pr15  1  0.564696  0.564696  0.936591  1
  Pr  Pr16  1  0.936073  0.936073  0.562197  1
  Cd  Cd17  1  0.582282  0.582282  0.256975  1
  Cd  Cd18  1  0.582719  0.256592  0.581472  1
  Cd  Cd19  1  0.256592  0.582719  0.581472  1
  Pt  Pt20  1  0.144028  0.144028  0.143695  1
  Pt  Pt21  1  0.143695  0.143695  0.570696  1
  Pt  Pt22  1  0.143670  0.571149  0.143447  1
  Pt  Pt23  1  0.571149  0.143670  0.143447  1
