# generated using pymatgen
data_TbCeNb2F14
_symmetry_space_group_name_H-M   'P 1'
_cell_length_a   5.74273234
_cell_length_b   9.19608149
_cell_length_c   12.26711100
_cell_angle_alpha   62.24807149
_cell_angle_beta   90.03907030
_cell_angle_gamma   90.23920024
_symmetry_Int_Tables_number   1
_chemical_formula_structural   TbCeNb2F14
_chemical_formula_sum   'Tb2 Ce2 Nb4 F28'
_cell_volume   573.30927413
_cell_formula_units_Z   2
loop_
 _symmetry_equiv_pos_site_id
 _symmetry_equiv_pos_as_xyz
  1  'x, y, z'
loop_
 _atom_site_type_symbol
 _atom_site_label
 _atom_site_symmetry_multiplicity
 _atom_site_fract_x
 _atom_site_fract_y
 _atom_site_fract_z
 _atom_site_occupancy
  Tb  Tb0  1  0.757147  0.189026  0.232551  1
  Tb  Tb1  1  0.242853  0.810974  0.767449  1
  Ce  Ce2  1  0.255721  0.813568  0.267001  1
  Ce  Ce3  1  0.744279  0.186432  0.732999  1
  Nb  Nb4  1  0.753157  0.721692  0.042650  1
  Nb  Nb5  1  0.246843  0.278308  0.957350  1
  Nb  Nb6  1  0.254723  0.270228  0.453365  1
  Nb  Nb7  1  0.745277  0.729772  0.546635  1
  F  F8  1  0.946852  0.706586  0.419931  1
  F  F9  1  0.053148  0.293414  0.580069  1
  F  F10  1  0.456670  0.289985  0.086504  1
  F  F11  1  0.543330  0.710015  0.913496  1
  F  F12  1  0.470172  0.729227  0.138765  1
  F  F13  1  0.529828  0.270773  0.861235  1
  F  F14  1  0.969910  0.267149  0.354886  1
  F  F15  1  0.030090  0.732851  0.645114  1
  F  F16  1  0.952845  0.744211  0.171271  1
  F  F17  1  0.047155  0.255789  0.828729  1
  F  F18  1  0.459666  0.246808  0.326770  1
  F  F19  1  0.540334  0.753192  0.673230  1
  F  F20  1  0.767268  0.481068  0.138357  1
  F  F21  1  0.232732  0.518932  0.861643  1
  F  F22  1  0.266402  0.510834  0.359163  1
  F  F23  1  0.733598  0.489166  0.640837  1
  F  F24  1  0.951683  0.281720  0.051060  1
  F  F25  1  0.048317  0.718280  0.948940  1
  F  F26  1  0.450925  0.720203  0.455915  1
  F  F27  1  0.549075  0.279797  0.544085  1
  F  F28  1  0.739167  0.969855  0.446321  1
  F  F29  1  0.260833  0.030145  0.553679  1
  F  F30  1  0.240315  0.037270  0.049343  1
  F  F31  1  0.759685  0.962730  0.950657  1
  F  F32  1  0.587730  0.975306  0.231227  1
  F  F33  1  0.412270  0.024694  0.768773  1
  F  F34  1  0.073751  0.032376  0.268722  1
  F  F35  1  0.926249  0.967624  0.731278  1
