# generated using pymatgen
data_Ho2HfAlRh2
_symmetry_space_group_name_H-M   'P 1'
_cell_length_a   4.47493900
_cell_length_b   6.93204195
_cell_length_c   8.00508281
_cell_angle_alpha   87.58800793
_cell_angle_beta   90.00000000
_cell_angle_gamma   90.00000000
_symmetry_Int_Tables_number   1
_chemical_formula_structural   Ho2HfAlRh2
_chemical_formula_sum   'Ho4 Hf2 Al2 Rh4'
_cell_volume   248.10138821
_cell_formula_units_Z   2
loop_
 _symmetry_equiv_pos_site_id
 _symmetry_equiv_pos_as_xyz
  1  'x, y, z'
loop_
 _atom_site_type_symbol
 _atom_site_label
 _atom_site_symmetry_multiplicity
 _atom_site_fract_x
 _atom_site_fract_y
 _atom_site_fract_z
 _atom_site_occupancy
  Ho  Ho0  1  0.250000  0.529128  0.163840  1
  Ho  Ho1  1  0.750000  0.470872  0.836160  1
  Ho  Ho2  1  0.750000  0.976977  0.695465  1
  Ho  Ho3  1  0.250000  0.023023  0.304535  1
  Hf  Hf4  1  0.250000  0.636607  0.576023  1
  Hf  Hf5  1  0.750000  0.363393  0.423977  1
  Al  Al6  1  0.750000  0.850699  0.067532  1
  Al  Al7  1  0.250000  0.149301  0.932468  1
  Rh  Rh8  1  0.250000  0.779429  0.885707  1
  Rh  Rh9  1  0.750000  0.220571  0.114293  1
  Rh  Rh10  1  0.750000  0.739310  0.397011  1
  Rh  Rh11  1  0.250000  0.260690  0.602989  1
