# generated using pymatgen
data_Li2Lu3In4
_symmetry_space_group_name_H-M   'P 1'
_cell_length_a   7.16516267
_cell_length_b   7.30776519
_cell_length_c   4.67071400
_cell_angle_alpha   90.00000000
_cell_angle_beta   90.00000000
_cell_angle_gamma   120.66055661
_symmetry_Int_Tables_number   1
_chemical_formula_structural   Li2Lu3In4
_chemical_formula_sum   'Li2 Lu3 In4'
_cell_volume   210.37548826
_cell_formula_units_Z   1
loop_
 _symmetry_equiv_pos_site_id
 _symmetry_equiv_pos_as_xyz
  1  'x, y, z'
loop_
 _atom_site_type_symbol
 _atom_site_label
 _atom_site_symmetry_multiplicity
 _atom_site_fract_x
 _atom_site_fract_y
 _atom_site_fract_z
 _atom_site_occupancy
  Li  Li0  1  0.771275  0.767887  0.500000  1
  Li  Li1  1  0.228725  0.996611  0.500000  1
  Lu  Lu2  1  0.000000  0.552590  0.000000  1
  Lu  Lu3  1  0.440386  0.446894  0.000000  1
  Lu  Lu4  1  0.559614  0.006507  0.000000  1
  In  In5  1  0.000000  0.231249  0.500000  1
  In  In6  1  0.652946  0.337973  0.500000  1
  In  In7  1  0.000000  0.975262  0.000000  1
  In  In8  1  0.347054  0.685027  0.500000  1
