# generated using pymatgen
data_Tb7FeBr12
_symmetry_space_group_name_H-M   'P 1'
_cell_length_a   9.26072472
_cell_length_b   9.26072475
_cell_length_c   9.26072564
_cell_angle_alpha   106.99795912
_cell_angle_beta   106.99794985
_cell_angle_gamma   106.99795370
_symmetry_Int_Tables_number   1
_chemical_formula_structural   Tb7FeBr12
_chemical_formula_sum   'Tb7 Fe1 Br12'
_cell_volume   661.46201670
_cell_formula_units_Z   1
loop_
 _symmetry_equiv_pos_site_id
 _symmetry_equiv_pos_as_xyz
  1  'x, y, z'
loop_
 _atom_site_type_symbol
 _atom_site_label
 _atom_site_symmetry_multiplicity
 _atom_site_fract_x
 _atom_site_fract_y
 _atom_site_fract_z
 _atom_site_occupancy
  Tb  Tb0  1  0.000000  0.000000  0.000000  1
  Tb  Tb1  1  0.595446  0.518916  0.800850  1
  Tb  Tb2  1  0.518916  0.800850  0.595446  1
  Tb  Tb3  1  0.800850  0.595446  0.518916  1
  Tb  Tb4  1  0.404554  0.481084  0.199150  1
  Tb  Tb5  1  0.481084  0.199150  0.404554  1
  Tb  Tb6  1  0.199150  0.404554  0.481084  1
  Fe  Fe7  1  0.500000  0.500000  0.500000  1
  Br  Br8  1  0.569602  0.178989  0.721982  1
  Br  Br9  1  0.178989  0.721982  0.569602  1
  Br  Br10  1  0.721982  0.569602  0.178989  1
  Br  Br11  1  0.430398  0.821011  0.278018  1
  Br  Br12  1  0.821011  0.278018  0.430398  1
  Br  Br13  1  0.278018  0.430398  0.821011  1
  Br  Br14  1  0.666131  0.883764  0.960859  1
  Br  Br15  1  0.883764  0.960859  0.666131  1
  Br  Br16  1  0.960859  0.666131  0.883764  1
  Br  Br17  1  0.333869  0.116236  0.039141  1
  Br  Br18  1  0.116236  0.039141  0.333869  1
  Br  Br19  1  0.039141  0.333869  0.116236  1
