# generated using pymatgen
data_Nd6Al24Ru4Pt3Rh
_symmetry_space_group_name_H-M   'P 1'
_cell_length_a   8.93543115
_cell_length_b   8.89450744
_cell_length_c   9.67296159
_cell_angle_alpha   89.97460088
_cell_angle_beta   89.98551826
_cell_angle_gamma   119.63716951
_symmetry_Int_Tables_number   1
_chemical_formula_structural   Nd6Al24Ru4Pt3Rh
_chemical_formula_sum   'Nd6 Al24 Ru4 Pt3 Rh1'
_cell_volume   668.19566579
_cell_formula_units_Z   1
loop_
 _symmetry_equiv_pos_site_id
 _symmetry_equiv_pos_as_xyz
  1  'x, y, z'
loop_
 _atom_site_type_symbol
 _atom_site_label
 _atom_site_symmetry_multiplicity
 _atom_site_fract_x
 _atom_site_fract_y
 _atom_site_fract_z
 _atom_site_occupancy
  Nd  Nd0  1  0.188886  0.380410  0.250761  1
  Nd  Nd1  1  0.811114  0.619590  0.749239  1
  Nd  Nd2  1  0.620171  0.809263  0.248981  1
  Nd  Nd3  1  0.379829  0.190737  0.751019  1
  Nd  Nd4  1  0.187913  0.808719  0.249437  1
  Nd  Nd5  1  0.812087  0.191281  0.750563  1
  Al  Al6  1  0.327370  0.664130  0.026786  1
  Al  Al7  1  0.672630  0.335870  0.973214  1
  Al  Al8  1  0.670480  0.332054  0.526629  1
  Al  Al9  1  0.329520  0.667946  0.473371  1
  Al  Al10  1  0.158641  0.326866  0.574150  1
  Al  Al11  1  0.841359  0.673134  0.425850  1
  Al  Al12  1  0.674759  0.840374  0.572477  1
  Al  Al13  1  0.841864  0.673634  0.074785  1
  Al  Al14  1  0.325241  0.159626  0.427523  1
  Al  Al15  1  0.158136  0.326366  0.925215  1
  Al  Al16  1  0.162385  0.834782  0.576488  1
  Al  Al17  1  0.324251  0.162512  0.074659  1
  Al  Al18  1  0.837615  0.165218  0.423512  1
  Al  Al19  1  0.675749  0.837488  0.925341  1
  Al  Al20  1  0.841133  0.167862  0.077916  1
  Al  Al21  1  0.158867  0.832138  0.922084  1
  Al  Al22  1  0.563189  0.126500  0.252889  1
  Al  Al23  1  0.436811  0.873500  0.747111  1
  Al  Al24  1  0.875168  0.438120  0.250051  1
  Al  Al25  1  0.124832  0.561880  0.749949  1
  Al  Al26  1  0.565112  0.434646  0.249998  1
  Al  Al27  1  0.434888  0.565354  0.750002  1
  Al  Al28  1  0.995362  0.999148  0.250102  1
  Al  Al29  1  0.004638  0.000852  0.749898  1
  Ru  Ru30  1  0.000000  0.500000  0.000000  1
  Ru  Ru31  1  0.000000  0.500000  0.500000  1
  Ru  Ru32  1  0.000000  0.000000  0.000000  1
  Ru  Ru33  1  0.000000  0.000000  0.500000  1
  Pt  Pt34  1  0.500000  0.000000  0.000000  1
  Pt  Pt35  1  0.500000  0.500000  0.000000  1
  Pt  Pt36  1  0.500000  0.500000  0.500000  1
  Rh  Rh37  1  0.500000  0.000000  0.500000  1
