# generated using pymatgen
data_Nd6Cd4IrPd12
_symmetry_space_group_name_H-M   'P 1'
_cell_length_a   8.53534364
_cell_length_b   8.53534489
_cell_length_c   8.53534400
_cell_angle_alpha   109.47122090
_cell_angle_beta   109.47122385
_cell_angle_gamma   109.47121782
_symmetry_Int_Tables_number   1
_chemical_formula_structural   Nd6Cd4IrPd12
_chemical_formula_sum   'Nd6 Cd4 Ir1 Pd12'
_cell_volume   478.67552280
_cell_formula_units_Z   1
loop_
 _symmetry_equiv_pos_site_id
 _symmetry_equiv_pos_as_xyz
  1  'x, y, z'
loop_
 _atom_site_type_symbol
 _atom_site_label
 _atom_site_symmetry_multiplicity
 _atom_site_fract_x
 _atom_site_fract_y
 _atom_site_fract_z
 _atom_site_occupancy
  Nd  Nd0  1  0.296859  0.000000  0.296859  1
  Nd  Nd1  1  0.703141  0.000000  0.703141  1
  Nd  Nd2  1  0.296859  0.296859  0.000000  1
  Nd  Nd3  1  0.703141  0.703141  0.000000  1
  Nd  Nd4  1  0.000000  0.296859  0.296859  1
  Nd  Nd5  1  0.000000  0.703141  0.703141  1
  Cd  Cd6  1  0.500000  0.000000  0.000000  1
  Cd  Cd7  1  0.000000  0.000000  0.500000  1
  Cd  Cd8  1  0.000000  0.500000  0.000000  1
  Cd  Cd9  1  0.500000  0.500000  0.500000  1
  Ir  Ir10  1  0.000000  0.000000  0.000000  1
  Pd  Pd11  1  0.342449  0.000000  0.657551  1
  Pd  Pd12  1  0.657551  0.000000  0.342449  1
  Pd  Pd13  1  0.342449  0.684897  0.342449  1
  Pd  Pd14  1  0.657551  0.315103  0.657551  1
  Pd  Pd15  1  0.657551  0.342449  0.000000  1
  Pd  Pd16  1  0.342449  0.657551  0.000000  1
  Pd  Pd17  1  0.342449  0.342449  0.684897  1
  Pd  Pd18  1  0.657551  0.657551  0.315103  1
  Pd  Pd19  1  0.000000  0.657551  0.342449  1
  Pd  Pd20  1  0.000000  0.342449  0.657551  1
  Pd  Pd21  1  0.684897  0.342449  0.342449  1
  Pd  Pd22  1  0.315103  0.657551  0.657551  1
