# generated using pymatgen
data_BaSrTb2(Si4N7)2
_symmetry_space_group_name_H-M   'P 1'
_cell_length_a   6.09500600
_cell_length_b   6.09500597
_cell_length_c   9.92645200
_cell_angle_alpha   90.00000000
_cell_angle_beta   90.00000000
_cell_angle_gamma   120.00000015
_symmetry_Int_Tables_number   1
_chemical_formula_structural   BaSrTb2(Si4N7)2
_chemical_formula_sum   'Ba1 Sr1 Tb2 Si8 N14'
_cell_volume   319.35443435
_cell_formula_units_Z   1
loop_
 _symmetry_equiv_pos_site_id
 _symmetry_equiv_pos_as_xyz
  1  'x, y, z'
loop_
 _atom_site_type_symbol
 _atom_site_label
 _atom_site_symmetry_multiplicity
 _atom_site_fract_x
 _atom_site_fract_y
 _atom_site_fract_z
 _atom_site_occupancy
  Ba  Ba0  1  0.333333  0.666667  0.363757  1
  Sr  Sr1  1  0.666667  0.333333  0.866670  1
  Tb  Tb2  1  0.333333  0.666667  0.737112  1
  Tb  Tb3  1  0.666667  0.333333  0.235630  1
  Si  Si4  1  0.825606  0.651211  0.547018  1
  Si  Si5  1  0.173996  0.826004  0.044957  1
  Si  Si6  1  0.652006  0.826004  0.044957  1
  Si  Si7  1  0.348789  0.174394  0.547018  1
  Si  Si8  1  0.825606  0.174394  0.547018  1
  Si  Si9  1  0.173996  0.347994  0.044957  1
  Si  Si10  1  0.000000  0.000000  0.813880  1
  Si  Si11  1  0.000000  0.000000  0.315260  1
  N  N12  1  0.000000  0.000000  0.623857  1
  N  N13  1  0.000000  0.000000  0.123776  1
  N  N14  1  0.152231  0.304463  0.873488  1
  N  N15  1  0.847363  0.152637  0.374756  1
  N  N16  1  0.305274  0.152637  0.374756  1
  N  N17  1  0.695537  0.847769  0.873488  1
  N  N18  1  0.152231  0.847769  0.873488  1
  N  N19  1  0.847363  0.694726  0.374756  1
  N  N20  1  0.974109  0.487056  0.599858  1
  N  N21  1  0.488360  0.976717  0.095874  1
  N  N22  1  0.488360  0.511640  0.095874  1
  N  N23  1  0.512944  0.487056  0.599858  1
  N  N24  1  0.023283  0.511640  0.095874  1
  N  N25  1  0.512944  0.025891  0.599858  1
