# generated using pymatgen
data_Dy2Ho6CrOs3C8
_symmetry_space_group_name_H-M   'P 1'
_cell_length_a   5.08524700
_cell_length_b   6.47598474
_cell_length_c   9.73264142
_cell_angle_alpha   90.12106220
_cell_angle_beta   90.00000000
_cell_angle_gamma   90.00000000
_symmetry_Int_Tables_number   1
_chemical_formula_structural   Dy2Ho6CrOs3C8
_chemical_formula_sum   'Dy2 Ho6 Cr1 Os3 C8'
_cell_volume   320.51445642
_cell_formula_units_Z   1
loop_
 _symmetry_equiv_pos_site_id
 _symmetry_equiv_pos_as_xyz
  1  'x, y, z'
loop_
 _atom_site_type_symbol
 _atom_site_label
 _atom_site_symmetry_multiplicity
 _atom_site_fract_x
 _atom_site_fract_y
 _atom_site_fract_z
 _atom_site_occupancy
  Dy  Dy0  1  0.750000  0.471494  0.783524  1
  Dy  Dy1  1  0.750000  0.974221  0.715396  1
  Ho  Ho2  1  0.250000  0.682131  0.557282  1
  Ho  Ho3  1  0.750000  0.322249  0.445644  1
  Ho  Ho4  1  0.750000  0.819636  0.052749  1
  Ho  Ho5  1  0.250000  0.176291  0.945222  1
  Ho  Ho6  1  0.250000  0.529791  0.211570  1
  Ho  Ho7  1  0.250000  0.029684  0.287513  1
  Cr  Cr8  1  0.250000  0.725984  0.863401  1
  Os  Os9  1  0.750000  0.277188  0.134775  1
  Os  Os10  1  0.750000  0.778063  0.364412  1
  Os  Os11  1  0.250000  0.226184  0.637531  1
  C  C12  1  0.250000  0.464562  0.764495  1
  C  C13  1  0.750000  0.542784  0.240881  1
  C  C14  1  0.750000  0.042212  0.257977  1
  C  C15  1  0.250000  0.953438  0.743983  1
  C  C16  1  0.250000  0.814951  0.043586  1
  C  C17  1  0.750000  0.172629  0.948581  1
  C  C18  1  0.750000  0.673842  0.551583  1
  C  C19  1  0.250000  0.322667  0.449893  1
