# generated using pymatgen
data_Dy3Y3(B7Ru)2
_symmetry_space_group_name_H-M   'P 1'
_cell_length_a   8.07780205
_cell_length_b   8.07780318
_cell_length_c   9.34672102
_cell_angle_alpha   89.99188445
_cell_angle_beta   90.00811536
_cell_angle_gamma   154.81773149
_symmetry_Int_Tables_number   1
_chemical_formula_structural   Dy3Y3(B7Ru)2
_chemical_formula_sum   'Dy3 Y3 B14 Ru2'
_cell_volume   259.50429484
_cell_formula_units_Z   1
loop_
 _symmetry_equiv_pos_site_id
 _symmetry_equiv_pos_as_xyz
  1  'x, y, z'
loop_
 _atom_site_type_symbol
 _atom_site_label
 _atom_site_symmetry_multiplicity
 _atom_site_fract_x
 _atom_site_fract_y
 _atom_site_fract_z
 _atom_site_occupancy
  Dy  Dy0  1  0.105816  0.894184  0.439602  1
  Dy  Dy1  1  0.105791  0.894209  0.060411  1
  Dy  Dy2  1  0.894208  0.105792  0.939673  1
  Y  Y3  1  0.755971  0.244029  0.250009  1
  Y  Y4  1  0.244009  0.755991  0.750052  1
  Y  Y5  1  0.894098  0.105902  0.560588  1
  B  B6  1  0.542005  0.457995  0.249994  1
  B  B7  1  0.458025  0.541975  0.750106  1
  B  B8  1  0.521014  0.478986  0.903658  1
  B  B9  1  0.478973  0.521027  0.096349  1
  B  B10  1  0.479058  0.520942  0.403551  1
  B  B11  1  0.521086  0.478914  0.596311  1
  B  B12  1  0.631675  0.368325  0.849219  1
  B  B13  1  0.368328  0.631672  0.150772  1
  B  B14  1  0.727206  0.272794  0.966034  1
  B  B15  1  0.272790  0.727210  0.033974  1
  B  B16  1  0.272744  0.727256  0.465964  1
  B  B17  1  0.727156  0.272844  0.533958  1
  B  B18  1  0.631677  0.368323  0.650783  1
  B  B19  1  0.368308  0.631692  0.349088  1
  Ru  Ru20  1  0.945790  0.054210  0.249884  1
  Ru  Ru21  1  0.054271  0.945729  0.750022  1
