# generated using pymatgen
data_CeGd2Er2(SiB4)2
_symmetry_space_group_name_H-M   'P 1'
_cell_length_a   7.25194900
_cell_length_b   7.25194796
_cell_length_c   8.16474700
_cell_angle_alpha   90.00000000
_cell_angle_beta   90.00000000
_cell_angle_gamma   89.91581755
_symmetry_Int_Tables_number   1
_chemical_formula_structural   CeGd2Er2(SiB4)2
_chemical_formula_sum   'Ce2 Gd4 Er4 Si4 B16'
_cell_volume   429.38976030
_cell_formula_units_Z   2
loop_
 _symmetry_equiv_pos_site_id
 _symmetry_equiv_pos_as_xyz
  1  'x, y, z'
loop_
 _atom_site_type_symbol
 _atom_site_label
 _atom_site_symmetry_multiplicity
 _atom_site_fract_x
 _atom_site_fract_y
 _atom_site_fract_z
 _atom_site_occupancy
  Ce  Ce0  1  0.817768  0.682232  0.229868  1
  Ce  Ce1  1  0.817768  0.682232  0.770132  1
  Gd  Gd2  1  0.679975  0.180630  0.224867  1
  Gd  Gd3  1  0.319370  0.820025  0.775133  1
  Gd  Gd4  1  0.319370  0.820025  0.224867  1
  Gd  Gd5  1  0.679975  0.180630  0.775133  1
  Er  Er6  1  0.181597  0.318403  0.780723  1
  Er  Er7  1  0.181597  0.318403  0.219277  1
  Er  Er8  1  0.002403  0.002118  0.500000  1
  Er  Er9  1  0.497882  0.497597  0.500000  1
  Si  Si10  1  0.116463  0.612470  0.500000  1
  Si  Si11  1  0.887530  0.383537  0.500000  1
  Si  Si12  1  0.381150  0.118850  0.500000  1
  Si  Si13  1  0.612737  0.887263  0.500000  1
  B  B14  1  0.173146  0.041119  0.000000  1
  B  B15  1  0.829173  0.960988  0.000000  1
  B  B16  1  0.961939  0.173265  0.000000  1
  B  B17  1  0.326735  0.538061  0.000000  1
  B  B18  1  0.039389  0.828018  0.000000  1
  B  B19  1  0.671982  0.460611  0.000000  1
  B  B20  1  0.539012  0.670827  0.000000  1
  B  B21  1  0.458881  0.326854  0.000000  1
  B  B22  1  0.090594  0.589134  0.000000  1
  B  B23  1  0.910866  0.409406  0.000000  1
  B  B24  1  0.408997  0.091003  0.000000  1
  B  B25  1  0.591596  0.908404  0.000000  1
  B  B26  1  0.001192  0.000141  0.161014  1
  B  B27  1  0.001192  0.000141  0.838986  1
  B  B28  1  0.499859  0.498808  0.838986  1
  B  B29  1  0.499859  0.498808  0.161014  1
