# generated using pymatgen
data_Hf9CrCuRe3
_symmetry_space_group_name_H-M   'P 1'
_cell_length_a   8.61285100
_cell_length_b   8.61285145
_cell_length_c   8.40564400
_cell_angle_alpha   90.00000000
_cell_angle_beta   90.00000000
_cell_angle_gamma   120.00000210
_symmetry_Int_Tables_number   1
_chemical_formula_structural   Hf9CrCuRe3
_chemical_formula_sum   'Hf18 Cr2 Cu2 Re6'
_cell_volume   540.00217143
_cell_formula_units_Z   2
loop_
 _symmetry_equiv_pos_site_id
 _symmetry_equiv_pos_as_xyz
  1  'x, y, z'
loop_
 _atom_site_type_symbol
 _atom_site_label
 _atom_site_symmetry_multiplicity
 _atom_site_fract_x
 _atom_site_fract_y
 _atom_site_fract_z
 _atom_site_occupancy
  Hf  Hf0  1  0.194208  0.805792  0.446596  1
  Hf  Hf1  1  0.194208  0.388417  0.446596  1
  Hf  Hf2  1  0.611583  0.805792  0.446596  1
  Hf  Hf3  1  0.805792  0.194208  0.553404  1
  Hf  Hf4  1  0.805792  0.611583  0.553404  1
  Hf  Hf5  1  0.388417  0.194208  0.553404  1
  Hf  Hf6  1  0.805792  0.194208  0.946596  1
  Hf  Hf7  1  0.805792  0.611583  0.946596  1
  Hf  Hf8  1  0.388417  0.194208  0.946596  1
  Hf  Hf9  1  0.194208  0.805792  0.053404  1
  Hf  Hf10  1  0.194208  0.388417  0.053404  1
  Hf  Hf11  1  0.611583  0.805792  0.053404  1
  Hf  Hf12  1  0.541894  0.458106  0.250000  1
  Hf  Hf13  1  0.541894  0.083787  0.250000  1
  Hf  Hf14  1  0.916213  0.458106  0.250000  1
  Hf  Hf15  1  0.458106  0.541894  0.750000  1
  Hf  Hf16  1  0.458106  0.916213  0.750000  1
  Hf  Hf17  1  0.083787  0.541894  0.750000  1
  Cr  Cr18  1  0.000000  0.000000  0.500000  1
  Cr  Cr19  1  0.000000  0.000000  0.000000  1
  Cu  Cu20  1  0.333333  0.666667  0.250000  1
  Cu  Cu21  1  0.666667  0.333333  0.750000  1
  Re  Re22  1  0.891445  0.108555  0.250000  1
  Re  Re23  1  0.891445  0.782889  0.250000  1
  Re  Re24  1  0.217111  0.108555  0.250000  1
  Re  Re25  1  0.108555  0.891445  0.750000  1
  Re  Re26  1  0.108555  0.217111  0.750000  1
  Re  Re27  1  0.782889  0.891445  0.750000  1
