# generated using pymatgen
data_Yb6Zn18AsIr5
_symmetry_space_group_name_H-M   'P 1'
_cell_length_a   8.95619141
_cell_length_b   8.96620830
_cell_length_c   8.95632000
_cell_angle_alpha   59.96073834
_cell_angle_beta   60.03589218
_cell_angle_gamma   59.96321715
_symmetry_Int_Tables_number   1
_chemical_formula_structural   Yb6Zn18AsIr5
_chemical_formula_sum   'Yb6 Zn18 As1 Ir5'
_cell_volume   508.41047936
_cell_formula_units_Z   1
loop_
 _symmetry_equiv_pos_site_id
 _symmetry_equiv_pos_as_xyz
  1  'x, y, z'
loop_
 _atom_site_type_symbol
 _atom_site_label
 _atom_site_symmetry_multiplicity
 _atom_site_fract_x
 _atom_site_fract_y
 _atom_site_fract_z
 _atom_site_occupancy
  Yb  Yb0  1  0.715820  0.272641  0.284189  1
  Yb  Yb1  1  0.720639  0.279374  0.720621  1
  Yb  Yb2  1  0.715818  0.727360  0.284185  1
  Yb  Yb3  1  0.284180  0.727359  0.715811  1
  Yb  Yb4  1  0.279361  0.720626  0.279379  1
  Yb  Yb5  1  0.284182  0.272640  0.715815  1
  Zn  Zn6  1  0.623001  0.125827  0.125355  1
  Zn  Zn7  1  0.126173  0.627356  0.126164  1
  Zn  Zn8  1  0.125364  0.125822  0.622992  1
  Zn  Zn9  1  0.126173  0.120303  0.126166  1
  Zn  Zn10  1  0.376999  0.874173  0.874645  1
  Zn  Zn11  1  0.873827  0.372644  0.873836  1
  Zn  Zn12  1  0.874636  0.874178  0.377008  1
  Zn  Zn13  1  0.873827  0.879697  0.873834  1
  Zn  Zn14  1  0.000000  0.500000  0.000000  1
  Zn  Zn15  1  0.000000  0.000000  0.000000  1
  Zn  Zn16  1  0.999116  0.332833  0.335226  1
  Zn  Zn17  1  0.330877  0.006676  0.330871  1
  Zn  Zn18  1  0.335236  0.332830  0.999101  1
  Zn  Zn19  1  0.330875  0.331575  0.330872  1
  Zn  Zn20  1  0.000884  0.667167  0.664774  1
  Zn  Zn21  1  0.669123  0.993324  0.669129  1
  Zn  Zn22  1  0.664764  0.667170  0.000899  1
  Zn  Zn23  1  0.669125  0.668425  0.669128  1
  As  As24  1  0.500000  0.500000  0.500000  1
  Ir  Ir25  1  0.500000  0.000000  0.000000  1
  Ir  Ir26  1  0.500000  0.000000  0.500000  1
  Ir  Ir27  1  0.500000  0.500000  0.000000  1
  Ir  Ir28  1  0.000000  0.500000  0.500000  1
  Ir  Ir29  1  0.000000  0.000000  0.500000  1
