# generated using pymatgen
data_Pr4Al18RuPt4Rh
_symmetry_space_group_name_H-M   'P 1'
_cell_length_a   7.67117973
_cell_length_b   7.67118134
_cell_length_c   9.60514852
_cell_angle_alpha   89.89298392
_cell_angle_beta   89.89298619
_cell_angle_gamma   119.53835770
_symmetry_Int_Tables_number   1
_chemical_formula_structural   Pr4Al18RuPt4Rh
_chemical_formula_sum   'Pr4 Al18 Ru1 Pt4 Rh1'
_cell_volume   491.76504368
_cell_formula_units_Z   1
loop_
 _symmetry_equiv_pos_site_id
 _symmetry_equiv_pos_as_xyz
  1  'x, y, z'
loop_
 _atom_site_type_symbol
 _atom_site_label
 _atom_site_symmetry_multiplicity
 _atom_site_fract_x
 _atom_site_fract_y
 _atom_site_fract_z
 _atom_site_occupancy
  Pr  Pr0  1  0.994662  0.668070  0.749729  1
  Pr  Pr1  1  0.005338  0.331930  0.250271  1
  Pr  Pr2  1  0.668070  0.994662  0.749729  1
  Pr  Pr3  1  0.331930  0.005338  0.250271  1
  Al  Al4  1  0.127250  0.127250  0.748575  1
  Al  Al5  1  0.872750  0.872750  0.251425  1
  Al  Al6  1  0.001465  0.328198  0.573047  1
  Al  Al7  1  0.998535  0.671802  0.426953  1
  Al  Al8  1  0.998365  0.669411  0.074021  1
  Al  Al9  1  0.330589  0.001635  0.925979  1
  Al  Al10  1  0.001635  0.330589  0.925979  1
  Al  Al11  1  0.669411  0.998365  0.074021  1
  Al  Al12  1  0.671802  0.998535  0.426953  1
  Al  Al13  1  0.328198  0.001465  0.573047  1
  Al  Al14  1  0.331030  0.331030  0.049975  1
  Al  Al15  1  0.668970  0.668970  0.950025  1
  Al  Al16  1  0.671180  0.671180  0.549393  1
  Al  Al17  1  0.328820  0.328820  0.450607  1
  Al  Al18  1  0.340948  0.543525  0.750071  1
  Al  Al19  1  0.659052  0.456475  0.249929  1
  Al  Al20  1  0.543525  0.340948  0.750071  1
  Al  Al21  1  0.456475  0.659052  0.249929  1
  Ru  Ru22  1  0.000000  0.000000  0.500000  1
  Pt  Pt23  1  0.671076  0.328924  0.500000  1
  Pt  Pt24  1  0.328924  0.671076  0.500000  1
  Pt  Pt25  1  0.328780  0.671220  0.000000  1
  Pt  Pt26  1  0.671220  0.328780  0.000000  1
  Rh  Rh27  1  0.000000  0.000000  0.000000  1
