# generated using pymatgen
data_Nd20Si15As
_symmetry_space_group_name_H-M   'P 1'
_cell_length_a   7.87281592
_cell_length_b   7.86515254
_cell_length_c   15.24989350
_cell_angle_alpha   90.08561615
_cell_angle_beta   89.77622192
_cell_angle_gamma   90.05375292
_symmetry_Int_Tables_number   1
_chemical_formula_structural   Nd20Si15As
_chemical_formula_sum   'Nd20 Si15 As1'
_cell_volume   944.27843509
_cell_formula_units_Z   1
loop_
 _symmetry_equiv_pos_site_id
 _symmetry_equiv_pos_as_xyz
  1  'x, y, z'
loop_
 _atom_site_type_symbol
 _atom_site_label
 _atom_site_symmetry_multiplicity
 _atom_site_fract_x
 _atom_site_fract_y
 _atom_site_fract_z
 _atom_site_occupancy
  Nd  Nd0  1  0.373433  0.480163  0.374701  1
  Nd  Nd1  1  0.872915  0.020066  0.376185  1
  Nd  Nd2  1  0.979247  0.126884  0.123659  1
  Nd  Nd3  1  0.022286  0.872919  0.622885  1
  Nd  Nd4  1  0.626490  0.520097  0.873280  1
  Nd  Nd5  1  0.479877  0.371546  0.626453  1
  Nd  Nd6  1  0.520036  0.626820  0.126549  1
  Nd  Nd7  1  0.125812  0.979232  0.876703  1
  Nd  Nd8  1  0.988411  0.619458  0.053850  1
  Nd  Nd9  1  0.012477  0.379598  0.554418  1
  Nd  Nd10  1  0.619588  0.988507  0.945940  1
  Nd  Nd11  1  0.119395  0.511972  0.803499  1
  Nd  Nd12  1  0.876445  0.486988  0.302195  1
  Nd  Nd13  1  0.511565  0.119489  0.195935  1
  Nd  Nd14  1  0.489116  0.881450  0.696498  1
  Nd  Nd15  1  0.381117  0.011810  0.445886  1
  Nd  Nd16  1  0.687950  0.692893  0.500441  1
  Nd  Nd17  1  0.808955  0.191893  0.750241  1
  Nd  Nd18  1  0.192543  0.809758  0.248180  1
  Nd  Nd19  1  0.308251  0.308911  0.000648  1
  Si  Si20  1  0.920971  0.287615  0.939398  1
  Si  Si21  1  0.716035  0.079445  0.560254  1
  Si  Si22  1  0.212321  0.422493  0.190260  1
  Si  Si23  1  0.790033  0.577217  0.689108  1
  Si  Si24  1  0.420204  0.213026  0.810969  1
  Si  Si25  1  0.577342  0.786986  0.310907  1
  Si  Si26  1  0.287219  0.921987  0.060209  1
  Si  Si27  1  0.830618  0.806373  0.795715  1
  Si  Si28  1  0.169081  0.193781  0.297281  1
  Si  Si29  1  0.806439  0.830191  0.203125  1
  Si  Si30  1  0.315875  0.670204  0.551009  1
  Si  Si31  1  0.693714  0.330642  0.046756  1
  Si  Si32  1  0.670868  0.307041  0.453043  1
  Si  Si33  1  0.329968  0.693298  0.953510  1
  Si  Si34  1  0.192334  0.169450  0.703789  1
  As  As35  1  0.071078  0.709794  0.436521  1
