# generated using pymatgen
data_Hf3Fe8P6W
_symmetry_space_group_name_H-M   'P 1'
_cell_length_a   12.01268614
_cell_length_b   11.93315461
_cell_length_c   3.63875500
_cell_angle_alpha   90.00000000
_cell_angle_beta   90.00000000
_cell_angle_gamma   119.78124360
_symmetry_Int_Tables_number   1
_chemical_formula_structural   Hf3Fe8P6W
_chemical_formula_sum   'Hf6 Fe16 P12 W2'
_cell_volume   452.72237656
_cell_formula_units_Z   2
loop_
 _symmetry_equiv_pos_site_id
 _symmetry_equiv_pos_as_xyz
  1  'x, y, z'
loop_
 _atom_site_type_symbol
 _atom_site_label
 _atom_site_symmetry_multiplicity
 _atom_site_fract_x
 _atom_site_fract_y
 _atom_site_fract_z
 _atom_site_occupancy
  Hf  Hf0  1  0.809750  0.813170  0.500000  1
  Hf  Hf1  1  0.000000  0.176378  0.500000  1
  Hf  Hf2  1  0.338056  0.671375  0.000000  1
  Hf  Hf3  1  0.661944  0.333318  0.000000  1
  Hf  Hf4  1  0.000000  0.559155  0.000000  1
  Hf  Hf5  1  0.190250  0.003421  0.500000  1
  Fe  Fe6  1  0.626044  0.821638  0.000000  1
  Fe  Fe7  1  0.373956  0.195594  0.000000  1
  Fe  Fe8  1  0.000000  0.724743  0.500000  1
  Fe  Fe9  1  0.277870  0.279404  0.500000  1
  Fe  Fe10  1  0.874531  0.352743  0.500000  1
  Fe  Fe11  1  0.722130  0.001534  0.500000  1
  Fe  Fe12  1  0.816287  0.624798  0.000000  1
  Fe  Fe13  1  0.183713  0.808511  0.000000  1
  Fe  Fe14  1  0.361166  0.878171  0.500000  1
  Fe  Fe15  1  0.125469  0.478213  0.500000  1
  Fe  Fe16  1  0.638834  0.517004  0.500000  1
  Fe  Fe17  1  0.000000  0.998055  0.000000  1
  Fe  Fe18  1  0.515845  0.643791  0.500000  1
  Fe  Fe19  1  0.484155  0.127948  0.500000  1
  Fe  Fe20  1  0.198037  0.376289  0.000000  1
  Fe  Fe21  1  0.801963  0.178252  0.000000  1
  P  P22  1  0.000000  0.344175  0.000000  1
  P  P23  1  0.823387  0.519185  0.500000  1
  P  P24  1  0.684708  0.169057  0.500000  1
  P  P25  1  0.178971  0.176596  0.000000  1
  P  P26  1  0.642244  0.644459  0.000000  1
  P  P27  1  0.821029  0.997624  0.000000  1
  P  P28  1  0.521008  0.831531  0.500000  1
  P  P29  1  0.176613  0.695796  0.500000  1
  P  P30  1  0.357756  0.002215  0.000000  1
  P  P31  1  0.478992  0.310523  0.500000  1
  P  P32  1  0.000000  0.819856  0.000000  1
  P  P33  1  0.315292  0.484347  0.500000  1
  W  W34  1  0.440932  0.441029  0.000000  1
  W  W35  1  0.559068  0.000097  0.000000  1
