# generated using pymatgen
data_La4TmPb4
_symmetry_space_group_name_H-M   'P 1'
_cell_length_a   8.51120600
_cell_length_b   8.61155200
_cell_length_c   16.42920100
_cell_angle_alpha   90.00000000
_cell_angle_beta   90.00000000
_cell_angle_gamma   90.00000000
_symmetry_Int_Tables_number   1
_chemical_formula_structural   La4TmPb4
_chemical_formula_sum   'La16 Tm4 Pb16'
_cell_volume   1204.17324438
_cell_formula_units_Z   4
loop_
 _symmetry_equiv_pos_site_id
 _symmetry_equiv_pos_as_xyz
  1  'x, y, z'
loop_
 _atom_site_type_symbol
 _atom_site_label
 _atom_site_symmetry_multiplicity
 _atom_site_fract_x
 _atom_site_fract_y
 _atom_site_fract_z
 _atom_site_occupancy
  La  La0  1  0.879528  0.658978  0.117783  1
  La  La1  1  0.379528  0.841022  0.382217  1
  La  La2  1  0.620472  0.158978  0.882217  1
  La  La3  1  0.120472  0.341022  0.617783  1
  La  La4  1  0.120472  0.341022  0.882217  1
  La  La5  1  0.620472  0.158978  0.617783  1
  La  La6  1  0.379528  0.841022  0.117783  1
  La  La7  1  0.879528  0.658978  0.382217  1
  La  La8  1  0.028970  0.179511  0.100653  1
  La  La9  1  0.528970  0.320489  0.399347  1
  La  La10  1  0.471030  0.679511  0.899347  1
  La  La11  1  0.971030  0.820489  0.600653  1
  La  La12  1  0.971030  0.820489  0.899347  1
  La  La13  1  0.471030  0.679511  0.600653  1
  La  La14  1  0.528970  0.320489  0.100653  1
  La  La15  1  0.028970  0.179511  0.399347  1
  Tm  Tm16  1  0.711768  0.996866  0.250000  1
  Tm  Tm17  1  0.211768  0.503134  0.250000  1
  Tm  Tm18  1  0.788232  0.496866  0.750000  1
  Tm  Tm19  1  0.288232  0.003134  0.750000  1
  Pb  Pb20  1  0.073673  0.877828  0.250000  1
  Pb  Pb21  1  0.573673  0.622172  0.250000  1
  Pb  Pb22  1  0.426327  0.377828  0.750000  1
  Pb  Pb23  1  0.926327  0.122172  0.750000  1
  Pb  Pb24  1  0.837327  0.350808  0.250000  1
  Pb  Pb25  1  0.337327  0.149192  0.250000  1
  Pb  Pb26  1  0.662673  0.850808  0.750000  1
  Pb  Pb27  1  0.162673  0.649192  0.750000  1
  Pb  Pb28  1  0.779791  0.469080  0.954377  1
  Pb  Pb29  1  0.279791  0.030920  0.545623  1
  Pb  Pb30  1  0.720209  0.969080  0.045623  1
  Pb  Pb31  1  0.220209  0.530920  0.454377  1
  Pb  Pb32  1  0.220209  0.530920  0.045623  1
  Pb  Pb33  1  0.720209  0.969080  0.454377  1
  Pb  Pb34  1  0.279791  0.030920  0.954377  1
  Pb  Pb35  1  0.779791  0.469080  0.545623  1
