# generated using pymatgen
data_TbNdMnN3
_symmetry_space_group_name_H-M   'P 1'
_cell_length_a   3.52263742
_cell_length_b   3.67275423
_cell_length_c   6.81117840
_cell_angle_alpha   105.64583205
_cell_angle_beta   104.99536029
_cell_angle_gamma   89.98282301
_symmetry_Int_Tables_number   1
_chemical_formula_structural   TbNdMnN3
_chemical_formula_sum   'Tb1 Nd1 Mn1 N3'
_cell_volume   81.73775629
_cell_formula_units_Z   1
loop_
 _symmetry_equiv_pos_site_id
 _symmetry_equiv_pos_as_xyz
  1  'x, y, z'
loop_
 _atom_site_type_symbol
 _atom_site_label
 _atom_site_symmetry_multiplicity
 _atom_site_fract_x
 _atom_site_fract_y
 _atom_site_fract_z
 _atom_site_occupancy
  Tb  Tb0  1  0.649462  0.649427  0.298934  1
  Nd  Nd1  1  0.350824  0.350970  0.701779  1
  Mn  Mn2  1  0.001621  0.001581  0.003219  1
  N  N3  1  0.158623  0.158560  0.317283  1
  N  N4  1  0.837065  0.837094  0.674026  1
  N  N5  1  0.002404  0.502367  0.004759  1
