# generated using pymatgen
data_Ho4AlGa(B2Ru5)2
_symmetry_space_group_name_H-M   'P 1'
_cell_length_a   9.55510700
_cell_length_b   9.55510700
_cell_length_c   3.11022300
_cell_angle_alpha   90.00000000
_cell_angle_beta   90.00000000
_cell_angle_gamma   90.00000000
_symmetry_Int_Tables_number   1
_chemical_formula_structural   Ho4AlGa(B2Ru5)2
_chemical_formula_sum   'Ho4 Al1 Ga1 B4 Ru10'
_cell_volume   283.96357694
_cell_formula_units_Z   1
loop_
 _symmetry_equiv_pos_site_id
 _symmetry_equiv_pos_as_xyz
  1  'x, y, z'
loop_
 _atom_site_type_symbol
 _atom_site_label
 _atom_site_symmetry_multiplicity
 _atom_site_fract_x
 _atom_site_fract_y
 _atom_site_fract_z
 _atom_site_occupancy
  Ho  Ho0  1  0.674341  0.175522  0.000000  1
  Ho  Ho1  1  0.325659  0.824478  0.000000  1
  Ho  Ho2  1  0.175522  0.325659  0.000000  1
  Ho  Ho3  1  0.824478  0.674341  0.000000  1
  Al  Al4  1  0.500000  0.500000  0.000000  1
  Ga  Ga5  1  0.000000  0.000000  0.000000  1
  B  B6  1  0.123832  0.623530  0.000000  1
  B  B7  1  0.876168  0.376470  0.000000  1
  B  B8  1  0.623530  0.876168  0.000000  1
  B  B9  1  0.376470  0.123832  0.000000  1
  Ru  Ru10  1  0.216612  0.070424  0.500000  1
  Ru  Ru11  1  0.783388  0.929576  0.500000  1
  Ru  Ru12  1  0.070424  0.783388  0.500000  1
  Ru  Ru13  1  0.716022  0.429731  0.500000  1
  Ru  Ru14  1  0.929576  0.216612  0.500000  1
  Ru  Ru15  1  0.283978  0.570269  0.500000  1
  Ru  Ru16  1  0.570269  0.716022  0.500000  1
  Ru  Ru17  1  0.429731  0.283978  0.500000  1
  Ru  Ru18  1  0.500000  0.000000  0.500000  1
  Ru  Ru19  1  0.000000  0.500000  0.500000  1
