# generated using pymatgen
data_Pr3Dy2P12Ir7Ru12
_symmetry_space_group_name_H-M   'P 1'
_cell_length_a   12.64325408
_cell_length_b   12.61864536
_cell_length_c   4.00193900
_cell_angle_alpha   90.00000000
_cell_angle_beta   90.00000000
_cell_angle_gamma   119.61081176
_symmetry_Int_Tables_number   1
_chemical_formula_structural   Pr3Dy2P12Ir7Ru12
_chemical_formula_sum   'Pr3 Dy2 P12 Ir7 Ru12'
_cell_volume   555.08891370
_cell_formula_units_Z   1
loop_
 _symmetry_equiv_pos_site_id
 _symmetry_equiv_pos_as_xyz
  1  'x, y, z'
loop_
 _atom_site_type_symbol
 _atom_site_label
 _atom_site_symmetry_multiplicity
 _atom_site_fract_x
 _atom_site_fract_y
 _atom_site_fract_z
 _atom_site_occupancy
  Pr  Pr0  1  0.813301  0.001788  0.500000  1
  Pr  Pr1  1  0.186571  0.187775  0.500000  1
  Pr  Pr2  1  0.000438  0.813026  0.500000  1
  Dy  Dy3  1  0.665797  0.332607  0.000000  1
  Dy  Dy4  1  0.334089  0.667138  0.000000  1
  P  P5  1  0.628024  0.002595  0.000000  1
  P  P6  1  0.373653  0.374088  0.000000  1
  P  P7  1  0.005459  0.631167  0.000000  1
  P  P8  1  0.686648  0.516205  0.500000  1
  P  P9  1  0.824273  0.302589  0.500000  1
  P  P10  1  0.310966  0.827735  0.500000  1
  P  P11  1  0.517920  0.689012  0.500000  1
  P  P12  1  0.185077  0.000953  0.000000  1
  P  P13  1  0.814944  0.815079  0.000000  1
  P  P14  1  0.998224  0.187595  0.000000  1
  P  P15  1  0.481852  0.170496  0.500000  1
  P  P16  1  0.172883  0.483765  0.500000  1
  Ir  Ir17  1  0.620810  0.803495  0.000000  1
  Ir  Ir18  1  0.184240  0.381209  0.000000  1
  Ir  Ir19  1  0.378713  0.183012  0.000000  1
  Ir  Ir20  1  0.197906  0.818692  0.000000  1
  Ir  Ir21  1  0.805713  0.620098  0.000000  1
  Ir  Ir22  1  0.868173  0.503090  0.500000  1
  Ir  Ir23  1  0.999506  0.001063  0.000000  1
  Ru  Ru24  1  0.491055  0.362113  0.500000  1
  Ru  Ru25  1  0.634119  0.123572  0.500000  1
  Ru  Ru26  1  0.126534  0.637419  0.500000  1
  Ru  Ru27  1  0.364402  0.491411  0.500000  1
  Ru  Ru28  1  0.507869  0.870426  0.500000  1
  Ru  Ru29  1  0.713243  0.711408  0.500000  1
  Ru  Ru30  1  0.002084  0.290437  0.500000  1
  Ru  Ru31  1  0.446975  0.998863  0.000000  1
  Ru  Ru32  1  0.553225  0.551324  0.000000  1
  Ru  Ru33  1  0.999914  0.449593  0.000000  1
  Ru  Ru34  1  0.817648  0.199070  0.000000  1
  Ru  Ru35  1  0.287755  0.000090  0.500000  1
