# generated using pymatgen
data_Tb2Pr2YSn4
_symmetry_space_group_name_H-M   'P 1'
_cell_length_a   8.16913400
_cell_length_b   8.33574200
_cell_length_c   15.73957300
_cell_angle_alpha   90.00000000
_cell_angle_beta   90.00000000
_cell_angle_gamma   90.00000000
_symmetry_Int_Tables_number   1
_chemical_formula_structural   Tb2Pr2YSn4
_chemical_formula_sum   'Tb8 Pr8 Y4 Sn16'
_cell_volume   1071.79871101
_cell_formula_units_Z   4
loop_
 _symmetry_equiv_pos_site_id
 _symmetry_equiv_pos_as_xyz
  1  'x, y, z'
loop_
 _atom_site_type_symbol
 _atom_site_label
 _atom_site_symmetry_multiplicity
 _atom_site_fract_x
 _atom_site_fract_y
 _atom_site_fract_z
 _atom_site_occupancy
  Tb  Tb0  1  0.363283  0.836150  0.877772  1
  Tb  Tb1  1  0.863283  0.663850  0.622228  1
  Tb  Tb2  1  0.636717  0.163850  0.377772  1
  Tb  Tb3  1  0.136717  0.336150  0.122228  1
  Tb  Tb4  1  0.636717  0.163850  0.122228  1
  Tb  Tb5  1  0.136717  0.336150  0.377772  1
  Tb  Tb6  1  0.363283  0.836150  0.622228  1
  Tb  Tb7  1  0.863283  0.663850  0.877772  1
  Pr  Pr8  1  0.516181  0.321100  0.902739  1
  Pr  Pr9  1  0.016181  0.178900  0.597261  1
  Pr  Pr10  1  0.483819  0.678900  0.402739  1
  Pr  Pr11  1  0.983819  0.821100  0.097261  1
  Pr  Pr12  1  0.483819  0.678900  0.097261  1
  Pr  Pr13  1  0.983819  0.821100  0.402739  1
  Pr  Pr14  1  0.516181  0.321100  0.597261  1
  Pr  Pr15  1  0.016181  0.178900  0.902739  1
  Y  Y16  1  0.197752  0.502425  0.750000  1
  Y  Y17  1  0.697752  0.997575  0.750000  1
  Y  Y18  1  0.802248  0.497575  0.250000  1
  Y  Y19  1  0.302248  0.002425  0.250000  1
  Sn  Sn20  1  0.300695  0.040061  0.042223  1
  Sn  Sn21  1  0.800695  0.459939  0.457777  1
  Sn  Sn22  1  0.699305  0.959939  0.542223  1
  Sn  Sn23  1  0.199305  0.540061  0.957777  1
  Sn  Sn24  1  0.699305  0.959939  0.957777  1
  Sn  Sn25  1  0.199305  0.540061  0.542223  1
  Sn  Sn26  1  0.300695  0.040061  0.457777  1
  Sn  Sn27  1  0.800695  0.459939  0.042223  1
  Sn  Sn28  1  0.563191  0.623918  0.750000  1
  Sn  Sn29  1  0.063191  0.876082  0.750000  1
  Sn  Sn30  1  0.436809  0.376082  0.250000  1
  Sn  Sn31  1  0.936809  0.123918  0.250000  1
  Sn  Sn32  1  0.325268  0.141316  0.750000  1
  Sn  Sn33  1  0.825268  0.358684  0.750000  1
  Sn  Sn34  1  0.674732  0.858684  0.250000  1
  Sn  Sn35  1  0.174732  0.641316  0.250000  1
