# generated using pymatgen
data_Ce2YIn3Ir2Pt
_symmetry_space_group_name_H-M   'P 1'
_cell_length_a   7.65708303
_cell_length_b   7.65725772
_cell_length_c   3.99161600
_cell_angle_alpha   90.00000000
_cell_angle_beta   90.00000000
_cell_angle_gamma   121.27752863
_symmetry_Int_Tables_number   1
_chemical_formula_structural   Ce2YIn3Ir2Pt
_chemical_formula_sum   'Ce2 Y1 In3 Ir2 Pt1'
_cell_volume   200.02304509
_cell_formula_units_Z   1
loop_
 _symmetry_equiv_pos_site_id
 _symmetry_equiv_pos_as_xyz
  1  'x, y, z'
loop_
 _atom_site_type_symbol
 _atom_site_label
 _atom_site_symmetry_multiplicity
 _atom_site_fract_x
 _atom_site_fract_y
 _atom_site_fract_z
 _atom_site_occupancy
  Ce  Ce0  1  0.585415  0.999325  0.000000  1
  Ce  Ce1  1  0.999308  0.585392  0.000000  1
  Y  Y2  1  0.407844  0.407893  0.000000  1
  In  In3  1  0.009496  0.256401  0.500000  1
  In  In4  1  0.734240  0.734276  0.500000  1
  In  In5  1  0.256386  0.009453  0.500000  1
  Ir  Ir6  1  0.330378  0.683314  0.500000  1
  Ir  Ir7  1  0.683491  0.330531  0.500000  1
  Pt  Pt8  1  0.993442  0.993417  0.000000  1
