# generated using pymatgen
data_Tb9Y7(NiAg)4
_symmetry_space_group_name_H-M   'P 1'
_cell_length_a   9.50595615
_cell_length_b   9.50595603
_cell_length_c   9.48526600
_cell_angle_alpha   60.07197307
_cell_angle_beta   60.07197349
_cell_angle_gamma   60.25232698
_symmetry_Int_Tables_number   1
_chemical_formula_structural   Tb9Y7(NiAg)4
_chemical_formula_sum   'Tb9 Y7 Ni4 Ag4'
_cell_volume   607.88423084
_cell_formula_units_Z   1
loop_
 _symmetry_equiv_pos_site_id
 _symmetry_equiv_pos_as_xyz
  1  'x, y, z'
loop_
 _atom_site_type_symbol
 _atom_site_label
 _atom_site_symmetry_multiplicity
 _atom_site_fract_x
 _atom_site_fract_y
 _atom_site_fract_z
 _atom_site_occupancy
  Tb  Tb0  1  0.599756  0.599756  0.598022  1
  Tb  Tb1  1  0.599756  0.599756  0.202467  1
  Tb  Tb2  1  0.603669  0.195593  0.600368  1
  Tb  Tb3  1  0.195593  0.603669  0.600368  1
  Tb  Tb4  1  0.061208  0.438875  0.439291  1
  Tb  Tb5  1  0.438875  0.061208  0.060625  1
  Tb  Tb6  1  0.438875  0.061208  0.439291  1
  Tb  Tb7  1  0.061208  0.438875  0.060625  1
  Tb  Tb8  1  0.439059  0.439059  0.060941  1
  Y  Y9  1  0.061585  0.061585  0.438415  1
  Y  Y10  1  0.185233  0.814884  0.814200  1
  Y  Y11  1  0.814884  0.185233  0.185683  1
  Y  Y12  1  0.814884  0.185233  0.814200  1
  Y  Y13  1  0.185233  0.814884  0.185683  1
  Y  Y14  1  0.814445  0.814445  0.185555  1
  Y  Y15  1  0.186275  0.186275  0.813725  1
  Ni  Ni16  1  0.392682  0.392682  0.395505  1
  Ni  Ni17  1  0.392682  0.392682  0.819132  1
  Ni  Ni18  1  0.392458  0.821642  0.392951  1
  Ni  Ni19  1  0.821642  0.392458  0.392951  1
  Ag  Ag20  1  0.831537  0.831537  0.832146  1
  Ag  Ag21  1  0.831537  0.831537  0.504778  1
  Ag  Ag22  1  0.830458  0.506466  0.831537  1
  Ag  Ag23  1  0.506466  0.830458  0.831537  1
