# generated using pymatgen
data_CePrU(AlIr)3
_symmetry_space_group_name_H-M   'P 1'
_cell_length_a   7.06891316
_cell_length_b   7.19757843
_cell_length_c   4.06227600
_cell_angle_alpha   90.00000000
_cell_angle_beta   90.00000000
_cell_angle_gamma   119.85505938
_symmetry_Int_Tables_number   1
_chemical_formula_structural   CePrU(AlIr)3
_chemical_formula_sum   'Ce1 Pr1 U1 Al3 Ir3'
_cell_volume   179.25511429
_cell_formula_units_Z   1
loop_
 _symmetry_equiv_pos_site_id
 _symmetry_equiv_pos_as_xyz
  1  'x, y, z'
loop_
 _atom_site_type_symbol
 _atom_site_label
 _atom_site_symmetry_multiplicity
 _atom_site_fract_x
 _atom_site_fract_y
 _atom_site_fract_z
 _atom_site_occupancy
  Ce  Ce0  1  0.418922  0.419388  0.500000  1
  Pr  Pr1  1  0.581643  0.001830  0.500000  1
  U  U2  1  0.998904  0.579990  0.500000  1
  Al  Al3  1  0.765518  0.768896  0.000000  1
  Al  Al4  1  0.237340  0.996140  0.000000  1
  Al  Al5  1  0.999999  0.226736  0.000000  1
  Ir  Ir6  1  0.697709  0.378478  0.000000  1
  Ir  Ir7  1  0.288286  0.641766  0.000000  1
  Ir  Ir8  1  0.011678  0.986775  0.500000  1
