# generated using pymatgen
data_Yb2GaRu2
_symmetry_space_group_name_H-M   'P 1'
_cell_length_a   5.61390728
_cell_length_b   5.61390667
_cell_length_c   5.61390686
_cell_angle_alpha   135.24370537
_cell_angle_beta   124.45523777
_cell_angle_gamma   73.98611719
_symmetry_Int_Tables_number   1
_chemical_formula_structural   Yb2GaRu2
_chemical_formula_sum   'Yb2 Ga1 Ru2'
_cell_volume   100.27571837
_cell_formula_units_Z   1
loop_
 _symmetry_equiv_pos_site_id
 _symmetry_equiv_pos_as_xyz
  1  'x, y, z'
loop_
 _atom_site_type_symbol
 _atom_site_label
 _atom_site_symmetry_multiplicity
 _atom_site_fract_x
 _atom_site_fract_y
 _atom_site_fract_z
 _atom_site_occupancy
  Yb  Yb0  1  0.698489  0.198489  0.500000  1
  Yb  Yb1  1  0.301510  0.801511  0.500001  1
  Ga  Ga2  1  0.000000  0.000000  0.000000  1
  Ru  Ru3  1  0.733067  0.500000  0.233067  1
  Ru  Ru4  1  0.266932  0.500001  0.766933  1
