# generated using pymatgen
data_Pr10Si5Bi
_symmetry_space_group_name_H-M   'P 1'
_cell_length_a   7.93365087
_cell_length_b   7.93365133
_cell_length_c   9.13704607
_cell_angle_alpha   115.73106373
_cell_angle_beta   115.73106444
_cell_angle_gamma   89.99999852
_symmetry_Int_Tables_number   1
_chemical_formula_structural   Pr10Si5Bi
_chemical_formula_sum   'Pr10 Si5 Bi1'
_cell_volume   453.94905719
_cell_formula_units_Z   1
loop_
 _symmetry_equiv_pos_site_id
 _symmetry_equiv_pos_as_xyz
  1  'x, y, z'
loop_
 _atom_site_type_symbol
 _atom_site_label
 _atom_site_symmetry_multiplicity
 _atom_site_fract_x
 _atom_site_fract_y
 _atom_site_fract_z
 _atom_site_occupancy
  Pr  Pr0  1  0.501207  0.501207  0.002415  1
  Pr  Pr1  1  0.998793  0.998793  0.997585  1
  Pr  Pr2  1  0.974722  0.824698  0.283356  1
  Pr  Pr3  1  0.308634  0.458658  0.283356  1
  Pr  Pr4  1  0.824698  0.308634  0.283356  1
  Pr  Pr5  1  0.458658  0.974722  0.283356  1
  Pr  Pr6  1  0.041342  0.191366  0.716644  1
  Pr  Pr7  1  0.675302  0.525278  0.716644  1
  Pr  Pr8  1  0.191366  0.675302  0.716644  1
  Pr  Pr9  1  0.525278  0.041342  0.716644  1
  Si  Si10  1  0.250000  0.250000  0.500000  1
  Si  Si11  1  0.615677  0.884323  0.000000  1
  Si  Si12  1  0.384323  0.115677  0.000000  1
  Si  Si13  1  0.884323  0.384323  0.000000  1
  Si  Si14  1  0.115677  0.615677  0.000000  1
  Bi  Bi15  1  0.750000  0.750000  0.500000  1
