# generated using pymatgen
data_Sc7CoSn23Rh5
_symmetry_space_group_name_H-M   'P 1'
_cell_length_a   9.68432900
_cell_length_b   9.67387976
_cell_length_c   9.91732565
_cell_angle_alpha   89.95075242
_cell_angle_beta   90.00000000
_cell_angle_gamma   120.03574094
_symmetry_Int_Tables_number   1
_chemical_formula_structural   Sc7CoSn23Rh5
_chemical_formula_sum   'Sc7 Co1 Sn23 Rh5'
_cell_volume   804.33818770
_cell_formula_units_Z   1
loop_
 _symmetry_equiv_pos_site_id
 _symmetry_equiv_pos_as_xyz
  1  'x, y, z'
loop_
 _atom_site_type_symbol
 _atom_site_label
 _atom_site_symmetry_multiplicity
 _atom_site_fract_x
 _atom_site_fract_y
 _atom_site_fract_z
 _atom_site_occupancy
  Sc  Sc0  1  0.004140  0.008278  0.994998  1
  Sc  Sc1  1  0.033883  0.518179  0.309193  1
  Sc  Sc2  1  0.482201  0.964403  0.309287  1
  Sc  Sc3  1  0.484295  0.518179  0.309193  1
  Sc  Sc4  1  0.964280  0.482475  0.690105  1
  Sc  Sc5  1  0.516652  0.033305  0.690621  1
  Sc  Sc6  1  0.518195  0.482475  0.690105  1
  Co  Co7  1  0.829058  0.658117  0.201391  1
  Sn  Sn8  1  0.000680  0.001362  0.500059  1
  Sn  Sn9  1  0.113973  0.872655  0.277488  1
  Sn  Sn10  1  0.758681  0.872655  0.277488  1
  Sn  Sn11  1  0.123531  0.247063  0.282391  1
  Sn  Sn12  1  0.875794  0.121490  0.718114  1
  Sn  Sn13  1  0.245697  0.121490  0.718114  1
  Sn  Sn14  1  0.876345  0.752688  0.717900  1
  Sn  Sn15  1  0.350605  0.999409  0.000267  1
  Sn  Sn16  1  0.656387  0.651018  0.005975  1
  Sn  Sn17  1  0.999140  0.352778  0.000136  1
  Sn  Sn18  1  0.353637  0.352778  0.000136  1
  Sn  Sn19  1  0.994630  0.651018  0.005975  1
  Sn  Sn20  1  0.648804  0.999409  0.000267  1
  Sn  Sn21  1  0.778624  0.557247  0.452951  1
  Sn  Sn22  1  0.776022  0.224178  0.459231  1
  Sn  Sn23  1  0.448156  0.224178  0.459231  1
  Sn  Sn24  1  0.224358  0.448717  0.541363  1
  Sn  Sn25  1  0.223285  0.776811  0.540144  1
  Sn  Sn26  1  0.553525  0.776811  0.540144  1
  Sn  Sn27  1  0.669192  0.338382  0.176423  1
  Sn  Sn28  1  0.332818  0.665637  0.825643  1
  Sn  Sn29  1  0.666081  0.332161  0.861393  1
  Sn  Sn30  1  0.332893  0.665787  0.139481  1
  Rh  Rh31  1  0.167584  0.827355  0.800818  1
  Rh  Rh32  1  0.659771  0.827355  0.800818  1
  Rh  Rh33  1  0.168709  0.337418  0.800054  1
  Rh  Rh34  1  0.829551  0.168373  0.201551  1
  Rh  Rh35  1  0.338823  0.168373  0.201551  1
