# generated using pymatgen
data_H3Se2Br
_symmetry_space_group_name_H-M   'P 1'
_cell_length_a   5.17849152
_cell_length_b   5.03360623
_cell_length_c   6.31231788
_cell_angle_alpha   76.81556770
_cell_angle_beta   107.74814112
_cell_angle_gamma   113.79419556
_symmetry_Int_Tables_number   1
_chemical_formula_structural   H3Se2Br
_chemical_formula_sum   'H3 Se2 Br1'
_cell_volume   142.34199018
_cell_formula_units_Z   1
loop_
 _symmetry_equiv_pos_site_id
 _symmetry_equiv_pos_as_xyz
  1  'x, y, z'
loop_
 _atom_site_type_symbol
 _atom_site_label
 _atom_site_symmetry_multiplicity
 _atom_site_fract_x
 _atom_site_fract_y
 _atom_site_fract_z
 _atom_site_occupancy
  H  H0  1  0.390738  0.932253  0.855368  1
  H  H1  1  0.990744  0.533955  0.858711  1
  H  H2  1  0.551180  0.721852  0.432631  1
  Se  Se3  1  0.441064  0.490088  0.282490  1
  Se  Se4  1  0.174549  0.786965  0.006104  1
  Br  Br5  1  0.735605  0.179432  0.659353  1
