# generated using pymatgen
data_Ho16Cd4Co3Ru
_symmetry_space_group_name_H-M   'P 1'
_cell_length_a   9.52624677
_cell_length_b   9.46162573
_cell_length_c   9.46162600
_cell_angle_alpha   59.99999904
_cell_angle_beta   60.22414200
_cell_angle_gamma   60.22414353
_symmetry_Int_Tables_number   1
_chemical_formula_structural   Ho16Cd4Co3Ru
_chemical_formula_sum   'Ho16 Cd4 Co3 Ru1'
_cell_volume   605.06418044
_cell_formula_units_Z   1
loop_
 _symmetry_equiv_pos_site_id
 _symmetry_equiv_pos_as_xyz
  1  'x, y, z'
loop_
 _atom_site_type_symbol
 _atom_site_label
 _atom_site_symmetry_multiplicity
 _atom_site_fract_x
 _atom_site_fract_y
 _atom_site_fract_z
 _atom_site_occupancy
  Ho  Ho0  1  0.937266  0.937304  0.562715  1
  Ho  Ho1  1  0.815573  0.187850  0.187850  1
  Ho  Ho2  1  0.937266  0.562715  0.562715  1
  Ho  Ho3  1  0.937266  0.562715  0.937304  1
  Ho  Ho4  1  0.815573  0.808727  0.187850  1
  Ho  Ho5  1  0.342770  0.348854  0.348854  1
  Ho  Ho6  1  0.563032  0.938012  0.938012  1
  Ho  Ho7  1  0.563032  0.938012  0.560945  1
  Ho  Ho8  1  0.187818  0.812353  0.812353  1
  Ho  Ho9  1  0.187818  0.187477  0.812353  1
  Ho  Ho10  1  0.342770  0.348854  0.959523  1
  Ho  Ho11  1  0.342770  0.959523  0.348854  1
  Ho  Ho12  1  0.815573  0.187850  0.808727  1
  Ho  Ho13  1  0.563032  0.560945  0.938012  1
  Ho  Ho14  1  0.187818  0.812353  0.187477  1
  Ho  Ho15  1  0.962192  0.345936  0.345936  1
  Cd  Cd16  1  0.580402  0.580216  0.259167  1
  Cd  Cd17  1  0.259532  0.580156  0.580156  1
  Cd  Cd18  1  0.580402  0.580216  0.580216  1
  Cd  Cd19  1  0.580402  0.259167  0.580216  1
  Co  Co20  1  0.140180  0.141435  0.141435  1
  Co  Co21  1  0.140180  0.576951  0.141435  1
  Co  Co22  1  0.140180  0.141435  0.576951  1
  Ru  Ru23  1  0.577157  0.140948  0.140948  1
