# generated using pymatgen
data_Dy2Y3Ho3(CdPt)2
_symmetry_space_group_name_H-M   'P 1'
_cell_length_a   9.68768894
_cell_length_b   9.68768963
_cell_length_c   9.68769000
_cell_angle_alpha   60.00000557
_cell_angle_beta   60.00000322
_cell_angle_gamma   60.00000450
_symmetry_Int_Tables_number   1
_chemical_formula_structural   Dy2Y3Ho3(CdPt)2
_chemical_formula_sum   'Dy4 Y6 Ho6 Cd4 Pt4'
_cell_volume   642.90333927
_cell_formula_units_Z   2
loop_
 _symmetry_equiv_pos_site_id
 _symmetry_equiv_pos_as_xyz
  1  'x, y, z'
loop_
 _atom_site_type_symbol
 _atom_site_label
 _atom_site_symmetry_multiplicity
 _atom_site_fract_x
 _atom_site_fract_y
 _atom_site_fract_z
 _atom_site_occupancy
  Dy  Dy0  1  0.352321  0.352321  0.352321  1
  Dy  Dy1  1  0.352321  0.352321  0.943038  1
  Dy  Dy2  1  0.352321  0.943038  0.352321  1
  Dy  Dy3  1  0.943038  0.352321  0.352321  1
  Y  Y4  1  0.935876  0.564124  0.564124  1
  Y  Y5  1  0.564124  0.935876  0.935876  1
  Y  Y6  1  0.564124  0.935876  0.564124  1
  Y  Y7  1  0.935876  0.564124  0.935876  1
  Y  Y8  1  0.564124  0.564124  0.935876  1
  Y  Y9  1  0.935876  0.935876  0.564124  1
  Ho  Ho10  1  0.810690  0.189310  0.189310  1
  Ho  Ho11  1  0.189310  0.810690  0.810690  1
  Ho  Ho12  1  0.189310  0.810690  0.189310  1
  Ho  Ho13  1  0.810690  0.189310  0.810690  1
  Ho  Ho14  1  0.189310  0.189310  0.810690  1
  Ho  Ho15  1  0.810690  0.810690  0.189310  1
  Cd  Cd16  1  0.581803  0.581803  0.581803  1
  Cd  Cd17  1  0.581803  0.581803  0.254591  1
  Cd  Cd18  1  0.581803  0.254591  0.581803  1
  Cd  Cd19  1  0.254591  0.581803  0.581803  1
  Pt  Pt20  1  0.143231  0.143231  0.143231  1
  Pt  Pt21  1  0.143231  0.143231  0.570309  1
  Pt  Pt22  1  0.143231  0.570309  0.143231  1
  Pt  Pt23  1  0.570309  0.143231  0.143231  1
