# generated using pymatgen
data_Pr3Nd13Cd3InIrRu3
_symmetry_space_group_name_H-M   'P 1'
_cell_length_a   9.97249745
_cell_length_b   9.98535048
_cell_length_c   9.98829800
_cell_angle_alpha   59.82879255
_cell_angle_beta   59.76857917
_cell_angle_gamma   59.77756285
_symmetry_Int_Tables_number   1
_chemical_formula_structural   Pr3Nd13Cd3InIrRu3
_chemical_formula_sum   'Pr3 Nd13 Cd3 In1 Ir1 Ru3'
_cell_volume   699.97791072
_cell_formula_units_Z   1
loop_
 _symmetry_equiv_pos_site_id
 _symmetry_equiv_pos_as_xyz
  1  'x, y, z'
loop_
 _atom_site_type_symbol
 _atom_site_label
 _atom_site_symmetry_multiplicity
 _atom_site_fract_x
 _atom_site_fract_y
 _atom_site_fract_z
 _atom_site_occupancy
  Pr  Pr0  1  0.938852  0.561511  0.939250  1
  Pr  Pr1  1  0.560391  0.562624  0.939036  1
  Pr  Pr2  1  0.938543  0.939145  0.561534  1
  Nd  Nd3  1  0.345146  0.346959  0.347271  1
  Nd  Nd4  1  0.345393  0.347296  0.959832  1
  Nd  Nd5  1  0.345421  0.959738  0.347465  1
  Nd  Nd6  1  0.960789  0.346487  0.346569  1
  Nd  Nd7  1  0.811281  0.189799  0.190403  1
  Nd  Nd8  1  0.192075  0.809463  0.809238  1
  Nd  Nd9  1  0.190536  0.809844  0.189298  1
  Nd  Nd10  1  0.810915  0.191717  0.807199  1
  Nd  Nd11  1  0.190932  0.189055  0.809707  1
  Nd  Nd12  1  0.810689  0.807209  0.192050  1
  Nd  Nd13  1  0.939524  0.561238  0.560946  1
  Nd  Nd14  1  0.559886  0.939733  0.939439  1
  Nd  Nd15  1  0.560137  0.939551  0.561951  1
  Cd  Cd16  1  0.579075  0.579588  0.261677  1
  Cd  Cd17  1  0.579001  0.261252  0.579539  1
  Cd  Cd18  1  0.261874  0.578813  0.578851  1
  In  In19  1  0.579846  0.579273  0.578649  1
  Ir  Ir20  1  0.579468  0.139882  0.140390  1
  Ru  Ru21  1  0.140065  0.137261  0.137007  1
  Ru  Ru22  1  0.140328  0.138156  0.584376  1
  Ru  Ru23  1  0.139829  0.584404  0.138324  1
