# generated using pymatgen
data_Co8Si4Mo12C3N
_symmetry_space_group_name_H-M   'P 1'
_cell_length_a   7.83373430
_cell_length_b   7.83373392
_cell_length_c   7.82408598
_cell_angle_alpha   59.95920251
_cell_angle_beta   59.95920904
_cell_angle_gamma   60.00000165
_symmetry_Int_Tables_number   1
_chemical_formula_structural   Co8Si4Mo12C3N
_chemical_formula_sum   'Co8 Si4 Mo12 C3 N1'
_cell_volume   339.30340024
_cell_formula_units_Z   1
loop_
 _symmetry_equiv_pos_site_id
 _symmetry_equiv_pos_as_xyz
  1  'x, y, z'
loop_
 _atom_site_type_symbol
 _atom_site_label
 _atom_site_symmetry_multiplicity
 _atom_site_fract_x
 _atom_site_fract_y
 _atom_site_fract_z
 _atom_site_occupancy
  Co  Co0  1  0.244655  0.918382  0.918583  1
  Co  Co1  1  0.918382  0.244655  0.918583  1
  Co  Co2  1  0.918382  0.918382  0.918583  1
  Co  Co3  1  0.918437  0.918437  0.244691  1
  Co  Co4  1  0.005345  0.331618  0.331417  1
  Co  Co5  1  0.331563  0.331563  0.005309  1
  Co  Co6  1  0.331618  0.005345  0.331417  1
  Co  Co7  1  0.331618  0.331618  0.331417  1
  Si  Si8  1  0.625000  0.125000  0.125000  1
  Si  Si9  1  0.125000  0.125000  0.625000  1
  Si  Si10  1  0.125000  0.625000  0.125000  1
  Si  Si11  1  0.125000  0.125000  0.125000  1
  Mo  Mo12  1  0.694735  0.304517  0.696231  1
  Mo  Mo13  1  0.555342  0.555342  0.944497  1
  Mo  Mo14  1  0.555265  0.945483  0.553769  1
  Mo  Mo15  1  0.945483  0.945483  0.553769  1
  Mo  Mo16  1  0.945483  0.555265  0.553769  1
  Mo  Mo17  1  0.944820  0.555342  0.944497  1
  Mo  Mo18  1  0.694658  0.305180  0.305503  1
  Mo  Mo19  1  0.305180  0.694658  0.305503  1
  Mo  Mo20  1  0.304517  0.304517  0.696231  1
  Mo  Mo21  1  0.304517  0.694735  0.696231  1
  Mo  Mo22  1  0.694658  0.694658  0.305503  1
  Mo  Mo23  1  0.555342  0.944820  0.944497  1
  C  C24  1  0.625000  0.625000  0.625000  1
  C  C25  1  0.125000  0.625000  0.625000  1
  C  C26  1  0.625000  0.125000  0.625000  1
  N  N27  1  0.625000  0.625000  0.125000  1
