# generated using pymatgen
data_Ho16MgCd3OsPt3
_symmetry_space_group_name_H-M   'P 1'
_cell_length_a   9.69094104
_cell_length_b   9.69094139
_cell_length_c   9.69094124
_cell_angle_alpha   59.32709418
_cell_angle_beta   59.32709300
_cell_angle_gamma   59.32709211
_symmetry_Int_Tables_number   1
_chemical_formula_structural   Ho16MgCd3OsPt3
_chemical_formula_sum   'Ho16 Mg1 Cd3 Os1 Pt3'
_cell_volume   633.69188456
_cell_formula_units_Z   1
loop_
 _symmetry_equiv_pos_site_id
 _symmetry_equiv_pos_as_xyz
  1  'x, y, z'
loop_
 _atom_site_type_symbol
 _atom_site_label
 _atom_site_symmetry_multiplicity
 _atom_site_fract_x
 _atom_site_fract_y
 _atom_site_fract_z
 _atom_site_occupancy
  Ho  Ho0  1  0.602259  0.602259  0.602259  1
  Ho  Ho1  1  0.598537  0.598537  0.200631  1
  Ho  Ho2  1  0.598537  0.200631  0.598537  1
  Ho  Ho3  1  0.200631  0.598537  0.598537  1
  Ho  Ho4  1  0.063563  0.439579  0.439579  1
  Ho  Ho5  1  0.437988  0.060755  0.060755  1
  Ho  Ho6  1  0.439579  0.063563  0.439579  1
  Ho  Ho7  1  0.060755  0.437988  0.060755  1
  Ho  Ho8  1  0.439579  0.439579  0.063563  1
  Ho  Ho9  1  0.060755  0.060755  0.437988  1
  Ho  Ho10  1  0.185923  0.816222  0.816222  1
  Ho  Ho11  1  0.808703  0.187480  0.187480  1
  Ho  Ho12  1  0.816222  0.185923  0.816222  1
  Ho  Ho13  1  0.187480  0.808703  0.187480  1
  Ho  Ho14  1  0.816222  0.816222  0.185923  1
  Ho  Ho15  1  0.187480  0.187480  0.808703  1
  Mg  Mg16  1  0.825963  0.825963  0.825963  1
  Cd  Cd17  1  0.831606  0.831606  0.503600  1
  Cd  Cd18  1  0.831606  0.503600  0.831606  1
  Cd  Cd19  1  0.503600  0.831606  0.831606  1
  Os  Os20  1  0.392977  0.392977  0.392977  1
  Pt  Pt21  1  0.393877  0.393877  0.822281  1
  Pt  Pt22  1  0.393877  0.822281  0.393877  1
  Pt  Pt23  1  0.822281  0.393877  0.393877  1
