# generated using pymatgen
data_Li4YUS6
_symmetry_space_group_name_H-M   'P 1'
_cell_length_a   6.66479186
_cell_length_b   6.66479227
_cell_length_c   6.52664094
_cell_angle_alpha   99.99569295
_cell_angle_beta   99.99569790
_cell_angle_gamma   119.85257658
_symmetry_Int_Tables_number   1
_chemical_formula_structural   Li4YUS6
_chemical_formula_sum   'Li4 Y1 U1 S6'
_cell_volume   235.87604637
_cell_formula_units_Z   1
loop_
 _symmetry_equiv_pos_site_id
 _symmetry_equiv_pos_as_xyz
  1  'x, y, z'
loop_
 _atom_site_type_symbol
 _atom_site_label
 _atom_site_symmetry_multiplicity
 _atom_site_fract_x
 _atom_site_fract_y
 _atom_site_fract_z
 _atom_site_occupancy
  Li  Li0  1  0.499836  0.500165  0.000000  1
  Li  Li1  1  0.006376  0.993624  0.499998  1
  Li  Li2  1  0.666608  0.333393  0.500000  1
  Li  Li3  1  0.329616  0.670385  0.500000  1
  Y  Y4  1  0.833494  0.166507  0.000000  1
  U  U5  1  0.166726  0.833275  0.000000  1
  S  S6  1  0.926866  0.594273  0.243153  1
  S  S7  1  0.571936  0.918059  0.248301  1
  S  S8  1  0.247813  0.236901  0.251194  1
  S  S9  1  0.763099  0.752188  0.748807  1
  S  S10  1  0.081942  0.428065  0.751700  1
  S  S11  1  0.405729  0.073137  0.756848  1
