# generated using pymatgen
data_Zr2P2IrOs
_symmetry_space_group_name_H-M   'P 1'
_cell_length_a   3.88271700
_cell_length_b   6.54853900
_cell_length_c   7.37308500
_cell_angle_alpha   90.00000000
_cell_angle_beta   90.00000000
_cell_angle_gamma   90.00000000
_symmetry_Int_Tables_number   1
_chemical_formula_structural   Zr2P2IrOs
_chemical_formula_sum   'Zr4 P4 Ir2 Os2'
_cell_volume   187.46897126
_cell_formula_units_Z   2
loop_
 _symmetry_equiv_pos_site_id
 _symmetry_equiv_pos_as_xyz
  1  'x, y, z'
loop_
 _atom_site_type_symbol
 _atom_site_label
 _atom_site_symmetry_multiplicity
 _atom_site_fract_x
 _atom_site_fract_y
 _atom_site_fract_z
 _atom_site_occupancy
  Zr  Zr0  1  0.250000  0.020051  0.822599  1
  Zr  Zr1  1  0.250000  0.520051  0.677401  1
  Zr  Zr2  1  0.750000  0.976667  0.176561  1
  Zr  Zr3  1  0.750000  0.476667  0.323439  1
  P  P4  1  0.250000  0.768040  0.383974  1
  P  P5  1  0.250000  0.268040  0.116026  1
  P  P6  1  0.750000  0.226719  0.627729  1
  P  P7  1  0.750000  0.726719  0.872271  1
  Ir  Ir8  1  0.250000  0.153171  0.436880  1
  Ir  Ir9  1  0.250000  0.653171  0.063120  1
  Os  Os10  1  0.750000  0.855352  0.557630  1
  Os  Os11  1  0.750000  0.355352  0.942370  1
