# generated using pymatgen
data_Y2Mn2I
_symmetry_space_group_name_H-M   'P 1'
_cell_length_a   3.87209900
_cell_length_b   3.87209866
_cell_length_c   17.74651100
_cell_angle_alpha   90.00000000
_cell_angle_beta   90.00000000
_cell_angle_gamma   119.99999433
_symmetry_Int_Tables_number   1
_chemical_formula_structural   Y2Mn2I
_chemical_formula_sum   'Y4 Mn4 I2'
_cell_volume   230.42866652
_cell_formula_units_Z   2
loop_
 _symmetry_equiv_pos_site_id
 _symmetry_equiv_pos_as_xyz
  1  'x, y, z'
loop_
 _atom_site_type_symbol
 _atom_site_label
 _atom_site_symmetry_multiplicity
 _atom_site_fract_x
 _atom_site_fract_y
 _atom_site_fract_z
 _atom_site_occupancy
  Y  Y0  1  0.000000  0.000000  0.110154  1
  Y  Y1  1  0.000000  0.000000  0.889846  1
  Y  Y2  1  0.000000  0.000000  0.610154  1
  Y  Y3  1  0.000000  0.000000  0.389846  1
  Mn  Mn4  1  0.333333  0.666667  0.509066  1
  Mn  Mn5  1  0.666667  0.333333  0.490934  1
  Mn  Mn6  1  0.666667  0.333333  0.009066  1
  Mn  Mn7  1  0.333333  0.666667  0.990934  1
  I  I8  1  0.333333  0.666667  0.250000  1
  I  I9  1  0.666667  0.333333  0.750000  1
