# generated using pymatgen
data_Nb2V2Co2AuSe12
_symmetry_space_group_name_H-M   'P 1'
_cell_length_a   6.96793330
_cell_length_b   6.96793312
_cell_length_c   19.10783526
_cell_angle_alpha   72.54481200
_cell_angle_beta   72.54481315
_cell_angle_gamma   28.04412802
_symmetry_Int_Tables_number   1
_chemical_formula_structural   Nb2V2Co2AuSe12
_chemical_formula_sum   'Nb2 V2 Co2 Au1 Se12'
_cell_volume   414.80167058
_cell_formula_units_Z   1
loop_
 _symmetry_equiv_pos_site_id
 _symmetry_equiv_pos_as_xyz
  1  'x, y, z'
loop_
 _atom_site_type_symbol
 _atom_site_label
 _atom_site_symmetry_multiplicity
 _atom_site_fract_x
 _atom_site_fract_y
 _atom_site_fract_z
 _atom_site_occupancy
  Nb  Nb0  1  0.622194  0.622194  0.846093  1
  Nb  Nb1  1  0.377806  0.377806  0.153907  1
  V  V2  1  0.742163  0.742163  0.592267  1
  V  V3  1  0.257837  0.257837  0.407733  1
  Co  Co4  1  0.770812  0.770812  0.284614  1
  Co  Co5  1  0.229188  0.229188  0.715386  1
  Au  Au6  1  0.000000  0.000000  0.000000  1
  Se  Se7  1  0.859176  0.859176  0.457155  1
  Se  Se8  1  0.033757  0.033757  0.123087  1
  Se  Se9  1  0.810934  0.810934  0.763943  1
  Se  Se10  1  0.395508  0.395508  0.288259  1
  Se  Se11  1  0.191067  0.191067  0.924805  1
  Se  Se12  1  0.604492  0.604492  0.711741  1
  Se  Se13  1  0.140824  0.140824  0.542845  1
  Se  Se14  1  0.808933  0.808933  0.075195  1
  Se  Se15  1  0.367642  0.367642  0.607290  1
  Se  Se16  1  0.966243  0.966243  0.876913  1
  Se  Se17  1  0.189066  0.189066  0.236057  1
  Se  Se18  1  0.632358  0.632358  0.392710  1
