# generated using pymatgen
data_Tm4MgSc2AlPt4
_symmetry_space_group_name_H-M   'P 1'
_cell_length_a   4.43169300
_cell_length_b   7.01040564
_cell_length_c   8.20265022
_cell_angle_alpha   89.12513502
_cell_angle_beta   90.00000000
_cell_angle_gamma   90.00000000
_symmetry_Int_Tables_number   1
_chemical_formula_structural   Tm4MgSc2AlPt4
_chemical_formula_sum   'Tm4 Mg1 Sc2 Al1 Pt4'
_cell_volume   254.80994757
_cell_formula_units_Z   1
loop_
 _symmetry_equiv_pos_site_id
 _symmetry_equiv_pos_as_xyz
  1  'x, y, z'
loop_
 _atom_site_type_symbol
 _atom_site_label
 _atom_site_symmetry_multiplicity
 _atom_site_fract_x
 _atom_site_fract_y
 _atom_site_fract_z
 _atom_site_occupancy
  Tm  Tm0  1  0.250000  0.048054  0.675842  1
  Tm  Tm1  1  0.250000  0.515792  0.819445  1
  Tm  Tm2  1  0.750000  0.989643  0.338930  1
  Tm  Tm3  1  0.750000  0.457936  0.176394  1
  Mg  Mg4  1  0.250000  0.138880  0.069745  1
  Sc  Sc5  1  0.250000  0.639238  0.436164  1
  Sc  Sc6  1  0.750000  0.864429  0.934403  1
  Al  Al7  1  0.750000  0.365109  0.562397  1
  Pt  Pt8  1  0.250000  0.261540  0.388717  1
  Pt  Pt9  1  0.250000  0.737073  0.107723  1
  Pt  Pt10  1  0.750000  0.737237  0.617629  1
  Pt  Pt11  1  0.750000  0.245068  0.872614  1
