# generated using pymatgen
data_Pr8GePtBr12
_symmetry_space_group_name_H-M   'P 1'
_cell_length_a   4.22922200
_cell_length_b   13.94522112
_cell_length_c   14.79743508
_cell_angle_alpha   90.46459890
_cell_angle_beta   90.00000000
_cell_angle_gamma   90.00000000
_symmetry_Int_Tables_number   1
_chemical_formula_structural   Pr8GePtBr12
_chemical_formula_sum   'Pr8 Ge1 Pt1 Br12'
_cell_volume   872.68608880
_cell_formula_units_Z   1
loop_
 _symmetry_equiv_pos_site_id
 _symmetry_equiv_pos_as_xyz
  1  'x, y, z'
loop_
 _atom_site_type_symbol
 _atom_site_label
 _atom_site_symmetry_multiplicity
 _atom_site_fract_x
 _atom_site_fract_y
 _atom_site_fract_z
 _atom_site_occupancy
  Pr  Pr0  1  0.500000  0.120937  0.337810  1
  Pr  Pr1  1  0.500000  0.879063  0.662190  1
  Pr  Pr2  1  0.500000  0.619537  0.160799  1
  Pr  Pr3  1  0.500000  0.380463  0.839201  1
  Pr  Pr4  1  0.000000  0.116305  0.577495  1
  Pr  Pr5  1  0.000000  0.883695  0.422505  1
  Pr  Pr6  1  0.000000  0.620098  0.920545  1
  Pr  Pr7  1  0.000000  0.379902  0.079455  1
  Ge  Ge8  1  0.500000  0.500000  0.000000  1
  Pt  Pt9  1  0.500000  0.000000  0.500000  1
  Br  Br10  1  0.500000  0.244287  0.162305  1
  Br  Br11  1  0.500000  0.755713  0.837695  1
  Br  Br12  1  0.500000  0.741915  0.335983  1
  Br  Br13  1  0.500000  0.258085  0.664017  1
  Br  Br14  1  0.000000  0.254363  0.411004  1
  Br  Br15  1  0.000000  0.745637  0.588996  1
  Br  Br16  1  0.000000  0.752873  0.088786  1
  Br  Br17  1  0.000000  0.247127  0.911214  1
  Br  Br18  1  0.000000  0.002023  0.244062  1
  Br  Br19  1  0.000000  0.997977  0.755938  1
  Br  Br20  1  0.000000  0.501879  0.254104  1
  Br  Br21  1  0.000000  0.498121  0.745896  1
