# generated using pymatgen
data_GdHo2ThPt4
_symmetry_space_group_name_H-M   'P 1'
_cell_length_a   4.56370000
_cell_length_b   5.64200290
_cell_length_c   7.07944100
_cell_angle_alpha   90.39913383
_cell_angle_beta   90.00000000
_cell_angle_gamma   90.00000000
_symmetry_Int_Tables_number   1
_chemical_formula_structural   GdHo2ThPt4
_chemical_formula_sum   'Gd1 Ho2 Th1 Pt4'
_cell_volume   182.27991675
_cell_formula_units_Z   1
loop_
 _symmetry_equiv_pos_site_id
 _symmetry_equiv_pos_as_xyz
  1  'x, y, z'
loop_
 _atom_site_type_symbol
 _atom_site_label
 _atom_site_symmetry_multiplicity
 _atom_site_fract_x
 _atom_site_fract_y
 _atom_site_fract_z
 _atom_site_occupancy
  Gd  Gd0  1  0.750000  0.643613  0.314189  1
  Ho  Ho1  1  0.250000  0.140012  0.182220  1
  Ho  Ho2  1  0.750000  0.858346  0.821284  1
  Th  Th3  1  0.250000  0.358500  0.683121  1
  Pt  Pt4  1  0.250000  0.843768  0.547600  1
  Pt  Pt5  1  0.250000  0.659264  0.039669  1
  Pt  Pt6  1  0.750000  0.157408  0.454375  1
  Pt  Pt7  1  0.750000  0.339089  0.957542  1
