# generated using pymatgen
data_Er2Tm6Re(B8Ir)3
_symmetry_space_group_name_H-M   'P 1'
_cell_length_a   3.62814100
_cell_length_b   9.11509310
_cell_length_c   11.44852301
_cell_angle_alpha   90.14506329
_cell_angle_beta   90.00000000
_cell_angle_gamma   90.00000000
_symmetry_Int_Tables_number   1
_chemical_formula_structural   Er2Tm6Re(B8Ir)3
_chemical_formula_sum   'Er2 Tm6 Re1 B24 Ir3'
_cell_volume   378.61109349
_cell_formula_units_Z   1
loop_
 _symmetry_equiv_pos_site_id
 _symmetry_equiv_pos_as_xyz
  1  'x, y, z'
loop_
 _atom_site_type_symbol
 _atom_site_label
 _atom_site_symmetry_multiplicity
 _atom_site_fract_x
 _atom_site_fract_y
 _atom_site_fract_z
 _atom_site_occupancy
  Er  Er0  1  0.000000  0.320384  0.413775  1
  Er  Er1  1  0.000000  0.683691  0.590532  1
  Tm  Tm2  1  0.000000  0.820193  0.082448  1
  Tm  Tm3  1  0.000000  0.176191  0.912357  1
  Tm  Tm4  1  0.000000  0.943705  0.373241  1
  Tm  Tm5  1  0.000000  0.053731  0.626356  1
  Tm  Tm6  1  0.000000  0.443537  0.125932  1
  Tm  Tm7  1  0.000000  0.557391  0.875050  1
  Re  Re8  1  0.000000  0.862592  0.821438  1
  B  B9  1  0.500000  0.553684  0.434507  1
  B  B10  1  0.500000  0.447592  0.566365  1
  B  B11  1  0.500000  0.053355  0.065964  1
  B  B12  1  0.500000  0.946959  0.933715  1
  B  B13  1  0.500000  0.750580  0.420670  1
  B  B14  1  0.500000  0.250084  0.579034  1
  B  B15  1  0.500000  0.249309  0.078676  1
  B  B16  1  0.500000  0.751447  0.920249  1
  B  B17  1  0.500000  0.792626  0.264385  1
  B  B18  1  0.500000  0.207344  0.733954  1
  B  B19  1  0.500000  0.293299  0.235205  1
  B  B20  1  0.500000  0.707600  0.766021  1
  B  B21  1  0.500000  0.631146  0.183892  1
  B  B22  1  0.500000  0.368220  0.816196  1
  B  B23  1  0.500000  0.131788  0.315860  1
  B  B24  1  0.500000  0.869138  0.685216  1
  B  B25  1  0.500000  0.981056  0.212867  1
  B  B26  1  0.500000  0.018079  0.786655  1
  B  B27  1  0.500000  0.480890  0.287260  1
  B  B28  1  0.500000  0.518433  0.714087  1
  B  B29  1  0.500000  0.607341  0.030755  1
  B  B30  1  0.500000  0.390227  0.970428  1
  B  B31  1  0.500000  0.108366  0.469723  1
  B  B32  1  0.500000  0.892589  0.528406  1
  Ir  Ir33  1  0.000000  0.637462  0.322079  1
  Ir  Ir34  1  0.000000  0.362494  0.678369  1
  Ir  Ir35  1  0.000000  0.137476  0.178329  1
