# generated using pymatgen
data_HoZrCo4P3
_symmetry_space_group_name_H-M   'P 1'
_cell_length_a   12.27475861
_cell_length_b   12.27475821
_cell_length_c   3.71380000
_cell_angle_alpha   90.00000000
_cell_angle_beta   90.00000000
_cell_angle_gamma   119.98346201
_symmetry_Int_Tables_number   1
_chemical_formula_structural   HoZrCo4P3
_chemical_formula_sum   'Ho4 Zr4 Co16 P12'
_cell_volume   484.67140792
_cell_formula_units_Z   4
loop_
 _symmetry_equiv_pos_site_id
 _symmetry_equiv_pos_as_xyz
  1  'x, y, z'
loop_
 _atom_site_type_symbol
 _atom_site_label
 _atom_site_symmetry_multiplicity
 _atom_site_fract_x
 _atom_site_fract_y
 _atom_site_fract_z
 _atom_site_occupancy
  Ho  Ho0  1  0.819638  0.000313  0.500000  1
  Ho  Ho1  1  0.000313  0.819638  0.500000  1
  Ho  Ho2  1  0.333485  0.667034  0.000000  1
  Ho  Ho3  1  0.667034  0.333485  0.000000  1
  Zr  Zr4  1  0.183303  0.183303  0.500000  1
  Zr  Zr5  1  0.442216  0.000653  0.000000  1
  Zr  Zr6  1  0.000653  0.442216  0.000000  1
  Zr  Zr7  1  0.556265  0.556265  0.000000  1
  Co  Co8  1  0.277307  0.003124  0.500000  1
  Co  Co9  1  0.003124  0.277307  0.500000  1
  Co  Co10  1  0.721266  0.721266  0.500000  1
  Co  Co11  1  0.626970  0.804884  0.000000  1
  Co  Co12  1  0.194557  0.823581  0.000000  1
  Co  Co13  1  0.177495  0.369508  0.000000  1
  Co  Co14  1  0.369508  0.177495  0.000000  1
  Co  Co15  1  0.804884  0.626970  0.000000  1
  Co  Co16  1  0.823581  0.194557  0.000000  1
  Co  Co17  1  0.520420  0.875264  0.500000  1
  Co  Co18  1  0.125277  0.646057  0.500000  1
  Co  Co19  1  0.352017  0.475927  0.500000  1
  Co  Co20  1  0.475927  0.352017  0.500000  1
  Co  Co21  1  0.875264  0.520420  0.500000  1
  Co  Co22  1  0.646057  0.125277  0.500000  1
  Co  Co23  1  0.002147  0.002147  0.000000  1
  P  P24  1  0.177198  0.002376  0.000000  1
  P  P25  1  0.002376  0.177198  0.000000  1
  P  P26  1  0.823614  0.823614  0.000000  1
  P  P27  1  0.521085  0.693163  0.500000  1
  P  P28  1  0.306362  0.829340  0.500000  1
  P  P29  1  0.172135  0.478915  0.500000  1
  P  P30  1  0.478915  0.172135  0.500000  1
  P  P31  1  0.693163  0.521085  0.500000  1
  P  P32  1  0.829340  0.306362  0.500000  1
  P  P33  1  0.650414  0.999688  0.000000  1
  P  P34  1  0.999688  0.650414  0.000000  1
  P  P35  1  0.347002  0.347002  0.000000  1
