# generated using pymatgen
data_Tl2Os3RhPb2O13
_symmetry_space_group_name_H-M   'P 1'
_cell_length_a   7.33596044
_cell_length_b   7.37162514
_cell_length_c   7.37162538
_cell_angle_alpha   60.64611420
_cell_angle_beta   60.58657948
_cell_angle_gamma   60.58658809
_symmetry_Int_Tables_number   1
_chemical_formula_structural   Tl2Os3RhPb2O13
_chemical_formula_sum   'Tl2 Os3 Rh1 Pb2 O13'
_cell_volume   285.74309785
_cell_formula_units_Z   1
loop_
 _symmetry_equiv_pos_site_id
 _symmetry_equiv_pos_as_xyz
  1  'x, y, z'
loop_
 _atom_site_type_symbol
 _atom_site_label
 _atom_site_symmetry_multiplicity
 _atom_site_fract_x
 _atom_site_fract_y
 _atom_site_fract_z
 _atom_site_occupancy
  Tl  Tl0  1  0.993141  0.994469  0.994469  1
  Tl  Tl1  1  0.513564  0.995858  0.995858  1
  Os  Os2  1  0.999508  0.500476  0.500476  1
  Os  Os3  1  0.499749  0.500300  0.999839  1
  Os  Os4  1  0.499749  0.999839  0.500300  1
  Rh  Rh5  1  0.499744  0.500590  0.500590  1
  Pb  Pb6  1  0.998942  0.001740  0.499527  1
  Pb  Pb7  1  0.998942  0.499527  0.001740  1
  O  O8  1  0.833973  0.424367  0.424367  1
  O  O9  1  0.432143  0.812869  0.812869  1
  O  O10  1  0.425415  0.430533  0.830578  1
  O  O11  1  0.816401  0.814961  0.429933  1
  O  O12  1  0.816401  0.429933  0.814961  1
  O  O13  1  0.425415  0.830578  0.430533  1
  O  O14  1  0.166970  0.574991  0.574991  1
  O  O15  1  0.567847  0.187397  0.187397  1
  O  O16  1  0.574917  0.567083  0.170685  1
  O  O17  1  0.186072  0.187815  0.568389  1
  O  O18  1  0.186072  0.568389  0.187815  1
  O  O19  1  0.574917  0.170685  0.567083  1
  O  O20  1  0.115118  0.132598  0.132598  1
