# generated using pymatgen
data_Dy6Ho10In3HgRh4
_symmetry_space_group_name_H-M   'P 1'
_cell_length_a   9.60475794
_cell_length_b   9.60378355
_cell_length_c   9.60315317
_cell_angle_alpha   60.01839698
_cell_angle_beta   60.03231399
_cell_angle_gamma   60.06291100
_symmetry_Int_Tables_number   1
_chemical_formula_structural   Dy6Ho10In3HgRh4
_chemical_formula_sum   'Dy6 Ho10 In3 Hg1 Rh4'
_cell_volume   626.90276791
_cell_formula_units_Z   1
loop_
 _symmetry_equiv_pos_site_id
 _symmetry_equiv_pos_as_xyz
  1  'x, y, z'
loop_
 _atom_site_type_symbol
 _atom_site_label
 _atom_site_symmetry_multiplicity
 _atom_site_fract_x
 _atom_site_fract_y
 _atom_site_fract_z
 _atom_site_occupancy
  Dy  Dy0  1  0.188110  0.188270  0.811905  1
  Dy  Dy1  1  0.602091  0.601772  0.197955  1
  Dy  Dy2  1  0.439807  0.059370  0.439627  1
  Dy  Dy3  1  0.439504  0.439652  0.059386  1
  Dy  Dy4  1  0.813431  0.184207  0.813554  1
  Dy  Dy5  1  0.187725  0.812010  0.188208  1
  Ho  Ho6  1  0.436605  0.061025  0.060961  1
  Ho  Ho7  1  0.184682  0.812955  0.813176  1
  Ho  Ho8  1  0.061107  0.436632  0.061117  1
  Ho  Ho9  1  0.813331  0.813263  0.184549  1
  Ho  Ho10  1  0.197879  0.601960  0.601919  1
  Ho  Ho11  1  0.059027  0.440058  0.439688  1
  Ho  Ho12  1  0.061044  0.061121  0.436485  1
  Ho  Ho13  1  0.811965  0.188070  0.188438  1
  Ho  Ho14  1  0.602008  0.198182  0.601640  1
  Ho  Ho15  1  0.598550  0.598441  0.598463  1
  In  In16  1  0.832001  0.832181  0.503063  1
  In  In17  1  0.503334  0.832131  0.831706  1
  In  In18  1  0.832060  0.503400  0.831858  1
  Hg  Hg19  1  0.836256  0.835849  0.835872  1
  Rh  Rh20  1  0.391472  0.823080  0.392033  1
  Rh  Rh21  1  0.392957  0.393153  0.393857  1
  Rh  Rh22  1  0.823522  0.391411  0.391727  1
  Rh  Rh23  1  0.391534  0.391808  0.822814  1
