# generated using pymatgen
data_Nb6CSI9
_symmetry_space_group_name_H-M   'P 1'
_cell_length_a   10.78269554
_cell_length_b   10.91653321
_cell_length_c   12.24246096
_cell_angle_alpha   105.45919217
_cell_angle_beta   105.66984693
_cell_angle_gamma   113.42814495
_symmetry_Int_Tables_number   1
_chemical_formula_structural   Nb6CSI9
_chemical_formula_sum   'Nb12 C2 S2 I18'
_cell_volume   1153.44367160
_cell_formula_units_Z   2
loop_
 _symmetry_equiv_pos_site_id
 _symmetry_equiv_pos_as_xyz
  1  'x, y, z'
loop_
 _atom_site_type_symbol
 _atom_site_label
 _atom_site_symmetry_multiplicity
 _atom_site_fract_x
 _atom_site_fract_y
 _atom_site_fract_z
 _atom_site_occupancy
  Nb  Nb0  1  0.189715  0.118994  0.178069  1
  Nb  Nb1  1  0.810285  0.881006  0.821931  1
  Nb  Nb2  1  0.930930  0.811814  0.043861  1
  Nb  Nb3  1  0.069070  0.188186  0.956139  1
  Nb  Nb4  1  0.880206  0.066011  0.090242  1
  Nb  Nb5  1  0.119794  0.933989  0.909758  1
  Nb  Nb6  1  0.189583  0.118640  0.468235  1
  Nb  Nb7  1  0.810417  0.881360  0.531765  1
  Nb  Nb8  1  0.880390  0.066205  0.383975  1
  Nb  Nb9  1  0.119610  0.933795  0.616025  1
  Nb  Nb10  1  0.930689  0.812090  0.334025  1
  Nb  Nb11  1  0.069311  0.187910  0.665975  1
  C  C12  1  0.000000  0.000000  0.500000  1
  C  C13  1  0.000000  0.000000  0.000000  1
  S  S14  1  0.998683  0.000095  0.249641  1
  S  S15  1  0.001317  0.999905  0.750359  1
  I  I16  1  0.631121  0.763074  0.947702  1
  I  I17  1  0.368879  0.236926  0.052298  1
  I  I18  1  0.553855  0.724480  0.578487  1
  I  I19  1  0.446145  0.275520  0.421513  1
  I  I20  1  0.136909  0.364662  0.527494  1
  I  I21  1  0.863091  0.635338  0.472506  1
  I  I22  1  0.837861  0.559359  0.106862  1
  I  I23  1  0.162139  0.440641  0.893138  1
  I  I24  1  0.233046  0.867774  0.116794  1
  I  I25  1  0.766954  0.132226  0.883206  1
  I  I26  1  0.717134  0.156018  0.219823  1
  I  I27  1  0.282866  0.843982  0.780177  1
  I  I28  1  0.136970  0.364943  0.210921  1
  I  I29  1  0.863030  0.635057  0.789079  1
  I  I30  1  0.233367  0.867173  0.431828  1
  I  I31  1  0.766633  0.132827  0.568172  1
  I  I32  1  0.629861  0.763354  0.264775  1
  I  I33  1  0.370139  0.236646  0.735225  1
