# generated using pymatgen
data_CaYb2Eu7Si6
_symmetry_space_group_name_H-M   'P 1'
_cell_length_a   9.26540251
_cell_length_b   9.26540285
_cell_length_c   9.26470837
_cell_angle_alpha   130.71208240
_cell_angle_beta   130.71208555
_cell_angle_gamma   72.21920496
_symmetry_Int_Tables_number   1
_chemical_formula_structural   CaYb2Eu7Si6
_chemical_formula_sum   'Ca1 Yb2 Eu7 Si6'
_cell_volume   446.88879903
_cell_formula_units_Z   1
loop_
 _symmetry_equiv_pos_site_id
 _symmetry_equiv_pos_as_xyz
  1  'x, y, z'
loop_
 _atom_site_type_symbol
 _atom_site_label
 _atom_site_symmetry_multiplicity
 _atom_site_fract_x
 _atom_site_fract_y
 _atom_site_fract_z
 _atom_site_occupancy
  Ca  Ca0  1  0.535949  0.035949  0.855823  1
  Yb  Yb1  1  0.499010  0.498354  0.000163  1
  Yb  Yb2  1  0.998354  0.999010  0.000163  1
  Eu  Eu3  1  0.177993  0.677993  0.143990  1
  Eu  Eu4  1  0.033974  0.177545  0.499410  1
  Eu  Eu5  1  0.677545  0.533974  0.499410  1
  Eu  Eu6  1  0.466105  0.966105  0.144444  1
  Eu  Eu7  1  0.821296  0.321296  0.854837  1
  Eu  Eu8  1  0.965443  0.822177  0.499743  1
  Eu  Eu9  1  0.322177  0.465443  0.499743  1
  Si  Si10  1  0.889988  0.389988  0.277865  1
  Si  Si11  1  0.111211  0.611211  0.723127  1
  Si  Si12  1  0.387826  0.111078  0.500497  1
  Si  Si13  1  0.611078  0.887826  0.500497  1
  Si  Si14  1  0.253582  0.248471  0.000144  1
  Si  Si15  1  0.748471  0.753582  0.000144  1
