# generated using pymatgen
data_Ho16Tm4Si15Hg
_symmetry_space_group_name_H-M   'P 1'
_cell_length_a   7.39625349
_cell_length_b   7.66866764
_cell_length_c   14.58961311
_cell_angle_alpha   89.95749846
_cell_angle_beta   89.25069841
_cell_angle_gamma   90.11359006
_symmetry_Int_Tables_number   1
_chemical_formula_structural   Ho16Tm4Si15Hg
_chemical_formula_sum   'Ho16 Tm4 Si15 Hg1'
_cell_volume   827.44161166
_cell_formula_units_Z   1
loop_
 _symmetry_equiv_pos_site_id
 _symmetry_equiv_pos_as_xyz
  1  'x, y, z'
loop_
 _atom_site_type_symbol
 _atom_site_label
 _atom_site_symmetry_multiplicity
 _atom_site_fract_x
 _atom_site_fract_y
 _atom_site_fract_z
 _atom_site_occupancy
  Ho  Ho0  1  0.977975  0.823501  0.102152  1
  Ho  Ho1  1  0.472056  0.684122  0.401208  1
  Ho  Ho2  1  0.517139  0.312207  0.898831  1
  Ho  Ho3  1  0.029818  0.182041  0.598021  1
  Ho  Ho4  1  0.026557  0.176101  0.899878  1
  Ho  Ho5  1  0.529282  0.316162  0.598183  1
  Ho  Ho6  1  0.476421  0.682706  0.101265  1
  Ho  Ho7  1  0.970421  0.816593  0.400466  1
  Ho  Ho8  1  0.671943  0.830191  0.873502  1
  Ho  Ho9  1  0.182136  0.679701  0.621453  1
  Ho  Ho10  1  0.823269  0.320263  0.126754  1
  Ho  Ho11  1  0.318931  0.178341  0.377735  1
  Ho  Ho12  1  0.324261  0.176922  0.124564  1
  Ho  Ho13  1  0.819776  0.321271  0.377485  1
  Ho  Ho14  1  0.180875  0.675400  0.876799  1
  Ho  Ho15  1  0.681897  0.822277  0.621711  1
  Tm  Tm16  1  0.650154  0.990686  0.250370  1
  Tm  Tm17  1  0.152696  0.510891  0.248624  1
  Tm  Tm18  1  0.847956  0.489780  0.747823  1
  Tm  Tm19  1  0.347346  0.011356  0.749322  1
  Si  Si20  1  0.769652  0.630666  0.252258  1
  Si  Si21  1  0.269604  0.871034  0.252060  1
  Si  Si22  1  0.732332  0.128718  0.747680  1
  Si  Si23  1  0.228544  0.371188  0.747351  1
  Si  Si24  1  0.022617  0.103692  0.252192  1
  Si  Si25  1  0.523126  0.395293  0.252621  1
  Si  Si26  1  0.476896  0.604362  0.747439  1
  Si  Si27  1  0.977486  0.892269  0.747479  1
  Si  Si28  1  0.354389  0.971927  0.540827  1
  Si  Si29  1  0.653590  0.029908  0.041529  1
  Si  Si30  1  0.147312  0.470609  0.459738  1
  Si  Si31  1  0.162403  0.469537  0.042899  1
  Si  Si32  1  0.646632  0.028310  0.458439  1
  Si  Si33  1  0.346934  0.967944  0.961332  1
  Si  Si34  1  0.854425  0.530008  0.539522  1
  Hg  Hg35  1  0.833150  0.534022  0.960490  1
