# generated using pymatgen
data_Tb8Er8MgNi4Hg3
_symmetry_space_group_name_H-M   'P 1'
_cell_length_a   9.49430804
_cell_length_b   9.50774529
_cell_length_c   9.48932600
_cell_angle_alpha   60.06405753
_cell_angle_beta   60.01734978
_cell_angle_gamma   60.22800691
_symmetry_Int_Tables_number   1
_chemical_formula_structural   Tb8Er8MgNi4Hg3
_chemical_formula_sum   'Tb8 Er8 Mg1 Ni4 Hg3'
_cell_volume   607.11603204
_cell_formula_units_Z   1
loop_
 _symmetry_equiv_pos_site_id
 _symmetry_equiv_pos_as_xyz
  1  'x, y, z'
loop_
 _atom_site_type_symbol
 _atom_site_label
 _atom_site_symmetry_multiplicity
 _atom_site_fract_x
 _atom_site_fract_y
 _atom_site_fract_z
 _atom_site_occupancy
  Tb  Tb0  1  0.187427  0.813658  0.813353  1
  Tb  Tb1  1  0.811344  0.188229  0.186819  1
  Tb  Tb2  1  0.811344  0.188229  0.813608  1
  Tb  Tb3  1  0.187427  0.813658  0.185562  1
  Tb  Tb4  1  0.811831  0.813840  0.187165  1
  Tb  Tb5  1  0.188421  0.188483  0.811548  1
  Tb  Tb6  1  0.597443  0.596572  0.598231  1
  Tb  Tb7  1  0.597443  0.596572  0.207753  1
  Er  Er8  1  0.601376  0.201795  0.598414  1
  Er  Er9  1  0.193232  0.602948  0.601910  1
  Er  Er10  1  0.060591  0.440224  0.438997  1
  Er  Er11  1  0.435126  0.065038  0.063107  1
  Er  Er12  1  0.435126  0.065038  0.436730  1
  Er  Er13  1  0.060591  0.440224  0.060187  1
  Er  Er14  1  0.434943  0.437771  0.063643  1
  Er  Er15  1  0.060412  0.061573  0.439007  1
  Mg  Mg16  1  0.535305  0.821236  0.821729  1
  Ni  Ni17  1  0.389241  0.391726  0.397656  1
  Ni  Ni18  1  0.389241  0.391726  0.821377  1
  Ni  Ni19  1  0.387990  0.824344  0.393833  1
  Ni  Ni20  1  0.824695  0.390284  0.392510  1
  Hg  Hg21  1  0.832883  0.836179  0.834984  1
  Hg  Hg22  1  0.832883  0.836179  0.495954  1
  Hg  Hg23  1  0.833683  0.494473  0.835922  1
