# generated using pymatgen
data_Ba3Ca7Sb8
_symmetry_space_group_name_H-M   'P 1'
_cell_length_a   8.78199862
_cell_length_b   8.52015213
_cell_length_c   8.66203199
_cell_angle_alpha   69.46109529
_cell_angle_beta   92.60347726
_cell_angle_gamma   94.69715663
_symmetry_Int_Tables_number   1
_chemical_formula_structural   Ba3Ca7Sb8
_chemical_formula_sum   'Ba3 Ca7 Sb8'
_cell_volume   604.79364001
_cell_formula_units_Z   1
loop_
 _symmetry_equiv_pos_site_id
 _symmetry_equiv_pos_as_xyz
  1  'x, y, z'
loop_
 _atom_site_type_symbol
 _atom_site_label
 _atom_site_symmetry_multiplicity
 _atom_site_fract_x
 _atom_site_fract_y
 _atom_site_fract_z
 _atom_site_occupancy
  Ba  Ba0  1  0.328027  0.051128  0.312050  1
  Ba  Ba1  1  0.188567  0.552397  0.312712  1
  Ba  Ba2  1  0.810330  0.450766  0.690092  1
  Ca  Ca3  1  0.354694  0.260881  0.727979  1
  Ca  Ca4  1  0.997209  0.999979  0.998385  1
  Ca  Ca5  1  0.678571  0.945141  0.696757  1
  Ca  Ca6  1  0.839217  0.258314  0.235498  1
  Ca  Ca7  1  0.157894  0.741251  0.762261  1
  Ca  Ca8  1  0.647410  0.737033  0.272161  1
  Ca  Ca9  1  0.500597  0.501638  0.998112  1
  Sb  Sb10  1  0.848908  0.656277  0.006625  1
  Sb  Sb11  1  0.956105  0.870138  0.418381  1
  Sb  Sb12  1  0.144761  0.350082  0.980282  1
  Sb  Sb13  1  0.560565  0.332188  0.409070  1
  Sb  Sb14  1  0.374837  0.871632  0.004564  1
  Sb  Sb15  1  0.455654  0.674016  0.602067  1
  Sb  Sb16  1  0.029853  0.127065  0.585602  1
  Sb  Sb17  1  0.626800  0.120073  0.987405  1
