# generated using pymatgen
data_VAg6AsO8
_symmetry_space_group_name_H-M   'P 1'
_cell_length_a   5.83039664
_cell_length_b   5.83039714
_cell_length_c   10.33644380
_cell_angle_alpha   66.71618719
_cell_angle_beta   66.71618358
_cell_angle_gamma   51.90045711
_symmetry_Int_Tables_number   1
_chemical_formula_structural   VAg6AsO8
_chemical_formula_sum   'V1 Ag6 As1 O8'
_cell_volume   248.35711740
_cell_formula_units_Z   1
loop_
 _symmetry_equiv_pos_site_id
 _symmetry_equiv_pos_as_xyz
  1  'x, y, z'
loop_
 _atom_site_type_symbol
 _atom_site_label
 _atom_site_symmetry_multiplicity
 _atom_site_fract_x
 _atom_site_fract_y
 _atom_site_fract_z
 _atom_site_occupancy
  V  V0  1  0.546065  0.453935  0.250000  1
  Ag  Ag1  1  0.783713  0.691937  0.906923  1
  Ag  Ag2  1  0.697398  0.787882  0.401324  1
  Ag  Ag3  1  0.212118  0.302602  0.098676  1
  Ag  Ag4  1  0.308063  0.216287  0.593077  1
  Ag  Ag5  1  0.003290  0.000774  0.001278  1
  Ag  Ag6  1  0.999226  0.996710  0.498722  1
  As  As7  1  0.457221  0.542779  0.750000  1
  O  O8  1  0.626989  0.140526  0.208154  1
  O  O9  1  0.859474  0.373011  0.291846  1
  O  O10  1  0.375270  0.857614  0.786316  1
  O  O11  1  0.142386  0.624730  0.713684  1
  O  O12  1  0.559627  0.254046  0.898302  1
  O  O13  1  0.437162  0.753956  0.102336  1
  O  O14  1  0.745954  0.440373  0.601698  1
  O  O15  1  0.246044  0.562838  0.397664  1
