# generated using pymatgen
data_Pr3Nd7Al4OsRu5
_symmetry_space_group_name_H-M   'P 1'
_cell_length_a   8.57969205
_cell_length_b   8.59455593
_cell_length_c   8.59403900
_cell_angle_alpha   109.51604731
_cell_angle_beta   109.64033192
_cell_angle_gamma   109.32689799
_symmetry_Int_Tables_number   1
_chemical_formula_structural   Pr3Nd7Al4OsRu5
_chemical_formula_sum   'Pr3 Nd7 Al4 Os1 Ru5'
_cell_volume   487.40997978
_cell_formula_units_Z   1
loop_
 _symmetry_equiv_pos_site_id
 _symmetry_equiv_pos_as_xyz
  1  'x, y, z'
loop_
 _atom_site_type_symbol
 _atom_site_label
 _atom_site_symmetry_multiplicity
 _atom_site_fract_x
 _atom_site_fract_y
 _atom_site_fract_z
 _atom_site_occupancy
  Pr  Pr0  1  0.499860  0.999757  0.285745  1
  Pr  Pr1  1  0.285606  0.499962  0.000253  1
  Pr  Pr2  1  0.000063  0.285762  0.499624  1
  Nd  Nd3  1  0.249991  0.684370  0.434449  1
  Nd  Nd4  1  0.750198  0.815938  0.065860  1
  Nd  Nd5  1  0.434817  0.250348  0.683733  1
  Nd  Nd6  1  0.682702  0.433586  0.248855  1
  Nd  Nd7  1  0.065181  0.749194  0.815620  1
  Nd  Nd8  1  0.817278  0.066073  0.750989  1
  Nd  Nd9  1  0.214059  0.214238  0.214036  1
  Al  Al10  1  0.589834  0.590252  0.590013  1
  Al  Al11  1  0.499244  0.000045  0.909531  1
  Al  Al12  1  0.909949  0.500174  0.000433  1
  Al  Al13  1  0.000762  0.910278  0.500777  1
  Os  Os14  1  0.250029  0.117292  0.867581  1
  Ru  Ru15  1  0.749970  0.382722  0.632742  1
  Ru  Ru16  1  0.867362  0.249994  0.117066  1
  Ru  Ru17  1  0.117201  0.867132  0.250105  1
  Ru  Ru18  1  0.633001  0.749884  0.382924  1
  Ru  Ru19  1  0.382891  0.632994  0.749662  1
