# generated using pymatgen
data_HoScZn14Co3
_symmetry_space_group_name_H-M   'P 1'
_cell_length_a   6.62545662
_cell_length_b   6.62570636
_cell_length_c   6.62545333
_cell_angle_alpha   82.36343990
_cell_angle_beta   97.63381280
_cell_angle_gamma   97.64441493
_symmetry_Int_Tables_number   1
_chemical_formula_structural   HoScZn14Co3
_chemical_formula_sum   'Ho1 Sc1 Zn14 Co3'
_cell_volume   283.73469107
_cell_formula_units_Z   1
loop_
 _symmetry_equiv_pos_site_id
 _symmetry_equiv_pos_as_xyz
  1  'x, y, z'
loop_
 _atom_site_type_symbol
 _atom_site_label
 _atom_site_symmetry_multiplicity
 _atom_site_fract_x
 _atom_site_fract_y
 _atom_site_fract_z
 _atom_site_occupancy
  Ho  Ho0  1  0.668572  0.331409  0.331438  1
  Sc  Sc1  1  0.327127  0.672890  0.672881  1
  Zn  Zn2  1  0.294607  0.295881  0.998309  1
  Zn  Zn3  1  0.704114  0.705390  0.998308  1
  Zn  Zn4  1  0.895733  0.104249  0.104258  1
  Zn  Zn5  1  0.348078  0.651920  0.146803  1
  Zn  Zn6  1  0.001693  0.705394  0.295888  1
  Zn  Zn7  1  0.294604  0.998309  0.295883  1
  Zn  Zn8  1  0.650436  0.849065  0.349581  1
  Zn  Zn9  1  0.150944  0.349556  0.349571  1
  Zn  Zn10  1  0.853208  0.651943  0.651924  1
  Zn  Zn11  1  0.348066  0.146781  0.651914  1
  Zn  Zn12  1  0.001686  0.295877  0.705383  1
  Zn  Zn13  1  0.704123  0.998315  0.705386  1
  Zn  Zn14  1  0.650427  0.349578  0.849044  1
  Zn  Zn15  1  0.106949  0.893065  0.893056  1
  Co  Co16  1  0.499670  0.000025  0.000021  1
  Co  Co17  1  0.999978  0.500331  0.000018  1
  Co  Co18  1  0.999982  0.000020  0.500331  1
