# generated using pymatgen
data_Th4NiIr2Ru
_symmetry_space_group_name_H-M   'P 1'
_cell_length_a   4.23147500
_cell_length_b   5.88531800
_cell_length_c   14.68735500
_cell_angle_alpha   90.00000000
_cell_angle_beta   90.00000000
_cell_angle_gamma   90.00000000
_symmetry_Int_Tables_number   1
_chemical_formula_structural   Th4NiIr2Ru
_chemical_formula_sum   'Th8 Ni2 Ir4 Ru2'
_cell_volume   365.76766125
_cell_formula_units_Z   2
loop_
 _symmetry_equiv_pos_site_id
 _symmetry_equiv_pos_as_xyz
  1  'x, y, z'
loop_
 _atom_site_type_symbol
 _atom_site_label
 _atom_site_symmetry_multiplicity
 _atom_site_fract_x
 _atom_site_fract_y
 _atom_site_fract_z
 _atom_site_occupancy
  Th  Th0  1  0.250000  0.546594  0.286711  1
  Th  Th1  1  0.750000  0.451575  0.715439  1
  Th  Th2  1  0.250000  0.953406  0.786711  1
  Th  Th3  1  0.250000  0.752908  0.535977  1
  Th  Th4  1  0.250000  0.747092  0.035977  1
  Th  Th5  1  0.750000  0.259430  0.963460  1
  Th  Th6  1  0.750000  0.048425  0.215439  1
  Th  Th7  1  0.750000  0.240570  0.463460  1
  Ni  Ni8  1  0.250000  0.231301  0.100469  1
  Ni  Ni9  1  0.250000  0.268699  0.600469  1
  Ir  Ir10  1  0.750000  0.550371  0.146827  1
  Ir  Ir11  1  0.750000  0.723082  0.403912  1
  Ir  Ir12  1  0.750000  0.949629  0.646827  1
  Ir  Ir13  1  0.750000  0.776918  0.903912  1
  Ru  Ru14  1  0.250000  0.069294  0.347203  1
  Ru  Ru15  1  0.250000  0.430706  0.847203  1
