# generated using pymatgen
data_Y4Ho5TmIr4
_symmetry_space_group_name_H-M   'P 1'
_cell_length_a   6.44974457
_cell_length_b   7.22029740
_cell_length_c   8.52740206
_cell_angle_alpha   96.72009037
_cell_angle_beta   112.22084339
_cell_angle_gamma   90.00000536
_symmetry_Int_Tables_number   1
_chemical_formula_structural   Y4Ho5TmIr4
_chemical_formula_sum   'Y4 Ho5 Tm1 Ir4'
_cell_volume   364.67195963
_cell_formula_units_Z   1
loop_
 _symmetry_equiv_pos_site_id
 _symmetry_equiv_pos_as_xyz
  1  'x, y, z'
loop_
 _atom_site_type_symbol
 _atom_site_label
 _atom_site_symmetry_multiplicity
 _atom_site_fract_x
 _atom_site_fract_y
 _atom_site_fract_z
 _atom_site_occupancy
  Y  Y0  1  0.971852  0.919922  0.185750  1
  Y  Y1  1  0.786100  0.580078  0.814250  1
  Y  Y2  1  0.027872  0.080611  0.814434  1
  Y  Y3  1  0.213440  0.419389  0.185566  1
  Ho  Ho4  1  0.650797  0.816911  0.440714  1
  Ho  Ho5  1  0.210083  0.683089  0.559286  1
  Ho  Ho6  1  0.349768  0.183320  0.559718  1
  Ho  Ho7  1  0.790050  0.316680  0.440282  1
  Ho  Ho8  1  0.427565  0.750000  0.000000  1
  Tm  Tm9  1  0.571806  0.250000  0.000000  1
  Ir  Ir10  1  0.820084  0.572983  0.220607  1
  Ir  Ir11  1  0.599477  0.927017  0.779393  1
  Ir  Ir12  1  0.180297  0.426009  0.779487  1
  Ir  Ir13  1  0.400810  0.073991  0.220513  1
