# generated using pymatgen
data_Er3Tm5CdInNi2
_symmetry_space_group_name_H-M   'P 1'
_cell_length_a   9.45110779
_cell_length_b   9.45467269
_cell_length_c   9.45313357
_cell_angle_alpha   59.97338965
_cell_angle_beta   60.00347815
_cell_angle_gamma   60.10122500
_symmetry_Int_Tables_number   1
_chemical_formula_structural   Er3Tm5CdInNi2
_chemical_formula_sum   'Er6 Tm10 Cd2 In2 Ni4'
_cell_volume   597.64738908
_cell_formula_units_Z   2
loop_
 _symmetry_equiv_pos_site_id
 _symmetry_equiv_pos_as_xyz
  1  'x, y, z'
loop_
 _atom_site_type_symbol
 _atom_site_label
 _atom_site_symmetry_multiplicity
 _atom_site_fract_x
 _atom_site_fract_y
 _atom_site_fract_z
 _atom_site_occupancy
  Er  Er0  1  0.347188  0.347697  0.348051  1
  Er  Er1  1  0.347581  0.347318  0.957042  1
  Er  Er2  1  0.350801  0.952214  0.348154  1
  Er  Er3  1  0.952237  0.350851  0.348879  1
  Er  Er4  1  0.812591  0.188448  0.187061  1
  Er  Er5  1  0.188466  0.812548  0.811921  1
  Tm  Tm6  1  0.189701  0.810969  0.188102  1
  Tm  Tm7  1  0.811001  0.189685  0.811180  1
  Tm  Tm8  1  0.188009  0.188004  0.811998  1
  Tm  Tm9  1  0.810507  0.810502  0.189484  1
  Tm  Tm10  1  0.937446  0.565020  0.564169  1
  Tm  Tm11  1  0.564989  0.937400  0.933385  1
  Tm  Tm12  1  0.564852  0.937826  0.563400  1
  Tm  Tm13  1  0.937820  0.564875  0.933906  1
  Tm  Tm14  1  0.565080  0.565085  0.934912  1
  Tm  Tm15  1  0.938001  0.937959  0.561991  1
  Cd  Cd16  1  0.580233  0.252983  0.583424  1
  Cd  Cd17  1  0.252959  0.580218  0.583389  1
  In  In18  1  0.581704  0.581835  0.584058  1
  In  In19  1  0.581839  0.581678  0.252438  1
  Ni  Ni20  1  0.142152  0.140642  0.143979  1
  Ni  Ni21  1  0.140760  0.142146  0.573166  1
  Ni  Ni22  1  0.139715  0.574325  0.143573  1
  Ni  Ni23  1  0.574368  0.139773  0.142340  1
