# generated using pymatgen
data_Dy4Pa(ReB3)2
_symmetry_space_group_name_H-M   'P 1'
_cell_length_a   5.51068208
_cell_length_b   5.51068099
_cell_length_c   8.42284260
_cell_angle_alpha   70.90550335
_cell_angle_beta   70.90550819
_cell_angle_gamma   59.99997314
_symmetry_Int_Tables_number   1
_chemical_formula_structural   Dy4Pa(ReB3)2
_chemical_formula_sum   'Dy4 Pa1 Re2 B6'
_cell_volume   205.10232942
_cell_formula_units_Z   1
loop_
 _symmetry_equiv_pos_site_id
 _symmetry_equiv_pos_as_xyz
  1  'x, y, z'
loop_
 _atom_site_type_symbol
 _atom_site_label
 _atom_site_symmetry_multiplicity
 _atom_site_fract_x
 _atom_site_fract_y
 _atom_site_fract_z
 _atom_site_occupancy
  Dy  Dy0  1  0.250046  0.250046  0.249864  1
  Dy  Dy1  1  0.749954  0.749954  0.750136  1
  Dy  Dy2  1  0.416278  0.416278  0.751164  1
  Dy  Dy3  1  0.583722  0.583722  0.248836  1
  Pa  Pa4  1  0.000000  0.000000  0.000000  1
  Re  Re5  1  0.108819  0.108819  0.673546  1
  Re  Re6  1  0.891181  0.891181  0.326454  1
  B  B7  1  0.171699  0.828301  0.500000  1
  B  B8  1  0.828301  0.500000  0.500000  1
  B  B9  1  0.500000  0.171699  0.500000  1
  B  B10  1  0.171699  0.500000  0.500000  1
  B  B11  1  0.500000  0.828301  0.500000  1
  B  B12  1  0.828301  0.171699  0.500000  1
