# generated using pymatgen
data_Er8Tm2IrRu3
_symmetry_space_group_name_H-M   'P 1'
_cell_length_a   6.27727368
_cell_length_b   7.27291630
_cell_length_c   8.36542621
_cell_angle_alpha   96.82823739
_cell_angle_beta   111.93929770
_cell_angle_gamma   90.12270115
_symmetry_Int_Tables_number   1
_chemical_formula_structural   Er8Tm2IrRu3
_chemical_formula_sum   'Er8 Tm2 Ir1 Ru3'
_cell_volume   351.29506543
_cell_formula_units_Z   1
loop_
 _symmetry_equiv_pos_site_id
 _symmetry_equiv_pos_as_xyz
  1  'x, y, z'
loop_
 _atom_site_type_symbol
 _atom_site_label
 _atom_site_symmetry_multiplicity
 _atom_site_fract_x
 _atom_site_fract_y
 _atom_site_fract_z
 _atom_site_occupancy
  Er  Er0  1  0.792344  0.082068  0.814998  1
  Er  Er1  1  0.977924  0.415147  0.186799  1
  Er  Er2  1  0.208476  0.915640  0.185754  1
  Er  Er3  1  0.024790  0.585400  0.814974  1
  Er  Er4  1  0.204804  0.183585  0.564416  1
  Er  Er5  1  0.642046  0.316149  0.434402  1
  Er  Er6  1  0.793683  0.815413  0.434732  1
  Er  Er7  1  0.356790  0.685464  0.563712  1
  Tm  Tm8  1  0.419798  0.249676  0.000394  1
  Tm  Tm9  1  0.580227  0.751340  0.000745  1
  Ir  Ir10  1  0.601602  0.423046  0.779321  1
  Ru  Ru11  1  0.823605  0.076877  0.219616  1
  Ru  Ru12  1  0.395854  0.576185  0.220129  1
  Ru  Ru13  1  0.178055  0.924014  0.780008  1
