# generated using pymatgen
data_Lu3Zr(Co4P3)2
_symmetry_space_group_name_H-M   'P 1'
_cell_length_a   3.69145600
_cell_length_b   10.63895900
_cell_length_c   12.31182900
_cell_angle_alpha   90.00000000
_cell_angle_beta   90.00000000
_cell_angle_gamma   90.00000000
_symmetry_Int_Tables_number   1
_chemical_formula_structural   Lu3Zr(Co4P3)2
_chemical_formula_sum   'Lu6 Zr2 Co16 P12'
_cell_volume   483.52552638
_cell_formula_units_Z   2
loop_
 _symmetry_equiv_pos_site_id
 _symmetry_equiv_pos_as_xyz
  1  'x, y, z'
loop_
 _atom_site_type_symbol
 _atom_site_label
 _atom_site_symmetry_multiplicity
 _atom_site_fract_x
 _atom_site_fract_y
 _atom_site_fract_z
 _atom_site_occupancy
  Lu  Lu0  1  0.750000  0.250000  0.469862  1
  Lu  Lu1  1  0.250000  0.750000  0.530138  1
  Lu  Lu2  1  0.250000  0.927472  0.795417  1
  Lu  Lu3  1  0.250000  0.572528  0.795417  1
  Lu  Lu4  1  0.750000  0.072528  0.204583  1
  Lu  Lu5  1  0.750000  0.427472  0.204583  1
  Zr  Zr6  1  0.250000  0.250000  0.840699  1
  Zr  Zr7  1  0.750000  0.750000  0.159301  1
  Co  Co8  1  0.250000  0.250000  0.297613  1
  Co  Co9  1  0.750000  0.750000  0.702387  1
  Co  Co10  1  0.750000  0.250000  0.014932  1
  Co  Co11  1  0.250000  0.750000  0.985068  1
  Co  Co12  1  0.250000  0.417944  0.007629  1
  Co  Co13  1  0.250000  0.082056  0.007629  1
  Co  Co14  1  0.750000  0.582056  0.992371  1
  Co  Co15  1  0.750000  0.917944  0.992371  1
  Co  Co16  1  0.250000  0.454829  0.566038  1
  Co  Co17  1  0.250000  0.045171  0.566038  1
  Co  Co18  1  0.750000  0.545171  0.433962  1
  Co  Co19  1  0.750000  0.954829  0.433962  1
  Co  Co20  1  0.250000  0.874275  0.299002  1
  Co  Co21  1  0.250000  0.625725  0.299002  1
  Co  Co22  1  0.750000  0.125725  0.700998  1
  Co  Co23  1  0.750000  0.374275  0.700998  1
  P  P24  1  0.250000  0.250000  0.118217  1
  P  P25  1  0.750000  0.750000  0.881783  1
  P  P26  1  0.250000  0.250000  0.634317  1
  P  P27  1  0.750000  0.750000  0.365683  1
  P  P28  1  0.250000  0.437691  0.383533  1
  P  P29  1  0.250000  0.062309  0.383533  1
  P  P30  1  0.750000  0.562309  0.616467  1
  P  P31  1  0.750000  0.937691  0.616467  1
  P  P32  1  0.250000  0.913209  0.107978  1
  P  P33  1  0.250000  0.586791  0.107978  1
  P  P34  1  0.750000  0.086791  0.892022  1
  P  P35  1  0.750000  0.413209  0.892022  1
