# generated using pymatgen
data_ThAs2O7
_symmetry_space_group_name_H-M   'P 1'
_cell_length_a   7.43448500
_cell_length_b   9.33531600
_cell_length_c   6.01587900
_cell_angle_alpha   90.00000000
_cell_angle_beta   90.00000000
_cell_angle_gamma   90.00000000
_symmetry_Int_Tables_number   1
_chemical_formula_structural   ThAs2O7
_chemical_formula_sum   'Th2 As4 O14'
_cell_volume   417.52165511
_cell_formula_units_Z   2
loop_
 _symmetry_equiv_pos_site_id
 _symmetry_equiv_pos_as_xyz
  1  'x, y, z'
loop_
 _atom_site_type_symbol
 _atom_site_label
 _atom_site_symmetry_multiplicity
 _atom_site_fract_x
 _atom_site_fract_y
 _atom_site_fract_z
 _atom_site_occupancy
  Th  Th0  1  0.500000  0.000000  0.000000  1
  Th  Th1  1  0.000000  0.500000  0.499999  1
  As  As2  1  0.310170  0.392032  0.000000  1
  As  As3  1  0.689830  0.607968  0.000000  1
  As  As4  1  0.810169  0.107968  0.499999  1
  As  As5  1  0.189830  0.892032  0.499999  1
  O  O6  1  0.380527  0.221069  0.000000  1
  O  O7  1  0.500000  0.500000  0.000000  1
  O  O8  1  0.619472  0.778931  0.000000  1
  O  O9  1  0.197845  0.432296  0.234349  1
  O  O10  1  0.802154  0.567704  0.234349  1
  O  O11  1  0.697845  0.067704  0.265650  1
  O  O12  1  0.302155  0.932296  0.265650  1
  O  O13  1  0.000000  0.000000  0.499999  1
  O  O14  1  0.880527  0.278931  0.499999  1
  O  O15  1  0.119472  0.721069  0.499999  1
  O  O16  1  0.697845  0.067704  0.734350  1
  O  O17  1  0.302155  0.932296  0.734350  1
  O  O18  1  0.197845  0.432296  0.765652  1
  O  O19  1  0.802154  0.567704  0.765652  1
