# generated using pymatgen
data_TbEr7In3Tc
_symmetry_space_group_name_H-M   'P 1'
_cell_length_a   10.34535927
_cell_length_b   10.34535917
_cell_length_c   7.00444361
_cell_angle_alpha   89.90199935
_cell_angle_beta   90.09800201
_cell_angle_gamma   119.87217572
_symmetry_Int_Tables_number   1
_chemical_formula_structural   TbEr7In3Tc
_chemical_formula_sum   'Tb2 Er14 In6 Tc2'
_cell_volume   650.05862857
_cell_formula_units_Z   2
loop_
 _symmetry_equiv_pos_site_id
 _symmetry_equiv_pos_as_xyz
  1  'x, y, z'
loop_
 _atom_site_type_symbol
 _atom_site_label
 _atom_site_symmetry_multiplicity
 _atom_site_fract_x
 _atom_site_fract_y
 _atom_site_fract_z
 _atom_site_occupancy
  Tb  Tb0  1  0.529738  0.059739  0.795655  1
  Tb  Tb1  1  0.940261  0.470262  0.795655  1
  Er  Er2  1  0.530180  0.469820  0.796403  1
  Er  Er3  1  0.468381  0.937207  0.296494  1
  Er  Er4  1  0.062793  0.531619  0.296494  1
  Er  Er5  1  0.468505  0.531495  0.297114  1
  Er  Er6  1  0.821979  0.644493  0.499399  1
  Er  Er7  1  0.355507  0.178021  0.499399  1
  Er  Er8  1  0.822630  0.177370  0.498823  1
  Er  Er9  1  0.178203  0.355852  0.000655  1
  Er  Er10  1  0.644148  0.821797  0.000655  1
  Er  Er11  1  0.177534  0.822466  0.001272  1
  Er  Er12  1  0.666331  0.333669  0.168098  1
  Er  Er13  1  0.333671  0.666329  0.665303  1
  Er  Er14  1  0.000129  0.999871  0.776719  1
  Er  Er15  1  0.000178  0.999822  0.276230  1
  In  In16  1  0.837008  0.674615  0.038666  1
  In  In17  1  0.325385  0.162992  0.038666  1
  In  In18  1  0.837697  0.162303  0.038990  1
  In  In19  1  0.162998  0.325642  0.538576  1
  In  In20  1  0.674358  0.837002  0.538576  1
  In  In21  1  0.162801  0.837199  0.538345  1
  Tc  Tc22  1  0.666668  0.333332  0.571248  1
  Tc  Tc23  1  0.332921  0.667079  0.068474  1
