# generated using pymatgen
data_ThF10
_symmetry_space_group_name_H-M   'P 1'
_cell_length_a   4.68629558
_cell_length_b   4.68905197
_cell_length_c   10.68791966
_cell_angle_alpha   91.98717672
_cell_angle_beta   79.16069168
_cell_angle_gamma   90.38156971
_symmetry_Int_Tables_number   1
_chemical_formula_structural   ThF10
_chemical_formula_sum   'Th1 F10'
_cell_volume   230.53040098
_cell_formula_units_Z   1
loop_
 _symmetry_equiv_pos_site_id
 _symmetry_equiv_pos_as_xyz
  1  'x, y, z'
loop_
 _atom_site_type_symbol
 _atom_site_label
 _atom_site_symmetry_multiplicity
 _atom_site_fract_x
 _atom_site_fract_y
 _atom_site_fract_z
 _atom_site_occupancy
  Th  Th0  1  0.641729  0.694126  0.282824  1
  F  F1  1  0.317130  0.113930  0.983618  1
  F  F2  1  0.080527  0.180687  0.923174  1
  F  F3  1  0.669431  0.635385  0.837400  1
  F  F4  1  0.071180  0.198908  0.621299  1
  F  F5  1  0.583983  0.666285  0.716683  1
  F  F6  1  0.060406  0.207632  0.489339  1
  F  F7  1  0.543156  0.715103  0.483212  1
  F  F8  1  0.654227  0.194069  0.279947  1
  F  F9  1  0.142551  0.689210  0.280512  1
  F  F10  1  0.722251  0.683565  0.082520  1
