# generated using pymatgen
data_Ho5GeBi2
_symmetry_space_group_name_H-M   'P 1'
_cell_length_a   8.05413000
_cell_length_b   9.20350000
_cell_length_c   11.98847600
_cell_angle_alpha   90.00000000
_cell_angle_beta   90.00000000
_cell_angle_gamma   90.00000000
_symmetry_Int_Tables_number   1
_chemical_formula_structural   Ho5GeBi2
_chemical_formula_sum   'Ho20 Ge4 Bi8'
_cell_volume   888.65999530
_cell_formula_units_Z   4
loop_
 _symmetry_equiv_pos_site_id
 _symmetry_equiv_pos_as_xyz
  1  'x, y, z'
loop_
 _atom_site_type_symbol
 _atom_site_label
 _atom_site_symmetry_multiplicity
 _atom_site_fract_x
 _atom_site_fract_y
 _atom_site_fract_z
 _atom_site_occupancy
  Ho  Ho0  1  0.820938  0.555029  0.062356  1
  Ho  Ho1  1  0.679062  0.944971  0.562356  1
  Ho  Ho2  1  0.179062  0.055029  0.937644  1
  Ho  Ho3  1  0.320938  0.444971  0.437644  1
  Ho  Ho4  1  0.179062  0.444971  0.937644  1
  Ho  Ho5  1  0.320938  0.055029  0.437644  1
  Ho  Ho6  1  0.820938  0.944971  0.062356  1
  Ho  Ho7  1  0.679062  0.555029  0.562356  1
  Ho  Ho8  1  0.169720  0.750000  0.213713  1
  Ho  Ho9  1  0.330280  0.750000  0.713713  1
  Ho  Ho10  1  0.830280  0.250000  0.786287  1
  Ho  Ho11  1  0.669720  0.250000  0.286287  1
  Ho  Ho12  1  0.465234  0.750000  0.002562  1
  Ho  Ho13  1  0.034766  0.750000  0.502562  1
  Ho  Ho14  1  0.534766  0.250000  0.997438  1
  Ho  Ho15  1  0.965234  0.250000  0.497438  1
  Ho  Ho16  1  0.640005  0.750000  0.294151  1
  Ho  Ho17  1  0.859995  0.750000  0.794151  1
  Ho  Ho18  1  0.359995  0.250000  0.705849  1
  Ho  Ho19  1  0.140005  0.250000  0.205849  1
  Ge  Ge20  1  0.407635  0.750000  0.477380  1
  Ge  Ge21  1  0.092365  0.750000  0.977380  1
  Ge  Ge22  1  0.592365  0.250000  0.522620  1
  Ge  Ge23  1  0.907635  0.250000  0.022620  1
  Bi  Bi24  1  0.934832  0.511085  0.325142  1
  Bi  Bi25  1  0.565168  0.988915  0.825142  1
  Bi  Bi26  1  0.065168  0.011085  0.674858  1
  Bi  Bi27  1  0.434832  0.488915  0.174858  1
  Bi  Bi28  1  0.065168  0.488915  0.674858  1
  Bi  Bi29  1  0.434832  0.011085  0.174858  1
  Bi  Bi30  1  0.934832  0.988915  0.325142  1
  Bi  Bi31  1  0.565168  0.511085  0.825142  1
