# generated using pymatgen
data_CeSiRu2C
_symmetry_space_group_name_H-M   'P 1'
_cell_length_a   5.93486342
_cell_length_b   5.93486360
_cell_length_c   7.16149500
_cell_angle_alpha   90.00000000
_cell_angle_beta   90.00000000
_cell_angle_gamma   141.68456095
_symmetry_Int_Tables_number   1
_chemical_formula_structural   CeSiRu2C
_chemical_formula_sum   'Ce2 Si2 Ru4 C2'
_cell_volume   156.39043329
_cell_formula_units_Z   2
loop_
 _symmetry_equiv_pos_site_id
 _symmetry_equiv_pos_as_xyz
  1  'x, y, z'
loop_
 _atom_site_type_symbol
 _atom_site_label
 _atom_site_symmetry_multiplicity
 _atom_site_fract_x
 _atom_site_fract_y
 _atom_site_fract_z
 _atom_site_occupancy
  Ce  Ce0  1  0.552312  0.447688  0.250000  1
  Ce  Ce1  1  0.447688  0.552312  0.750000  1
  Si  Si2  1  0.272229  0.727771  0.250000  1
  Si  Si3  1  0.727771  0.272229  0.750000  1
  Ru  Ru4  1  0.835709  0.164291  0.056534  1
  Ru  Ru5  1  0.164291  0.835709  0.943466  1
  Ru  Ru6  1  0.164291  0.835709  0.556534  1
  Ru  Ru7  1  0.835709  0.164291  0.443466  1
  C  C8  1  0.000000  0.000000  0.000000  1
  C  C9  1  0.000000  0.000000  0.500000  1
