# generated using pymatgen
data_Tb3Dy9(TcIr)2
_symmetry_space_group_name_H-M   'P 1'
_cell_length_a   6.34734318
_cell_length_b   7.35308921
_cell_length_c   9.21776200
_cell_angle_alpha   90.00000000
_cell_angle_beta   90.00000000
_cell_angle_gamma   89.97277741
_symmetry_Int_Tables_number   1
_chemical_formula_structural   Tb3Dy9(TcIr)2
_chemical_formula_sum   'Tb3 Dy9 Tc2 Ir2'
_cell_volume   430.21669158
_cell_formula_units_Z   1
loop_
 _symmetry_equiv_pos_site_id
 _symmetry_equiv_pos_as_xyz
  1  'x, y, z'
loop_
 _atom_site_type_symbol
 _atom_site_label
 _atom_site_symmetry_multiplicity
 _atom_site_fract_x
 _atom_site_fract_y
 _atom_site_fract_z
 _atom_site_occupancy
  Tb  Tb0  1  0.871862  0.538369  0.250000  1
  Tb  Tb1  1  0.628346  0.038176  0.250000  1
  Tb  Tb2  1  0.133540  0.460105  0.750000  1
  Dy  Dy3  1  0.328851  0.676583  0.065945  1
  Dy  Dy4  1  0.171187  0.176210  0.434074  1
  Dy  Dy5  1  0.668094  0.323979  0.561517  1
  Dy  Dy6  1  0.831653  0.824118  0.938405  1
  Dy  Dy7  1  0.668094  0.323979  0.938483  1
  Dy  Dy8  1  0.831653  0.824118  0.561595  1
  Dy  Dy9  1  0.328851  0.676583  0.434055  1
  Dy  Dy10  1  0.171187  0.176210  0.065926  1
  Dy  Dy11  1  0.366382  0.960040  0.750000  1
  Tc  Tc12  1  0.036960  0.885851  0.250000  1
  Tc  Tc13  1  0.462968  0.385841  0.250000  1
  Ir  Ir14  1  0.954119  0.114579  0.750000  1
  Ir  Ir15  1  0.546253  0.615256  0.750000  1
