# generated using pymatgen
data_Er4GaSi7Tc6
_symmetry_space_group_name_H-M   'P 1'
_cell_length_a   6.79857309
_cell_length_b   6.71711829
_cell_length_c   6.81218098
_cell_angle_alpha   70.24690884
_cell_angle_beta   90.31814823
_cell_angle_gamma   90.05915016
_symmetry_Int_Tables_number   1
_chemical_formula_structural   Er4GaSi7Tc6
_chemical_formula_sum   'Er4 Ga1 Si7 Tc6'
_cell_volume   292.78074580
_cell_formula_units_Z   1
loop_
 _symmetry_equiv_pos_site_id
 _symmetry_equiv_pos_as_xyz
  1  'x, y, z'
loop_
 _atom_site_type_symbol
 _atom_site_label
 _atom_site_symmetry_multiplicity
 _atom_site_fract_x
 _atom_site_fract_y
 _atom_site_fract_z
 _atom_site_occupancy
  Er  Er0  1  0.669813  0.444873  0.193902  1
  Er  Er1  1  0.167216  0.056695  0.805944  1
  Er  Er2  1  0.331499  0.559575  0.805680  1
  Er  Er3  1  0.831863  0.942658  0.190969  1
  Ga  Ga4  1  0.449638  0.129485  0.099476  1
  Si  Si5  1  0.950971  0.376973  0.899127  1
  Si  Si6  1  0.550230  0.877551  0.898332  1
  Si  Si7  1  0.048490  0.623499  0.100859  1
  Si  Si8  1  0.858489  0.129771  0.510181  1
  Si  Si9  1  0.360378  0.365287  0.489678  1
  Si  Si10  1  0.143042  0.868017  0.484636  1
  Si  Si11  1  0.640866  0.633299  0.511386  1
  Tc  Tc12  1  0.497980  0.992067  0.508616  1
  Tc  Tc13  1  0.001291  0.504972  0.500362  1
  Tc  Tc14  1  0.143901  0.246131  0.245446  1
  Tc  Tc15  1  0.659169  0.259015  0.751313  1
  Tc  Tc16  1  0.848141  0.756791  0.764534  1
  Tc  Tc17  1  0.347022  0.733342  0.239561  1
