# generated using pymatgen
data_K4YNpI12
_symmetry_space_group_name_H-M   'P 1'
_cell_length_a   8.77218005
_cell_length_b   8.26910493
_cell_length_c   14.09552345
_cell_angle_alpha   54.25334999
_cell_angle_beta   90.47565693
_cell_angle_gamma   91.00022260
_symmetry_Int_Tables_number   1
_chemical_formula_structural   K4YNpI12
_chemical_formula_sum   'K4 Y1 Np1 I12'
_cell_volume   829.70991022
_cell_formula_units_Z   1
loop_
 _symmetry_equiv_pos_site_id
 _symmetry_equiv_pos_as_xyz
  1  'x, y, z'
loop_
 _atom_site_type_symbol
 _atom_site_label
 _atom_site_symmetry_multiplicity
 _atom_site_fract_x
 _atom_site_fract_y
 _atom_site_fract_z
 _atom_site_occupancy
  K  K0  1  0.589482  0.748434  0.226529  1
  K  K1  1  0.079117  0.291896  0.222866  1
  K  K2  1  0.410518  0.251566  0.773471  1
  K  K3  1  0.920883  0.708104  0.777134  1
  Y  Y4  1  0.000000  0.000000  0.000000  1
  Np  Np5  1  0.500000  0.000000  0.500000  1
  I  I6  1  0.983853  0.834454  0.256821  1
  I  I7  1  0.490651  0.163728  0.251159  1
  I  I8  1  0.016147  0.165546  0.743179  1
  I  I9  1  0.509349  0.836272  0.748841  1
  I  I10  1  0.682267  0.660657  0.550205  1
  I  I11  1  0.194572  0.349678  0.951752  1
  I  I12  1  0.317733  0.339343  0.449795  1
  I  I13  1  0.805428  0.650322  0.048248  1
  I  I14  1  0.708434  0.231438  0.955286  1
  I  I15  1  0.213501  0.774588  0.540896  1
  I  I16  1  0.291566  0.768562  0.044714  1
  I  I17  1  0.786499  0.225412  0.459104  1
