# generated using pymatgen
data_Hf2Zr3InSiSb2
_symmetry_space_group_name_H-M   'P 1'
_cell_length_a   8.66021915
_cell_length_b   8.66952219
_cell_length_c   5.83994200
_cell_angle_alpha   90.00000000
_cell_angle_beta   90.00000000
_cell_angle_gamma   120.03554375
_symmetry_Int_Tables_number   1
_chemical_formula_structural   Hf2Zr3InSiSb2
_chemical_formula_sum   'Hf4 Zr6 In2 Si2 Sb4'
_cell_volume   379.58369633
_cell_formula_units_Z   2
loop_
 _symmetry_equiv_pos_site_id
 _symmetry_equiv_pos_as_xyz
  1  'x, y, z'
loop_
 _atom_site_type_symbol
 _atom_site_label
 _atom_site_symmetry_multiplicity
 _atom_site_fract_x
 _atom_site_fract_y
 _atom_site_fract_z
 _atom_site_occupancy
  Hf  Hf0  1  0.330221  0.665111  0.000000  1
  Hf  Hf1  1  0.667812  0.333906  0.500000  1
  Hf  Hf2  1  0.667812  0.333906  0.000000  1
  Hf  Hf3  1  0.330221  0.665111  0.500000  1
  Zr  Zr4  1  0.258575  0.000522  0.250000  1
  Zr  Zr5  1  0.258575  0.258053  0.750000  1
  Zr  Zr6  1  0.001194  0.739738  0.750000  1
  Zr  Zr7  1  0.001194  0.261456  0.250000  1
  Zr  Zr8  1  0.741101  0.739902  0.250000  1
  Zr  Zr9  1  0.741101  0.001199  0.750000  1
  In  In10  1  0.607310  0.998970  0.250000  1
  In  In11  1  0.607310  0.608341  0.750000  1
  Si  Si12  1  0.997177  0.998588  0.000000  1
  Si  Si13  1  0.997177  0.998588  0.500000  1
  Sb  Sb14  1  0.998678  0.393476  0.750000  1
  Sb  Sb15  1  0.998678  0.605201  0.250000  1
  Sb  Sb16  1  0.397932  0.398167  0.250000  1
  Sb  Sb17  1  0.397932  0.999765  0.750000  1
