# generated using pymatgen
data_PrDy15Cd4OsPt3
_symmetry_space_group_name_H-M   'P 1'
_cell_length_a   9.71472712
_cell_length_b   9.71472733
_cell_length_c   9.72937936
_cell_angle_alpha   59.66718730
_cell_angle_beta   59.66718861
_cell_angle_gamma   59.44114439
_symmetry_Int_Tables_number   1
_chemical_formula_structural   PrDy15Cd4OsPt3
_chemical_formula_sum   'Pr1 Dy15 Cd4 Os1 Pt3'
_cell_volume   643.24859727
_cell_formula_units_Z   1
loop_
 _symmetry_equiv_pos_site_id
 _symmetry_equiv_pos_as_xyz
  1  'x, y, z'
loop_
 _atom_site_type_symbol
 _atom_site_label
 _atom_site_symmetry_multiplicity
 _atom_site_fract_x
 _atom_site_fract_y
 _atom_site_fract_z
 _atom_site_occupancy
  Pr  Pr0  1  0.935636  0.935636  0.560792  1
  Dy  Dy1  1  0.351766  0.351766  0.351187  1
  Dy  Dy2  1  0.350297  0.350297  0.949409  1
  Dy  Dy3  1  0.350788  0.949605  0.348813  1
  Dy  Dy4  1  0.949605  0.350788  0.348813  1
  Dy  Dy5  1  0.814307  0.190396  0.186668  1
  Dy  Dy6  1  0.189008  0.809379  0.810489  1
  Dy  Dy7  1  0.190396  0.814307  0.186668  1
  Dy  Dy8  1  0.809379  0.189008  0.810489  1
  Dy  Dy9  1  0.188845  0.188845  0.814721  1
  Dy  Dy10  1  0.809850  0.809850  0.186525  1
  Dy  Dy11  1  0.935315  0.562137  0.565874  1
  Dy  Dy12  1  0.555573  0.937830  0.939880  1
  Dy  Dy13  1  0.562137  0.935315  0.565874  1
  Dy  Dy14  1  0.937830  0.555573  0.939880  1
  Dy  Dy15  1  0.565701  0.565701  0.936172  1
  Cd  Cd16  1  0.581085  0.581085  0.580267  1
  Cd  Cd17  1  0.581635  0.581635  0.252896  1
  Cd  Cd18  1  0.577352  0.257176  0.581658  1
  Cd  Cd19  1  0.257176  0.577352  0.581658  1
  Os  Os20  1  0.144526  0.144526  0.140557  1
  Pt  Pt21  1  0.144795  0.144795  0.573025  1
  Pt  Pt22  1  0.144337  0.572663  0.143843  1
  Pt  Pt23  1  0.572663  0.144337  0.143843  1
