# generated using pymatgen
data_CaCeZn17
_symmetry_space_group_name_H-M   'P 1'
_cell_length_a   6.85000359
_cell_length_b   6.85000233
_cell_length_c   6.85000200
_cell_angle_alpha   82.76840811
_cell_angle_beta   82.76841788
_cell_angle_gamma   82.76840660
_symmetry_Int_Tables_number   1
_chemical_formula_structural   CaCeZn17
_chemical_formula_sum   'Ca1 Ce1 Zn17'
_cell_volume   314.34298879
_cell_formula_units_Z   1
loop_
 _symmetry_equiv_pos_site_id
 _symmetry_equiv_pos_as_xyz
  1  'x, y, z'
loop_
 _atom_site_type_symbol
 _atom_site_label
 _atom_site_symmetry_multiplicity
 _atom_site_fract_x
 _atom_site_fract_y
 _atom_site_fract_z
 _atom_site_occupancy
  Ca  Ca0  1  0.336634  0.336634  0.336634  1
  Ce  Ce1  1  0.663762  0.663762  0.663762  1
  Zn  Zn2  1  0.704103  0.295845  0.000121  1
  Zn  Zn3  1  0.000121  0.704103  0.295845  1
  Zn  Zn4  1  0.295845  0.000121  0.704103  1
  Zn  Zn5  1  0.000121  0.295845  0.704103  1
  Zn  Zn6  1  0.704103  0.000121  0.295845  1
  Zn  Zn7  1  0.295845  0.704103  0.000121  1
  Zn  Zn8  1  0.353108  0.839704  0.353108  1
  Zn  Zn9  1  0.353108  0.353108  0.839704  1
  Zn  Zn10  1  0.839704  0.353108  0.353108  1
  Zn  Zn11  1  0.648789  0.158743  0.648789  1
  Zn  Zn12  1  0.648789  0.648789  0.158743  1
  Zn  Zn13  1  0.158743  0.648789  0.648789  1
  Zn  Zn14  1  0.998794  0.998794  0.501178  1
  Zn  Zn15  1  0.501178  0.998794  0.998794  1
  Zn  Zn16  1  0.998794  0.501178  0.998794  1
  Zn  Zn17  1  0.898179  0.898179  0.898179  1
  Zn  Zn18  1  0.100280  0.100280  0.100280  1
