# generated using pymatgen
data_Zr6Co23C
_symmetry_space_group_name_H-M   'P 1'
_cell_length_a   8.14472307
_cell_length_b   8.14539390
_cell_length_c   8.14368696
_cell_angle_alpha   59.98871493
_cell_angle_beta   60.02339841
_cell_angle_gamma   59.97995790
_symmetry_Int_Tables_number   1
_chemical_formula_structural   Zr6Co23C
_chemical_formula_sum   'Zr6 Co23 C1'
_cell_volume   382.00436205
_cell_formula_units_Z   1
loop_
 _symmetry_equiv_pos_site_id
 _symmetry_equiv_pos_as_xyz
  1  'x, y, z'
loop_
 _atom_site_type_symbol
 _atom_site_label
 _atom_site_symmetry_multiplicity
 _atom_site_fract_x
 _atom_site_fract_y
 _atom_site_fract_z
 _atom_site_occupancy
  Zr  Zr0  1  0.703735  0.296414  0.296413  1
  Zr  Zr1  1  0.296265  0.703586  0.703587  1
  Zr  Zr2  1  0.296415  0.703931  0.296171  1
  Zr  Zr3  1  0.703585  0.296069  0.703829  1
  Zr  Zr4  1  0.296595  0.296370  0.703757  1
  Zr  Zr5  1  0.703405  0.703630  0.296243  1
  Co  Co6  1  0.120833  0.121004  0.120790  1
  Co  Co7  1  0.879167  0.878996  0.879210  1
  Co  Co8  1  0.121036  0.121067  0.636933  1
  Co  Co9  1  0.120840  0.636896  0.121066  1
  Co  Co10  1  0.878964  0.878933  0.363067  1
  Co  Co11  1  0.879160  0.363104  0.878934  1
  Co  Co12  1  0.637398  0.120760  0.120971  1
  Co  Co13  1  0.362602  0.879240  0.879029  1
  Co  Co14  1  0.500000  0.000000  0.000000  1
  Co  Co15  1  0.000000  0.500000  0.500000  1
  Co  Co16  1  0.000000  0.500000  0.000000  1
  Co  Co17  1  0.500000  0.000000  0.500000  1
  Co  Co18  1  0.000000  0.000000  0.500000  1
  Co  Co19  1  0.500000  0.500000  0.000000  1
  Co  Co20  1  0.324248  0.324069  0.324021  1
  Co  Co21  1  0.675752  0.675931  0.675979  1
  Co  Co22  1  0.324173  0.324018  0.027557  1
  Co  Co23  1  0.324148  0.027491  0.324042  1
  Co  Co24  1  0.675827  0.675982  0.972443  1
  Co  Co25  1  0.675852  0.972509  0.675958  1
  Co  Co26  1  0.027531  0.324015  0.324067  1
  Co  Co27  1  0.972469  0.675985  0.675933  1
  Co  Co28  1  0.000000  0.000000  0.000000  1
  C  C29  1  0.500000  0.500000  0.500000  1
