# generated using pymatgen
data_Pr8CdHgRu2
_symmetry_space_group_name_H-M   'P 1'
_cell_length_a   9.98402518
_cell_length_b   9.98402569
_cell_length_c   10.02797500
_cell_angle_alpha   59.85427377
_cell_angle_beta   59.85427209
_cell_angle_gamma   59.77439869
_symmetry_Int_Tables_number   1
_chemical_formula_structural   Pr8CdHgRu2
_chemical_formula_sum   'Pr16 Cd2 Hg2 Ru4'
_cell_volume   704.05535355
_cell_formula_units_Z   2
loop_
 _symmetry_equiv_pos_site_id
 _symmetry_equiv_pos_as_xyz
  1  'x, y, z'
loop_
 _atom_site_type_symbol
 _atom_site_label
 _atom_site_symmetry_multiplicity
 _atom_site_fract_x
 _atom_site_fract_y
 _atom_site_fract_z
 _atom_site_occupancy
  Pr  Pr0  1  0.345494  0.345494  0.347122  1
  Pr  Pr1  1  0.345494  0.345494  0.961890  1
  Pr  Pr2  1  0.345871  0.959536  0.347296  1
  Pr  Pr3  1  0.959536  0.345871  0.347296  1
  Pr  Pr4  1  0.809486  0.190760  0.189757  1
  Pr  Pr5  1  0.190760  0.809486  0.809997  1
  Pr  Pr6  1  0.190760  0.809486  0.189757  1
  Pr  Pr7  1  0.809486  0.190760  0.809997  1
  Pr  Pr8  1  0.189893  0.189893  0.810107  1
  Pr  Pr9  1  0.808975  0.808975  0.191025  1
  Pr  Pr10  1  0.938839  0.561191  0.560795  1
  Pr  Pr11  1  0.561191  0.938839  0.939175  1
  Pr  Pr12  1  0.561191  0.938839  0.560795  1
  Pr  Pr13  1  0.938839  0.561191  0.939175  1
  Pr  Pr14  1  0.561138  0.561138  0.938862  1
  Pr  Pr15  1  0.939327  0.939327  0.560673  1
  Cd  Cd16  1  0.577978  0.264266  0.578877  1
  Cd  Cd17  1  0.264266  0.577978  0.578877  1
  Hg  Hg18  1  0.582189  0.582189  0.584711  1
  Hg  Hg19  1  0.582189  0.582189  0.250909  1
  Ru  Ru20  1  0.137342  0.137342  0.139024  1
  Ru  Ru21  1  0.137342  0.137342  0.586290  1
  Ru  Ru22  1  0.137095  0.585317  0.138793  1
  Ru  Ru23  1  0.585317  0.137095  0.138793  1
