# generated using pymatgen
data_Dy5LuCoTe2
_symmetry_space_group_name_H-M   'P 1'
_cell_length_a   8.27184471
_cell_length_b   8.42851329
_cell_length_c   3.92082300
_cell_angle_alpha   90.00000000
_cell_angle_beta   90.00000000
_cell_angle_gamma   120.62852744
_symmetry_Int_Tables_number   1
_chemical_formula_structural   Dy5LuCoTe2
_chemical_formula_sum   'Dy5 Lu1 Co1 Te2'
_cell_volume   235.22075590
_cell_formula_units_Z   1
loop_
 _symmetry_equiv_pos_site_id
 _symmetry_equiv_pos_as_xyz
  1  'x, y, z'
loop_
 _atom_site_type_symbol
 _atom_site_label
 _atom_site_symmetry_multiplicity
 _atom_site_fract_x
 _atom_site_fract_y
 _atom_site_fract_z
 _atom_site_occupancy
  Dy  Dy0  1  0.000000  0.403117  0.500000  1
  Dy  Dy1  1  0.605965  0.605605  0.500000  1
  Dy  Dy2  1  0.394035  0.999639  0.500000  1
  Dy  Dy3  1  0.233924  0.237207  0.000000  1
  Dy  Dy4  1  0.766076  0.003283  0.000000  1
  Lu  Lu5  1  0.000000  0.766694  0.000000  1
  Co  Co6  1  0.000000  0.981531  0.500000  1
  Te  Te7  1  0.330374  0.666649  0.000000  1
  Te  Te8  1  0.669626  0.336274  0.000000  1
