# generated using pymatgen
data_Cs2Ho10B2Cl17
_symmetry_space_group_name_H-M   'P 1'
_cell_length_a   8.67969183
_cell_length_b   10.15408117
_cell_length_c   10.15401100
_cell_angle_alpha   107.02157908
_cell_angle_beta   94.11691740
_cell_angle_gamma   94.11655456
_symmetry_Int_Tables_number   1
_chemical_formula_structural   Cs2Ho10B2Cl17
_chemical_formula_sum   'Cs2 Ho10 B2 Cl17'
_cell_volume   849.45620694
_cell_formula_units_Z   1
loop_
 _symmetry_equiv_pos_site_id
 _symmetry_equiv_pos_as_xyz
  1  'x, y, z'
loop_
 _atom_site_type_symbol
 _atom_site_label
 _atom_site_symmetry_multiplicity
 _atom_site_fract_x
 _atom_site_fract_y
 _atom_site_fract_z
 _atom_site_occupancy
  Cs  Cs0  1  0.000011  0.822576  0.177518  1
  Cs  Cs1  1  0.999990  0.177399  0.822508  1
  Ho  Ho2  1  0.436936  0.164286  0.164182  1
  Ho  Ho3  1  0.569520  0.512449  0.208784  1
  Ho  Ho4  1  0.831161  0.291640  0.291672  1
  Ho  Ho5  1  0.314637  0.438213  0.438189  1
  Ho  Ho6  1  0.430482  0.791223  0.487555  1
  Ho  Ho7  1  0.569826  0.208784  0.512488  1
  Ho  Ho8  1  0.685366  0.561816  0.561780  1
  Ho  Ho9  1  0.168838  0.708336  0.708352  1
  Ho  Ho10  1  0.430171  0.487510  0.791214  1
  Ho  Ho11  1  0.563063  0.835819  0.835710  1
  B  B12  1  0.572613  0.352606  0.352675  1
  B  B13  1  0.427387  0.647321  0.647396  1
  Cl  Cl14  1  0.576986  0.686798  0.021129  1
  Cl  Cl15  1  0.711738  0.068539  0.068504  1
  Cl  Cl16  1  0.850780  0.449477  0.121458  1
  Cl  Cl17  1  0.139022  0.214166  0.214264  1
  Cl  Cl18  1  0.281308  0.599346  0.258211  1
  Cl  Cl19  1  0.422983  0.978876  0.313160  1
  Cl  Cl20  1  0.718709  0.741775  0.400654  1
  Cl  Cl21  1  0.850952  0.121259  0.449452  1
  Cl  Cl22  1  0.000000  0.500040  0.499963  1
  Cl  Cl23  1  0.149181  0.878545  0.550521  1
  Cl  Cl24  1  0.281508  0.258251  0.599249  1
  Cl  Cl25  1  0.576984  0.021200  0.686844  1
  Cl  Cl26  1  0.718477  0.400760  0.741769  1
  Cl  Cl27  1  0.860981  0.785751  0.785813  1
  Cl  Cl28  1  0.149093  0.550548  0.878740  1
  Cl  Cl29  1  0.288255  0.931492  0.931453  1
  Cl  Cl30  1  0.423041  0.313200  0.978795  1
