# generated using pymatgen
data_LuHg(Pd2Au)2
_symmetry_space_group_name_H-M   'P 1'
_cell_length_a   6.01761400
_cell_length_b   6.01855574
_cell_length_c   7.87442100
_cell_angle_alpha   90.00063783
_cell_angle_beta   90.00119969
_cell_angle_gamma   89.94530841
_symmetry_Int_Tables_number   1
_chemical_formula_structural   LuHg(Pd2Au)2
_chemical_formula_sum   'Lu2 Hg2 Pd8 Au4'
_cell_volume   285.19049441
_cell_formula_units_Z   2
loop_
 _symmetry_equiv_pos_site_id
 _symmetry_equiv_pos_as_xyz
  1  'x, y, z'
loop_
 _atom_site_type_symbol
 _atom_site_label
 _atom_site_symmetry_multiplicity
 _atom_site_fract_x
 _atom_site_fract_y
 _atom_site_fract_z
 _atom_site_occupancy
  Lu  Lu0  1  0.249797  0.249999  0.000001  1
  Lu  Lu1  1  0.750203  0.750001  0.999999  1
  Hg  Hg2  1  0.749890  0.750002  0.499991  1
  Hg  Hg3  1  0.250111  0.249998  0.500009  1
  Pd  Pd4  1  0.500094  0.000045  0.249313  1
  Pd  Pd5  1  0.500131  0.500066  0.249537  1
  Pd  Pd6  1  0.000032  0.000067  0.249773  1
  Pd  Pd7  1  0.999971  0.499994  0.249537  1
  Pd  Pd8  1  0.999968  0.999933  0.750227  1
  Pd  Pd9  1  0.000029  0.500006  0.750463  1
  Pd  Pd10  1  0.499906  0.999955  0.750687  1
  Pd  Pd11  1  0.499869  0.499934  0.750463  1
  Au  Au12  1  0.750194  0.250013  0.000015  1
  Au  Au13  1  0.249804  0.749987  0.999985  1
  Au  Au14  1  0.750004  0.250005  0.499970  1
  Au  Au15  1  0.249996  0.749995  0.500031  1
