# generated using pymatgen
data_Fe4HgPbCl16
_symmetry_space_group_name_H-M   'P 1'
_cell_length_a   10.30105351
_cell_length_b   10.30105340
_cell_length_c   12.37321400
_cell_angle_alpha   55.51522391
_cell_angle_beta   55.51522432
_cell_angle_gamma   49.65915571
_symmetry_Int_Tables_number   1
_chemical_formula_structural   Fe4HgPbCl16
_chemical_formula_sum   'Fe4 Hg1 Pb1 Cl16'
_cell_volume   782.11319588
_cell_formula_units_Z   1
loop_
 _symmetry_equiv_pos_site_id
 _symmetry_equiv_pos_as_xyz
  1  'x, y, z'
loop_
 _atom_site_type_symbol
 _atom_site_label
 _atom_site_symmetry_multiplicity
 _atom_site_fract_x
 _atom_site_fract_y
 _atom_site_fract_z
 _atom_site_occupancy
  Fe  Fe0  1  0.160789  0.667148  0.525363  1
  Fe  Fe1  1  0.332852  0.839211  0.974637  1
  Fe  Fe2  1  0.839998  0.333465  0.456220  1
  Fe  Fe3  1  0.666535  0.160002  0.043780  1
  Hg  Hg4  1  0.999318  0.000682  0.250000  1
  Pb  Pb5  1  0.008673  0.991327  0.750000  1
  Cl  Cl6  1  0.299849  0.393948  0.533083  1
  Cl  Cl7  1  0.606052  0.700151  0.966917  1
  Cl  Cl8  1  0.696197  0.610728  0.440774  1
  Cl  Cl9  1  0.389272  0.303803  0.059226  1
  Cl  Cl10  1  0.881221  0.817109  0.516854  1
  Cl  Cl11  1  0.182891  0.118779  0.983146  1
  Cl  Cl12  1  0.114930  0.198766  0.463711  1
  Cl  Cl13  1  0.801234  0.885070  0.036289  1
  Cl  Cl14  1  0.150148  0.661192  0.713486  1
  Cl  Cl15  1  0.338808  0.849852  0.786514  1
  Cl  Cl16  1  0.856187  0.315917  0.276365  1
  Cl  Cl17  1  0.684083  0.143813  0.223635  1
  Cl  Cl18  1  0.290165  0.828699  0.333343  1
  Cl  Cl19  1  0.171301  0.709835  0.166657  1
  Cl  Cl20  1  0.708719  0.179224  0.656191  1
  Cl  Cl21  1  0.820776  0.291281  0.843809  1
