# generated using pymatgen
data_Ba20Si3GeBi8
_symmetry_space_group_name_H-M   'P 1'
_cell_length_a   9.10445813
_cell_length_b   10.59384700
_cell_length_c   14.45782900
_cell_angle_alpha   90.00000000
_cell_angle_beta   89.99016380
_cell_angle_gamma   90.00000000
_symmetry_Int_Tables_number   1
_chemical_formula_structural   Ba20Si3GeBi8
_chemical_formula_sum   'Ba20 Si3 Ge1 Bi8'
_cell_volume   1394.47546348
_cell_formula_units_Z   1
loop_
 _symmetry_equiv_pos_site_id
 _symmetry_equiv_pos_as_xyz
  1  'x, y, z'
loop_
 _atom_site_type_symbol
 _atom_site_label
 _atom_site_symmetry_multiplicity
 _atom_site_fract_x
 _atom_site_fract_y
 _atom_site_fract_z
 _atom_site_occupancy
  Ba  Ba0  1  0.823433  0.527461  0.078139  1
  Ba  Ba1  1  0.676068  0.973558  0.577804  1
  Ba  Ba2  1  0.176850  0.025664  0.921876  1
  Ba  Ba3  1  0.323927  0.473646  0.422214  1
  Ba  Ba4  1  0.176850  0.474336  0.921876  1
  Ba  Ba5  1  0.323927  0.026354  0.422214  1
  Ba  Ba6  1  0.823433  0.972539  0.078139  1
  Ba  Ba7  1  0.676068  0.526442  0.577804  1
  Ba  Ba8  1  0.172074  0.750000  0.214202  1
  Ba  Ba9  1  0.327988  0.750000  0.714086  1
  Ba  Ba10  1  0.827597  0.250000  0.785058  1
  Ba  Ba11  1  0.672063  0.250000  0.285815  1
  Ba  Ba12  1  0.441060  0.750000  0.000792  1
  Ba  Ba13  1  0.059040  0.750000  0.500749  1
  Ba  Ba14  1  0.557689  0.250000  0.999234  1
  Ba  Ba15  1  0.940922  0.250000  0.499193  1
  Ba  Ba16  1  0.647223  0.750000  0.303838  1
  Ba  Ba17  1  0.852694  0.750000  0.803761  1
  Ba  Ba18  1  0.352574  0.250000  0.696277  1
  Ba  Ba19  1  0.148053  0.250000  0.197010  1
  Si  Si20  1  0.439584  0.750000  0.490697  1
  Si  Si21  1  0.060543  0.750000  0.990672  1
  Si  Si22  1  0.560409  0.250000  0.509421  1
  Ge  Ge23  1  0.940009  0.250000  0.009134  1
  Bi  Bi24  1  0.942240  0.505534  0.330941  1
  Bi  Bi25  1  0.557781  0.994405  0.830801  1
  Bi  Bi26  1  0.057733  0.005445  0.669060  1
  Bi  Bi27  1  0.442207  0.494589  0.169195  1
  Bi  Bi28  1  0.057733  0.494555  0.669060  1
  Bi  Bi29  1  0.442207  0.005411  0.169195  1
  Bi  Bi30  1  0.942240  0.994466  0.330941  1
  Bi  Bi31  1  0.557781  0.505595  0.830801  1
