# generated using pymatgen
data_Ga2Ni11S4
_symmetry_space_group_name_H-M   'P 1'
_cell_length_a   3.55549200
_cell_length_b   3.55549200
_cell_length_c   17.92645700
_cell_angle_alpha   90.00000000
_cell_angle_beta   90.00000000
_cell_angle_gamma   90.00000000
_symmetry_Int_Tables_number   1
_chemical_formula_structural   Ga2Ni11S4
_chemical_formula_sum   'Ga2 Ni11 S4'
_cell_volume   226.61772496
_cell_formula_units_Z   1
loop_
 _symmetry_equiv_pos_site_id
 _symmetry_equiv_pos_as_xyz
  1  'x, y, z'
loop_
 _atom_site_type_symbol
 _atom_site_label
 _atom_site_symmetry_multiplicity
 _atom_site_fract_x
 _atom_site_fract_y
 _atom_site_fract_z
 _atom_site_occupancy
  Ga  Ga0  1  0.000000  0.000000  0.000262  1
  Ga  Ga1  1  0.500000  0.500000  0.501264  1
  Ni  Ni2  1  0.000000  0.500000  0.399491  1
  Ni  Ni3  1  0.500000  0.000000  0.897886  1
  Ni  Ni4  1  0.500000  0.000000  0.399491  1
  Ni  Ni5  1  0.000000  0.500000  0.897886  1
  Ni  Ni6  1  0.500000  0.000000  0.103089  1
  Ni  Ni7  1  0.000000  0.500000  0.603720  1
  Ni  Ni8  1  0.000000  0.500000  0.103089  1
  Ni  Ni9  1  0.500000  0.000000  0.603720  1
  Ni  Ni10  1  0.000000  0.000000  0.501860  1
  Ni  Ni11  1  0.500000  0.500000  0.000548  1
  Ni  Ni12  1  0.500000  0.500000  0.292696  1
  S  S13  1  0.000000  0.000000  0.321182  1
  S  S14  1  0.500000  0.500000  0.826227  1
  S  S15  1  0.500000  0.500000  0.174726  1
  S  S16  1  0.000000  0.000000  0.674360  1
