# generated using pymatgen
data_CeNd2Zn3PdPt2
_symmetry_space_group_name_H-M   'P 1'
_cell_length_a   7.53737700
_cell_length_b   7.49368987
_cell_length_c   3.90597400
_cell_angle_alpha   90.00000000
_cell_angle_beta   90.00000000
_cell_angle_gamma   120.19304263
_symmetry_Int_Tables_number   1
_chemical_formula_structural   CeNd2Zn3PdPt2
_chemical_formula_sum   'Ce1 Nd2 Zn3 Pd1 Pt2'
_cell_volume   190.68996612
_cell_formula_units_Z   1
loop_
 _symmetry_equiv_pos_site_id
 _symmetry_equiv_pos_as_xyz
  1  'x, y, z'
loop_
 _atom_site_type_symbol
 _atom_site_label
 _atom_site_symmetry_multiplicity
 _atom_site_fract_x
 _atom_site_fract_y
 _atom_site_fract_z
 _atom_site_occupancy
  Ce  Ce0  1  0.411582  0.000000  0.000000  1
  Nd  Nd1  1  0.998122  0.407342  0.000000  1
  Nd  Nd2  1  0.590779  0.592658  0.000000  1
  Zn  Zn3  1  0.999132  0.751374  0.500000  1
  Zn  Zn4  1  0.247759  0.248626  0.500000  1
  Zn  Zn5  1  0.756429  0.000000  0.500000  1
  Pd  Pd6  1  0.006287  0.000000  0.000000  1
  Pt  Pt7  1  0.655356  0.320802  0.500000  1
  Pt  Pt8  1  0.334553  0.679198  0.500000  1
