# generated using pymatgen
data_NaTb6CoCl12
_symmetry_space_group_name_H-M   'P 1'
_cell_length_a   8.85102597
_cell_length_b   8.85102507
_cell_length_c   8.85102663
_cell_angle_alpha   106.90008539
_cell_angle_beta   106.90009573
_cell_angle_gamma   106.90009866
_symmetry_Int_Tables_number   1
_chemical_formula_structural   NaTb6CoCl12
_chemical_formula_sum   'Na1 Tb6 Co1 Cl12'
_cell_volume   579.03274730
_cell_formula_units_Z   1
loop_
 _symmetry_equiv_pos_site_id
 _symmetry_equiv_pos_as_xyz
  1  'x, y, z'
loop_
 _atom_site_type_symbol
 _atom_site_label
 _atom_site_symmetry_multiplicity
 _atom_site_fract_x
 _atom_site_fract_y
 _atom_site_fract_z
 _atom_site_occupancy
  Na  Na0  1  0.500000  0.500000  0.500000  1
  Tb  Tb1  1  0.319067  0.112718  0.024973  1
  Tb  Tb2  1  0.024973  0.319067  0.112718  1
  Tb  Tb3  1  0.112718  0.024973  0.319067  1
  Tb  Tb4  1  0.680933  0.887282  0.975027  1
  Tb  Tb5  1  0.975027  0.680933  0.887282  1
  Tb  Tb6  1  0.887282  0.975027  0.680933  1
  Co  Co7  1  0.000000  0.000000  0.000000  1
  Cl  Cl8  1  0.679846  0.212254  0.072027  1
  Cl  Cl9  1  0.072027  0.679846  0.212254  1
  Cl  Cl10  1  0.212254  0.072027  0.679846  1
  Cl  Cl11  1  0.320154  0.787746  0.927973  1
  Cl  Cl12  1  0.927973  0.320154  0.787746  1
  Cl  Cl13  1  0.787746  0.927973  0.320154  1
  Cl  Cl14  1  0.447261  0.152116  0.362476  1
  Cl  Cl15  1  0.362476  0.447261  0.152116  1
  Cl  Cl16  1  0.152116  0.362476  0.447261  1
  Cl  Cl17  1  0.552739  0.847884  0.637524  1
  Cl  Cl18  1  0.637524  0.552739  0.847884  1
  Cl  Cl19  1  0.847884  0.637524  0.552739  1
