# generated using pymatgen
data_NaLiTcBr6
_symmetry_space_group_name_H-M   'P 1'
_cell_length_a   6.94722600
_cell_length_b   6.94722583
_cell_length_c   27.35351700
_cell_angle_alpha   90.00000000
_cell_angle_beta   90.00000000
_cell_angle_gamma   120.00000083
_symmetry_Int_Tables_number   1
_chemical_formula_structural   NaLiTcBr6
_chemical_formula_sum   'Na4 Li4 Tc4 Br24'
_cell_volume   1143.31695872
_cell_formula_units_Z   4
loop_
 _symmetry_equiv_pos_site_id
 _symmetry_equiv_pos_as_xyz
  1  'x, y, z'
loop_
 _atom_site_type_symbol
 _atom_site_label
 _atom_site_symmetry_multiplicity
 _atom_site_fract_x
 _atom_site_fract_y
 _atom_site_fract_z
 _atom_site_occupancy
  Na  Na0  1  0.000000  0.000000  0.250000  1
  Na  Na1  1  0.000000  0.000000  0.750000  1
  Na  Na2  1  0.333333  0.666667  0.999852  1
  Na  Na3  1  0.333333  0.666667  0.500148  1
  Li  Li4  1  0.333333  0.666667  0.250000  1
  Li  Li5  1  0.666667  0.333333  0.750000  1
  Li  Li6  1  0.666667  0.333333  0.000040  1
  Li  Li7  1  0.666667  0.333333  0.499960  1
  Tc  Tc8  1  0.000000  0.000000  0.000026  1
  Tc  Tc9  1  0.000000  0.000000  0.499974  1
  Tc  Tc10  1  0.333333  0.666667  0.750000  1
  Tc  Tc11  1  0.666667  0.333333  0.250000  1
  Br  Br12  1  0.378409  0.027548  0.304280  1
  Br  Br13  1  0.350835  0.972422  0.804288  1
  Br  Br14  1  0.983375  0.288791  0.054306  1
  Br  Br15  1  0.982028  0.288107  0.554248  1
  Br  Br16  1  0.972452  0.350861  0.304280  1
  Br  Br17  1  0.027578  0.378413  0.804288  1
  Br  Br18  1  0.378409  0.350861  0.195720  1
  Br  Br19  1  0.350835  0.378413  0.695712  1
  Br  Br20  1  0.305416  0.288791  0.445694  1
  Br  Br21  1  0.306078  0.288107  0.945752  1
  Br  Br22  1  0.711209  0.016625  0.445694  1
  Br  Br23  1  0.305416  0.016625  0.054306  1
  Br  Br24  1  0.306078  0.017972  0.554248  1
  Br  Br25  1  0.711209  0.694584  0.054306  1
  Br  Br26  1  0.711893  0.693922  0.554248  1
  Br  Br27  1  0.649139  0.621591  0.304280  1
  Br  Br28  1  0.621587  0.649165  0.804288  1
  Br  Br29  1  0.972452  0.621591  0.195720  1
  Br  Br30  1  0.027578  0.649165  0.695712  1
  Br  Br31  1  0.983375  0.694584  0.445694  1
  Br  Br32  1  0.982028  0.693922  0.945752  1
  Br  Br33  1  0.711893  0.017972  0.945752  1
  Br  Br34  1  0.649139  0.027548  0.195720  1
  Br  Br35  1  0.621587  0.972422  0.695712  1
