# generated using pymatgen
data_Li3Gd3TeWO12
_symmetry_space_group_name_H-M   'P 1'
_cell_length_a   10.80864994
_cell_length_b   10.80864985
_cell_length_c   10.80865000
_cell_angle_alpha   109.47121903
_cell_angle_beta   109.47121888
_cell_angle_gamma   109.47121990
_symmetry_Int_Tables_number   1
_chemical_formula_structural   Li3Gd3TeWO12
_chemical_formula_sum   'Li12 Gd12 Te4 W4 O48'
_cell_volume   972.05868473
_cell_formula_units_Z   4
loop_
 _symmetry_equiv_pos_site_id
 _symmetry_equiv_pos_as_xyz
  1  'x, y, z'
loop_
 _atom_site_type_symbol
 _atom_site_label
 _atom_site_symmetry_multiplicity
 _atom_site_fract_x
 _atom_site_fract_y
 _atom_site_fract_z
 _atom_site_occupancy
  Li  Li0  1  0.750000  0.375563  0.125563  1
  Li  Li1  1  0.874437  0.750000  0.124437  1
  Li  Li2  1  0.124437  0.374437  0.250000  1
  Li  Li3  1  0.624437  0.874437  0.250000  1
  Li  Li4  1  0.250000  0.124437  0.374437  1
  Li  Li5  1  0.625564  0.250000  0.375563  1
  Li  Li6  1  0.374437  0.750000  0.624437  1
  Li  Li7  1  0.750000  0.875563  0.625564  1
  Li  Li8  1  0.375563  0.125563  0.750000  1
  Li  Li9  1  0.875563  0.625564  0.750000  1
  Li  Li10  1  0.125563  0.249999  0.875563  1
  Li  Li11  1  0.250000  0.624437  0.874437  1
  Gd  Gd12  1  0.376564  0.250000  0.126564  1
  Gd  Gd13  1  0.249999  0.873436  0.123436  1
  Gd  Gd14  1  0.873436  0.123436  0.249999  1
  Gd  Gd15  1  0.373436  0.623437  0.250000  1
  Gd  Gd16  1  0.123436  0.750000  0.373436  1
  Gd  Gd17  1  0.750000  0.626564  0.376564  1
  Gd  Gd18  1  0.876564  0.250000  0.626564  1
  Gd  Gd19  1  0.250000  0.373436  0.623437  1
  Gd  Gd20  1  0.626564  0.376564  0.750000  1
  Gd  Gd21  1  0.126564  0.876564  0.750000  1
  Gd  Gd22  1  0.750000  0.126564  0.876564  1
  Gd  Gd23  1  0.623437  0.750000  0.873436  1
  Te  Te24  1  0.000000  0.000000  0.000000  1
  Te  Te25  1  0.500000  0.500000  0.000000  1
  Te  Te26  1  0.500000  0.000000  0.500000  1
  Te  Te27  1  0.000000  0.500000  0.500000  1
  W  W28  1  0.500000  0.000000  0.000000  1
  W  W29  1  0.000000  0.500000  0.000000  1
  W  W30  1  0.000000  0.000000  0.500000  1
  W  W31  1  0.500000  0.500000  0.500000  1
  O  O32  1  0.198232  0.617399  0.025271  1
  O  O33  1  0.328120  0.407010  0.026389  1
  O  O34  1  0.698232  0.172961  0.080832  1
  O  O35  1  0.880620  0.907009  0.078889  1
  O  O36  1  0.973612  0.171880  0.092991  1
  O  O37  1  0.617400  0.919168  0.092129  1
  O  O38  1  0.025271  0.698232  0.117400  1
  O  O39  1  0.592991  0.421111  0.119380  1
  O  O40  1  0.198269  0.078889  0.171879  1
  O  O41  1  0.474729  0.092129  0.172961  1
  O  O42  1  0.117400  0.525270  0.198232  1
  O  O43  1  0.578890  0.671880  0.198269  1
  O  O44  1  0.327038  0.419167  0.301768  1
  O  O45  1  0.473611  0.880621  0.301731  1
  O  O46  1  0.919168  0.801768  0.327038  1
  O  O47  1  0.907009  0.526389  0.328120  1
  O  O48  1  0.580832  0.407871  0.382600  1
  O  O49  1  0.301732  0.973612  0.380621  1
  O  O50  1  0.827039  0.025271  0.407872  1
  O  O51  1  0.078889  0.380620  0.407010  1
  O  O52  1  0.828120  0.301731  0.421110  1
  O  O53  1  0.092129  0.117400  0.419167  1
  O  O54  1  0.380620  0.801731  0.473611  1
  O  O55  1  0.592129  0.672961  0.474729  1
  O  O56  1  0.407871  0.327038  0.525270  1
  O  O57  1  0.619379  0.198269  0.526389  1
  O  O58  1  0.171879  0.698269  0.578889  1
  O  O59  1  0.907871  0.882601  0.580832  1
  O  O60  1  0.921111  0.619379  0.592991  1
  O  O61  1  0.172961  0.974730  0.592129  1
  O  O62  1  0.419167  0.592129  0.617399  1
  O  O63  1  0.698269  0.026389  0.619380  1
  O  O64  1  0.080832  0.198232  0.672961  1
  O  O65  1  0.092990  0.473611  0.671880  1
  O  O66  1  0.672961  0.580832  0.698232  1
  O  O67  1  0.526389  0.119380  0.698269  1
  O  O68  1  0.421111  0.328120  0.801731  1
  O  O69  1  0.882601  0.474729  0.801768  1
  O  O70  1  0.525270  0.907871  0.827039  1
  O  O71  1  0.801731  0.921111  0.828120  1
  O  O72  1  0.974729  0.301768  0.882600  1
  O  O73  1  0.407010  0.578890  0.880621  1
  O  O74  1  0.026389  0.828120  0.907009  1
  O  O75  1  0.382601  0.080832  0.907871  1
  O  O76  1  0.119380  0.092991  0.921111  1
  O  O77  1  0.301768  0.827039  0.919168  1
  O  O78  1  0.801768  0.382600  0.974730  1
  O  O79  1  0.671880  0.592991  0.973612  1
