# generated using pymatgen
data_SmTh5PtCl15
_symmetry_space_group_name_H-M   'P 1'
_cell_length_a   9.90406104
_cell_length_b   9.90406106
_cell_length_c   9.90406109
_cell_angle_alpha   109.78144659
_cell_angle_beta   109.31632696
_cell_angle_gamma   109.31633584
_symmetry_Int_Tables_number   1
_chemical_formula_structural   SmTh5PtCl15
_chemical_formula_sum   'Sm1 Th5 Pt1 Cl15'
_cell_volume   747.83962830
_cell_formula_units_Z   1
loop_
 _symmetry_equiv_pos_site_id
 _symmetry_equiv_pos_as_xyz
  1  'x, y, z'
loop_
 _atom_site_type_symbol
 _atom_site_label
 _atom_site_symmetry_multiplicity
 _atom_site_fract_x
 _atom_site_fract_y
 _atom_site_fract_z
 _atom_site_occupancy
  Sm  Sm0  1  0.000000  0.250526  0.250526  1
  Th  Th1  1  0.000000  0.746904  0.746904  1
  Th  Th2  1  0.248399  0.003705  0.252104  1
  Th  Th3  1  0.751601  0.003705  0.755306  1
  Th  Th4  1  0.248399  0.252104  0.003705  1
  Th  Th5  1  0.751601  0.755306  0.003705  1
  Pt  Pt6  1  0.000000  0.996250  0.996250  1
  Cl  Cl7  1  0.487228  0.243693  0.243693  1
  Cl  Cl8  1  0.512772  0.756465  0.756465  1
  Cl  Cl9  1  0.000000  0.243693  0.756465  1
  Cl  Cl10  1  0.000000  0.756465  0.243693  1
  Cl  Cl11  1  0.243517  0.487012  0.243496  1
  Cl  Cl12  1  0.756483  0.999979  0.243496  1
  Cl  Cl13  1  0.756568  0.513413  0.756844  1
  Cl  Cl14  1  0.243432  0.000276  0.756844  1
  Cl  Cl15  1  0.243517  0.243496  0.487012  1
  Cl  Cl16  1  0.756568  0.756844  0.513413  1
  Cl  Cl17  1  0.756483  0.243496  0.999979  1
  Cl  Cl18  1  0.243432  0.756844  0.000276  1
  Cl  Cl19  1  0.000000  0.500780  0.500780  1
  Cl  Cl20  1  0.500000  0.994520  0.494520  1
  Cl  Cl21  1  0.500000  0.494520  0.994520  1
