# generated using pymatgen
data_La8Dy3Er9Si16
_symmetry_space_group_name_H-M   'P 1'
_cell_length_a   7.79891949
_cell_length_b   7.79785611
_cell_length_c   14.46507301
_cell_angle_alpha   89.93872994
_cell_angle_beta   89.95932898
_cell_angle_gamma   90.00297952
_symmetry_Int_Tables_number   1
_chemical_formula_structural   La8Dy3Er9Si16
_chemical_formula_sum   'La8 Dy3 Er9 Si16'
_cell_volume   879.69054777
_cell_formula_units_Z   1
loop_
 _symmetry_equiv_pos_site_id
 _symmetry_equiv_pos_as_xyz
  1  'x, y, z'
loop_
 _atom_site_type_symbol
 _atom_site_label
 _atom_site_symmetry_multiplicity
 _atom_site_fract_x
 _atom_site_fract_y
 _atom_site_fract_z
 _atom_site_occupancy
  La  La0  1  0.989912  0.640762  0.041492  1
  La  La1  1  0.009707  0.359166  0.542692  1
  La  La2  1  0.640969  0.990398  0.957530  1
  La  La3  1  0.141384  0.510090  0.791631  1
  La  La4  1  0.859533  0.490502  0.292473  1
  La  La5  1  0.509176  0.140687  0.207219  1
  La  La6  1  0.490047  0.858894  0.708568  1
  La  La7  1  0.359433  0.009544  0.458248  1
  Dy  Dy8  1  0.361528  0.490996  0.375467  1
  Dy  Dy9  1  0.861359  0.009164  0.375130  1
  Dy  Dy10  1  0.990981  0.137936  0.124323  1
  Er  Er11  1  0.008021  0.862039  0.625226  1
  Er  Er12  1  0.637965  0.508130  0.874228  1
  Er  Er13  1  0.491810  0.362077  0.625886  1
  Er  Er14  1  0.508326  0.638184  0.124568  1
  Er  Er15  1  0.138290  0.992123  0.875111  1
  Er  Er16  1  0.683775  0.683226  0.500393  1
  Er  Er17  1  0.817157  0.183098  0.750151  1
  Er  Er18  1  0.183879  0.816036  0.249978  1
  Er  Er19  1  0.317069  0.317006  0.999580  1
  Si  Si20  1  0.065668  0.712642  0.438366  1
  Si  Si21  1  0.933952  0.288334  0.936696  1
  Si  Si22  1  0.712013  0.066009  0.563304  1
  Si  Si23  1  0.212658  0.434591  0.187110  1
  Si  Si24  1  0.787665  0.565922  0.687585  1
  Si  Si25  1  0.434113  0.212495  0.812559  1
  Si  Si26  1  0.565588  0.787018  0.311941  1
  Si  Si27  1  0.288024  0.933491  0.061993  1
  Si  Si28  1  0.846493  0.797812  0.808062  1
  Si  Si29  1  0.154994  0.201460  0.307146  1
  Si  Si30  1  0.796993  0.844462  0.191934  1
  Si  Si31  1  0.297515  0.654372  0.559035  1
  Si  Si32  1  0.700977  0.346567  0.056728  1
  Si  Si33  1  0.654452  0.298628  0.443756  1
  Si  Si34  1  0.346292  0.702349  0.941639  1
  Si  Si35  1  0.202283  0.153791  0.692256  1
