# generated using pymatgen
data_Tb7Yb(Sn11Ru3)2
_symmetry_space_group_name_H-M   'P 1'
_cell_length_a   9.85732900
_cell_length_b   9.85732810
_cell_length_c   10.14889700
_cell_angle_alpha   90.00000000
_cell_angle_beta   90.00000000
_cell_angle_gamma   120.00000637
_symmetry_Int_Tables_number   1
_chemical_formula_structural   Tb7Yb(Sn11Ru3)2
_chemical_formula_sum   'Tb7 Yb1 Sn22 Ru6'
_cell_volume   854.01974724
_cell_formula_units_Z   1
loop_
 _symmetry_equiv_pos_site_id
 _symmetry_equiv_pos_as_xyz
  1  'x, y, z'
loop_
 _atom_site_type_symbol
 _atom_site_label
 _atom_site_symmetry_multiplicity
 _atom_site_fract_x
 _atom_site_fract_y
 _atom_site_fract_z
 _atom_site_occupancy
  Tb  Tb0  1  0.000000  0.000000  0.000000  1
  Tb  Tb1  1  0.482747  0.517253  0.306793  1
  Tb  Tb2  1  0.517253  0.482747  0.693207  1
  Tb  Tb3  1  0.482747  0.965494  0.306793  1
  Tb  Tb4  1  0.517253  0.034506  0.693207  1
  Tb  Tb5  1  0.034506  0.517253  0.306793  1
  Tb  Tb6  1  0.965494  0.482747  0.693207  1
  Yb  Yb7  1  0.000000  0.000000  0.500000  1
  Sn  Sn8  1  0.348957  0.000000  0.000000  1
  Sn  Sn9  1  0.651043  0.000000  0.000000  1
  Sn  Sn10  1  0.000000  0.348957  0.000000  1
  Sn  Sn11  1  0.000000  0.651043  0.000000  1
  Sn  Sn12  1  0.651043  0.651043  0.000000  1
  Sn  Sn13  1  0.348957  0.348957  0.000000  1
  Sn  Sn14  1  0.333333  0.666667  0.821404  1
  Sn  Sn15  1  0.666667  0.333333  0.178596  1
  Sn  Sn16  1  0.780554  0.219446  0.460823  1
  Sn  Sn17  1  0.219446  0.780554  0.539177  1
  Sn  Sn18  1  0.780554  0.561108  0.460823  1
  Sn  Sn19  1  0.219446  0.438892  0.539177  1
  Sn  Sn20  1  0.438892  0.219446  0.460823  1
  Sn  Sn21  1  0.561108  0.780554  0.539177  1
  Sn  Sn22  1  0.333333  0.666667  0.125095  1
  Sn  Sn23  1  0.666667  0.333333  0.874905  1
  Sn  Sn24  1  0.125676  0.874324  0.261564  1
  Sn  Sn25  1  0.874324  0.125676  0.738436  1
  Sn  Sn26  1  0.125676  0.251352  0.261564  1
  Sn  Sn27  1  0.874324  0.748648  0.738436  1
  Sn  Sn28  1  0.748648  0.874324  0.261564  1
  Sn  Sn29  1  0.251352  0.125676  0.738436  1
  Ru  Ru30  1  0.831789  0.168211  0.203524  1
  Ru  Ru31  1  0.168211  0.831789  0.796476  1
  Ru  Ru32  1  0.831789  0.663578  0.203524  1
  Ru  Ru33  1  0.168211  0.336422  0.796476  1
  Ru  Ru34  1  0.336422  0.168211  0.203524  1
  Ru  Ru35  1  0.663578  0.831789  0.796476  1
