# generated using pymatgen
data_UTa2Co7Ni13B6
_symmetry_space_group_name_H-M   'P 1'
_cell_length_a   7.50683427
_cell_length_b   7.50683502
_cell_length_c   7.50683487
_cell_angle_alpha   60.04516598
_cell_angle_beta   60.04515997
_cell_angle_gamma   60.04516560
_symmetry_Int_Tables_number   1
_chemical_formula_structural   UTa2Co7Ni13B6
_chemical_formula_sum   'U1 Ta2 Co7 Ni13 B6'
_cell_volume   299.43317692
_cell_formula_units_Z   1
loop_
 _symmetry_equiv_pos_site_id
 _symmetry_equiv_pos_as_xyz
  1  'x, y, z'
loop_
 _atom_site_type_symbol
 _atom_site_label
 _atom_site_symmetry_multiplicity
 _atom_site_fract_x
 _atom_site_fract_y
 _atom_site_fract_z
 _atom_site_occupancy
  U  U0  1  0.749983  0.749983  0.749983  1
  Ta  Ta1  1  0.999910  0.999910  0.999910  1
  Ta  Ta2  1  0.248109  0.248109  0.248109  1
  Co  Co3  1  0.617556  0.617556  0.147590  1
  Co  Co4  1  0.617556  0.147590  0.617556  1
  Co  Co5  1  0.147590  0.617556  0.617556  1
  Co  Co6  1  0.617246  0.617246  0.617246  1
  Co  Co7  1  0.383460  0.383460  0.849195  1
  Co  Co8  1  0.383460  0.849195  0.383460  1
  Co  Co9  1  0.849195  0.383460  0.383460  1
  Ni  Ni10  1  0.384485  0.384485  0.384485  1
  Ni  Ni11  1  0.001597  0.001597  0.339705  1
  Ni  Ni12  1  0.656675  0.002245  0.339176  1
  Ni  Ni13  1  0.002245  0.656675  0.339176  1
  Ni  Ni14  1  0.656675  0.339176  0.002245  1
  Ni  Ni15  1  0.001597  0.339705  0.001597  1
  Ni  Ni16  1  0.002245  0.339176  0.656675  1
  Ni  Ni17  1  0.339176  0.656675  0.002245  1
  Ni  Ni18  1  0.339176  0.002245  0.656675  1
  Ni  Ni19  1  0.339705  0.001597  0.001597  1
  Ni  Ni20  1  0.002178  0.002178  0.657141  1
  Ni  Ni21  1  0.002178  0.657141  0.002178  1
  Ni  Ni22  1  0.657141  0.002178  0.002178  1
  B  B23  1  0.726155  0.726155  0.274413  1
  B  B24  1  0.272240  0.729660  0.272240  1
  B  B25  1  0.729660  0.272240  0.272240  1
  B  B26  1  0.272240  0.272240  0.729660  1
  B  B27  1  0.726155  0.274413  0.726155  1
  B  B28  1  0.274413  0.726155  0.726155  1
