# generated using pymatgen
data_Zr17Ni4Os3
_symmetry_space_group_name_H-M   'P 1'
_cell_length_a   8.77713667
_cell_length_b   8.77713660
_cell_length_c   8.79929501
_cell_angle_alpha   60.08327060
_cell_angle_beta   60.08327309
_cell_angle_gamma   60.00000548
_symmetry_Int_Tables_number   1
_chemical_formula_structural   Zr17Ni4Os3
_chemical_formula_sum   'Zr17 Ni4 Os3'
_cell_volume   479.93685136
_cell_formula_units_Z   1
loop_
 _symmetry_equiv_pos_site_id
 _symmetry_equiv_pos_as_xyz
  1  'x, y, z'
loop_
 _atom_site_type_symbol
 _atom_site_label
 _atom_site_symmetry_multiplicity
 _atom_site_fract_x
 _atom_site_fract_y
 _atom_site_fract_z
 _atom_site_occupancy
  Zr  Zr0  1  0.193007  0.601118  0.604759  1
  Zr  Zr1  1  0.601118  0.193007  0.604759  1
  Zr  Zr2  1  0.601118  0.601118  0.604759  1
  Zr  Zr3  1  0.603524  0.603524  0.189429  1
  Zr  Zr4  1  0.455486  0.455486  0.044826  1
  Zr  Zr5  1  0.049808  0.049808  0.452791  1
  Zr  Zr6  1  0.455486  0.044201  0.044826  1
  Zr  Zr7  1  0.049808  0.447593  0.452791  1
  Zr  Zr8  1  0.044201  0.455486  0.044826  1
  Zr  Zr9  1  0.447593  0.049808  0.452791  1
  Zr  Zr10  1  0.815660  0.815660  0.179942  1
  Zr  Zr11  1  0.184851  0.184851  0.816124  1
  Zr  Zr12  1  0.815660  0.188738  0.179942  1
  Zr  Zr13  1  0.184851  0.814172  0.816124  1
  Zr  Zr14  1  0.188738  0.815660  0.179942  1
  Zr  Zr15  1  0.814172  0.184851  0.816124  1
  Zr  Zr16  1  0.829917  0.829917  0.510247  1
  Ni  Ni17  1  0.826056  0.392147  0.389650  1
  Ni  Ni18  1  0.392147  0.826056  0.389650  1
  Ni  Ni19  1  0.392147  0.392147  0.389650  1
  Ni  Ni20  1  0.390796  0.390796  0.827613  1
  Os  Os21  1  0.498754  0.832550  0.836146  1
  Os  Os22  1  0.832550  0.498754  0.836146  1
  Os  Os23  1  0.832550  0.832550  0.836146  1
