# generated using pymatgen
data_TbPrY10Fe2I17
_symmetry_space_group_name_H-M   'P 1'
_cell_length_a   9.75028947
_cell_length_b   11.75906961
_cell_length_c   11.72425145
_cell_angle_alpha   93.49607368
_cell_angle_beta   104.68734637
_cell_angle_gamma   114.34919407
_symmetry_Int_Tables_number   1
_chemical_formula_structural   TbPrY10Fe2I17
_chemical_formula_sum   'Tb1 Pr1 Y10 Fe2 I17'
_cell_volume   1163.56743232
_cell_formula_units_Z   1
loop_
 _symmetry_equiv_pos_site_id
 _symmetry_equiv_pos_as_xyz
  1  'x, y, z'
loop_
 _atom_site_type_symbol
 _atom_site_label
 _atom_site_symmetry_multiplicity
 _atom_site_fract_x
 _atom_site_fract_y
 _atom_site_fract_z
 _atom_site_occupancy
  Tb  Tb0  1  0.051328  0.500254  0.320506  1
  Pr  Pr1  1  0.854348  0.712912  0.846476  1
  Y  Y2  1  0.991367  0.810222  0.584537  1
  Y  Y3  1  0.654080  0.241461  0.281869  1
  Y  Y4  1  0.007072  0.191994  0.409966  1
  Y  Y5  1  0.219863  0.670464  0.985892  1
  Y  Y6  1  0.257491  0.981105  0.889458  1
  Y  Y7  1  0.337675  0.757866  0.719984  1
  Y  Y8  1  0.945890  0.492938  0.677901  1
  Y  Y9  1  0.747358  0.025078  0.112327  1
  Y  Y10  1  0.144454  0.287805  0.154515  1
  Y  Y11  1  0.783029  0.327514  0.018932  1
  Fe  Fe12  1  0.100736  0.737342  0.785693  1
  Fe  Fe13  1  0.896697  0.262566  0.215009  1
  I  I14  1  0.782811  0.528703  0.418646  1
  I  I15  1  0.643409  0.410097  0.759552  1
  I  I16  1  0.845341  0.896467  0.326438  1
  I  I17  1  0.329852  0.214359  0.368616  1
  I  I18  1  0.156402  0.103469  0.672842  1
  I  I19  1  0.585098  0.050815  0.842320  1
  I  I20  1  0.758431  0.187605  0.539835  1
  I  I21  1  0.546788  0.711969  0.954065  1
  I  I22  1  0.357914  0.581945  0.238145  1
  I  I23  1  0.218058  0.472737  0.584758  1
  I  I24  1  0.059087  0.369233  0.896430  1
  I  I25  1  0.448709  0.289258  0.045090  1
  I  I26  1  0.004389  0.004431  0.001149  1
  I  I27  1  0.242458  0.812031  0.462785  1
  I  I28  1  0.412044  0.946168  0.156021  1
  I  I29  1  0.670689  0.789656  0.623237  1
  I  I30  1  0.947131  0.631535  0.107009  1
