# generated using pymatgen
data_PrY2Ho2(In2Pd)2
_symmetry_space_group_name_H-M   'P 1'
_cell_length_a   3.65249100
_cell_length_b   8.22235500
_cell_length_c   18.39103600
_cell_angle_alpha   90.00000000
_cell_angle_beta   90.00000000
_cell_angle_gamma   90.00000000
_symmetry_Int_Tables_number   1
_chemical_formula_structural   PrY2Ho2(In2Pd)2
_chemical_formula_sum   'Pr2 Y4 Ho4 In8 Pd4'
_cell_volume   552.32102096
_cell_formula_units_Z   2
loop_
 _symmetry_equiv_pos_site_id
 _symmetry_equiv_pos_as_xyz
  1  'x, y, z'
loop_
 _atom_site_type_symbol
 _atom_site_label
 _atom_site_symmetry_multiplicity
 _atom_site_fract_x
 _atom_site_fract_y
 _atom_site_fract_z
 _atom_site_occupancy
  Pr  Pr0  1  0.000000  0.500000  0.500000  1
  Pr  Pr1  1  0.000000  0.000000  0.000000  1
  Y  Y2  1  0.000000  0.738568  0.282735  1
  Y  Y3  1  0.000000  0.261432  0.717265  1
  Y  Y4  1  0.000000  0.761432  0.782735  1
  Y  Y5  1  0.000000  0.238568  0.217265  1
  Ho  Ho6  1  0.000000  0.621310  0.084556  1
  Ho  Ho7  1  0.000000  0.378690  0.915444  1
  Ho  Ho8  1  0.000000  0.878690  0.584556  1
  Ho  Ho9  1  0.000000  0.121310  0.415444  1
  In  In10  1  0.500000  0.698494  0.932081  1
  In  In11  1  0.500000  0.301506  0.067919  1
  In  In12  1  0.500000  0.801506  0.432081  1
  In  In13  1  0.500000  0.198494  0.567919  1
  In  In14  1  0.500000  0.583286  0.653867  1
  In  In15  1  0.500000  0.416714  0.346133  1
  In  In16  1  0.500000  0.916714  0.153867  1
  In  In17  1  0.500000  0.083286  0.846133  1
  Pd  Pd18  1  0.500000  0.525222  0.195106  1
  Pd  Pd19  1  0.500000  0.474778  0.804894  1
  Pd  Pd20  1  0.500000  0.974778  0.695106  1
  Pd  Pd21  1  0.500000  0.025222  0.304894  1
