# generated using pymatgen
data_LiEr4B16IrW2
_symmetry_space_group_name_H-M   'P 1'
_cell_length_a   3.58518500
_cell_length_b   5.96356556
_cell_length_c   11.51243138
_cell_angle_alpha   89.87449090
_cell_angle_beta   90.00000000
_cell_angle_gamma   90.00000000
_symmetry_Int_Tables_number   1
_chemical_formula_structural   LiEr4B16IrW2
_chemical_formula_sum   'Li1 Er4 B16 Ir1 W2'
_cell_volume   246.14078483
_cell_formula_units_Z   1
loop_
 _symmetry_equiv_pos_site_id
 _symmetry_equiv_pos_as_xyz
  1  'x, y, z'
loop_
 _atom_site_type_symbol
 _atom_site_label
 _atom_site_symmetry_multiplicity
 _atom_site_fract_x
 _atom_site_fract_y
 _atom_site_fract_z
 _atom_site_occupancy
  Li  Li0  1  0.000000  0.637724  0.086698  1
  Er  Er1  1  0.000000  0.626381  0.347494  1
  Er  Er2  1  0.000000  0.371367  0.651137  1
  Er  Er3  1  0.000000  0.126294  0.146104  1
  Er  Er4  1  0.000000  0.874133  0.854830  1
  B  B5  1  0.500000  0.783870  0.182136  1
  B  B6  1  0.500000  0.213418  0.817047  1
  B  B7  1  0.500000  0.292622  0.309796  1
  B  B8  1  0.500000  0.708231  0.689124  1
  B  B9  1  0.500000  0.864066  0.032450  1
  B  B10  1  0.500000  0.134898  0.969521  1
  B  B11  1  0.500000  0.366784  0.467342  1
  B  B12  1  0.500000  0.631212  0.532357  1
  B  B13  1  0.500000  0.883860  0.452420  1
  B  B14  1  0.500000  0.114256  0.547647  1
  B  B15  1  0.500000  0.385122  0.046636  1
  B  B16  1  0.500000  0.614465  0.952414  1
  B  B17  1  0.500000  0.972475  0.303230  1
  B  B18  1  0.500000  0.025052  0.695896  1
  B  B19  1  0.500000  0.482861  0.190712  1
  B  B20  1  0.500000  0.521229  0.809389  1
  Ir  Ir21  1  0.000000  0.371681  0.914162  1
  W  W22  1  0.000000  0.129082  0.413927  1
  W  W23  1  0.000000  0.868917  0.587532  1
