# generated using pymatgen
data_Y7Sn23(Os2Pt)2
_symmetry_space_group_name_H-M   'P 1'
_cell_length_a   9.90814600
_cell_length_b   9.89251679
_cell_length_c   10.13921478
_cell_angle_alpha   89.55932462
_cell_angle_beta   90.00000000
_cell_angle_gamma   120.05228320
_symmetry_Int_Tables_number   1
_chemical_formula_structural   Y7Sn23(Os2Pt)2
_chemical_formula_sum   'Y7 Sn23 Os4 Pt2'
_cell_volume   860.17726109
_cell_formula_units_Z   1
loop_
 _symmetry_equiv_pos_site_id
 _symmetry_equiv_pos_as_xyz
  1  'x, y, z'
loop_
 _atom_site_type_symbol
 _atom_site_label
 _atom_site_symmetry_multiplicity
 _atom_site_fract_x
 _atom_site_fract_y
 _atom_site_fract_z
 _atom_site_occupancy
  Y  Y0  1  0.003052  0.006105  0.005849  1
  Y  Y1  1  0.033795  0.516686  0.305550  1
  Y  Y2  1  0.483500  0.967000  0.305717  1
  Y  Y3  1  0.482891  0.516686  0.305550  1
  Y  Y4  1  0.962202  0.479456  0.692120  1
  Y  Y5  1  0.519456  0.038913  0.691330  1
  Y  Y6  1  0.517253  0.479456  0.692120  1
  Sn  Sn7  1  0.999414  0.998828  0.503093  1
  Sn  Sn8  1  0.116618  0.883471  0.279472  1
  Sn  Sn9  1  0.766852  0.883471  0.279472  1
  Sn  Sn10  1  0.116748  0.233497  0.278839  1
  Sn  Sn11  1  0.884979  0.120046  0.716869  1
  Sn  Sn12  1  0.235068  0.120046  0.716869  1
  Sn  Sn13  1  0.881738  0.763475  0.715985  1
  Sn  Sn14  1  0.354221  0.003894  0.002318  1
  Sn  Sn15  1  0.648913  0.644461  0.001966  1
  Sn  Sn16  1  0.001184  0.350106  0.000520  1
  Sn  Sn17  1  0.348921  0.350106  0.000520  1
  Sn  Sn18  1  0.995548  0.644461  0.001966  1
  Sn  Sn19  1  0.649673  0.003894  0.002318  1
  Sn  Sn20  1  0.778517  0.557036  0.458481  1
  Sn  Sn21  1  0.779223  0.220599  0.458481  1
  Sn  Sn22  1  0.441375  0.220599  0.458481  1
  Sn  Sn23  1  0.220780  0.441559  0.540679  1
  Sn  Sn24  1  0.221859  0.778417  0.538457  1
  Sn  Sn25  1  0.556559  0.778417  0.538457  1
  Sn  Sn26  1  0.667061  0.334121  0.174317  1
  Sn  Sn27  1  0.329691  0.659383  0.827003  1
  Sn  Sn28  1  0.667288  0.334575  0.876767  1
  Sn  Sn29  1  0.334449  0.668899  0.123194  1
  Os  Os30  1  0.169065  0.338129  0.801074  1
  Os  Os31  1  0.831111  0.169709  0.201036  1
  Os  Os32  1  0.338598  0.169709  0.201036  1
  Os  Os33  1  0.831617  0.663233  0.200857  1
  Pt  Pt34  1  0.172191  0.830779  0.801620  1
  Pt  Pt35  1  0.658588  0.830779  0.801620  1
