# generated using pymatgen
data_RbNbOsBr11
_symmetry_space_group_name_H-M   'P 1'
_cell_length_a   7.57719385
_cell_length_b   7.64579075
_cell_length_c   18.80069871
_cell_angle_alpha   79.15037297
_cell_angle_beta   79.03822875
_cell_angle_gamma   88.17085213
_symmetry_Int_Tables_number   1
_chemical_formula_structural   RbNbOsBr11
_chemical_formula_sum   'Rb2 Nb2 Os2 Br22'
_cell_volume   1050.19675763
_cell_formula_units_Z   2
loop_
 _symmetry_equiv_pos_site_id
 _symmetry_equiv_pos_as_xyz
  1  'x, y, z'
loop_
 _atom_site_type_symbol
 _atom_site_label
 _atom_site_symmetry_multiplicity
 _atom_site_fract_x
 _atom_site_fract_y
 _atom_site_fract_z
 _atom_site_occupancy
  Rb  Rb0  1  0.747354  0.747747  0.503847  1
  Rb  Rb1  1  0.252646  0.252253  0.496153  1
  Nb  Nb2  1  0.830295  0.329022  0.087447  1
  Nb  Nb3  1  0.169705  0.670978  0.912553  1
  Os  Os4  1  0.323312  0.820581  0.342648  1
  Os  Os5  1  0.676688  0.179419  0.657352  1
  Br  Br6  1  0.255296  0.772676  0.484935  1
  Br  Br7  1  0.744704  0.227324  0.515065  1
  Br  Br8  1  0.570697  0.023790  0.344583  1
  Br  Br9  1  0.429303  0.976210  0.655417  1
  Br  Br10  1  0.535134  0.564887  0.352666  1
  Br  Br11  1  0.464866  0.435113  0.647334  1
  Br  Br12  1  0.384655  0.861011  0.209769  1
  Br  Br13  1  0.615345  0.138989  0.790231  1
  Br  Br14  1  0.071245  0.609559  0.353378  1
  Br  Br15  1  0.928755  0.390441  0.646622  1
  Br  Br16  1  0.110434  0.073569  0.340677  1
  Br  Br17  1  0.889566  0.926431  0.659323  1
  Br  Br18  1  0.900151  0.030165  0.148243  1
  Br  Br19  1  0.099849  0.969835  0.851757  1
  Br  Br20  1  0.525914  0.380758  0.150946  1
  Br  Br21  1  0.474086  0.619242  0.849054  1
  Br  Br22  1  0.721079  0.217081  0.986877  1
  Br  Br23  1  0.278921  0.782919  0.013123  1
  Br  Br24  1  0.973626  0.478535  0.169541  1
  Br  Br25  1  0.026374  0.521465  0.830459  1
  Br  Br26  1  0.167669  0.339747  0.999524  1
  Br  Br27  1  0.832331  0.660253  0.000476  1
