# generated using pymatgen
data_Tb5Sc5(Si5Ir2)4
_symmetry_space_group_name_H-M   'P 1'
_cell_length_a   12.52004500
_cell_length_b   12.52004500
_cell_length_c   4.18047000
_cell_angle_alpha   90.00000000
_cell_angle_beta   90.00000000
_cell_angle_gamma   90.00000000
_symmetry_Int_Tables_number   1
_chemical_formula_structural   Tb5Sc5(Si5Ir2)4
_chemical_formula_sum   'Tb5 Sc5 Si20 Ir8'
_cell_volume   655.29505525
_cell_formula_units_Z   1
loop_
 _symmetry_equiv_pos_site_id
 _symmetry_equiv_pos_as_xyz
  1  'x, y, z'
loop_
 _atom_site_type_symbol
 _atom_site_label
 _atom_site_symmetry_multiplicity
 _atom_site_fract_x
 _atom_site_fract_y
 _atom_site_fract_z
 _atom_site_occupancy
  Tb  Tb0  1  0.000000  0.000000  0.000000  1
  Tb  Tb1  1  0.884147  0.385396  0.500000  1
  Tb  Tb2  1  0.115853  0.614604  0.500000  1
  Tb  Tb3  1  0.385396  0.115853  0.500000  1
  Tb  Tb4  1  0.614604  0.884147  0.500000  1
  Sc  Sc5  1  0.500000  0.500000  0.000000  1
  Sc  Sc6  1  0.673028  0.174891  0.500000  1
  Sc  Sc7  1  0.326972  0.825109  0.500000  1
  Sc  Sc8  1  0.174891  0.326972  0.500000  1
  Sc  Sc9  1  0.825109  0.673028  0.500000  1
  Si  Si10  1  0.566738  0.068690  0.000000  1
  Si  Si11  1  0.433262  0.931310  0.000000  1
  Si  Si12  1  0.068690  0.433262  0.000000  1
  Si  Si13  1  0.931310  0.566738  0.000000  1
  Si  Si14  1  0.665466  0.699296  0.000000  1
  Si  Si15  1  0.334534  0.300704  0.000000  1
  Si  Si16  1  0.166011  0.800035  0.000000  1
  Si  Si17  1  0.833989  0.199965  0.000000  1
  Si  Si18  1  0.300704  0.665466  0.000000  1
  Si  Si19  1  0.699296  0.334534  0.000000  1
  Si  Si20  1  0.199965  0.166011  0.000000  1
  Si  Si21  1  0.800035  0.833989  0.000000  1
  Si  Si22  1  0.650597  0.506834  0.500000  1
  Si  Si23  1  0.349403  0.493166  0.500000  1
  Si  Si24  1  0.157543  0.993662  0.500000  1
  Si  Si25  1  0.842457  0.006338  0.500000  1
  Si  Si26  1  0.493166  0.650597  0.500000  1
  Si  Si27  1  0.506834  0.349403  0.500000  1
  Si  Si28  1  0.006338  0.157543  0.500000  1
  Si  Si29  1  0.993662  0.842457  0.500000  1
  Ir  Ir30  1  0.743370  0.520133  0.000000  1
  Ir  Ir31  1  0.256630  0.479867  0.000000  1
  Ir  Ir32  1  0.247196  0.979555  0.000000  1
  Ir  Ir33  1  0.752804  0.020445  0.000000  1
  Ir  Ir34  1  0.479867  0.743370  0.000000  1
  Ir  Ir35  1  0.520133  0.256630  0.000000  1
  Ir  Ir36  1  0.020445  0.247196  0.000000  1
  Ir  Ir37  1  0.979555  0.752804  0.000000  1
