# generated using pymatgen
data_Ta5TiAl4(IrN)2
_symmetry_space_group_name_H-M   'P 1'
_cell_length_a   8.25555903
_cell_length_b   8.25555892
_cell_length_c   8.24102300
_cell_angle_alpha   60.05822383
_cell_angle_beta   60.05822430
_cell_angle_gamma   59.88355044
_symmetry_Int_Tables_number   1
_chemical_formula_structural   Ta5TiAl4(IrN)2
_chemical_formula_sum   'Ta10 Ti2 Al8 Ir4 N4'
_cell_volume   397.15168024
_cell_formula_units_Z   2
loop_
 _symmetry_equiv_pos_site_id
 _symmetry_equiv_pos_as_xyz
  1  'x, y, z'
loop_
 _atom_site_type_symbol
 _atom_site_label
 _atom_site_symmetry_multiplicity
 _atom_site_fract_x
 _atom_site_fract_y
 _atom_site_fract_z
 _atom_site_occupancy
  Ta  Ta0  1  0.814190  0.814190  0.185810  1
  Ta  Ta1  1  0.063470  0.435895  0.435651  1
  Ta  Ta2  1  0.435895  0.063470  0.064985  1
  Ta  Ta3  1  0.064190  0.064190  0.435810  1
  Ta  Ta4  1  0.063470  0.435895  0.064985  1
  Ta  Ta5  1  0.435895  0.063470  0.435651  1
  Ta  Ta6  1  0.185015  0.814349  0.186530  1
  Ta  Ta7  1  0.185015  0.814349  0.814105  1
  Ta  Ta8  1  0.814349  0.185015  0.186530  1
  Ta  Ta9  1  0.814349  0.185015  0.814105  1
  Ti  Ti10  1  0.436025  0.436025  0.063975  1
  Ti  Ti11  1  0.186025  0.186025  0.813975  1
  Al  Al12  1  0.416156  0.750839  0.416502  1
  Al  Al13  1  0.833498  0.833498  0.499161  1
  Al  Al14  1  0.497703  0.835154  0.833572  1
  Al  Al15  1  0.833498  0.833498  0.833844  1
  Al  Al16  1  0.750839  0.416156  0.416502  1
  Al  Al17  1  0.416428  0.416428  0.414846  1
  Al  Al18  1  0.416428  0.416428  0.752297  1
  Al  Al19  1  0.835154  0.497703  0.833572  1
  Ir  Ir20  1  0.623936  0.125573  0.625246  1
  Ir  Ir21  1  0.624754  0.624754  0.124427  1
  Ir  Ir22  1  0.125573  0.623936  0.625246  1
  Ir  Ir23  1  0.624754  0.624754  0.626064  1
  N  N24  1  0.129753  0.621942  0.124152  1
  N  N25  1  0.125848  0.125848  0.628058  1
  N  N26  1  0.621942  0.129753  0.124152  1
  N  N27  1  0.125848  0.125848  0.120247  1
