# generated using pymatgen
data_Dy7Th(CdAu2)4
_symmetry_space_group_name_H-M   'P 1'
_cell_length_a   8.02534600
_cell_length_b   8.02534744
_cell_length_c   7.47907200
_cell_angle_alpha   90.00000000
_cell_angle_beta   90.00000000
_cell_angle_gamma   90.03432601
_symmetry_Int_Tables_number   1
_chemical_formula_structural   Dy7Th(CdAu2)4
_chemical_formula_sum   'Dy7 Th1 Cd4 Au8'
_cell_volume   481.69844565
_cell_formula_units_Z   1
loop_
 _symmetry_equiv_pos_site_id
 _symmetry_equiv_pos_as_xyz
  1  'x, y, z'
loop_
 _atom_site_type_symbol
 _atom_site_label
 _atom_site_symmetry_multiplicity
 _atom_site_fract_x
 _atom_site_fract_y
 _atom_site_fract_z
 _atom_site_occupancy
  Dy  Dy0  1  0.168316  0.831684  0.500000  1
  Dy  Dy1  1  0.330559  0.335775  0.000000  1
  Dy  Dy2  1  0.664225  0.669441  0.000000  1
  Dy  Dy3  1  0.674438  0.672414  0.500000  1
  Dy  Dy4  1  0.327586  0.325562  0.500000  1
  Dy  Dy5  1  0.176041  0.823959  0.000000  1
  Dy  Dy6  1  0.827710  0.172290  0.000000  1
  Th  Th7  1  0.830688  0.169312  0.500000  1
  Cd  Cd8  1  0.496643  0.997687  0.260334  1
  Cd  Cd9  1  0.002313  0.503357  0.739666  1
  Cd  Cd10  1  0.496643  0.997687  0.739666  1
  Cd  Cd11  1  0.002313  0.503357  0.260334  1
  Au  Au12  1  0.627421  0.372579  0.247280  1
  Au  Au13  1  0.371132  0.628868  0.257598  1
  Au  Au14  1  0.131026  0.128317  0.759902  1
  Au  Au15  1  0.871683  0.868974  0.759902  1
  Au  Au16  1  0.371132  0.628868  0.742402  1
  Au  Au17  1  0.627421  0.372579  0.752720  1
  Au  Au18  1  0.871683  0.868974  0.240098  1
  Au  Au19  1  0.131026  0.128317  0.240098  1
