# generated using pymatgen
data_Pa2BiC
_symmetry_space_group_name_H-M   'P 1'
_cell_length_a   3.43253000
_cell_length_b   3.43252984
_cell_length_c   17.15161100
_cell_angle_alpha   90.00000000
_cell_angle_beta   90.00000000
_cell_angle_gamma   120.00000150
_symmetry_Int_Tables_number   1
_chemical_formula_structural   Pa2BiC
_chemical_formula_sum   'Pa4 Bi2 C2'
_cell_volume   175.01054089
_cell_formula_units_Z   2
loop_
 _symmetry_equiv_pos_site_id
 _symmetry_equiv_pos_as_xyz
  1  'x, y, z'
loop_
 _atom_site_type_symbol
 _atom_site_label
 _atom_site_symmetry_multiplicity
 _atom_site_fract_x
 _atom_site_fract_y
 _atom_site_fract_z
 _atom_site_occupancy
  Pa  Pa0  1  0.666667  0.333333  0.085563  1
  Pa  Pa1  1  0.666667  0.333333  0.414437  1
  Pa  Pa2  1  0.333333  0.666666  0.585562  1
  Pa  Pa3  1  0.333333  0.666666  0.914437  1
  Bi  Bi4  1  0.333333  0.666666  0.250000  1
  Bi  Bi5  1  0.666667  0.333333  0.750000  1
  C  C6  1  0.000000  0.000000  0.000000  1
  C  C7  1  0.000000  0.000000  0.500000  1
