# generated using pymatgen
data_La3Pr3(BePd5)2
_symmetry_space_group_name_H-M   'P 1'
_cell_length_a   8.35995429
_cell_length_b   8.34447027
_cell_length_c   8.34447049
_cell_angle_alpha   126.52662333
_cell_angle_beta   125.53364195
_cell_angle_gamma   79.79754167
_symmetry_Int_Tables_number   1
_chemical_formula_structural   La3Pr3(BePd5)2
_chemical_formula_sum   'La3 Pr3 Be2 Pd10'
_cell_volume   367.75901140
_cell_formula_units_Z   1
loop_
 _symmetry_equiv_pos_site_id
 _symmetry_equiv_pos_as_xyz
  1  'x, y, z'
loop_
 _atom_site_type_symbol
 _atom_site_label
 _atom_site_symmetry_multiplicity
 _atom_site_fract_x
 _atom_site_fract_y
 _atom_site_fract_z
 _atom_site_occupancy
  La  La0  1  0.395256  0.249397  0.145858  1
  La  La1  1  0.781540  0.552140  0.229398  1
  La  La2  1  0.604989  0.750129  0.854860  1
  Pr  Pr3  1  0.823681  0.052003  0.771677  1
  Pr  Pr4  1  0.218112  0.447538  0.770573  1
  Pr  Pr5  1  0.176071  0.948078  0.227993  1
  Be  Be6  1  0.209134  0.750709  0.458425  1
  Be  Be7  1  0.792912  0.249902  0.543009  1
  Pd  Pd8  1  0.827387  0.586502  0.640577  1
  Pd  Pd9  1  0.554476  0.313278  0.640412  1
  Pd  Pd10  1  0.444438  0.085431  0.758315  1
  Pd  Pd11  1  0.827387  0.186810  0.240884  1
  Pd  Pd12  1  0.172534  0.414129  0.359018  1
  Pd  Pd13  1  0.444438  0.686125  0.359008  1
  Pd  Pd14  1  0.554476  0.914063  0.241197  1
  Pd  Pd15  1  0.172534  0.813516  0.758404  1
  Pd  Pd16  1  0.000318  0.000212  0.500283  1
  Pd  Pd17  1  0.000318  0.500034  0.000105  1
