# generated using pymatgen
data_Dy6Lu4In5Te
_symmetry_space_group_name_H-M   'P 1'
_cell_length_a   6.50195700
_cell_length_b   8.98345222
_cell_length_c   8.93510960
_cell_angle_alpha   120.16424057
_cell_angle_beta   90.00153928
_cell_angle_gamma   89.99843994
_symmetry_Int_Tables_number   1
_chemical_formula_structural   Dy6Lu4In5Te
_chemical_formula_sum   'Dy6 Lu4 In5 Te1'
_cell_volume   451.22871884
_cell_formula_units_Z   1
loop_
 _symmetry_equiv_pos_site_id
 _symmetry_equiv_pos_as_xyz
  1  'x, y, z'
loop_
 _atom_site_type_symbol
 _atom_site_label
 _atom_site_symmetry_multiplicity
 _atom_site_fract_x
 _atom_site_fract_y
 _atom_site_fract_z
 _atom_site_occupancy
  Dy  Dy0  1  0.749991  0.232219  0.000083  1
  Dy  Dy1  1  0.750032  0.766034  0.757468  1
  Dy  Dy2  1  0.750003  0.008434  0.242532  1
  Dy  Dy3  1  0.250025  0.763288  0.000087  1
  Dy  Dy4  1  0.249992  0.236222  0.237564  1
  Dy  Dy5  1  0.250002  0.998814  0.762326  1
  Lu  Lu6  1  0.495518  0.329542  0.663887  1
  Lu  Lu7  1  0.495458  0.665891  0.336105  1
  Lu  Lu8  1  0.004536  0.665927  0.336126  1
  Lu  Lu9  1  0.004461  0.329564  0.663886  1
  In  In10  1  0.749994  0.404616  0.403512  1
  In  In11  1  0.749998  0.001093  0.596237  1
  In  In12  1  0.249983  0.397707  0.000180  1
  In  In13  1  0.250003  0.596613  0.600838  1
  In  In14  1  0.250009  0.995742  0.399182  1
  Te  Te15  1  0.749997  0.608297  0.999987  1
