# generated using pymatgen
data_ErLu4In4AgPt
_symmetry_space_group_name_H-M   'P 1'
_cell_length_a   3.57827300
_cell_length_b   8.10582815
_cell_length_c   18.16979019
_cell_angle_alpha   90.00269086
_cell_angle_beta   90.00000000
_cell_angle_gamma   90.00000000
_symmetry_Int_Tables_number   1
_chemical_formula_structural   ErLu4In4AgPt
_chemical_formula_sum   'Er2 Lu8 In8 Ag2 Pt2'
_cell_volume   527.01232946
_cell_formula_units_Z   2
loop_
 _symmetry_equiv_pos_site_id
 _symmetry_equiv_pos_as_xyz
  1  'x, y, z'
loop_
 _atom_site_type_symbol
 _atom_site_label
 _atom_site_symmetry_multiplicity
 _atom_site_fract_x
 _atom_site_fract_y
 _atom_site_fract_z
 _atom_site_occupancy
  Er  Er0  1  0.000000  0.000000  0.000000  1
  Er  Er1  1  0.000000  0.500000  0.500000  1
  Lu  Lu2  1  0.000000  0.122277  0.421071  1
  Lu  Lu3  1  0.000000  0.877723  0.578929  1
  Lu  Lu4  1  0.000000  0.383114  0.916369  1
  Lu  Lu5  1  0.000000  0.616886  0.083631  1
  Lu  Lu6  1  0.000000  0.256794  0.216009  1
  Lu  Lu7  1  0.000000  0.743206  0.783991  1
  Lu  Lu8  1  0.000000  0.274115  0.721414  1
  Lu  Lu9  1  0.000000  0.725885  0.278586  1
  In  In10  1  0.500000  0.418809  0.352542  1
  In  In11  1  0.500000  0.581191  0.647458  1
  In  In12  1  0.500000  0.076971  0.851732  1
  In  In13  1  0.500000  0.923029  0.148268  1
  In  In14  1  0.500000  0.293114  0.064980  1
  In  In15  1  0.500000  0.706886  0.935020  1
  In  In16  1  0.500000  0.207456  0.568266  1
  In  In17  1  0.500000  0.792544  0.431734  1
  Ag  Ag18  1  0.500000  0.026545  0.302113  1
  Ag  Ag19  1  0.500000  0.973455  0.697887  1
  Pt  Pt20  1  0.500000  0.472988  0.804251  1
  Pt  Pt21  1  0.500000  0.527012  0.195749  1
