# generated using pymatgen
data_Li3V2Co3Ni6As7
_symmetry_space_group_name_H-M   'P 1'
_cell_length_a   9.41206307
_cell_length_b   9.40239493
_cell_length_c   3.69525000
_cell_angle_alpha   90.00000000
_cell_angle_beta   90.00000000
_cell_angle_gamma   120.29262370
_symmetry_Int_Tables_number   1
_chemical_formula_structural   Li3V2Co3Ni6As7
_chemical_formula_sum   'Li3 V2 Co3 Ni6 As7'
_cell_volume   282.36418945
_cell_formula_units_Z   1
loop_
 _symmetry_equiv_pos_site_id
 _symmetry_equiv_pos_as_xyz
  1  'x, y, z'
loop_
 _atom_site_type_symbol
 _atom_site_label
 _atom_site_symmetry_multiplicity
 _atom_site_fract_x
 _atom_site_fract_y
 _atom_site_fract_z
 _atom_site_occupancy
  Li  Li0  1  0.791240  0.233602  0.500000  1
  Li  Li1  1  0.333346  0.667934  0.000000  1
  Li  Li2  1  0.999649  0.999319  0.500000  1
  V  V3  1  0.757189  0.555440  0.500000  1
  V  V4  1  0.451490  0.214848  0.500000  1
  Co  Co5  1  0.279510  0.375791  0.500000  1
  Co  Co6  1  0.624892  0.901607  0.500000  1
  Co  Co7  1  0.502862  0.453151  0.000000  1
  Ni  Ni8  1  0.101594  0.720117  0.500000  1
  Ni  Ni9  1  0.549357  0.050985  0.000000  1
  Ni  Ni10  1  0.949541  0.497377  0.000000  1
  Ni  Ni11  1  0.716159  0.758100  0.000000  1
  Ni  Ni12  1  0.236338  0.959465  0.000000  1
  Ni  Ni13  1  0.043185  0.279757  0.000000  1
  As  As14  1  0.960119  0.754282  0.000000  1
  As  As15  1  0.247968  0.210931  0.000000  1
  As  As16  1  0.792073  0.033202  0.000000  1
  As  As17  1  0.664830  0.335981  0.000000  1
  As  As18  1  0.527478  0.621386  0.500000  1
  As  As19  1  0.380264  0.914777  0.500000  1
  As  As20  1  0.090917  0.461944  0.500000  1
