# generated using pymatgen
data_Tb3Dy2Lu3(CdIr)2
_symmetry_space_group_name_H-M   'P 1'
_cell_length_a   9.56772620
_cell_length_b   9.56772618
_cell_length_c   9.56772800
_cell_angle_alpha   60.00000063
_cell_angle_beta   60.00000068
_cell_angle_gamma   60.00000440
_symmetry_Int_Tables_number   1
_chemical_formula_structural   Tb3Dy2Lu3(CdIr)2
_chemical_formula_sum   'Tb6 Dy4 Lu6 Cd4 Ir4'
_cell_volume   619.31459882
_cell_formula_units_Z   2
loop_
 _symmetry_equiv_pos_site_id
 _symmetry_equiv_pos_as_xyz
  1  'x, y, z'
loop_
 _atom_site_type_symbol
 _atom_site_label
 _atom_site_symmetry_multiplicity
 _atom_site_fract_x
 _atom_site_fract_y
 _atom_site_fract_z
 _atom_site_occupancy
  Tb  Tb0  1  0.189005  0.810995  0.810995  1
  Tb  Tb1  1  0.810995  0.189005  0.189005  1
  Tb  Tb2  1  0.810995  0.189005  0.810995  1
  Tb  Tb3  1  0.189005  0.810995  0.189005  1
  Tb  Tb4  1  0.810995  0.810995  0.189005  1
  Tb  Tb5  1  0.189005  0.189005  0.810995  1
  Dy  Dy6  1  0.599549  0.599549  0.599549  1
  Dy  Dy7  1  0.599549  0.599549  0.201356  1
  Dy  Dy8  1  0.599549  0.201356  0.599549  1
  Dy  Dy9  1  0.201356  0.599549  0.599549  1
  Lu  Lu10  1  0.063058  0.436942  0.436942  1
  Lu  Lu11  1  0.436942  0.063058  0.063058  1
  Lu  Lu12  1  0.436942  0.063058  0.436942  1
  Lu  Lu13  1  0.063058  0.436942  0.063058  1
  Lu  Lu14  1  0.436942  0.436942  0.063058  1
  Lu  Lu15  1  0.063058  0.063058  0.436942  1
  Cd  Cd16  1  0.830341  0.830341  0.830341  1
  Cd  Cd17  1  0.830341  0.830341  0.508980  1
  Cd  Cd18  1  0.830341  0.508980  0.830341  1
  Cd  Cd19  1  0.508980  0.830341  0.830341  1
  Ir  Ir20  1  0.390654  0.390654  0.390654  1
  Ir  Ir21  1  0.390654  0.390654  0.828040  1
  Ir  Ir22  1  0.390654  0.828040  0.390654  1
  Ir  Ir23  1  0.828040  0.390654  0.390654  1
