# generated using pymatgen
data_Sr2AlGaGeO7
_symmetry_space_group_name_H-M   'P 1'
_cell_length_a   8.04614300
_cell_length_b   5.47009552
_cell_length_c   8.05848882
_cell_angle_alpha   89.36637822
_cell_angle_beta   90.00000000
_cell_angle_gamma   90.00000000
_symmetry_Int_Tables_number   1
_chemical_formula_structural   Sr2AlGaGeO7
_chemical_formula_sum   'Sr4 Al2 Ga2 Ge2 O14'
_cell_volume   354.65795704
_cell_formula_units_Z   2
loop_
 _symmetry_equiv_pos_site_id
 _symmetry_equiv_pos_as_xyz
  1  'x, y, z'
loop_
 _atom_site_type_symbol
 _atom_site_label
 _atom_site_symmetry_multiplicity
 _atom_site_fract_x
 _atom_site_fract_y
 _atom_site_fract_z
 _atom_site_occupancy
  Sr  Sr0  1  0.657253  0.481393  0.575048  1
  Sr  Sr1  1  0.157253  0.518607  0.424952  1
  Sr  Sr2  1  0.332449  0.492462  0.900371  1
  Sr  Sr3  1  0.832449  0.507538  0.099629  1
  Al  Al4  1  0.501487  0.999572  0.248673  1
  Al  Al5  1  0.001487  0.000428  0.751327  1
  Ga  Ga6  1  0.855424  0.026294  0.396268  1
  Ga  Ga7  1  0.355424  0.973706  0.603732  1
  Ge  Ge8  1  0.143941  0.034974  0.107272  1
  Ge  Ge9  1  0.643941  0.965026  0.892728  1
  O  O10  1  0.509914  0.817032  0.749040  1
  O  O11  1  0.009914  0.182968  0.250960  1
  O  O12  1  0.859376  0.696502  0.387717  1
  O  O13  1  0.359376  0.303498  0.612283  1
  O  O14  1  0.139910  0.716809  0.107378  1
  O  O15  1  0.639910  0.283191  0.892622  1
  O  O16  1  0.584792  0.815420  0.084277  1
  O  O17  1  0.084792  0.184580  0.915723  1
  O  O18  1  0.414378  0.814001  0.407374  1
  O  O19  1  0.914378  0.185999  0.592626  1
  O  O20  1  0.661805  0.190944  0.323861  1
  O  O21  1  0.161805  0.809056  0.676139  1
  O  O22  1  0.339270  0.177905  0.152660  1
  O  O23  1  0.839270  0.822095  0.847340  1
