# generated using pymatgen
data_Zr4Cd2CuNi3
_symmetry_space_group_name_H-M   'P 1'
_cell_length_a   7.23730682
_cell_length_b   7.23730741
_cell_length_c   3.28948800
_cell_angle_alpha   90.00000000
_cell_angle_beta   90.00000000
_cell_angle_gamma   90.44633257
_symmetry_Int_Tables_number   1
_chemical_formula_structural   Zr4Cd2CuNi3
_chemical_formula_sum   'Zr4 Cd2 Cu1 Ni3'
_cell_volume   172.29359539
_cell_formula_units_Z   1
loop_
 _symmetry_equiv_pos_site_id
 _symmetry_equiv_pos_as_xyz
  1  'x, y, z'
loop_
 _atom_site_type_symbol
 _atom_site_label
 _atom_site_symmetry_multiplicity
 _atom_site_fract_x
 _atom_site_fract_y
 _atom_site_fract_z
 _atom_site_occupancy
  Zr  Zr0  1  0.680284  0.165074  0.500000  1
  Zr  Zr1  1  0.334926  0.819716  0.500000  1
  Zr  Zr2  1  0.159083  0.340917  0.500000  1
  Zr  Zr3  1  0.827977  0.672023  0.500000  1
  Cd  Cd4  1  0.004585  0.999527  0.000000  1
  Cd  Cd5  1  0.500473  0.495415  0.000000  1
  Cu  Cu6  1  0.374440  0.125560  0.000000  1
  Ni  Ni7  1  0.122783  0.626525  0.000000  1
  Ni  Ni8  1  0.873475  0.377217  0.000000  1
  Ni  Ni9  1  0.621975  0.878025  0.000000  1
