# generated using pymatgen
data_Th3MnAl3ZnPd
_symmetry_space_group_name_H-M   'P 1'
_cell_length_a   7.15912500
_cell_length_b   7.15912515
_cell_length_c   4.25279100
_cell_angle_alpha   90.00000000
_cell_angle_beta   90.00000000
_cell_angle_gamma   120.00000394
_symmetry_Int_Tables_number   1
_chemical_formula_structural   Th3MnAl3ZnPd
_chemical_formula_sum   'Th3 Mn1 Al3 Zn1 Pd1'
_cell_volume   188.76633954
_cell_formula_units_Z   1
loop_
 _symmetry_equiv_pos_site_id
 _symmetry_equiv_pos_as_xyz
  1  'x, y, z'
loop_
 _atom_site_type_symbol
 _atom_site_label
 _atom_site_symmetry_multiplicity
 _atom_site_fract_x
 _atom_site_fract_y
 _atom_site_fract_z
 _atom_site_occupancy
  Th  Th0  1  0.419028  0.435159  0.500000  1
  Th  Th1  1  0.564841  0.983869  0.500000  1
  Th  Th2  1  0.016131  0.580972  0.500000  1
  Mn  Mn3  1  0.333333  0.666667  0.000000  1
  Al  Al4  1  0.762402  0.770891  0.000000  1
  Al  Al5  1  0.229109  0.991511  0.000000  1
  Al  Al6  1  0.008489  0.237598  0.000000  1
  Zn  Zn7  1  0.666667  0.333333  0.000000  1
  Pd  Pd8  1  0.000000  0.000000  0.500000  1
