# generated using pymatgen
data_YZr3(Ga3Rh)6
_symmetry_space_group_name_H-M   'P 1'
_cell_length_a   7.50080869
_cell_length_b   7.49452150
_cell_length_c   9.40942600
_cell_angle_alpha   90.00000000
_cell_angle_beta   90.00000000
_cell_angle_gamma   120.00866117
_symmetry_Int_Tables_number   1
_chemical_formula_structural   YZr3(Ga3Rh)6
_chemical_formula_sum   'Y1 Zr3 Ga18 Rh6'
_cell_volume   458.04468860
_cell_formula_units_Z   1
loop_
 _symmetry_equiv_pos_site_id
 _symmetry_equiv_pos_as_xyz
  1  'x, y, z'
loop_
 _atom_site_type_symbol
 _atom_site_label
 _atom_site_symmetry_multiplicity
 _atom_site_fract_x
 _atom_site_fract_y
 _atom_site_fract_z
 _atom_site_occupancy
  Y  Y0  1  0.331365  0.003913  0.750000  1
  Zr  Zr1  1  0.995851  0.669045  0.250000  1
  Zr  Zr2  1  0.004427  0.331719  0.750000  1
  Zr  Zr3  1  0.669093  0.996485  0.250000  1
  Ga  Ga4  1  0.330727  0.333903  0.567635  1
  Ga  Ga5  1  0.669182  0.669301  0.427641  1
  Ga  Ga6  1  0.669182  0.669301  0.072359  1
  Ga  Ga7  1  0.330727  0.333903  0.932365  1
  Ga  Ga8  1  0.335781  0.549119  0.250000  1
  Ga  Ga9  1  0.667257  0.454925  0.750000  1
  Ga  Ga10  1  0.551551  0.337979  0.250000  1
  Ga  Ga11  1  0.449634  0.659827  0.750000  1
  Ga  Ga12  1  0.995968  0.333797  0.079425  1
  Ga  Ga13  1  0.000682  0.662532  0.923152  1
  Ga  Ga14  1  0.000682  0.662532  0.576848  1
  Ga  Ga15  1  0.333815  0.996525  0.415154  1
  Ga  Ga16  1  0.995968  0.333797  0.420575  1
  Ga  Ga17  1  0.670021  0.003585  0.577166  1
  Ga  Ga18  1  0.670021  0.003585  0.922834  1
  Ga  Ga19  1  0.333815  0.996525  0.084846  1
  Ga  Ga20  1  0.121196  0.123544  0.250000  1
  Ga  Ga21  1  0.872995  0.876071  0.750000  1
  Rh  Rh22  1  0.000021  0.998360  0.001570  1
  Rh  Rh23  1  0.000021  0.998360  0.498430  1
  Rh  Rh24  1  0.670498  0.327789  0.001154  1
  Rh  Rh25  1  0.329509  0.672895  0.001925  1
  Rh  Rh26  1  0.329509  0.672895  0.498075  1
  Rh  Rh27  1  0.670498  0.327789  0.498846  1
