# generated using pymatgen
data_Th10InBi7
_symmetry_space_group_name_H-M   'P 1'
_cell_length_a   9.81654210
_cell_length_b   9.81045282
_cell_length_c   6.63233700
_cell_angle_alpha   90.05418027
_cell_angle_beta   89.97292959
_cell_angle_gamma   119.97947694
_symmetry_Int_Tables_number   1
_chemical_formula_structural   Th10InBi7
_chemical_formula_sum   'Th10 In1 Bi7'
_cell_volume   553.26651506
_cell_formula_units_Z   1
loop_
 _symmetry_equiv_pos_site_id
 _symmetry_equiv_pos_as_xyz
  1  'x, y, z'
loop_
 _atom_site_type_symbol
 _atom_site_label
 _atom_site_symmetry_multiplicity
 _atom_site_fract_x
 _atom_site_fract_y
 _atom_site_fract_z
 _atom_site_occupancy
  Th  Th0  1  0.666357  0.333254  0.499803  1
  Th  Th1  1  0.333643  0.666898  0.499803  1
  Th  Th2  1  0.333590  0.666847  0.000172  1
  Th  Th3  1  0.666410  0.333256  0.000172  1
  Th  Th4  1  0.717348  0.717553  0.255131  1
  Th  Th5  1  0.282652  0.000204  0.255131  1
  Th  Th6  1  0.000000  0.282099  0.255051  1
  Th  Th7  1  0.282715  0.282350  0.744931  1
  Th  Th8  1  0.717285  0.999634  0.744931  1
  Th  Th9  1  0.000000  0.717262  0.744856  1
  In  In10  1  0.000000  0.000038  0.500150  1
  Bi  Bi11  1  0.380049  0.379964  0.249778  1
  Bi  Bi12  1  0.619951  0.999915  0.249778  1
  Bi  Bi13  1  0.000000  0.620369  0.249577  1
  Bi  Bi14  1  0.620136  0.620312  0.750279  1
  Bi  Bi15  1  0.379864  0.000178  0.750279  1
  Bi  Bi16  1  0.000000  0.999951  0.999957  1
  Bi  Bi17  1  0.000000  0.379914  0.750219  1
