# generated using pymatgen
data_Tm3Lu5In3Ir
_symmetry_space_group_name_H-M   'P 1'
_cell_length_a   10.24058200
_cell_length_b   10.24058186
_cell_length_c   6.94704200
_cell_angle_alpha   90.00000000
_cell_angle_beta   90.00000000
_cell_angle_gamma   120.00000045
_symmetry_Int_Tables_number   1
_chemical_formula_structural   Tm3Lu5In3Ir
_chemical_formula_sum   'Tm6 Lu10 In6 Ir2'
_cell_volume   630.92803751
_cell_formula_units_Z   2
loop_
 _symmetry_equiv_pos_site_id
 _symmetry_equiv_pos_as_xyz
  1  'x, y, z'
loop_
 _atom_site_type_symbol
 _atom_site_label
 _atom_site_symmetry_multiplicity
 _atom_site_fract_x
 _atom_site_fract_y
 _atom_site_fract_z
 _atom_site_occupancy
  Tm  Tm0  1  0.533047  0.066095  0.523594  1
  Tm  Tm1  1  0.933905  0.466953  0.523594  1
  Tm  Tm2  1  0.533047  0.466953  0.523594  1
  Tm  Tm3  1  0.466953  0.933905  0.023594  1
  Tm  Tm4  1  0.066095  0.533047  0.023594  1
  Tm  Tm5  1  0.466953  0.533047  0.023594  1
  Lu  Lu6  1  0.177313  0.354627  0.728329  1
  Lu  Lu7  1  0.645373  0.822687  0.728329  1
  Lu  Lu8  1  0.177313  0.822687  0.728329  1
  Lu  Lu9  1  0.822687  0.645373  0.228329  1
  Lu  Lu10  1  0.354627  0.177313  0.228329  1
  Lu  Lu11  1  0.822687  0.177313  0.228329  1
  Lu  Lu12  1  0.666667  0.333333  0.905590  1
  Lu  Lu13  1  0.333333  0.666667  0.405590  1
  Lu  Lu14  1  0.000000  0.000000  0.507671  1
  Lu  Lu15  1  0.000000  0.000000  0.007671  1
  In  In16  1  0.837666  0.675332  0.769895  1
  In  In17  1  0.324668  0.162334  0.769895  1
  In  In18  1  0.837666  0.162334  0.769895  1
  In  In19  1  0.162334  0.324668  0.269895  1
  In  In20  1  0.675332  0.837666  0.269895  1
  In  In21  1  0.162334  0.837666  0.269895  1
  Ir  Ir22  1  0.666667  0.333333  0.299125  1
  Ir  Ir23  1  0.333333  0.666667  0.799125  1
