# generated using pymatgen
data_Tb4Ho(ReO6)2
_symmetry_space_group_name_H-M   'P 1'
_cell_length_a   6.86739494
_cell_length_b   6.86739569
_cell_length_c   7.57465219
_cell_angle_alpha   73.73069458
_cell_angle_beta   73.73069395
_cell_angle_gamma   48.93200712
_symmetry_Int_Tables_number   1
_chemical_formula_structural   Tb4Ho(ReO6)2
_chemical_formula_sum   'Tb4 Ho1 Re2 O12'
_cell_volume   256.25129925
_cell_formula_units_Z   1
loop_
 _symmetry_equiv_pos_site_id
 _symmetry_equiv_pos_as_xyz
  1  'x, y, z'
loop_
 _atom_site_type_symbol
 _atom_site_label
 _atom_site_symmetry_multiplicity
 _atom_site_fract_x
 _atom_site_fract_y
 _atom_site_fract_z
 _atom_site_occupancy
  Tb  Tb0  1  0.314690  0.314690  0.824368  1
  Tb  Tb1  1  0.685310  0.685310  0.175632  1
  Tb  Tb2  1  0.696309  0.696309  0.641720  1
  Tb  Tb3  1  0.303691  0.303691  0.358280  1
  Ho  Ho4  1  0.000000  0.000000  0.500000  1
  Re  Re5  1  0.213790  0.786210  0.000000  1
  Re  Re6  1  0.786210  0.213790  0.000000  1
  O  O7  1  0.498988  0.498988  0.175597  1
  O  O8  1  0.501012  0.501012  0.824403  1
  O  O9  1  0.001294  0.001294  0.206168  1
  O  O10  1  0.998706  0.998706  0.793832  1
  O  O11  1  0.912217  0.417086  0.915625  1
  O  O12  1  0.582914  0.087783  0.084375  1
  O  O13  1  0.087783  0.582914  0.084375  1
  O  O14  1  0.596379  0.097907  0.573145  1
  O  O15  1  0.902093  0.403621  0.426855  1
  O  O16  1  0.403621  0.902093  0.426855  1
  O  O17  1  0.097907  0.596379  0.573145  1
  O  O18  1  0.417086  0.912217  0.915625  1
