# generated using pymatgen
data_Y6Al4IrPd12
_symmetry_space_group_name_H-M   'P 1'
_cell_length_a   8.25133793
_cell_length_b   8.25133905
_cell_length_c   8.25133900
_cell_angle_alpha   109.47121805
_cell_angle_beta   109.47122080
_cell_angle_gamma   109.47122466
_symmetry_Int_Tables_number   1
_chemical_formula_structural   Y6Al4IrPd12
_chemical_formula_sum   'Y6 Al4 Ir1 Pd12'
_cell_volume   432.46537105
_cell_formula_units_Z   1
loop_
 _symmetry_equiv_pos_site_id
 _symmetry_equiv_pos_as_xyz
  1  'x, y, z'
loop_
 _atom_site_type_symbol
 _atom_site_label
 _atom_site_symmetry_multiplicity
 _atom_site_fract_x
 _atom_site_fract_y
 _atom_site_fract_z
 _atom_site_occupancy
  Y  Y0  1  0.705266  0.705266  0.000000  1
  Y  Y1  1  0.294734  0.000000  0.294734  1
  Y  Y2  1  0.000000  0.294734  0.294734  1
  Y  Y3  1  0.294734  0.294734  0.000000  1
  Y  Y4  1  0.705266  0.000000  0.705266  1
  Y  Y5  1  0.000000  0.705266  0.705266  1
  Al  Al6  1  0.000000  0.000000  0.500000  1
  Al  Al7  1  0.000000  0.500000  0.000000  1
  Al  Al8  1  0.500000  0.000000  0.000000  1
  Al  Al9  1  0.500000  0.500000  0.500000  1
  Ir  Ir10  1  0.000000  0.000000  0.000000  1
  Pd  Pd11  1  0.325822  0.325822  0.651645  1
  Pd  Pd12  1  0.674178  0.000000  0.325822  1
  Pd  Pd13  1  0.000000  0.674178  0.325822  1
  Pd  Pd14  1  0.674178  0.325822  0.000000  1
  Pd  Pd15  1  0.325822  0.651645  0.325822  1
  Pd  Pd16  1  0.000000  0.325822  0.674178  1
  Pd  Pd17  1  0.325822  0.674178  0.000000  1
  Pd  Pd18  1  0.325822  0.000000  0.674178  1
  Pd  Pd19  1  0.651645  0.325822  0.325822  1
  Pd  Pd20  1  0.674178  0.674178  0.348355  1
  Pd  Pd21  1  0.674178  0.348355  0.674178  1
  Pd  Pd22  1  0.348355  0.674178  0.674178  1
