# generated using pymatgen
data_Tb5SnBi2Se
_symmetry_space_group_name_H-M   'P 1'
_cell_length_a   9.26717253
_cell_length_b   9.26717212
_cell_length_c   6.68956500
_cell_angle_alpha   90.00000000
_cell_angle_beta   90.00000000
_cell_angle_gamma   120.11332879
_symmetry_Int_Tables_number   1
_chemical_formula_structural   Tb5SnBi2Se
_chemical_formula_sum   'Tb10 Sn2 Bi4 Se2'
_cell_volume   496.96511024
_cell_formula_units_Z   2
loop_
 _symmetry_equiv_pos_site_id
 _symmetry_equiv_pos_as_xyz
  1  'x, y, z'
loop_
 _atom_site_type_symbol
 _atom_site_label
 _atom_site_symmetry_multiplicity
 _atom_site_fract_x
 _atom_site_fract_y
 _atom_site_fract_z
 _atom_site_occupancy
  Tb  Tb0  1  0.667548  0.331158  0.003493  1
  Tb  Tb1  1  0.331158  0.667548  0.003493  1
  Tb  Tb2  1  0.331158  0.667548  0.496507  1
  Tb  Tb3  1  0.667548  0.331158  0.496507  1
  Tb  Tb4  1  0.747721  0.747721  0.750000  1
  Tb  Tb5  1  0.252935  0.000066  0.750000  1
  Tb  Tb6  1  0.000066  0.252935  0.750000  1
  Tb  Tb7  1  0.250810  0.250810  0.250000  1
  Tb  Tb8  1  0.748089  0.004677  0.250000  1
  Tb  Tb9  1  0.004677  0.748089  0.250000  1
  Sn  Sn10  1  0.395728  0.000198  0.250000  1
  Sn  Sn11  1  0.000198  0.395728  0.250000  1
  Bi  Bi12  1  0.395330  0.395330  0.750000  1
  Bi  Bi13  1  0.603833  0.999653  0.750000  1
  Bi  Bi14  1  0.999653  0.603833  0.750000  1
  Bi  Bi15  1  0.605445  0.605445  0.250000  1
  Se  Se16  1  0.999050  0.999050  0.999683  1
  Se  Se17  1  0.999050  0.999050  0.500317  1
