# generated using pymatgen
data_Tb4Ni2C5
_symmetry_space_group_name_H-M   'P 1'
_cell_length_a   3.67556800
_cell_length_b   3.70756600
_cell_length_c   11.69234600
_cell_angle_alpha   90.00000000
_cell_angle_beta   90.00000000
_cell_angle_gamma   90.00000000
_symmetry_Int_Tables_number   1
_chemical_formula_structural   Tb4Ni2C5
_chemical_formula_sum   'Tb4 Ni2 C5'
_cell_volume   159.33640388
_cell_formula_units_Z   1
loop_
 _symmetry_equiv_pos_site_id
 _symmetry_equiv_pos_as_xyz
  1  'x, y, z'
loop_
 _atom_site_type_symbol
 _atom_site_label
 _atom_site_symmetry_multiplicity
 _atom_site_fract_x
 _atom_site_fract_y
 _atom_site_fract_z
 _atom_site_occupancy
  Tb  Tb0  1  0.500000  0.504850  0.204156  1
  Tb  Tb1  1  0.500000  0.504850  0.795844  1
  Tb  Tb2  1  0.500000  0.208196  0.500000  1
  Tb  Tb3  1  0.000000  0.999302  0.000000  1
  Ni  Ni4  1  0.000000  0.696867  0.383566  1
  Ni  Ni5  1  0.000000  0.696867  0.616434  1
  C  C6  1  0.000000  0.001690  0.230625  1
  C  C7  1  0.000000  0.001690  0.769375  1
  C  C8  1  0.000000  0.196179  0.332290  1
  C  C9  1  0.000000  0.196179  0.667710  1
  C  C10  1  0.500000  0.494831  0.000000  1
