# generated using pymatgen
data_Tm12InTc3Ag
_symmetry_space_group_name_H-M   'P 1'
_cell_length_a   8.30631108
_cell_length_b   8.30631017
_cell_length_c   8.30631047
_cell_angle_alpha   111.98047617
_cell_angle_beta   107.61023197
_cell_angle_gamma   108.85469708
_symmetry_Int_Tables_number   1
_chemical_formula_structural   Tm12InTc3Ag
_chemical_formula_sum   'Tm12 In1 Tc3 Ag1'
_cell_volume   440.47927561
_cell_formula_units_Z   1
loop_
 _symmetry_equiv_pos_site_id
 _symmetry_equiv_pos_as_xyz
  1  'x, y, z'
loop_
 _atom_site_type_symbol
 _atom_site_label
 _atom_site_symmetry_multiplicity
 _atom_site_fract_x
 _atom_site_fract_y
 _atom_site_fract_z
 _atom_site_occupancy
  Tm  Tm0  1  0.187935  0.444228  0.256293  1
  Tm  Tm1  1  0.812065  0.555772  0.743707  1
  Tm  Tm2  1  0.187935  0.931643  0.743707  1
  Tm  Tm3  1  0.946117  0.183213  0.762902  1
  Tm  Tm4  1  0.812065  0.068357  0.256293  1
  Tm  Tm5  1  0.053883  0.816787  0.237098  1
  Tm  Tm6  1  0.420311  0.183213  0.237098  1
  Tm  Tm7  1  0.579689  0.816787  0.762902  1
  Tm  Tm8  1  0.321711  0.318094  0.639806  1
  Tm  Tm9  1  0.678289  0.681906  0.360194  1
  Tm  Tm10  1  0.678289  0.318094  0.996384  1
  Tm  Tm11  1  0.321711  0.681906  0.003616  1
  In  In12  1  0.500000  0.000000  0.500000  1
  Tc  Tc13  1  0.336127  0.336127  0.000000  1
  Tc  Tc14  1  0.663873  0.663873  0.000000  1
  Tc  Tc15  1  0.000000  0.000000  0.000000  1
  Ag  Ag16  1  0.000000  0.500000  0.500000  1
