# generated using pymatgen
data_Er4Al24Pd8Pt
_symmetry_space_group_name_H-M   'P 1'
_cell_length_a   7.52918703
_cell_length_b   7.54160711
_cell_length_c   13.15879873
_cell_angle_alpha   84.59827895
_cell_angle_beta   100.91396079
_cell_angle_gamma   119.82987490
_symmetry_Int_Tables_number   1
_chemical_formula_structural   Er4Al24Pd8Pt
_chemical_formula_sum   'Er4 Al24 Pd8 Pt1'
_cell_volume   636.46372929
_cell_formula_units_Z   1
loop_
 _symmetry_equiv_pos_site_id
 _symmetry_equiv_pos_as_xyz
  1  'x, y, z'
loop_
 _atom_site_type_symbol
 _atom_site_label
 _atom_site_symmetry_multiplicity
 _atom_site_fract_x
 _atom_site_fract_y
 _atom_site_fract_z
 _atom_site_occupancy
  Er  Er0  1  0.732518  0.998816  0.191980  1
  Er  Er1  1  0.267682  0.001182  0.808177  1
  Er  Er2  1  0.062359  0.668470  0.191933  1
  Er  Er3  1  0.937788  0.331536  0.808095  1
  Al  Al4  1  0.807926  0.869364  0.815337  1
  Al  Al5  1  0.191818  0.130496  0.184649  1
  Al  Al6  1  0.982123  0.666208  0.944324  1
  Al  Al7  1  0.018078  0.333884  0.055756  1
  Al  Al8  1  0.397549  0.663772  0.816492  1
  Al  Al9  1  0.601846  0.336282  0.183143  1
  Al  Al10  1  0.882154  0.665121  0.670929  1
  Al  Al11  1  0.118122  0.334826  0.329093  1
  Al  Al12  1  0.602755  0.457552  0.816052  1
  Al  Al13  1  0.397063  0.542566  0.183918  1
  Al  Al14  1  0.230574  0.340097  0.669714  1
  Al  Al15  1  0.769505  0.660415  0.330315  1
  Al  Al16  1  0.853285  0.333189  0.559015  1
  Al  Al17  1  0.185675  0.999126  0.558860  1
  Al  Al18  1  0.814337  0.001068  0.441025  1
  Al  Al19  1  0.352543  0.999007  0.055799  1
  Al  Al20  1  0.647469  0.000897  0.944235  1
  Al  Al21  1  0.556142  0.993519  0.671279  1
  Al  Al22  1  0.443490  0.006029  0.328781  1
  Al  Al23  1  0.520745  0.667112  0.561733  1
  Al  Al24  1  0.479283  0.332865  0.438061  1
  Al  Al25  1  0.683656  0.668064  0.046973  1
  Al  Al26  1  0.316278  0.331952  0.953067  1
  Al  Al27  1  0.146607  0.666600  0.441090  1
  Pd  Pd28  1  0.328640  0.671515  0.000032  1
  Pd  Pd29  1  0.546320  0.324688  0.637689  1
  Pd  Pd30  1  0.453758  0.675332  0.362173  1
  Pd  Pd31  1  0.887945  0.007932  0.638857  1
  Pd  Pd32  1  0.112178  0.992079  0.361108  1
  Pd  Pd33  1  0.671627  0.328538  0.000196  1
  Pd  Pd34  1  0.204221  0.666702  0.638874  1
  Pd  Pd35  1  0.000020  0.999972  0.000013  1
  Pt  Pt36  1  0.795919  0.333228  0.361234  1
