# generated using pymatgen
data_Na9Li3(OsN2)4
_symmetry_space_group_name_H-M   'P 1'
_cell_length_a   8.12662480
_cell_length_b   5.47905054
_cell_length_c   10.01412091
_cell_angle_alpha   57.25049790
_cell_angle_beta   89.61570067
_cell_angle_gamma   90.24757380
_symmetry_Int_Tables_number   1
_chemical_formula_structural   Na9Li3(OsN2)4
_chemical_formula_sum   'Na9 Li3 Os4 N8'
_cell_volume   374.98832428
_cell_formula_units_Z   1
loop_
 _symmetry_equiv_pos_site_id
 _symmetry_equiv_pos_as_xyz
  1  'x, y, z'
loop_
 _atom_site_type_symbol
 _atom_site_label
 _atom_site_symmetry_multiplicity
 _atom_site_fract_x
 _atom_site_fract_y
 _atom_site_fract_z
 _atom_site_occupancy
  Na  Na0  1  0.506038  0.878306  0.505046  1
  Na  Na1  1  0.357860  0.618290  0.867346  1
  Na  Na2  1  0.859022  0.385648  0.628439  1
  Na  Na3  1  0.636385  0.378568  0.120660  1
  Na  Na4  1  0.137509  0.611284  0.375208  1
  Na  Na5  1  0.253448  0.219969  0.762139  1
  Na  Na6  1  0.766615  0.769219  0.751671  1
  Na  Na7  1  0.749309  0.763180  0.247621  1
  Na  Na8  1  0.244576  0.225902  0.243725  1
  Li  Li9  1  0.992313  0.614349  0.037408  1
  Li  Li10  1  0.489841  0.394783  0.471995  1
  Li  Li11  1  0.976406  0.167380  0.983043  1
  Os  Os12  1  0.106671  0.896434  0.594784  1
  Os  Os13  1  0.614553  0.094096  0.906794  1
  Os  Os14  1  0.892582  0.122161  0.388277  1
  Os  Os15  1  0.393412  0.865713  0.107454  1
  N  N16  1  0.802943  0.890224  0.955119  1
  N  N17  1  0.284758  0.123882  0.552595  1
  N  N18  1  0.214710  0.750291  0.051693  1
  N  N19  1  0.718687  0.247640  0.446018  1
  N  N20  1  0.568389  0.445919  0.740190  1
  N  N21  1  0.056052  0.547922  0.769000  1
  N  N22  1  0.439064  0.831378  0.292244  1
  N  N23  1  0.938856  0.157462  0.201531  1
