# generated using pymatgen
data_CeEr2Tm5AlPd24
_symmetry_space_group_name_H-M   'P 1'
_cell_length_a   8.31150894
_cell_length_b   8.31138458
_cell_length_c   8.31138603
_cell_angle_alpha   89.96114303
_cell_angle_beta   90.06012580
_cell_angle_gamma   90.06012708
_symmetry_Int_Tables_number   1
_chemical_formula_structural   CeEr2Tm5AlPd24
_chemical_formula_sum   'Ce1 Er2 Tm5 Al1 Pd24'
_cell_volume   574.15100733
_cell_formula_units_Z   1
loop_
 _symmetry_equiv_pos_site_id
 _symmetry_equiv_pos_as_xyz
  1  'x, y, z'
loop_
 _atom_site_type_symbol
 _atom_site_label
 _atom_site_symmetry_multiplicity
 _atom_site_fract_x
 _atom_site_fract_y
 _atom_site_fract_z
 _atom_site_occupancy
  Ce  Ce0  1  0.745643  0.254358  0.254358  1
  Er  Er1  1  0.252151  0.251985  0.747839  1
  Er  Er2  1  0.252151  0.747839  0.251985  1
  Tm  Tm3  1  0.251264  0.251853  0.251853  1
  Tm  Tm4  1  0.747978  0.747798  0.747798  1
  Tm  Tm5  1  0.748156  0.748751  0.251876  1
  Tm  Tm6  1  0.748156  0.251876  0.748751  1
  Tm  Tm7  1  0.252222  0.747816  0.747816  1
  Al  Al8  1  0.000357  0.999460  0.999460  1
  Pd  Pd9  1  0.259679  0.499824  0.999672  1
  Pd  Pd10  1  0.740574  0.499736  0.000851  1
  Pd  Pd11  1  0.999262  0.259471  0.499540  1
  Pd  Pd12  1  0.500237  0.259473  0.000808  1
  Pd  Pd13  1  0.000393  0.740357  0.500058  1
  Pd  Pd14  1  0.500189  0.740365  0.999680  1
  Pd  Pd15  1  0.500237  0.000808  0.259473  1
  Pd  Pd16  1  0.259679  0.999672  0.499824  1
  Pd  Pd17  1  0.500189  0.999680  0.740365  1
  Pd  Pd18  1  0.740574  0.000851  0.499736  1
  Pd  Pd19  1  0.999262  0.499540  0.259471  1
  Pd  Pd20  1  0.000393  0.500058  0.740357  1
  Pd  Pd21  1  0.252833  0.499929  0.499929  1
  Pd  Pd22  1  0.746955  0.500022  0.500022  1
  Pd  Pd23  1  0.499935  0.253076  0.499951  1
  Pd  Pd24  1  0.500093  0.747207  0.500066  1
  Pd  Pd25  1  0.499935  0.499951  0.253076  1
  Pd  Pd26  1  0.500093  0.500066  0.747207  1
  Pd  Pd27  1  0.288343  0.999775  0.999775  1
  Pd  Pd28  1  0.711520  0.999497  0.999497  1
  Pd  Pd29  1  0.000539  0.288253  0.999501  1
  Pd  Pd30  1  0.000232  0.711426  0.999725  1
  Pd  Pd31  1  0.000539  0.999501  0.288253  1
  Pd  Pd32  1  0.000232  0.999725  0.711426  1
