# generated using pymatgen
data_DyY2Tm13(CdNi)4
_symmetry_space_group_name_H-M   'P 1'
_cell_length_a   9.47008674
_cell_length_b   9.47008647
_cell_length_c   9.46686344
_cell_angle_alpha   60.03971446
_cell_angle_beta   60.03971415
_cell_angle_gamma   60.00019646
_symmetry_Int_Tables_number   1
_chemical_formula_structural   DyY2Tm13(CdNi)4
_chemical_formula_sum   'Dy1 Y2 Tm13 Cd4 Ni4'
_cell_volume   600.70341341
_cell_formula_units_Z   1
loop_
 _symmetry_equiv_pos_site_id
 _symmetry_equiv_pos_as_xyz
  1  'x, y, z'
loop_
 _atom_site_type_symbol
 _atom_site_label
 _atom_site_symmetry_multiplicity
 _atom_site_fract_x
 _atom_site_fract_y
 _atom_site_fract_z
 _atom_site_occupancy
  Dy  Dy0  1  0.598019  0.598019  0.598866  1
  Y  Y1  1  0.815160  0.815160  0.184857  1
  Y  Y2  1  0.184963  0.184963  0.815030  1
  Tm  Tm3  1  0.597690  0.597690  0.205402  1
  Tm  Tm4  1  0.598656  0.205412  0.597639  1
  Tm  Tm5  1  0.205412  0.598656  0.597639  1
  Tm  Tm6  1  0.062191  0.438137  0.438139  1
  Tm  Tm7  1  0.438663  0.061472  0.061592  1
  Tm  Tm8  1  0.438137  0.062191  0.438139  1
  Tm  Tm9  1  0.061472  0.438663  0.061592  1
  Tm  Tm10  1  0.437431  0.437431  0.062902  1
  Tm  Tm11  1  0.062258  0.062258  0.437922  1
  Tm  Tm12  1  0.187315  0.812669  0.812578  1
  Tm  Tm13  1  0.812453  0.187571  0.187537  1
  Tm  Tm14  1  0.812669  0.187315  0.812578  1
  Tm  Tm15  1  0.187571  0.812453  0.187537  1
  Cd  Cd16  1  0.831899  0.831899  0.830399  1
  Cd  Cd17  1  0.832324  0.832324  0.505722  1
  Cd  Cd18  1  0.830800  0.505680  0.832333  1
  Cd  Cd19  1  0.505680  0.830800  0.832333  1
  Ni  Ni20  1  0.392753  0.392753  0.391624  1
  Ni  Ni21  1  0.391915  0.391915  0.823831  1
  Ni  Ni22  1  0.390698  0.823871  0.391905  1
  Ni  Ni23  1  0.823871  0.390698  0.391905  1
