# generated using pymatgen
data_Er10Ir3Os
_symmetry_space_group_name_H-M   'P 1'
_cell_length_a   6.43704689
_cell_length_b   7.21660504
_cell_length_c   8.35702054
_cell_angle_alpha   96.42445950
_cell_angle_beta   112.38075022
_cell_angle_gamma   89.98009492
_symmetry_Int_Tables_number   1
_chemical_formula_structural   Er10Ir3Os
_chemical_formula_sum   'Er10 Ir3 Os1'
_cell_volume   356.33963794
_cell_formula_units_Z   1
loop_
 _symmetry_equiv_pos_site_id
 _symmetry_equiv_pos_as_xyz
  1  'x, y, z'
loop_
 _atom_site_type_symbol
 _atom_site_label
 _atom_site_symmetry_multiplicity
 _atom_site_fract_x
 _atom_site_fract_y
 _atom_site_fract_z
 _atom_site_occupancy
  Er  Er0  1  0.970338  0.917324  0.182550  1
  Er  Er1  1  0.789228  0.581649  0.821459  1
  Er  Er2  1  0.029691  0.081623  0.818752  1
  Er  Er3  1  0.211368  0.418909  0.183031  1
  Er  Er4  1  0.656098  0.816891  0.440189  1
  Er  Er5  1  0.210529  0.681601  0.556721  1
  Er  Er6  1  0.345950  0.181876  0.558665  1
  Er  Er7  1  0.786984  0.319343  0.440452  1
  Er  Er8  1  0.427135  0.749569  0.000365  1
  Er  Er9  1  0.575076  0.251467  0.000933  1
  Ir  Ir10  1  0.607665  0.927210  0.780699  1
  Ir  Ir11  1  0.173202  0.425443  0.781540  1
  Ir  Ir12  1  0.390758  0.073544  0.218500  1
  Os  Os13  1  0.825978  0.573552  0.216144  1
