# generated using pymatgen
data_Ca5Pt
_symmetry_space_group_name_H-M   'P 1'
_cell_length_a   6.88634100
_cell_length_b   7.62441500
_cell_length_c   15.96664400
_cell_angle_alpha   90.00000000
_cell_angle_beta   90.00000000
_cell_angle_gamma   90.00000000
_symmetry_Int_Tables_number   1
_chemical_formula_structural   Ca5Pt
_chemical_formula_sum   'Ca20 Pt4'
_cell_volume   838.31781170
_cell_formula_units_Z   4
loop_
 _symmetry_equiv_pos_site_id
 _symmetry_equiv_pos_as_xyz
  1  'x, y, z'
loop_
 _atom_site_type_symbol
 _atom_site_label
 _atom_site_symmetry_multiplicity
 _atom_site_fract_x
 _atom_site_fract_y
 _atom_site_fract_z
 _atom_site_occupancy
  Ca  Ca0  1  0.354005  0.309848  0.063377  1
  Ca  Ca1  1  0.645995  0.690152  0.936623  1
  Ca  Ca2  1  0.854005  0.190152  0.936623  1
  Ca  Ca3  1  0.645995  0.690152  0.563377  1
  Ca  Ca4  1  0.145995  0.809848  0.063377  1
  Ca  Ca5  1  0.354005  0.309848  0.436623  1
  Ca  Ca6  1  0.145995  0.809848  0.436623  1
  Ca  Ca7  1  0.854005  0.190152  0.563377  1
  Ca  Ca8  1  0.156555  0.095950  0.250000  1
  Ca  Ca9  1  0.843445  0.904050  0.750000  1
  Ca  Ca10  1  0.656555  0.404050  0.750000  1
  Ca  Ca11  1  0.343445  0.595950  0.250000  1
  Ca  Ca12  1  0.323723  0.036295  0.643019  1
  Ca  Ca13  1  0.676277  0.963705  0.356981  1
  Ca  Ca14  1  0.823723  0.463705  0.356981  1
  Ca  Ca15  1  0.676277  0.963705  0.143019  1
  Ca  Ca16  1  0.176277  0.536295  0.643019  1
  Ca  Ca17  1  0.323723  0.036295  0.856981  1
  Ca  Ca18  1  0.176277  0.536295  0.856981  1
  Ca  Ca19  1  0.823723  0.463705  0.143019  1
  Pt  Pt20  1  0.538601  0.262216  0.250000  1
  Pt  Pt21  1  0.461399  0.737784  0.750000  1
  Pt  Pt22  1  0.038601  0.237784  0.750000  1
  Pt  Pt23  1  0.961399  0.762216  0.250000  1
