# generated using pymatgen
data_RbP8(Pt8Pb)3
_symmetry_space_group_name_H-M   'P 1'
_cell_length_a   8.58726743
_cell_length_b   8.58726743
_cell_length_c   8.58726743
_cell_angle_alpha   89.89336909
_cell_angle_beta   90.10663091
_cell_angle_gamma   90.10663091
_symmetry_Int_Tables_number   1
_chemical_formula_structural   RbP8(Pt8Pb)3
_chemical_formula_sum   'Rb1 P8 Pt24 Pb3'
_cell_volume   633.23179189
_cell_formula_units_Z   1
loop_
 _symmetry_equiv_pos_site_id
 _symmetry_equiv_pos_as_xyz
  1  'x, y, z'
loop_
 _atom_site_type_symbol
 _atom_site_label
 _atom_site_symmetry_multiplicity
 _atom_site_fract_x
 _atom_site_fract_y
 _atom_site_fract_z
 _atom_site_occupancy
  Rb  Rb0  1  0.500000  0.500000  0.000000  1
  P  P1  1  0.802735  0.309117  0.194839  1
  P  P2  1  0.193461  0.806539  0.306539  1
  P  P3  1  0.690883  0.694839  0.697265  1
  P  P4  1  0.305161  0.197265  0.809117  1
  P  P5  1  0.197265  0.690883  0.805161  1
  P  P6  1  0.806539  0.193461  0.693461  1
  P  P7  1  0.309117  0.305161  0.302735  1
  P  P8  1  0.694839  0.802735  0.190883  1
  Pt  Pt9  1  0.423327  0.848042  0.164247  1
  Pt  Pt10  1  0.576937  0.337439  0.349619  1
  Pt  Pt11  1  0.078563  0.154486  0.658858  1
  Pt  Pt12  1  0.920329  0.655877  0.840965  1
  Pt  Pt13  1  0.150381  0.423063  0.837439  1
  Pt  Pt14  1  0.335753  0.576673  0.348042  1
  Pt  Pt15  1  0.659035  0.079671  0.155877  1
  Pt  Pt16  1  0.841142  0.921437  0.654486  1
  Pt  Pt17  1  0.845514  0.158858  0.421437  1
  Pt  Pt18  1  0.344123  0.340965  0.579671  1
  Pt  Pt19  1  0.151958  0.664247  0.076673  1
  Pt  Pt20  1  0.662561  0.849619  0.923063  1
  Pt  Pt21  1  0.576673  0.151958  0.835753  1
  Pt  Pt22  1  0.423063  0.662561  0.650381  1
  Pt  Pt23  1  0.921437  0.845514  0.341142  1
  Pt  Pt24  1  0.079671  0.344123  0.159035  1
  Pt  Pt25  1  0.849619  0.576937  0.162561  1
  Pt  Pt26  1  0.664247  0.423327  0.651958  1
  Pt  Pt27  1  0.340965  0.920329  0.844123  1
  Pt  Pt28  1  0.158858  0.078563  0.345514  1
  Pt  Pt29  1  0.154486  0.841142  0.578563  1
  Pt  Pt30  1  0.655877  0.659035  0.420329  1
  Pt  Pt31  1  0.848042  0.335753  0.923327  1
  Pt  Pt32  1  0.337439  0.150381  0.076937  1
  Pb  Pb33  1  0.500000  0.000000  0.500000  1
  Pb  Pb34  1  0.000000  0.500000  0.500000  1
  Pb  Pb35  1  0.000000  0.000000  0.000000  1
