# generated using pymatgen
data_Tb2Nd2SiI5
_symmetry_space_group_name_H-M   'P 1'
_cell_length_a   9.93682212
_cell_length_b   9.93682228
_cell_length_c   9.01270554
_cell_angle_alpha   77.89036442
_cell_angle_beta   77.89036356
_cell_angle_gamma   24.91323304
_symmetry_Int_Tables_number   1
_chemical_formula_structural   Tb2Nd2SiI5
_chemical_formula_sum   'Tb2 Nd2 Si1 I5'
_cell_volume   366.12034572
_cell_formula_units_Z   1
loop_
 _symmetry_equiv_pos_site_id
 _symmetry_equiv_pos_as_xyz
  1  'x, y, z'
loop_
 _atom_site_type_symbol
 _atom_site_label
 _atom_site_symmetry_multiplicity
 _atom_site_fract_x
 _atom_site_fract_y
 _atom_site_fract_z
 _atom_site_occupancy
  Tb  Tb0  1  0.856249  0.856249  0.073577  1
  Tb  Tb1  1  0.143751  0.143751  0.926423  1
  Nd  Nd2  1  0.501106  0.501106  0.214251  1
  Nd  Nd3  1  0.498894  0.498894  0.785749  1
  Si  Si4  1  0.000000  0.000000  0.000000  1
  I  I5  1  0.674746  0.674746  0.159728  1
  I  I6  1  0.325254  0.325254  0.840272  1
  I  I7  1  0.668030  0.668030  0.670848  1
  I  I8  1  0.331970  0.331970  0.329152  1
  I  I9  1  0.000000  0.000000  0.500000  1
