# generated using pymatgen
data_ThGaF36
_symmetry_space_group_name_H-M   'P 1'
_cell_length_a   5.95326455
_cell_length_b   10.38951566
_cell_length_c   10.36774800
_cell_angle_alpha   91.23846540
_cell_angle_beta   95.91244125
_cell_angle_gamma   74.19906951
_symmetry_Int_Tables_number   1
_chemical_formula_structural   ThGaF36
_chemical_formula_sum   'Th1 Ga1 F36'
_cell_volume   613.73398168
_cell_formula_units_Z   1
loop_
 _symmetry_equiv_pos_site_id
 _symmetry_equiv_pos_as_xyz
  1  'x, y, z'
loop_
 _atom_site_type_symbol
 _atom_site_label
 _atom_site_symmetry_multiplicity
 _atom_site_fract_x
 _atom_site_fract_y
 _atom_site_fract_z
 _atom_site_occupancy
  Th  Th0  1  0.656853  0.882576  0.890220  1
  Ga  Ga1  1  0.305323  0.146911  0.133671  1
  F  F2  1  0.294482  0.416303  0.875499  1
  F  F3  1  0.648397  0.603556  0.127641  1
  F  F4  1  0.332460  0.308991  0.592926  1
  F  F5  1  0.645504  0.751422  0.451228  1
  F  F6  1  0.855565  0.245438  0.776716  1
  F  F7  1  0.177573  0.719105  0.225234  1
  F  F8  1  0.710049  0.822595  0.089678  1
  F  F9  1  0.397828  0.076090  0.971745  1
  F  F10  1  0.713139  0.647174  0.874907  1
  F  F11  1  0.329187  0.326111  0.109476  1
  F  F12  1  0.457094  0.492521  0.861252  1
  F  F13  1  0.562124  0.488477  0.136526  1
  F  F14  1  0.734101  0.737717  0.712207  1
  F  F15  1  0.245857  0.263683  0.280176  1
  F  F16  1  0.727284  0.964974  0.565492  1
  F  F17  1  0.215338  0.015048  0.467513  1
  F  F18  1  0.281018  0.192995  0.639349  1
  F  F19  1  0.659229  0.805648  0.327940  1
  F  F20  1  0.754461  0.096904  0.561666  1
  F  F21  1  0.110430  0.932509  0.384706  1
  F  F22  1  0.789748  0.040842  0.834070  1
  F  F23  1  0.250943  0.988779  0.177408  1
  F  F24  1  0.903190  0.372378  0.767161  1
  F  F25  1  0.121310  0.602869  0.266058  1
  F  F26  1  0.092474  0.787696  0.938764  1
  F  F27  1  0.977883  0.225290  0.051314  1
  F  F28  1  0.334945  0.951184  0.726529  1
  F  F29  1  0.633720  0.081295  0.211545  1
  F  F30  1  0.120093  0.735033  0.570462  1
  F  F31  1  0.895502  0.264012  0.422839  1
  F  F32  1  0.211928  0.636179  0.669233  1
  F  F33  1  0.766792  0.354404  0.322859  1
  F  F34  1  0.214415  0.864362  0.834956  1
  F  F35  1  0.805876  0.153371  0.127320  1
  F  F36  1  0.620367  0.482616  0.565819  1
  F  F37  1  0.447515  0.522941  0.457899  1
