# generated using pymatgen
data_Ac11Cd9Pd4
_symmetry_space_group_name_H-M   'P 1'
_cell_length_a   14.22574316
_cell_length_b   14.22574367
_cell_length_c   4.04221700
_cell_angle_alpha   90.00000000
_cell_angle_beta   90.00000000
_cell_angle_gamma   112.15116751
_symmetry_Int_Tables_number   1
_chemical_formula_structural   Ac11Cd9Pd4
_chemical_formula_sum   'Ac11 Cd9 Pd4'
_cell_volume   757.65365469
_cell_formula_units_Z   1
loop_
 _symmetry_equiv_pos_site_id
 _symmetry_equiv_pos_as_xyz
  1  'x, y, z'
loop_
 _atom_site_type_symbol
 _atom_site_label
 _atom_site_symmetry_multiplicity
 _atom_site_fract_x
 _atom_site_fract_y
 _atom_site_fract_z
 _atom_site_occupancy
  Ac  Ac0  1  0.418318  0.077992  0.000000  1
  Ac  Ac1  1  0.581682  0.922008  0.000000  1
  Ac  Ac2  1  0.077992  0.418318  0.000000  1
  Ac  Ac3  1  0.922008  0.581682  0.000000  1
  Ac  Ac4  1  0.164194  0.835806  0.000000  1
  Ac  Ac5  1  0.835806  0.164194  0.000000  1
  Ac  Ac6  1  0.373594  0.626406  0.000000  1
  Ac  Ac7  1  0.626406  0.373594  0.000000  1
  Ac  Ac8  1  0.307795  0.307795  0.000000  1
  Ac  Ac9  1  0.692205  0.692205  0.000000  1
  Ac  Ac10  1  0.000000  0.000000  0.000000  1
  Cd  Cd11  1  0.364799  0.836896  0.500000  1
  Cd  Cd12  1  0.635201  0.163104  0.500000  1
  Cd  Cd13  1  0.836896  0.364799  0.500000  1
  Cd  Cd14  1  0.163104  0.635201  0.500000  1
  Cd  Cd15  1  0.214042  0.071374  0.500000  1
  Cd  Cd16  1  0.785958  0.928626  0.500000  1
  Cd  Cd17  1  0.071374  0.214042  0.500000  1
  Cd  Cd18  1  0.928626  0.785958  0.500000  1
  Cd  Cd19  1  0.500000  0.500000  0.500000  1
  Pd  Pd20  1  0.451782  0.251820  0.500000  1
  Pd  Pd21  1  0.548218  0.748180  0.500000  1
  Pd  Pd22  1  0.251820  0.451782  0.500000  1
  Pd  Pd23  1  0.748180  0.548218  0.500000  1
