# generated using pymatgen
data_Tb16In6FeRh
_symmetry_space_group_name_H-M   'P 1'
_cell_length_a   10.45951001
_cell_length_b   10.45964789
_cell_length_c   7.08243600
_cell_angle_alpha   90.00015438
_cell_angle_beta   89.99861662
_cell_angle_gamma   120.00250102
_symmetry_Int_Tables_number   1
_chemical_formula_structural   Tb16In6FeRh
_chemical_formula_sum   'Tb16 In6 Fe1 Rh1'
_cell_volume   671.01271517
_cell_formula_units_Z   1
loop_
 _symmetry_equiv_pos_site_id
 _symmetry_equiv_pos_as_xyz
  1  'x, y, z'
loop_
 _atom_site_type_symbol
 _atom_site_label
 _atom_site_symmetry_multiplicity
 _atom_site_fract_x
 _atom_site_fract_y
 _atom_site_fract_z
 _atom_site_occupancy
  Tb  Tb0  1  0.823971  0.647974  0.491998  1
  Tb  Tb1  1  0.352024  0.176026  0.492002  1
  Tb  Tb2  1  0.823989  0.176015  0.491964  1
  Tb  Tb3  1  0.177900  0.355790  0.994670  1
  Tb  Tb4  1  0.644208  0.822096  0.994659  1
  Tb  Tb5  1  0.177897  0.822096  0.994655  1
  Tb  Tb6  1  0.666665  0.333327  0.167971  1
  Tb  Tb7  1  0.333340  0.666662  0.676771  1
  Tb  Tb8  1  0.533568  0.067120  0.789490  1
  Tb  Tb9  1  0.932875  0.466431  0.789486  1
  Tb  Tb10  1  0.533562  0.466435  0.789532  1
  Tb  Tb11  1  0.462809  0.925640  0.287642  1
  Tb  Tb12  1  0.074366  0.537192  0.287642  1
  Tb  Tb13  1  0.462811  0.537186  0.287652  1
  Tb  Tb14  1  0.999999  0.000004  0.775566  1
  Tb  Tb15  1  0.999997  0.999990  0.274688  1
  In  In16  1  0.837394  0.674762  0.035438  1
  In  In17  1  0.325231  0.162600  0.035439  1
  In  In18  1  0.837375  0.162620  0.035459  1
  In  In19  1  0.163005  0.326021  0.536826  1
  In  In20  1  0.674002  0.837015  0.536780  1
  In  In21  1  0.163011  0.836985  0.536834  1
  Fe  Fe22  1  0.333334  0.666677  0.060715  1
  Rh  Rh23  1  0.666665  0.333335  0.562193  1
