# generated using pymatgen
data_Yb7Er4In9Pd4
_symmetry_space_group_name_H-M   'P 1'
_cell_length_a   13.31841874
_cell_length_b   13.31840873
_cell_length_c   3.63460800
_cell_angle_alpha   90.00000000
_cell_angle_beta   90.00000000
_cell_angle_gamma   111.75527840
_symmetry_Int_Tables_number   1
_chemical_formula_structural   Yb7Er4In9Pd4
_chemical_formula_sum   'Yb7 Er4 In9 Pd4'
_cell_volume   598.78827987
_cell_formula_units_Z   1
loop_
 _symmetry_equiv_pos_site_id
 _symmetry_equiv_pos_as_xyz
  1  'x, y, z'
loop_
 _atom_site_type_symbol
 _atom_site_label
 _atom_site_symmetry_multiplicity
 _atom_site_fract_x
 _atom_site_fract_y
 _atom_site_fract_z
 _atom_site_occupancy
  Yb  Yb0  1  0.413356  0.068804  0.000000  1
  Yb  Yb1  1  0.586644  0.931196  0.000000  1
  Yb  Yb2  1  0.068804  0.413356  0.000000  1
  Yb  Yb3  1  0.931196  0.586644  0.000000  1
  Yb  Yb4  1  0.159111  0.840889  0.000000  1
  Yb  Yb5  1  0.840889  0.159111  0.000000  1
  Yb  Yb6  1  0.000000  0.000000  0.000000  1
  Er  Er7  1  0.378641  0.621360  0.000000  1
  Er  Er8  1  0.621359  0.378640  0.000000  1
  Er  Er9  1  0.312804  0.312805  0.000000  1
  Er  Er10  1  0.687196  0.687195  0.000000  1
  In  In11  1  0.367954  0.833000  0.500000  1
  In  In12  1  0.632046  0.167000  0.500000  1
  In  In13  1  0.833000  0.367954  0.500000  1
  In  In14  1  0.167000  0.632046  0.500000  1
  In  In15  1  0.218367  0.080204  0.500000  1
  In  In16  1  0.781633  0.919796  0.500000  1
  In  In17  1  0.080204  0.218367  0.500000  1
  In  In18  1  0.919796  0.781633  0.500000  1
  In  In19  1  0.500000  0.500000  0.500000  1
  Pd  Pd20  1  0.447616  0.247109  0.500000  1
  Pd  Pd21  1  0.552384  0.752891  0.500000  1
  Pd  Pd22  1  0.247109  0.447616  0.500000  1
  Pd  Pd23  1  0.752891  0.552384  0.500000  1
