# generated using pymatgen
data_V6Se3S5
_symmetry_space_group_name_H-M   'P 1'
_cell_length_a   9.20796400
_cell_length_b   9.20674380
_cell_length_c   3.29949700
_cell_angle_alpha   90.00000000
_cell_angle_beta   90.00000000
_cell_angle_gamma   119.98562216
_symmetry_Int_Tables_number   1
_chemical_formula_structural   V6Se3S5
_chemical_formula_sum   'V6 Se3 S5'
_cell_volume   242.27630586
_cell_formula_units_Z   1
loop_
 _symmetry_equiv_pos_site_id
 _symmetry_equiv_pos_as_xyz
  1  'x, y, z'
loop_
 _atom_site_type_symbol
 _atom_site_label
 _atom_site_symmetry_multiplicity
 _atom_site_fract_x
 _atom_site_fract_y
 _atom_site_fract_z
 _atom_site_occupancy
  V  V0  1  0.499739  0.118395  0.249999  1
  V  V1  1  0.881398  0.381296  0.249999  1
  V  V2  1  0.618673  0.499827  0.249999  1
  V  V3  1  0.360265  0.490756  0.750001  1
  V  V4  1  0.130419  0.639928  0.750001  1
  V  V5  1  0.509548  0.869861  0.750001  1
  Se  Se6  1  0.724483  0.046733  0.249999  1
  Se  Se7  1  0.322675  0.275710  0.249999  1
  Se  Se8  1  0.952900  0.677445  0.249999  1
  S  S9  1  0.333405  0.666913  0.249999  1
  S  S10  1  0.666548  0.333058  0.750001  1
  S  S11  1  0.048886  0.357890  0.750001  1
  S  S12  1  0.642151  0.690915  0.750001  1
  S  S13  1  0.308910  0.951273  0.750001  1
