# generated using pymatgen
data_Zr2Np6Sb9Au
_symmetry_space_group_name_H-M   'P 1'
_cell_length_a   9.23797700
_cell_length_b   9.23797696
_cell_length_c   6.20502700
_cell_angle_alpha   90.00000000
_cell_angle_beta   90.00000000
_cell_angle_gamma   119.99999657
_symmetry_Int_Tables_number   1
_chemical_formula_structural   Zr2Np6Sb9Au
_chemical_formula_sum   'Zr2 Np6 Sb9 Au1'
_cell_volume   458.59368866
_cell_formula_units_Z   1
loop_
 _symmetry_equiv_pos_site_id
 _symmetry_equiv_pos_as_xyz
  1  'x, y, z'
loop_
 _atom_site_type_symbol
 _atom_site_label
 _atom_site_symmetry_multiplicity
 _atom_site_fract_x
 _atom_site_fract_y
 _atom_site_fract_z
 _atom_site_occupancy
  Zr  Zr0  1  0.000000  0.000000  0.000000  1
  Zr  Zr1  1  0.000000  0.000000  0.500000  1
  Np  Np2  1  0.615869  0.002233  0.255262  1
  Np  Np3  1  0.386364  0.002233  0.744738  1
  Np  Np4  1  0.997767  0.613636  0.255262  1
  Np  Np5  1  0.997767  0.384131  0.744738  1
  Np  Np6  1  0.386364  0.384131  0.255262  1
  Np  Np7  1  0.615869  0.613636  0.744738  1
  Sb  Sb8  1  0.269876  0.994766  0.245728  1
  Sb  Sb9  1  0.724890  0.994766  0.754272  1
  Sb  Sb10  1  0.005234  0.275110  0.245728  1
  Sb  Sb11  1  0.005234  0.730124  0.754272  1
  Sb  Sb12  1  0.724890  0.730124  0.245728  1
  Sb  Sb13  1  0.269876  0.275110  0.754272  1
  Sb  Sb14  1  0.666667  0.333333  0.000000  1
  Sb  Sb15  1  0.666667  0.333333  0.500000  1
  Sb  Sb16  1  0.333333  0.666667  0.500000  1
  Au  Au17  1  0.333333  0.666667  0.000000  1
