# generated using pymatgen
data_Sr5La(CoO3)5
_symmetry_space_group_name_H-M   'P 1'
_cell_length_a   6.87949220
_cell_length_b   6.94780375
_cell_length_c   6.94780318
_cell_angle_alpha   87.46087378
_cell_angle_beta   87.23626731
_cell_angle_gamma   87.23626266
_symmetry_Int_Tables_number   1
_chemical_formula_structural   Sr5La(CoO3)5
_chemical_formula_sum   'Sr5 La1 Co5 O15'
_cell_volume   331.02119499
_cell_formula_units_Z   1
loop_
 _symmetry_equiv_pos_site_id
 _symmetry_equiv_pos_as_xyz
  1  'x, y, z'
loop_
 _atom_site_type_symbol
 _atom_site_label
 _atom_site_symmetry_multiplicity
 _atom_site_fract_x
 _atom_site_fract_y
 _atom_site_fract_z
 _atom_site_occupancy
  Sr  Sr0  1  0.139405  0.501936  0.866686  1
  Sr  Sr1  1  0.860595  0.133314  0.498064  1
  Sr  Sr2  1  0.000000  0.673889  0.326111  1
  Sr  Sr3  1  0.317239  0.996791  0.679292  1
  Sr  Sr4  1  0.682761  0.320708  0.003209  1
  La  La5  1  0.500000  0.847848  0.152152  1
  Co  Co6  1  0.704284  0.713951  0.698166  1
  Co  Co7  1  0.295716  0.301834  0.286049  1
  Co  Co8  1  0.901055  0.902787  0.903378  1
  Co  Co9  1  0.098945  0.096622  0.097213  1
  Co  Co10  1  0.500000  0.455245  0.544755  1
  O  O11  1  0.362188  0.547402  0.203243  1
  O  O12  1  0.240863  0.383535  0.538999  1
  O  O13  1  0.546906  0.254448  0.376273  1
  O  O14  1  0.637812  0.796757  0.452598  1
  O  O15  1  0.453094  0.623727  0.745552  1
  O  O16  1  0.759137  0.461001  0.616465  1
  O  O17  1  0.211540  0.033431  0.344856  1
  O  O18  1  0.351973  0.194676  0.035107  1
  O  O19  1  0.032720  0.342887  0.202917  1
  O  O20  1  0.788460  0.655144  0.966569  1
  O  O21  1  0.967280  0.797083  0.657113  1
  O  O22  1  0.159055  0.846175  0.000666  1
  O  O23  1  0.840945  0.999334  0.153825  1
  O  O24  1  0.000000  0.154581  0.845419  1
  O  O25  1  0.648027  0.964893  0.805324  1
