# generated using pymatgen
data_Ti20BeSi9As2
_symmetry_space_group_name_H-M   'P 1'
_cell_length_a   5.13621900
_cell_length_b   7.46359361
_cell_length_c   12.92988021
_cell_angle_alpha   89.95858608
_cell_angle_beta   90.00000000
_cell_angle_gamma   90.00000000
_symmetry_Int_Tables_number   1
_chemical_formula_structural   Ti20BeSi9As2
_chemical_formula_sum   'Ti20 Be1 Si9 As2'
_cell_volume   495.66231968
_cell_formula_units_Z   1
loop_
 _symmetry_equiv_pos_site_id
 _symmetry_equiv_pos_as_xyz
  1  'x, y, z'
loop_
 _atom_site_type_symbol
 _atom_site_label
 _atom_site_symmetry_multiplicity
 _atom_site_fract_x
 _atom_site_fract_y
 _atom_site_fract_z
 _atom_site_occupancy
  Ti  Ti0  1  0.750570  0.997448  0.668746  1
  Ti  Ti1  1  0.751195  0.500538  0.166132  1
  Ti  Ti2  1  0.750219  0.503405  0.832342  1
  Ti  Ti3  1  0.751270  0.000440  0.333783  1
  Ti  Ti4  1  0.249781  0.503405  0.832342  1
  Ti  Ti5  1  0.248730  0.000440  0.333783  1
  Ti  Ti6  1  0.249430  0.997448  0.668746  1
  Ti  Ti7  1  0.248805  0.500538  0.166132  1
  Ti  Ti8  1  0.500000  0.251731  0.499817  1
  Ti  Ti9  1  0.500000  0.752960  0.997561  1
  Ti  Ti10  1  0.500000  0.622362  0.628871  1
  Ti  Ti11  1  0.500000  0.121989  0.126653  1
  Ti  Ti12  1  0.500000  0.115700  0.871803  1
  Ti  Ti13  1  0.500000  0.622633  0.372705  1
  Ti  Ti14  1  0.000000  0.751617  0.499717  1
  Ti  Ti15  1  0.000000  0.252903  0.000538  1
  Ti  Ti16  1  0.000000  0.875917  0.873535  1
  Ti  Ti17  1  0.000000  0.376595  0.374747  1
  Ti  Ti18  1  0.000000  0.375546  0.626873  1
  Ti  Ti19  1  0.000000  0.876541  0.126143  1
  Be  Be20  1  0.500000  0.801698  0.801952  1
  Si  Si21  1  0.500000  0.303322  0.303192  1
  Si  Si22  1  0.500000  0.302012  0.696998  1
  Si  Si23  1  0.500000  0.803589  0.195650  1
  Si  Si24  1  0.000000  0.615981  0.999168  1
  Si  Si25  1  0.000000  0.114560  0.501288  1
  Si  Si26  1  0.000000  0.696626  0.696778  1
  Si  Si27  1  0.000000  0.197217  0.196539  1
  Si  Si28  1  0.000000  0.196160  0.804463  1
  Si  Si29  1  0.000000  0.696669  0.303684  1
  As  As30  1  0.500000  0.385931  0.998230  1
  As  As31  1  0.500000  0.886068  0.501078  1
