# generated using pymatgen
data_HoU2Fe9
_symmetry_space_group_name_H-M   'P 1'
_cell_length_a   8.69477852
_cell_length_b   8.69477794
_cell_length_c   8.69477835
_cell_angle_alpha   32.88468116
_cell_angle_beta   32.88468962
_cell_angle_gamma   32.88469370
_symmetry_Int_Tables_number   1
_chemical_formula_structural   HoU2Fe9
_chemical_formula_sum   'Ho1 U2 Fe9'
_cell_volume   172.40991869
_cell_formula_units_Z   1
loop_
 _symmetry_equiv_pos_site_id
 _symmetry_equiv_pos_as_xyz
  1  'x, y, z'
loop_
 _atom_site_type_symbol
 _atom_site_label
 _atom_site_symmetry_multiplicity
 _atom_site_fract_x
 _atom_site_fract_y
 _atom_site_fract_z
 _atom_site_occupancy
  Ho  Ho0  1  0.000000  0.000000  0.000000  1
  U  U1  1  0.147233  0.147233  0.147233  1
  U  U2  1  0.852767  0.852767  0.852768  1
  Fe  Fe3  1  0.333228  0.333228  0.333228  1
  Fe  Fe4  1  0.666772  0.666772  0.666772  1
  Fe  Fe5  1  0.500000  0.500000  0.500000  1
  Fe  Fe6  1  0.581104  0.083091  0.581106  1
  Fe  Fe7  1  0.581104  0.581104  0.083093  1
  Fe  Fe8  1  0.083091  0.581104  0.581106  1
  Fe  Fe9  1  0.916909  0.418896  0.418895  1
  Fe  Fe10  1  0.418896  0.418896  0.916907  1
  Fe  Fe11  1  0.418896  0.916909  0.418895  1
