# generated using pymatgen
data_YNpB6W
_symmetry_space_group_name_H-M   'P 1'
_cell_length_a   3.60613100
_cell_length_b   9.38911200
_cell_length_c   11.46123800
_cell_angle_alpha   90.00000000
_cell_angle_beta   90.00000000
_cell_angle_gamma   90.00000000
_symmetry_Int_Tables_number   1
_chemical_formula_structural   YNpB6W
_chemical_formula_sum   'Y4 Np4 B24 W4'
_cell_volume   388.05881217
_cell_formula_units_Z   4
loop_
 _symmetry_equiv_pos_site_id
 _symmetry_equiv_pos_as_xyz
  1  'x, y, z'
loop_
 _atom_site_type_symbol
 _atom_site_label
 _atom_site_symmetry_multiplicity
 _atom_site_fract_x
 _atom_site_fract_y
 _atom_site_fract_z
 _atom_site_occupancy
  Y  Y0  1  0.000000  0.337726  0.407869  1
  Y  Y1  1  0.000000  0.662274  0.592131  1
  Y  Y2  1  0.000000  0.837726  0.092131  1
  Y  Y3  1  0.000000  0.162274  0.907869  1
  Np  Np4  1  0.000000  0.959292  0.401037  1
  Np  Np5  1  0.000000  0.040708  0.598963  1
  Np  Np6  1  0.000000  0.459292  0.098963  1
  Np  Np7  1  0.000000  0.540708  0.901037  1
  B  B8  1  0.500000  0.552022  0.432163  1
  B  B9  1  0.500000  0.447978  0.567837  1
  B  B10  1  0.500000  0.052022  0.067837  1
  B  B11  1  0.500000  0.947978  0.932163  1
  B  B12  1  0.500000  0.747008  0.424030  1
  B  B13  1  0.500000  0.252992  0.575970  1
  B  B14  1  0.500000  0.247008  0.075970  1
  B  B15  1  0.500000  0.752992  0.924030  1
  B  B16  1  0.500000  0.806875  0.275440  1
  B  B17  1  0.500000  0.193125  0.724560  1
  B  B18  1  0.500000  0.306875  0.224560  1
  B  B19  1  0.500000  0.693125  0.775440  1
  B  B20  1  0.500000  0.644155  0.186326  1
  B  B21  1  0.500000  0.355845  0.813674  1
  B  B22  1  0.500000  0.144155  0.313674  1
  B  B23  1  0.500000  0.855845  0.686326  1
  B  B24  1  0.500000  0.987933  0.222070  1
  B  B25  1  0.500000  0.012067  0.777930  1
  B  B26  1  0.500000  0.487933  0.277930  1
  B  B27  1  0.500000  0.512067  0.722070  1
  B  B28  1  0.500000  0.638016  0.038277  1
  B  B29  1  0.500000  0.361984  0.961723  1
  B  B30  1  0.500000  0.138016  0.461723  1
  B  B31  1  0.500000  0.861984  0.538277  1
  W  W32  1  0.000000  0.647672  0.317721  1
  W  W33  1  0.000000  0.352328  0.682279  1
  W  W34  1  0.000000  0.147672  0.182279  1
  W  W35  1  0.000000  0.852328  0.817721  1
