# generated using pymatgen
data_Ce2Fe2SiPPd2
_symmetry_space_group_name_H-M   'P 1'
_cell_length_a   9.30531947
_cell_length_b   9.30532015
_cell_length_c   3.93846600
_cell_angle_alpha   90.00000000
_cell_angle_beta   90.00000000
_cell_angle_gamma   155.92081275
_symmetry_Int_Tables_number   1
_chemical_formula_structural   Ce2Fe2SiPPd2
_chemical_formula_sum   'Ce2 Fe2 Si1 P1 Pd2'
_cell_volume   139.13892457
_cell_formula_units_Z   1
loop_
 _symmetry_equiv_pos_site_id
 _symmetry_equiv_pos_as_xyz
  1  'x, y, z'
loop_
 _atom_site_type_symbol
 _atom_site_label
 _atom_site_symmetry_multiplicity
 _atom_site_fract_x
 _atom_site_fract_y
 _atom_site_fract_z
 _atom_site_occupancy
  Ce  Ce0  1  0.615072  0.384928  0.250000  1
  Ce  Ce1  1  0.380750  0.619250  0.750000  1
  Fe  Fe2  1  0.253161  0.746839  0.250000  1
  Fe  Fe3  1  0.753766  0.246234  0.750000  1
  Si  Si4  1  0.187889  0.812111  0.750000  1
  P  P5  1  0.810917  0.189083  0.250000  1
  Pd  Pd6  1  0.947234  0.052766  0.250000  1
  Pd  Pd7  1  0.051213  0.948787  0.750000  1
