# generated using pymatgen
data_Nd5Sc(P2Ir3)6
_symmetry_space_group_name_H-M   'P 1'
_cell_length_a   12.78208423
_cell_length_b   12.96756975
_cell_length_c   4.01781800
_cell_angle_alpha   90.00000000
_cell_angle_beta   90.00000000
_cell_angle_gamma   120.48120699
_symmetry_Int_Tables_number   1
_chemical_formula_structural   Nd5Sc(P2Ir3)6
_chemical_formula_sum   'Nd5 Sc1 P12 Ir18'
_cell_volume   573.92453860
_cell_formula_units_Z   1
loop_
 _symmetry_equiv_pos_site_id
 _symmetry_equiv_pos_as_xyz
  1  'x, y, z'
loop_
 _atom_site_type_symbol
 _atom_site_label
 _atom_site_symmetry_multiplicity
 _atom_site_fract_x
 _atom_site_fract_y
 _atom_site_fract_z
 _atom_site_occupancy
  Nd  Nd0  1  0.330191  0.665292  0.500000  1
  Nd  Nd1  1  0.669809  0.335100  0.500000  1
  Nd  Nd2  1  0.000000  0.812735  0.000000  1
  Nd  Nd3  1  0.186900  0.187879  0.000000  1
  Nd  Nd4  1  0.813100  0.000978  0.000000  1
  Sc  Sc5  1  0.000000  0.443434  0.500000  1
  P  P6  1  0.000000  0.642349  0.500000  1
  P  P7  1  0.360129  0.355553  0.500000  1
  P  P8  1  0.639871  0.995425  0.500000  1
  P  P9  1  0.515894  0.689691  0.000000  1
  P  P10  1  0.310949  0.830870  0.000000  1
  P  P11  1  0.166913  0.482411  0.000000  1
  P  P12  1  0.484106  0.173798  0.000000  1
  P  P13  1  0.689051  0.519921  0.000000  1
  P  P14  1  0.833087  0.315498  0.000000  1
  P  P15  1  0.000000  0.177569  0.500000  1
  P  P16  1  0.818140  0.819820  0.500000  1
  P  P17  1  0.181860  0.001680  0.500000  1
  Ir  Ir18  1  0.509428  0.872184  0.000000  1
  Ir  Ir19  1  0.130105  0.643507  0.000000  1
  Ir  Ir20  1  0.360476  0.493892  0.000000  1
  Ir  Ir21  1  0.490572  0.362755  0.000000  1
  Ir  Ir22  1  0.869895  0.513401  0.000000  1
  Ir  Ir23  1  0.639524  0.133416  0.000000  1
  Ir  Ir24  1  0.536313  0.535560  0.500000  1
  Ir  Ir25  1  0.463687  0.999247  0.500000  1
  Ir  Ir26  1  0.000000  0.281101  0.000000  1
  Ir  Ir27  1  0.712416  0.714451  0.000000  1
  Ir  Ir28  1  0.287584  0.002035  0.000000  1
  Ir  Ir29  1  0.617984  0.798674  0.500000  1
  Ir  Ir30  1  0.201739  0.827138  0.500000  1
  Ir  Ir31  1  0.183801  0.376108  0.500000  1
  Ir  Ir32  1  0.382016  0.180690  0.500000  1
  Ir  Ir33  1  0.798261  0.625400  0.500000  1
  Ir  Ir34  1  0.816199  0.192307  0.500000  1
  Ir  Ir35  1  0.000000  0.998130  0.500000  1
