# generated using pymatgen
data_Ac(Al5Ru)2
_symmetry_space_group_name_H-M   'P 1'
_cell_length_a   6.96420125
_cell_length_b   6.96420032
_cell_length_c   9.30316700
_cell_angle_alpha   90.00000000
_cell_angle_beta   90.00000000
_cell_angle_gamma   96.72987796
_symmetry_Int_Tables_number   1
_chemical_formula_structural   Ac(Al5Ru)2
_chemical_formula_sum   'Ac2 Al20 Ru4'
_cell_volume   448.09551485
_cell_formula_units_Z   2
loop_
 _symmetry_equiv_pos_site_id
 _symmetry_equiv_pos_as_xyz
  1  'x, y, z'
loop_
 _atom_site_type_symbol
 _atom_site_label
 _atom_site_symmetry_multiplicity
 _atom_site_fract_x
 _atom_site_fract_y
 _atom_site_fract_z
 _atom_site_occupancy
  Ac  Ac0  1  0.879778  0.120222  0.750000  1
  Ac  Ac1  1  0.120222  0.879778  0.250000  1
  Al  Al2  1  0.620895  0.379105  0.551692  1
  Al  Al3  1  0.379105  0.620895  0.448308  1
  Al  Al4  1  0.379105  0.620895  0.051692  1
  Al  Al5  1  0.620895  0.379105  0.948308  1
  Al  Al6  1  0.230994  0.230994  0.500000  1
  Al  Al7  1  0.769006  0.769006  0.500000  1
  Al  Al8  1  0.769006  0.769006  0.000000  1
  Al  Al9  1  0.230994  0.230994  0.000000  1
  Al  Al10  1  0.833862  0.166138  0.102975  1
  Al  Al11  1  0.166138  0.833862  0.897025  1
  Al  Al12  1  0.166138  0.833862  0.602975  1
  Al  Al13  1  0.833862  0.166138  0.397025  1
  Al  Al14  1  0.860287  0.589849  0.750000  1
  Al  Al15  1  0.139713  0.410151  0.250000  1
  Al  Al16  1  0.410151  0.139713  0.750000  1
  Al  Al17  1  0.589849  0.860287  0.250000  1
  Al  Al18  1  0.221501  0.484318  0.750000  1
  Al  Al19  1  0.778499  0.515682  0.250000  1
  Al  Al20  1  0.515682  0.778499  0.750000  1
  Al  Al21  1  0.484318  0.221501  0.250000  1
  Ru  Ru22  1  0.000000  0.500000  0.500000  1
  Ru  Ru23  1  0.000000  0.500000  0.000000  1
  Ru  Ru24  1  0.500000  0.000000  0.000000  1
  Ru  Ru25  1  0.500000  0.000000  0.500000  1
