# generated using pymatgen
data_Sm2MnCoSi2C
_symmetry_space_group_name_H-M   'P 1'
_cell_length_a   5.73136233
_cell_length_b   5.73136231
_cell_length_c   6.91158720
_cell_angle_alpha   126.69219919
_cell_angle_beta   126.69219670
_cell_angle_gamma   40.70347401
_symmetry_Int_Tables_number   1
_chemical_formula_structural   Sm2MnCoSi2C
_chemical_formula_sum   'Sm2 Mn1 Co1 Si2 C1'
_cell_volume   114.09734968
_cell_formula_units_Z   1
loop_
 _symmetry_equiv_pos_site_id
 _symmetry_equiv_pos_as_xyz
  1  'x, y, z'
loop_
 _atom_site_type_symbol
 _atom_site_label
 _atom_site_symmetry_multiplicity
 _atom_site_fract_x
 _atom_site_fract_y
 _atom_site_fract_z
 _atom_site_occupancy
  Sm  Sm0  1  0.559676  0.559676  0.296159  1
  Sm  Sm1  1  0.438897  0.438897  0.704681  1
  Mn  Mn2  1  0.198139  0.198139  0.090192  1
  Co  Co3  1  0.798608  0.798608  0.906125  1
  Si  Si4  1  0.835687  0.835687  0.276115  1
  Si  Si5  1  0.165011  0.165011  0.721582  1
  C  C6  1  0.003982  0.003982  0.005147  1
