# generated using pymatgen
data_Ac2Si3Ag
_symmetry_space_group_name_H-M   'P 1'
_cell_length_a   11.88009549
_cell_length_b   10.21462419
_cell_length_c   8.55307780
_cell_angle_alpha   77.99060960
_cell_angle_beta   57.24498904
_cell_angle_gamma   44.76439127
_symmetry_Int_Tables_number   1
_chemical_formula_structural   Ac2Si3Ag
_chemical_formula_sum   'Ac8 Si12 Ag4'
_cell_volume   586.88243762
_cell_formula_units_Z   4
loop_
 _symmetry_equiv_pos_site_id
 _symmetry_equiv_pos_as_xyz
  1  'x, y, z'
loop_
 _atom_site_type_symbol
 _atom_site_label
 _atom_site_symmetry_multiplicity
 _atom_site_fract_x
 _atom_site_fract_y
 _atom_site_fract_z
 _atom_site_occupancy
  Ac  Ac0  1  0.377267  0.377267  0.622733  1
  Ac  Ac1  1  0.622733  0.622733  0.377267  1
  Ac  Ac2  1  0.872733  0.872733  0.627267  1
  Ac  Ac3  1  0.627267  0.627267  0.872733  1
  Ac  Ac4  1  0.875455  0.875455  0.124545  1
  Ac  Ac5  1  0.124545  0.124545  0.875455  1
  Ac  Ac6  1  0.374545  0.374545  0.125455  1
  Ac  Ac7  1  0.125455  0.125455  0.374545  1
  Si  Si8  1  0.662516  0.337484  0.662516  1
  Si  Si9  1  0.337484  0.662516  0.337484  1
  Si  Si10  1  0.587484  0.912516  0.587484  1
  Si  Si11  1  0.912516  0.587484  0.912516  1
  Si  Si12  1  0.335321  0.661059  0.826938  1
  Si  Si13  1  0.176681  0.826938  0.661059  1
  Si  Si14  1  0.826938  0.176681  0.335321  1
  Si  Si15  1  0.661059  0.335321  0.176681  1
  Si  Si16  1  0.914679  0.588941  0.423062  1
  Si  Si17  1  0.073319  0.423062  0.588941  1
  Si  Si18  1  0.423062  0.073319  0.914679  1
  Si  Si19  1  0.588941  0.914679  0.073319  1
  Ag  Ag20  1  0.833026  0.166974  0.833026  1
  Ag  Ag21  1  0.166974  0.833026  0.166974  1
  Ag  Ag22  1  0.416974  0.083026  0.416974  1
  Ag  Ag23  1  0.083026  0.416974  0.083026  1
