# generated using pymatgen
data_SmYPa2(ReN3)4
_symmetry_space_group_name_H-M   'P 1'
_cell_length_a   5.36415035
_cell_length_b   5.76785209
_cell_length_c   7.78062300
_cell_angle_alpha   90.00000000
_cell_angle_beta   90.00000000
_cell_angle_gamma   90.20281705
_symmetry_Int_Tables_number   1
_chemical_formula_structural   SmYPa2(ReN3)4
_chemical_formula_sum   'Sm1 Y1 Pa2 Re4 N12'
_cell_volume   240.72805596
_cell_formula_units_Z   1
loop_
 _symmetry_equiv_pos_site_id
 _symmetry_equiv_pos_as_xyz
  1  'x, y, z'
loop_
 _atom_site_type_symbol
 _atom_site_label
 _atom_site_symmetry_multiplicity
 _atom_site_fract_x
 _atom_site_fract_y
 _atom_site_fract_z
 _atom_site_occupancy
  Sm  Sm0  1  0.510954  0.563599  0.750000  1
  Y  Y1  1  0.984044  0.064643  0.750000  1
  Pa  Pa2  1  0.476682  0.425274  0.250000  1
  Pa  Pa3  1  0.023084  0.925497  0.250000  1
  Re  Re4  1  0.510056  0.002663  0.508557  1
  Re  Re5  1  0.987379  0.501289  0.991661  1
  Re  Re6  1  0.987379  0.501289  0.508339  1
  Re  Re7  1  0.510056  0.002663  0.991443  1
  N  N8  1  0.704892  0.287333  0.541756  1
  N  N9  1  0.311866  0.694941  0.061108  1
  N  N10  1  0.191391  0.196857  0.064075  1
  N  N11  1  0.415335  0.989607  0.750000  1
  N  N12  1  0.881509  0.545790  0.250000  1
  N  N13  1  0.311866  0.694941  0.438892  1
  N  N14  1  0.804194  0.795582  0.953950  1
  N  N15  1  0.704892  0.287333  0.958244  1
  N  N16  1  0.804194  0.795582  0.546050  1
  N  N17  1  0.072567  0.485782  0.750000  1
  N  N18  1  0.191391  0.196857  0.435925  1
  N  N19  1  0.616268  0.042478  0.250000  1
