# generated using pymatgen
data_TbGd4W2C7
_symmetry_space_group_name_H-M   'P 1'
_cell_length_a   8.51999995
_cell_length_b   8.51999928
_cell_length_c   3.45258000
_cell_angle_alpha   90.00000000
_cell_angle_beta   90.00000000
_cell_angle_gamma   123.49818865
_symmetry_Int_Tables_number   1
_chemical_formula_structural   TbGd4W2C7
_chemical_formula_sum   'Tb1 Gd4 W2 C7'
_cell_volume   208.99629054
_cell_formula_units_Z   1
loop_
 _symmetry_equiv_pos_site_id
 _symmetry_equiv_pos_as_xyz
  1  'x, y, z'
loop_
 _atom_site_type_symbol
 _atom_site_label
 _atom_site_symmetry_multiplicity
 _atom_site_fract_x
 _atom_site_fract_y
 _atom_site_fract_z
 _atom_site_occupancy
  Tb  Tb0  1  0.500000  0.500000  0.000000  1
  Gd  Gd1  1  0.070957  0.328732  0.500000  1
  Gd  Gd2  1  0.929043  0.671268  0.500000  1
  Gd  Gd3  1  0.671268  0.929043  0.500000  1
  Gd  Gd4  1  0.328732  0.070957  0.500000  1
  W  W5  1  0.711819  0.288181  0.000000  1
  W  W6  1  0.288181  0.711819  0.000000  1
  C  C7  1  0.626574  0.373426  0.500000  1
  C  C8  1  0.373426  0.626574  0.500000  1
  C  C9  1  0.000000  0.000000  0.000000  1
  C  C10  1  0.167978  0.167978  0.000000  1
  C  C11  1  0.832022  0.832022  0.000000  1
  C  C12  1  0.000000  0.500000  0.000000  1
  C  C13  1  0.500000  0.000000  0.000000  1
