# generated using pymatgen
data_Dy9Cd(Co2Au)2
_symmetry_space_group_name_H-M   'P 1'
_cell_length_a   8.52828333
_cell_length_b   8.52828429
_cell_length_c   8.52828502
_cell_angle_alpha   128.89334965
_cell_angle_beta   128.89334583
_cell_angle_gamma   75.18223959
_symmetry_Int_Tables_number   1
_chemical_formula_structural   Dy9Cd(Co2Au)2
_chemical_formula_sum   'Dy9 Cd1 Co4 Au2'
_cell_volume   365.79884886
_cell_formula_units_Z   1
loop_
 _symmetry_equiv_pos_site_id
 _symmetry_equiv_pos_as_xyz
  1  'x, y, z'
loop_
 _atom_site_type_symbol
 _atom_site_label
 _atom_site_symmetry_multiplicity
 _atom_site_fract_x
 _atom_site_fract_y
 _atom_site_fract_z
 _atom_site_occupancy
  Dy  Dy0  1  0.000000  0.000000  0.000000  1
  Dy  Dy1  1  0.792826  0.313816  0.842957  1
  Dy  Dy2  1  0.207174  0.686184  0.157044  1
  Dy  Dy3  1  0.470860  0.949870  0.157044  1
  Dy  Dy4  1  0.313816  0.470860  0.520990  1
  Dy  Dy5  1  0.050130  0.207174  0.520990  1
  Dy  Dy6  1  0.529140  0.050130  0.842956  1
  Dy  Dy7  1  0.686184  0.529140  0.479010  1
  Dy  Dy8  1  0.949870  0.792826  0.479010  1
  Cd  Cd9  1  0.500000  0.500000  0.000000  1
  Co  Co10  1  0.117794  0.624210  0.742005  1
  Co  Co11  1  0.882206  0.375790  0.257995  1
  Co  Co12  1  0.624210  0.882206  0.506415  1
  Co  Co13  1  0.375790  0.117794  0.493585  1
  Au  Au14  1  0.240176  0.240176  0.000000  1
  Au  Au15  1  0.759824  0.759824  0.000000  1
