# generated using pymatgen
data_YLuB6Os
_symmetry_space_group_name_H-M   'P 1'
_cell_length_a   3.62186700
_cell_length_b   9.08069200
_cell_length_c   11.47879000
_cell_angle_alpha   90.00000000
_cell_angle_beta   90.00000000
_cell_angle_gamma   90.00000000
_symmetry_Int_Tables_number   1
_chemical_formula_structural   YLuB6Os
_chemical_formula_sum   'Y4 Lu4 B24 Os4'
_cell_volume   377.52659802
_cell_formula_units_Z   4
loop_
 _symmetry_equiv_pos_site_id
 _symmetry_equiv_pos_as_xyz
  1  'x, y, z'
loop_
 _atom_site_type_symbol
 _atom_site_label
 _atom_site_symmetry_multiplicity
 _atom_site_fract_x
 _atom_site_fract_y
 _atom_site_fract_z
 _atom_site_occupancy
  Y  Y0  1  0.000000  0.321443  0.413955  1
  Y  Y1  1  0.000000  0.678557  0.586045  1
  Y  Y2  1  0.000000  0.821443  0.086045  1
  Y  Y3  1  0.000000  0.178557  0.913955  1
  Lu  Lu4  1  0.000000  0.944521  0.373144  1
  Lu  Lu5  1  0.000000  0.055479  0.626856  1
  Lu  Lu6  1  0.000000  0.444521  0.126856  1
  Lu  Lu7  1  0.000000  0.555479  0.873144  1
  B  B8  1  0.500000  0.554485  0.432735  1
  B  B9  1  0.500000  0.445515  0.567265  1
  B  B10  1  0.500000  0.054485  0.067265  1
  B  B11  1  0.500000  0.945515  0.932735  1
  B  B12  1  0.500000  0.750117  0.419476  1
  B  B13  1  0.500000  0.249883  0.580524  1
  B  B14  1  0.500000  0.250117  0.080524  1
  B  B15  1  0.500000  0.749883  0.919476  1
  B  B16  1  0.500000  0.792303  0.266397  1
  B  B17  1  0.500000  0.207697  0.733602  1
  B  B18  1  0.500000  0.292303  0.233603  1
  B  B19  1  0.500000  0.707697  0.766398  1
  B  B20  1  0.500000  0.630955  0.184601  1
  B  B21  1  0.500000  0.369045  0.815399  1
  B  B22  1  0.500000  0.130955  0.315399  1
  B  B23  1  0.500000  0.869045  0.684601  1
  B  B24  1  0.500000  0.982990  0.213886  1
  B  B25  1  0.500000  0.017010  0.786114  1
  B  B26  1  0.500000  0.482990  0.286114  1
  B  B27  1  0.500000  0.517010  0.713886  1
  B  B28  1  0.500000  0.603673  0.028578  1
  B  B29  1  0.500000  0.396327  0.971422  1
  B  B30  1  0.500000  0.103673  0.471422  1
  B  B31  1  0.500000  0.896327  0.528578  1
  Os  Os32  1  0.000000  0.638558  0.320337  1
  Os  Os33  1  0.000000  0.361442  0.679663  1
  Os  Os34  1  0.000000  0.138558  0.179663  1
  Os  Os35  1  0.000000  0.861442  0.820337  1
