# generated using pymatgen
data_Tb5Tm4Lu7(InRh)4
_symmetry_space_group_name_H-M   'P 1'
_cell_length_a   9.56332485
_cell_length_b   9.55072498
_cell_length_c   9.54554419
_cell_angle_alpha   60.16942417
_cell_angle_beta   59.96737428
_cell_angle_gamma   59.96301373
_symmetry_Int_Tables_number   1
_chemical_formula_structural   Tb5Tm4Lu7(InRh)4
_chemical_formula_sum   'Tb5 Tm4 Lu7 In4 Rh4'
_cell_volume   616.95667942
_cell_formula_units_Z   1
loop_
 _symmetry_equiv_pos_site_id
 _symmetry_equiv_pos_as_xyz
  1  'x, y, z'
loop_
 _atom_site_type_symbol
 _atom_site_label
 _atom_site_symmetry_multiplicity
 _atom_site_fract_x
 _atom_site_fract_y
 _atom_site_fract_z
 _atom_site_occupancy
  Tb  Tb0  1  0.062878  0.063519  0.434501  1
  Tb  Tb1  1  0.435762  0.064906  0.433724  1
  Tb  Tb2  1  0.062585  0.435438  0.063115  1
  Tb  Tb3  1  0.049966  0.650474  0.649754  1
  Tb  Tb4  1  0.435156  0.434504  0.064763  1
  Tm  Tm5  1  0.809838  0.191014  0.810475  1
  Tm  Tm6  1  0.189436  0.813109  0.813068  1
  Tm  Tm7  1  0.649953  0.644951  0.050784  1
  Tm  Tm8  1  0.649444  0.654506  0.653880  1
  Lu  Lu9  1  0.650588  0.048965  0.645289  1
  Lu  Lu10  1  0.188609  0.812429  0.188415  1
  Lu  Lu11  1  0.189384  0.188784  0.811903  1
  Lu  Lu12  1  0.810064  0.810706  0.191155  1
  Lu  Lu13  1  0.443093  0.054349  0.054479  1
  Lu  Lu14  1  0.813415  0.187614  0.187770  1
  Lu  Lu15  1  0.057497  0.442102  0.441173  1
  In  In16  1  0.417731  0.416660  0.417285  1
  In  In17  1  0.749516  0.417520  0.418095  1
  In  In18  1  0.419249  0.747348  0.417991  1
  In  In19  1  0.419172  0.416117  0.747639  1
  Rh  Rh20  1  0.859323  0.857965  0.423243  1
  Rh  Rh21  1  0.851538  0.861341  0.862074  1
  Rh  Rh22  1  0.426285  0.861976  0.861887  1
  Rh  Rh23  1  0.859516  0.423702  0.857540  1
