# generated using pymatgen
data_Tm4Al4RuPtRh2
_symmetry_space_group_name_H-M   'P 1'
_cell_length_a   4.19563500
_cell_length_b   6.80138542
_cell_length_c   7.92404923
_cell_angle_alpha   90.25637834
_cell_angle_beta   90.00000000
_cell_angle_gamma   90.00000000
_symmetry_Int_Tables_number   1
_chemical_formula_structural   Tm4Al4RuPtRh2
_chemical_formula_sum   'Tm4 Al4 Ru1 Pt1 Rh2'
_cell_volume   226.11944102
_cell_formula_units_Z   1
loop_
 _symmetry_equiv_pos_site_id
 _symmetry_equiv_pos_as_xyz
  1  'x, y, z'
loop_
 _atom_site_type_symbol
 _atom_site_label
 _atom_site_symmetry_multiplicity
 _atom_site_fract_x
 _atom_site_fract_y
 _atom_site_fract_z
 _atom_site_occupancy
  Tm  Tm0  1  0.250000  0.969887  0.325010  1
  Tm  Tm1  1  0.750000  0.534626  0.819403  1
  Tm  Tm2  1  0.250000  0.459029  0.181343  1
  Tm  Tm3  1  0.750000  0.036520  0.677236  1
  Al  Al4  1  0.750000  0.635826  0.439977  1
  Al  Al5  1  0.750000  0.140929  0.058885  1
  Al  Al6  1  0.250000  0.361307  0.557788  1
  Al  Al7  1  0.250000  0.863957  0.938203  1
  Ru  Ru8  1  0.750000  0.260542  0.377508  1
  Pt  Pt9  1  0.750000  0.766772  0.124097  1
  Rh  Rh10  1  0.250000  0.235707  0.877359  1
  Rh  Rh11  1  0.250000  0.734898  0.623192  1
