# generated using pymatgen
data_DyHo4Mn2O12
_symmetry_space_group_name_H-M   'P 1'
_cell_length_a   6.78023678
_cell_length_b   6.78023574
_cell_length_c   7.19336001
_cell_angle_alpha   74.57842518
_cell_angle_beta   74.57842653
_cell_angle_gamma   50.07041016
_symmetry_Int_Tables_number   1
_chemical_formula_structural   DyHo4Mn2O12
_chemical_formula_sum   'Dy1 Ho4 Mn2 O12'
_cell_volume   242.41690484
_cell_formula_units_Z   1
loop_
 _symmetry_equiv_pos_site_id
 _symmetry_equiv_pos_as_xyz
  1  'x, y, z'
loop_
 _atom_site_type_symbol
 _atom_site_label
 _atom_site_symmetry_multiplicity
 _atom_site_fract_x
 _atom_site_fract_y
 _atom_site_fract_z
 _atom_site_occupancy
  Dy  Dy0  1  0.000000  0.000000  0.500000  1
  Ho  Ho1  1  0.304977  0.304977  0.356629  1
  Ho  Ho2  1  0.695023  0.695023  0.643371  1
  Ho  Ho3  1  0.307568  0.307568  0.835399  1
  Ho  Ho4  1  0.692432  0.692432  0.164601  1
  Mn  Mn5  1  0.754013  0.245987  0.000000  1
  Mn  Mn6  1  0.245987  0.754013  0.000000  1
  O  O7  1  0.901829  0.422222  0.918064  1
  O  O8  1  0.422222  0.901829  0.918064  1
  O  O9  1  0.098171  0.577778  0.081936  1
  O  O10  1  0.577778  0.098171  0.081936  1
  O  O11  1  0.097215  0.597191  0.574665  1
  O  O12  1  0.597191  0.097215  0.574665  1
  O  O13  1  0.902785  0.402809  0.425335  1
  O  O14  1  0.402809  0.902785  0.425335  1
  O  O15  1  0.999409  0.999409  0.821494  1
  O  O16  1  0.000591  0.000591  0.178506  1
  O  O17  1  0.499859  0.499859  0.818593  1
  O  O18  1  0.500141  0.500141  0.181407  1
