# generated using pymatgen
data_Tb8Cd2CoNi
_symmetry_space_group_name_H-M   'P 1'
_cell_length_a   9.54474556
_cell_length_b   9.55151578
_cell_length_c   9.55151474
_cell_angle_alpha   60.10043287
_cell_angle_beta   60.02343922
_cell_angle_gamma   60.02344518
_symmetry_Int_Tables_number   1
_chemical_formula_structural   Tb8Cd2CoNi
_chemical_formula_sum   'Tb16 Cd4 Co2 Ni2'
_cell_volume   616.41966686
_cell_formula_units_Z   2
loop_
 _symmetry_equiv_pos_site_id
 _symmetry_equiv_pos_as_xyz
  1  'x, y, z'
loop_
 _atom_site_type_symbol
 _atom_site_label
 _atom_site_symmetry_multiplicity
 _atom_site_fract_x
 _atom_site_fract_y
 _atom_site_fract_z
 _atom_site_occupancy
  Tb  Tb0  1  0.439479  0.438311  0.057739  1
  Tb  Tb1  1  0.593826  0.598172  0.598172  1
  Tb  Tb2  1  0.186872  0.813128  0.813128  1
  Tb  Tb3  1  0.064471  0.057739  0.438311  1
  Tb  Tb4  1  0.438169  0.061831  0.061831  1
  Tb  Tb5  1  0.811889  0.188179  0.813361  1
  Tb  Tb6  1  0.439479  0.057739  0.438311  1
  Tb  Tb7  1  0.596633  0.204692  0.602041  1
  Tb  Tb8  1  0.811889  0.813361  0.188179  1
  Tb  Tb9  1  0.209830  0.598172  0.598172  1
  Tb  Tb10  1  0.812143  0.187857  0.187857  1
  Tb  Tb11  1  0.060362  0.439638  0.439638  1
  Tb  Tb12  1  0.186570  0.813361  0.188179  1
  Tb  Tb13  1  0.596633  0.602041  0.204692  1
  Tb  Tb14  1  0.186570  0.188179  0.813361  1
  Tb  Tb15  1  0.064471  0.438311  0.057739  1
  Cd  Cd16  1  0.831155  0.830452  0.507236  1
  Cd  Cd17  1  0.830861  0.830741  0.830741  1
  Cd  Cd18  1  0.507656  0.830741  0.830741  1
  Cd  Cd19  1  0.831155  0.507236  0.830452  1
  Co  Co20  1  0.391798  0.824978  0.391427  1
  Co  Co21  1  0.391798  0.391427  0.824978  1
  Ni  Ni22  1  0.392517  0.391857  0.391857  1
  Ni  Ni23  1  0.823770  0.391857  0.391857  1
