# generated using pymatgen
data_Tb4Ga6CoCu
_symmetry_space_group_name_H-M   'P 1'
_cell_length_a   7.04001900
_cell_length_b   8.79807353
_cell_length_c   8.79809000
_cell_angle_alpha   120.00004791
_cell_angle_beta   90.00021000
_cell_angle_gamma   89.99997636
_symmetry_Int_Tables_number   1
_chemical_formula_structural   Tb4Ga6CoCu
_chemical_formula_sum   'Tb8 Ga12 Co2 Cu2'
_cell_volume   471.93288496
_cell_formula_units_Z   2
loop_
 _symmetry_equiv_pos_site_id
 _symmetry_equiv_pos_as_xyz
  1  'x, y, z'
loop_
 _atom_site_type_symbol
 _atom_site_label
 _atom_site_symmetry_multiplicity
 _atom_site_fract_x
 _atom_site_fract_y
 _atom_site_fract_z
 _atom_site_occupancy
  Tb  Tb0  1  0.746596  0.000000  0.000000  1
  Tb  Tb1  1  0.253404  0.000000  0.000000  1
  Tb  Tb2  1  0.742369  0.477721  0.522278  1
  Tb  Tb3  1  0.257631  0.522279  0.477722  1
  Tb  Tb4  1  0.742370  0.044556  0.522278  1
  Tb  Tb5  1  0.257630  0.955444  0.477722  1
  Tb  Tb6  1  0.742370  0.477722  0.955444  1
  Tb  Tb7  1  0.257630  0.522278  0.044556  1
  Ga  Ga8  1  0.953928  0.830722  0.169279  1
  Ga  Ga9  1  0.046072  0.169278  0.830721  1
  Ga  Ga10  1  0.953928  0.338558  0.169279  1
  Ga  Ga11  1  0.454853  0.172996  0.827004  1
  Ga  Ga12  1  0.046072  0.661442  0.830721  1
  Ga  Ga13  1  0.545147  0.827004  0.172996  1
  Ga  Ga14  1  0.953928  0.830722  0.661443  1
  Ga  Ga15  1  0.454853  0.654008  0.827003  1
  Ga  Ga16  1  0.046072  0.169278  0.338557  1
  Ga  Ga17  1  0.545147  0.345992  0.172997  1
  Ga  Ga18  1  0.454851  0.172997  0.345995  1
  Ga  Ga19  1  0.545149  0.827003  0.654005  1
  Co  Co20  1  0.485608  0.333332  0.666667  1
  Co  Co21  1  0.514392  0.666668  0.333333  1
  Cu  Cu22  1  0.947941  0.666668  0.333334  1
  Cu  Cu23  1  0.052059  0.333332  0.666666  1
