# generated using pymatgen
data_Dy5Tm7Tc4
_symmetry_space_group_name_H-M   'P 1'
_cell_length_a   6.21184317
_cell_length_b   7.40705916
_cell_length_c   9.05919440
_cell_angle_alpha   89.91532014
_cell_angle_beta   89.88922744
_cell_angle_gamma   89.98254904
_symmetry_Int_Tables_number   1
_chemical_formula_structural   Dy5Tm7Tc4
_chemical_formula_sum   'Dy5 Tm7 Tc4'
_cell_volume   416.82577825
_cell_formula_units_Z   1
loop_
 _symmetry_equiv_pos_site_id
 _symmetry_equiv_pos_as_xyz
  1  'x, y, z'
loop_
 _atom_site_type_symbol
 _atom_site_label
 _atom_site_symmetry_multiplicity
 _atom_site_fract_x
 _atom_site_fract_y
 _atom_site_fract_z
 _atom_site_occupancy
  Dy  Dy0  1  0.157659  0.175586  0.062564  1
  Dy  Dy1  1  0.873436  0.540801  0.250426  1
  Dy  Dy2  1  0.625992  0.038700  0.251026  1
  Dy  Dy3  1  0.124992  0.460654  0.749282  1
  Dy  Dy4  1  0.374743  0.960155  0.749349  1
  Tm  Tm5  1  0.343226  0.674130  0.062606  1
  Tm  Tm6  1  0.156709  0.174423  0.438207  1
  Tm  Tm7  1  0.656473  0.325323  0.562724  1
  Tm  Tm8  1  0.842790  0.825060  0.936768  1
  Tm  Tm9  1  0.658298  0.325606  0.937076  1
  Tm  Tm10  1  0.843164  0.825180  0.562471  1
  Tm  Tm11  1  0.342783  0.674786  0.437451  1
  Tc  Tc12  1  0.043818  0.883475  0.250341  1
  Tc  Tc13  1  0.457877  0.384525  0.251397  1
  Tc  Tc14  1  0.954240  0.115747  0.748033  1
  Tc  Tc15  1  0.543798  0.615849  0.750277  1
