# generated using pymatgen
data_Nd2LuPaPt4
_symmetry_space_group_name_H-M   'P 1'
_cell_length_a   4.57101400
_cell_length_b   5.64814723
_cell_length_c   7.14655344
_cell_angle_alpha   89.11943774
_cell_angle_beta   90.00000000
_cell_angle_gamma   90.00000000
_symmetry_Int_Tables_number   1
_chemical_formula_structural   Nd2LuPaPt4
_chemical_formula_sum   'Nd2 Lu1 Pa1 Pt4'
_cell_volume   184.48621231
_cell_formula_units_Z   1
loop_
 _symmetry_equiv_pos_site_id
 _symmetry_equiv_pos_as_xyz
  1  'x, y, z'
loop_
 _atom_site_type_symbol
 _atom_site_label
 _atom_site_symmetry_multiplicity
 _atom_site_fract_x
 _atom_site_fract_y
 _atom_site_fract_z
 _atom_site_occupancy
  Nd  Nd0  1  0.750000  0.354147  0.816516  1
  Nd  Nd1  1  0.250000  0.859264  0.682198  1
  Lu  Lu2  1  0.750000  0.145443  0.318375  1
  Pa  Pa3  1  0.250000  0.645124  0.184215  1
  Pt  Pt4  1  0.250000  0.159730  0.070155  1
  Pt  Pt5  1  0.750000  0.832559  0.979637  1
  Pt  Pt6  1  0.750000  0.657897  0.431336  1
  Pt  Pt7  1  0.250000  0.345836  0.517569  1
