# generated using pymatgen
data_YBiRh2O7
_symmetry_space_group_name_H-M   'P 1'
_cell_length_a   7.28742338
_cell_length_b   7.28805663
_cell_length_c   7.28802444
_cell_angle_alpha   119.69496066
_cell_angle_beta   120.36170327
_cell_angle_gamma   89.94713789
_symmetry_Int_Tables_number   1
_chemical_formula_structural   YBiRh2O7
_chemical_formula_sum   'Y2 Bi2 Rh4 O14'
_cell_volume   273.58609922
_cell_formula_units_Z   2
loop_
 _symmetry_equiv_pos_site_id
 _symmetry_equiv_pos_as_xyz
  1  'x, y, z'
loop_
 _atom_site_type_symbol
 _atom_site_label
 _atom_site_symmetry_multiplicity
 _atom_site_fract_x
 _atom_site_fract_y
 _atom_site_fract_z
 _atom_site_occupancy
  Y  Y0  1  0.500000  0.500000  0.000000  1
  Y  Y1  1  0.000000  0.500000  0.500000  1
  Bi  Bi2  1  0.500000  0.500000  0.500000  1
  Bi  Bi3  1  0.500000  0.000000  0.000000  1
  Rh  Rh4  1  0.000000  0.000000  0.500000  1
  Rh  Rh5  1  0.000000  0.500000  0.000000  1
  Rh  Rh6  1  0.000000  0.000000  0.000000  1
  Rh  Rh7  1  0.500000  0.000000  0.500000  1
  O  O8  1  0.336281  0.089261  0.671776  1
  O  O9  1  0.917496  0.089213  0.252965  1
  O  O10  1  0.913076  0.663093  0.250023  1
  O  O11  1  0.917476  0.664514  0.828209  1
  O  O12  1  0.336264  0.664520  0.247038  1
  O  O13  1  0.331676  0.081680  0.250006  1
  O  O14  1  0.663719  0.910739  0.328224  1
  O  O15  1  0.082504  0.910787  0.747035  1
  O  O16  1  0.086924  0.336907  0.749977  1
  O  O17  1  0.082524  0.335486  0.171791  1
  O  O18  1  0.663736  0.335480  0.752962  1
  O  O19  1  0.668324  0.918320  0.749994  1
  O  O20  1  0.628966  0.378971  0.250006  1
  O  O21  1  0.371034  0.621029  0.749994  1
