# generated using pymatgen
data_ZrNb5(GaRu2)6
_symmetry_space_group_name_H-M   'P 1'
_cell_length_a   4.40716500
_cell_length_b   6.24482600
_cell_length_c   13.19876800
_cell_angle_alpha   90.00000000
_cell_angle_beta   89.99999566
_cell_angle_gamma   90.00000000
_symmetry_Int_Tables_number   1
_chemical_formula_structural   ZrNb5(GaRu2)6
_chemical_formula_sum   'Zr1 Nb5 Ga6 Ru12'
_cell_volume   363.25621016
_cell_formula_units_Z   1
loop_
 _symmetry_equiv_pos_site_id
 _symmetry_equiv_pos_as_xyz
  1  'x, y, z'
loop_
 _atom_site_type_symbol
 _atom_site_label
 _atom_site_symmetry_multiplicity
 _atom_site_fract_x
 _atom_site_fract_y
 _atom_site_fract_z
 _atom_site_occupancy
  Zr  Zr0  1  0.500002  0.000000  0.833338  1
  Nb  Nb1  1  0.000000  0.500000  0.999972  1
  Nb  Nb2  1  0.499998  0.000000  0.166469  1
  Nb  Nb3  1  0.999999  0.500000  0.333341  1
  Nb  Nb4  1  0.500001  0.000000  0.500201  1
  Nb  Nb5  1  0.000002  0.500000  0.666676  1
  Ga  Ga6  1  0.000001  0.000000  0.999812  1
  Ga  Ga7  1  0.499998  0.500000  0.167490  1
  Ga  Ga8  1  0.999999  0.000000  0.333334  1
  Ga  Ga9  1  0.499999  0.500000  0.499178  1
  Ga  Ga10  1  0.999999  0.000000  0.666858  1
  Ga  Ga11  1  0.500002  0.500000  0.833333  1
  Ru  Ru12  1  0.499999  0.253412  0.003405  1
  Ru  Ru13  1  0.499999  0.746588  0.003405  1
  Ru  Ru14  1  0.999999  0.249254  0.167629  1
  Ru  Ru15  1  0.999999  0.750746  0.167629  1
  Ru  Ru16  1  0.499997  0.250287  0.333378  1
  Ru  Ru17  1  0.499997  0.749713  0.333378  1
  Ru  Ru18  1  0.000000  0.249249  0.499043  1
  Ru  Ru19  1  0.000000  0.750751  0.499043  1
  Ru  Ru20  1  0.500003  0.253369  0.663282  1
  Ru  Ru21  1  0.500003  0.746631  0.663282  1
  Ru  Ru22  1  0.000003  0.256973  0.833259  1
  Ru  Ru23  1  0.000003  0.743027  0.833259  1
