# generated using pymatgen
data_Y20Zn3In3Ru2
_symmetry_space_group_name_H-M   'P 1'
_cell_length_a   9.71002300
_cell_length_b   9.71002137
_cell_length_c   9.58123000
_cell_angle_alpha   90.00000000
_cell_angle_beta   90.00000000
_cell_angle_gamma   120.00000213
_symmetry_Int_Tables_number   1
_chemical_formula_structural   Y20Zn3In3Ru2
_chemical_formula_sum   'Y20 Zn3 In3 Ru2'
_cell_volume   782.33422973
_cell_formula_units_Z   1
loop_
 _symmetry_equiv_pos_site_id
 _symmetry_equiv_pos_as_xyz
  1  'x, y, z'
loop_
 _atom_site_type_symbol
 _atom_site_label
 _atom_site_symmetry_multiplicity
 _atom_site_fract_x
 _atom_site_fract_y
 _atom_site_fract_z
 _atom_site_occupancy
  Y  Y0  1  0.000000  0.000000  0.460825  1
  Y  Y1  1  0.000000  0.000000  0.039175  1
  Y  Y2  1  0.208470  0.791530  0.437972  1
  Y  Y3  1  0.208470  0.416941  0.437972  1
  Y  Y4  1  0.583059  0.791530  0.437972  1
  Y  Y5  1  0.791882  0.208118  0.559745  1
  Y  Y6  1  0.791882  0.583762  0.559745  1
  Y  Y7  1  0.416238  0.208118  0.559745  1
  Y  Y8  1  0.791882  0.208118  0.940255  1
  Y  Y9  1  0.791882  0.583762  0.940255  1
  Y  Y10  1  0.416238  0.208118  0.940255  1
  Y  Y11  1  0.208470  0.791530  0.062028  1
  Y  Y12  1  0.208470  0.416941  0.062028  1
  Y  Y13  1  0.583059  0.791530  0.062028  1
  Y  Y14  1  0.540889  0.459111  0.250000  1
  Y  Y15  1  0.540889  0.081775  0.250000  1
  Y  Y16  1  0.918225  0.459111  0.250000  1
  Y  Y17  1  0.459787  0.540213  0.750000  1
  Y  Y18  1  0.459787  0.919573  0.750000  1
  Y  Y19  1  0.080427  0.540213  0.750000  1
  Zn  Zn20  1  0.871588  0.128412  0.250000  1
  Zn  Zn21  1  0.871588  0.743177  0.250000  1
  Zn  Zn22  1  0.256823  0.128412  0.250000  1
  In  In23  1  0.109444  0.890556  0.750000  1
  In  In24  1  0.109444  0.218888  0.750000  1
  In  In25  1  0.781112  0.890556  0.750000  1
  Ru  Ru26  1  0.333333  0.666667  0.250000  1
  Ru  Ru27  1  0.666667  0.333333  0.750000  1
