# generated using pymatgen
data_YLu3(HfRh)4
_symmetry_space_group_name_H-M   'P 1'
_cell_length_a   4.57687200
_cell_length_b   6.93889006
_cell_length_c   8.20706834
_cell_angle_alpha   90.09214290
_cell_angle_beta   90.00000000
_cell_angle_gamma   90.00000000
_symmetry_Int_Tables_number   1
_chemical_formula_structural   YLu3(HfRh)4
_chemical_formula_sum   'Y1 Lu3 Hf4 Rh4'
_cell_volume   260.64311734
_cell_formula_units_Z   1
loop_
 _symmetry_equiv_pos_site_id
 _symmetry_equiv_pos_as_xyz
  1  'x, y, z'
loop_
 _atom_site_type_symbol
 _atom_site_label
 _atom_site_symmetry_multiplicity
 _atom_site_fract_x
 _atom_site_fract_y
 _atom_site_fract_z
 _atom_site_occupancy
  Y  Y0  1  0.250000  0.014823  0.321742  1
  Lu  Lu1  1  0.250000  0.516441  0.176371  1
  Lu  Lu2  1  0.750000  0.483277  0.822818  1
  Lu  Lu3  1  0.750000  0.983686  0.677999  1
  Hf  Hf4  1  0.250000  0.641062  0.575563  1
  Hf  Hf5  1  0.750000  0.359968  0.426383  1
  Hf  Hf6  1  0.750000  0.857479  0.071321  1
  Hf  Hf7  1  0.250000  0.142560  0.924719  1
  Rh  Rh8  1  0.250000  0.765780  0.909335  1
  Rh  Rh9  1  0.750000  0.235354  0.089016  1
  Rh  Rh10  1  0.750000  0.731759  0.410968  1
  Rh  Rh11  1  0.250000  0.267812  0.593766  1
