# generated using pymatgen
data_Ho17Tm3(GaBi2)4
_symmetry_space_group_name_H-M   'P 1'
_cell_length_a   8.06548201
_cell_length_b   9.27890401
_cell_length_c   11.97241602
_cell_angle_alpha   89.99548125
_cell_angle_beta   89.99529895
_cell_angle_gamma   90.00355422
_symmetry_Int_Tables_number   1
_chemical_formula_structural   Ho17Tm3(GaBi2)4
_chemical_formula_sum   'Ho17 Tm3 Ga4 Bi8'
_cell_volume   896.00164016
_cell_formula_units_Z   1
loop_
 _symmetry_equiv_pos_site_id
 _symmetry_equiv_pos_as_xyz
  1  'x, y, z'
loop_
 _atom_site_type_symbol
 _atom_site_label
 _atom_site_symmetry_multiplicity
 _atom_site_fract_x
 _atom_site_fract_y
 _atom_site_fract_z
 _atom_site_occupancy
  Ho  Ho0  1  0.319698  0.446193  0.437637  1
  Ho  Ho1  1  0.180338  0.446154  0.937722  1
  Ho  Ho2  1  0.319665  0.053740  0.437643  1
  Ho  Ho3  1  0.819694  0.946098  0.062272  1
  Ho  Ho4  1  0.680390  0.553931  0.562329  1
  Ho  Ho5  1  0.174210  0.749954  0.218057  1
  Ho  Ho6  1  0.325738  0.750085  0.718097  1
  Ho  Ho7  1  0.825747  0.249888  0.781903  1
  Ho  Ho8  1  0.674295  0.250039  0.281884  1
  Ho  Ho9  1  0.463169  0.750109  0.003591  1
  Ho  Ho10  1  0.036699  0.749981  0.503640  1
  Ho  Ho11  1  0.536875  0.250066  0.996390  1
  Ho  Ho12  1  0.963069  0.249867  0.496391  1
  Ho  Ho13  1  0.644871  0.749995  0.294921  1
  Ho  Ho14  1  0.855109  0.749988  0.794948  1
  Ho  Ho15  1  0.355207  0.249909  0.705206  1
  Ho  Ho16  1  0.144804  0.249930  0.204980  1
  Tm  Tm17  1  0.819901  0.553951  0.062315  1
  Tm  Tm18  1  0.680116  0.946069  0.562329  1
  Tm  Tm19  1  0.180091  0.053958  0.937675  1
  Ga  Ga20  1  0.405040  0.750202  0.476004  1
  Ga  Ga21  1  0.095077  0.750159  0.975913  1
  Ga  Ga22  1  0.595220  0.249624  0.524150  1
  Ga  Ga23  1  0.904908  0.250193  0.024091  1
  Bi  Bi24  1  0.937247  0.509636  0.324364  1
  Bi  Bi25  1  0.562659  0.990345  0.824445  1
  Bi  Bi26  1  0.062649  0.009615  0.675595  1
  Bi  Bi27  1  0.437434  0.490370  0.175466  1
  Bi  Bi28  1  0.062668  0.490402  0.675582  1
  Bi  Bi29  1  0.437381  0.009570  0.175513  1
  Bi  Bi30  1  0.937400  0.990362  0.324464  1
  Bi  Bi31  1  0.562629  0.509614  0.824482  1
