# generated using pymatgen
data_Tb20Os7Au5
_symmetry_space_group_name_H-M   'P 1'
_cell_length_a   11.14556524
_cell_length_b   11.14556450
_cell_length_c   6.44737345
_cell_angle_alpha   89.96184131
_cell_angle_beta   89.96183800
_cell_angle_gamma   89.20965353
_symmetry_Int_Tables_number   1
_chemical_formula_structural   Tb20Os7Au5
_chemical_formula_sum   'Tb20 Os7 Au5'
_cell_volume   800.83949799
_cell_formula_units_Z   1
loop_
 _symmetry_equiv_pos_site_id
 _symmetry_equiv_pos_as_xyz
  1  'x, y, z'
loop_
 _atom_site_type_symbol
 _atom_site_label
 _atom_site_symmetry_multiplicity
 _atom_site_fract_x
 _atom_site_fract_y
 _atom_site_fract_z
 _atom_site_occupancy
  Tb  Tb0  1  0.301273  0.090151  0.362423  1
  Tb  Tb1  1  0.301136  0.907304  0.860430  1
  Tb  Tb2  1  0.695419  0.078719  0.859211  1
  Tb  Tb3  1  0.697258  0.906032  0.359178  1
  Tb  Tb4  1  0.578980  0.785741  0.873745  1
  Tb  Tb5  1  0.573775  0.204082  0.360403  1
  Tb  Tb6  1  0.419380  0.791102  0.373398  1
  Tb  Tb7  1  0.411405  0.204698  0.876915  1
  Tb  Tb8  1  0.214259  0.421020  0.626255  1
  Tb  Tb9  1  0.208898  0.580620  0.126602  1
  Tb  Tb10  1  0.795918  0.426225  0.139597  1
  Tb  Tb11  1  0.795302  0.588595  0.623085  1
  Tb  Tb12  1  0.909849  0.698727  0.137577  1
  Tb  Tb13  1  0.921281  0.304581  0.640789  1
  Tb  Tb14  1  0.092696  0.698864  0.639570  1
  Tb  Tb15  1  0.093968  0.302742  0.140822  1
  Tb  Tb16  1  0.998382  0.001080  0.498635  1
  Tb  Tb17  1  0.998920  0.001618  0.001365  1
  Tb  Tb18  1  0.495566  0.502636  0.003067  1
  Tb  Tb19  1  0.497364  0.504434  0.496933  1
  Os  Os20  1  0.653626  0.651682  0.249579  1
  Os  Os21  1  0.348318  0.346374  0.250421  1
  Os  Os22  1  0.345273  0.654727  0.750000  1
  Os  Os23  1  0.499616  0.999144  0.113792  1
  Os  Os24  1  0.499590  0.999550  0.617539  1
  Os  Os25  1  0.000450  0.500410  0.882461  1
  Os  Os26  1  0.000856  0.500384  0.386208  1
  Au  Au27  1  0.842166  0.157834  0.250000  1
  Au  Au28  1  0.844559  0.847303  0.751735  1
  Au  Au29  1  0.152697  0.155441  0.748265  1
  Au  Au30  1  0.155116  0.844884  0.250000  1
  Au  Au31  1  0.656702  0.343298  0.750000  1
