# generated using pymatgen
data_ThNp5(Ni3Bi4)2
_symmetry_space_group_name_H-M   'P 1'
_cell_length_a   8.45409685
_cell_length_b   8.46436753
_cell_length_c   8.46436800
_cell_angle_alpha   109.46778274
_cell_angle_beta   109.46314624
_cell_angle_gamma   109.53197016
_symmetry_Int_Tables_number   1
_chemical_formula_structural   ThNp5(Ni3Bi4)2
_chemical_formula_sum   'Th1 Np5 Ni6 Bi8'
_cell_volume   465.98297395
_cell_formula_units_Z   1
loop_
 _symmetry_equiv_pos_site_id
 _symmetry_equiv_pos_as_xyz
  1  'x, y, z'
loop_
 _atom_site_type_symbol
 _atom_site_label
 _atom_site_symmetry_multiplicity
 _atom_site_fract_x
 _atom_site_fract_y
 _atom_site_fract_z
 _atom_site_occupancy
  Th  Th0  1  0.750000  0.374419  0.624419  1
  Np  Np1  1  0.127176  0.876152  0.249929  1
  Np  Np2  1  0.372824  0.622753  0.748976  1
  Np  Np3  1  0.876495  0.253475  0.126823  1
  Np  Np4  1  0.623505  0.750328  0.376980  1
  Np  Np5  1  0.250000  0.123039  0.873039  1
  Ni  Ni6  1  0.625127  0.376161  0.252710  1
  Ni  Ni7  1  0.874873  0.127583  0.751034  1
  Ni  Ni8  1  0.376175  0.248414  0.624538  1
  Ni  Ni9  1  0.123825  0.748363  0.872239  1
  Ni  Ni10  1  0.250000  0.623361  0.373361  1
  Ni  Ni11  1  0.750000  0.874495  0.124495  1
  Bi  Bi12  1  0.333201  0.335640  0.334553  1
  Bi  Bi13  1  0.166799  0.501352  0.002439  1
  Bi  Bi14  1  0.000159  0.159542  0.498403  1
  Bi  Bi15  1  0.838818  0.841997  0.839838  1
  Bi  Bi16  1  0.499841  0.998243  0.159383  1
  Bi  Bi17  1  0.661182  0.501020  0.003179  1
  Bi  Bi18  1  0.498800  0.997265  0.665196  1
  Bi  Bi19  1  0.001200  0.666397  0.498465  1
