# generated using pymatgen
data_Nb8SiGe(B2W)2
_symmetry_space_group_name_H-M   'P 1'
_cell_length_a   7.32653250
_cell_length_b   7.32653213
_cell_length_c   7.32653284
_cell_angle_alpha   129.72529590
_cell_angle_beta   129.72528969
_cell_angle_gamma   73.84631851
_symmetry_Int_Tables_number   1
_chemical_formula_structural   Nb8SiGe(B2W)2
_chemical_formula_sum   'Nb8 Si1 Ge1 B4 W2'
_cell_volume   226.92916641
_cell_formula_units_Z   1
loop_
 _symmetry_equiv_pos_site_id
 _symmetry_equiv_pos_as_xyz
  1  'x, y, z'
loop_
 _atom_site_type_symbol
 _atom_site_label
 _atom_site_symmetry_multiplicity
 _atom_site_fract_x
 _atom_site_fract_y
 _atom_site_fract_z
 _atom_site_occupancy
  Nb  Nb0  1  0.803667  0.307457  0.835856  1
  Nb  Nb1  1  0.192543  0.696333  0.164144  1
  Nb  Nb2  1  0.471599  0.967810  0.164144  1
  Nb  Nb3  1  0.307457  0.471599  0.503790  1
  Nb  Nb4  1  0.028401  0.192543  0.496210  1
  Nb  Nb5  1  0.532190  0.028401  0.835856  1
  Nb  Nb6  1  0.696333  0.532190  0.503790  1
  Nb  Nb7  1  0.967810  0.803667  0.496210  1
  Si  Si8  1  0.750000  0.750000  0.000000  1
  Ge  Ge9  1  0.250000  0.250000  0.000000  1
  B  B10  1  0.118182  0.618182  0.736364  1
  B  B11  1  0.881818  0.381818  0.263636  1
  B  B12  1  0.618182  0.881818  0.500000  1
  B  B13  1  0.381818  0.118182  0.500000  1
  W  W14  1  0.999761  0.999761  0.000000  1
  W  W15  1  0.500239  0.500239  0.000000  1
