# generated using pymatgen
data_Sm2Tm3Pb4
_symmetry_space_group_name_H-M   'P 1'
_cell_length_a   8.18002800
_cell_length_b   8.26117500
_cell_length_c   15.55353600
_cell_angle_alpha   90.00000000
_cell_angle_beta   90.00000000
_cell_angle_gamma   90.00000000
_symmetry_Int_Tables_number   1
_chemical_formula_structural   Sm2Tm3Pb4
_chemical_formula_sum   'Sm8 Tm12 Pb16'
_cell_volume   1051.05574675
_cell_formula_units_Z   4
loop_
 _symmetry_equiv_pos_site_id
 _symmetry_equiv_pos_as_xyz
  1  'x, y, z'
loop_
 _atom_site_type_symbol
 _atom_site_label
 _atom_site_symmetry_multiplicity
 _atom_site_fract_x
 _atom_site_fract_y
 _atom_site_fract_z
 _atom_site_occupancy
  Sm  Sm0  1  0.467773  0.677566  0.598612  1
  Sm  Sm1  1  0.967773  0.822434  0.901388  1
  Sm  Sm2  1  0.532227  0.322434  0.098612  1
  Sm  Sm3  1  0.032227  0.177566  0.401388  1
  Sm  Sm4  1  0.532227  0.322434  0.401388  1
  Sm  Sm5  1  0.032227  0.177566  0.098612  1
  Sm  Sm6  1  0.467773  0.677566  0.901388  1
  Sm  Sm7  1  0.967773  0.822434  0.598612  1
  Tm  Tm8  1  0.627352  0.158400  0.621984  1
  Tm  Tm9  1  0.127352  0.341600  0.878016  1
  Tm  Tm10  1  0.372648  0.841600  0.121984  1
  Tm  Tm11  1  0.872648  0.658400  0.378016  1
  Tm  Tm12  1  0.372648  0.841600  0.378016  1
  Tm  Tm13  1  0.872648  0.658400  0.121984  1
  Tm  Tm14  1  0.627352  0.158400  0.878016  1
  Tm  Tm15  1  0.127352  0.341600  0.621984  1
  Tm  Tm16  1  0.794795  0.494181  0.750000  1
  Tm  Tm17  1  0.294795  0.005819  0.750000  1
  Tm  Tm18  1  0.205205  0.505819  0.250000  1
  Tm  Tm19  1  0.705205  0.994181  0.250000  1
  Pb  Pb20  1  0.712171  0.962593  0.456885  1
  Pb  Pb21  1  0.212171  0.537407  0.043115  1
  Pb  Pb22  1  0.287829  0.037407  0.956885  1
  Pb  Pb23  1  0.787829  0.462593  0.543115  1
  Pb  Pb24  1  0.287829  0.037407  0.543115  1
  Pb  Pb25  1  0.787829  0.462593  0.956885  1
  Pb  Pb26  1  0.712171  0.962593  0.043115  1
  Pb  Pb27  1  0.212171  0.537407  0.456885  1
  Pb  Pb28  1  0.432081  0.371206  0.750000  1
  Pb  Pb29  1  0.932081  0.128794  0.750000  1
  Pb  Pb30  1  0.567919  0.628794  0.250000  1
  Pb  Pb31  1  0.067919  0.871206  0.250000  1
  Pb  Pb32  1  0.657280  0.848108  0.750000  1
  Pb  Pb33  1  0.157280  0.651892  0.750000  1
  Pb  Pb34  1  0.342720  0.151892  0.250000  1
  Pb  Pb35  1  0.842720  0.348108  0.250000  1
