# generated using pymatgen
data_Rb4DyUSe6
_symmetry_space_group_name_H-M   'P 1'
_cell_length_a   7.66751236
_cell_length_b   7.66751278
_cell_length_c   8.40536196
_cell_angle_alpha   81.05615184
_cell_angle_beta   81.05614895
_cell_angle_gamma   119.98198204
_symmetry_Int_Tables_number   1
_chemical_formula_structural   Rb4DyUSe6
_chemical_formula_sum   'Rb4 Dy1 U1 Se6'
_cell_volume   406.82582145
_cell_formula_units_Z   1
loop_
 _symmetry_equiv_pos_site_id
 _symmetry_equiv_pos_as_xyz
  1  'x, y, z'
loop_
 _atom_site_type_symbol
 _atom_site_label
 _atom_site_symmetry_multiplicity
 _atom_site_fract_x
 _atom_site_fract_y
 _atom_site_fract_z
 _atom_site_occupancy
  Rb  Rb0  1  0.500042  0.499958  0.000000  1
  Rb  Rb1  1  0.654020  0.345980  0.500000  1
  Rb  Rb2  1  0.346047  0.653953  0.500000  1
  Rb  Rb3  1  0.999884  0.000116  0.500000  1
  Dy  Dy4  1  0.832346  0.167654  0.000000  1
  U  U5  1  0.167720  0.832280  0.000000  1
  Se  Se6  1  0.820251  0.808878  0.197197  1
  Se  Se7  1  0.191122  0.179749  0.802803  1
  Se  Se8  1  0.419655  0.042460  0.200334  1
  Se  Se9  1  0.556692  0.945318  0.799278  1
  Se  Se10  1  0.957540  0.580345  0.799666  1
  Se  Se11  1  0.054682  0.443308  0.200722  1
