# generated using pymatgen
data_Y5Ho2Er(Si3Rh)4
_symmetry_space_group_name_H-M   'P 1'
_cell_length_a   8.16579603
_cell_length_b   8.16579846
_cell_length_c   7.89850200
_cell_angle_alpha   90.00000000
_cell_angle_beta   90.00000000
_cell_angle_gamma   119.99005595
_symmetry_Int_Tables_number   1
_chemical_formula_structural   Y5Ho2Er(Si3Rh)4
_chemical_formula_sum   'Y5 Ho2 Er1 Si12 Rh4'
_cell_volume   456.15880041
_cell_formula_units_Z   1
loop_
 _symmetry_equiv_pos_site_id
 _symmetry_equiv_pos_as_xyz
  1  'x, y, z'
loop_
 _atom_site_type_symbol
 _atom_site_label
 _atom_site_symmetry_multiplicity
 _atom_site_fract_x
 _atom_site_fract_y
 _atom_site_fract_z
 _atom_site_occupancy
  Y  Y0  1  0.000033  0.999962  0.250000  1
  Y  Y1  1  0.999979  0.000022  0.750000  1
  Y  Y2  1  0.508924  0.491073  0.250000  1
  Y  Y3  1  0.508915  0.017848  0.250000  1
  Y  Y4  1  0.982154  0.491086  0.250000  1
  Ho  Ho5  1  0.491092  0.982082  0.750000  1
  Ho  Ho6  1  0.017915  0.508905  0.750000  1
  Er  Er7  1  0.491131  0.508877  0.750000  1
  Si  Si8  1  0.167006  0.832995  0.500749  1
  Si  Si9  1  0.167152  0.334096  0.500918  1
  Si  Si10  1  0.665902  0.832847  0.500919  1
  Si  Si11  1  0.832854  0.167143  0.501146  1
  Si  Si12  1  0.832777  0.665670  0.501191  1
  Si  Si13  1  0.334331  0.167221  0.501192  1
  Si  Si14  1  0.832854  0.167143  0.998854  1
  Si  Si15  1  0.832777  0.665670  0.998809  1
  Si  Si16  1  0.334331  0.167221  0.998808  1
  Si  Si17  1  0.167006  0.832995  0.999251  1
  Si  Si18  1  0.167152  0.334096  0.999082  1
  Si  Si19  1  0.665902  0.832847  0.999081  1
  Rh  Rh20  1  0.333433  0.666571  0.469269  1
  Rh  Rh21  1  0.666473  0.333531  0.536976  1
  Rh  Rh22  1  0.666473  0.333531  0.963024  1
  Rh  Rh23  1  0.333433  0.666571  0.030731  1
