# generated using pymatgen
data_Cs14NbTl6VAs10
_symmetry_space_group_name_H-M   'P 1'
_cell_length_a   8.99011453
_cell_length_b   9.83918421
_cell_length_c   15.05421300
_cell_angle_alpha   85.39903016
_cell_angle_beta   84.79031919
_cell_angle_gamma   85.24812821
_symmetry_Int_Tables_number   1
_chemical_formula_structural   Cs14NbTl6VAs10
_chemical_formula_sum   'Cs14 Nb1 Tl6 V1 As10'
_cell_volume   1318.01734668
_cell_formula_units_Z   1
loop_
 _symmetry_equiv_pos_site_id
 _symmetry_equiv_pos_as_xyz
  1  'x, y, z'
loop_
 _atom_site_type_symbol
 _atom_site_label
 _atom_site_symmetry_multiplicity
 _atom_site_fract_x
 _atom_site_fract_y
 _atom_site_fract_z
 _atom_site_occupancy
  Cs  Cs0  1  0.833988  0.366400  0.645365  1
  Cs  Cs1  1  0.814746  0.812885  0.131975  1
  Cs  Cs2  1  0.240597  0.008407  0.469409  1
  Cs  Cs3  1  0.270250  0.256780  0.252124  1
  Cs  Cs4  1  0.741119  0.501213  0.976688  1
  Cs  Cs5  1  0.259353  0.497313  0.026077  1
  Cs  Cs6  1  0.685865  0.080124  0.888268  1
  Cs  Cs7  1  0.758961  0.992575  0.529311  1
  Cs  Cs8  1  0.730561  0.746610  0.747655  1
  Cs  Cs9  1  0.324687  0.340326  0.601492  1
  Cs  Cs10  1  0.166636  0.632558  0.353973  1
  Cs  Cs11  1  0.183928  0.186275  0.868955  1
  Cs  Cs12  1  0.316865  0.916618  0.115130  1
  Cs  Cs13  1  0.677150  0.657271  0.396083  1
  Nb  Nb14  1  0.355525  0.604698  0.773073  1
  Tl  Tl15  1  0.055788  0.814773  0.871521  1
  Tl  Tl16  1  0.941789  0.186775  0.130071  1
  Tl  Tl17  1  0.367114  0.954774  0.702851  1
  Tl  Tl18  1  0.092436  0.721222  0.620670  1
  Tl  Tl19  1  0.905038  0.279127  0.377205  1
  Tl  Tl20  1  0.633753  0.048890  0.296074  1
  V  V21  1  0.645452  0.394668  0.227048  1
  As  As22  1  0.902613  0.454440  0.210869  1
  As  As23  1  0.618205  0.215678  0.126284  1
  As  As24  1  0.086729  0.544565  0.789495  1
  As  As25  1  0.580524  0.307961  0.381640  1
  As  As26  1  0.420144  0.696830  0.611838  1
  As  As27  1  0.027908  0.003378  0.699789  1
  As  As28  1  0.514760  0.399037  0.808720  1
  As  As29  1  0.493406  0.589319  0.192867  1
  As  As30  1  0.381663  0.793213  0.877518  1
  As  As31  1  0.972447  0.995301  0.299957  1
