# generated using pymatgen
data_Er12Cd5Hg7C4
_symmetry_space_group_name_H-M   'P 1'
_cell_length_a   9.48412753
_cell_length_b   9.48051046
_cell_length_c   9.48466130
_cell_angle_alpha   119.98530948
_cell_angle_beta   90.06184804
_cell_angle_gamma   119.98588752
_symmetry_Int_Tables_number   1
_chemical_formula_structural   Er12Cd5Hg7C4
_chemical_formula_sum   'Er12 Cd5 Hg7 C4'
_cell_volume   602.96246120
_cell_formula_units_Z   1
loop_
 _symmetry_equiv_pos_site_id
 _symmetry_equiv_pos_as_xyz
  1  'x, y, z'
loop_
 _atom_site_type_symbol
 _atom_site_label
 _atom_site_symmetry_multiplicity
 _atom_site_fract_x
 _atom_site_fract_y
 _atom_site_fract_z
 _atom_site_occupancy
  Er  Er0  1  0.935542  0.371165  0.185377  1
  Er  Er1  1  0.935559  0.749757  0.185394  1
  Er  Er2  1  0.314388  0.749860  0.185330  1
  Er  Er3  1  0.685534  0.249611  0.435146  1
  Er  Er4  1  0.685542  0.871056  0.435146  1
  Er  Er5  1  0.064394  0.249783  0.435161  1
  Er  Er6  1  0.314069  0.128156  0.562988  1
  Er  Er7  1  0.314070  0.748912  0.562968  1
  Er  Er8  1  0.934798  0.748978  0.563184  1
  Er  Er9  1  0.685856  0.249693  0.813551  1
  Er  Er10  1  0.063807  0.627516  0.813495  1
  Er  Er11  1  0.063821  0.249793  0.813494  1
  Cd  Cd12  1  0.999594  0.999293  0.998989  1
  Cd  Cd13  1  0.499715  0.999220  0.998924  1
  Cd  Cd14  1  0.499675  0.499368  0.998884  1
  Cd  Cd15  1  0.499893  0.499705  0.499558  1
  Cd  Cd16  1  0.291467  0.082888  0.874264  1
  Hg  Hg17  1  0.712653  0.925436  0.138256  1
  Hg  Hg18  1  0.287183  0.074495  0.212149  1
  Hg  Hg19  1  0.287162  0.424795  0.212118  1
  Hg  Hg20  1  0.637539  0.424790  0.212012  1
  Hg  Hg21  1  0.361971  0.574627  0.787328  1
  Hg  Hg22  1  0.712645  0.574707  0.787258  1
  Hg  Hg23  1  0.712640  0.925253  0.787256  1
  C  C24  1  0.000110  0.500323  0.000538  1
  C  C25  1  0.000247  0.000185  0.500440  1
  C  C26  1  0.499890  0.000131  0.500357  1
  C  C27  1  0.000242  0.500517  0.500442  1
