# generated using pymatgen
data_Hf2Zr6Al14GeRh7
_symmetry_space_group_name_H-M   'P 1'
_cell_length_a   8.89868427
_cell_length_b   8.89868141
_cell_length_c   8.89856165
_cell_angle_alpha   120.24682619
_cell_angle_beta   119.80398418
_cell_angle_gamma   89.95694994
_symmetry_Int_Tables_number   1
_chemical_formula_structural   Hf2Zr6Al14GeRh7
_chemical_formula_sum   'Hf2 Zr6 Al14 Ge1 Rh7'
_cell_volume   498.05723591
_cell_formula_units_Z   1
loop_
 _symmetry_equiv_pos_site_id
 _symmetry_equiv_pos_as_xyz
  1  'x, y, z'
loop_
 _atom_site_type_symbol
 _atom_site_label
 _atom_site_symmetry_multiplicity
 _atom_site_fract_x
 _atom_site_fract_y
 _atom_site_fract_z
 _atom_site_occupancy
  Hf  Hf0  1  0.379545  0.120928  0.741378  1
  Hf  Hf1  1  0.379549  0.638150  0.258597  1
  Zr  Zr2  1  0.800993  0.295103  0.083820  1
  Zr  Zr3  1  0.211283  0.295095  0.494096  1
  Zr  Zr4  1  0.199468  0.699461  0.499980  1
  Zr  Zr5  1  0.211263  0.717184  0.916194  1
  Zr  Zr6  1  0.800999  0.717169  0.505900  1
  Zr  Zr7  1  0.784841  0.284865  0.500009  1
  Al  Al8  1  0.161118  0.332023  0.170904  1
  Al  Al9  1  0.161117  0.990201  0.829089  1
  Al  Al10  1  0.153260  0.338850  0.814413  1
  Al  Al11  1  0.524428  0.338852  0.185592  1
  Al  Al12  1  0.835989  0.661653  0.825649  1
  Al  Al13  1  0.836001  0.010342  0.174347  1
  Al  Al14  1  0.834979  0.663224  0.171759  1
  Al  Al15  1  0.491459  0.663219  0.828238  1
  Al  Al16  1  0.379963  0.121244  0.258724  1
  Al  Al17  1  0.862518  0.121251  0.741285  1
  Al  Al18  1  0.622274  0.878273  0.255982  1
  Al  Al19  1  0.622293  0.366278  0.744019  1
  Al  Al20  1  0.621757  0.878344  0.743423  1
  Al  Al21  1  0.134929  0.878334  0.256568  1
  Ge  Ge22  1  0.991758  0.491744  0.500010  1
  Rh  Rh23  1  0.000080  0.999720  0.501660  1
  Rh  Rh24  1  0.498067  0.999725  0.999663  1
  Rh  Rh25  1  0.497990  0.497989  0.999999  1
  Rh  Rh26  1  0.498071  0.498426  0.498357  1
  Rh  Rh27  1  0.000062  0.498408  0.000343  1
  Rh  Rh28  1  0.999237  0.999243  0.000003  1
  Rh  Rh29  1  0.504708  0.004701  0.499998  1
