# generated using pymatgen
data_CeScBRh6
_symmetry_space_group_name_H-M   'P 1'
_cell_length_a   5.77894460
_cell_length_b   5.77894496
_cell_length_c   5.77894500
_cell_angle_alpha   60.00000552
_cell_angle_beta   60.00000342
_cell_angle_gamma   60.00000108
_symmetry_Int_Tables_number   1
_chemical_formula_structural   CeScBRh6
_chemical_formula_sum   'Ce1 Sc1 B1 Rh6'
_cell_volume   136.46795563
_cell_formula_units_Z   1
loop_
 _symmetry_equiv_pos_site_id
 _symmetry_equiv_pos_as_xyz
  1  'x, y, z'
loop_
 _atom_site_type_symbol
 _atom_site_label
 _atom_site_symmetry_multiplicity
 _atom_site_fract_x
 _atom_site_fract_y
 _atom_site_fract_z
 _atom_site_occupancy
  Ce  Ce0  1  0.250000  0.250000  0.250000  1
  Sc  Sc1  1  0.750000  0.750000  0.750000  1
  B  B2  1  0.500000  0.500000  0.500000  1
  Rh  Rh3  1  0.757445  0.757445  0.242555  1
  Rh  Rh4  1  0.757445  0.242555  0.242555  1
  Rh  Rh5  1  0.242555  0.757445  0.242555  1
  Rh  Rh6  1  0.242555  0.242555  0.757445  1
  Rh  Rh7  1  0.757445  0.242555  0.757445  1
  Rh  Rh8  1  0.242555  0.757445  0.757445  1
