# generated using pymatgen
data_NaTaP7Ru12
_symmetry_space_group_name_H-M   'P 1'
_cell_length_a   9.39429500
_cell_length_b   9.39429415
_cell_length_c   3.90209300
_cell_angle_alpha   90.00000000
_cell_angle_beta   90.00000000
_cell_angle_gamma   120.00000464
_symmetry_Int_Tables_number   1
_chemical_formula_structural   NaTaP7Ru12
_chemical_formula_sum   'Na1 Ta1 P7 Ru12'
_cell_volume   298.23360301
_cell_formula_units_Z   1
loop_
 _symmetry_equiv_pos_site_id
 _symmetry_equiv_pos_as_xyz
  1  'x, y, z'
loop_
 _atom_site_type_symbol
 _atom_site_label
 _atom_site_symmetry_multiplicity
 _atom_site_fract_x
 _atom_site_fract_y
 _atom_site_fract_z
 _atom_site_occupancy
  Na  Na0  1  0.333333  0.666667  0.000000  1
  Ta  Ta1  1  0.666667  0.333333  0.500000  1
  P  P2  1  0.602047  0.721535  0.500000  1
  P  P3  1  0.000000  0.000000  0.000000  1
  P  P4  1  0.278465  0.880513  0.500000  1
  P  P5  1  0.119487  0.397953  0.500000  1
  P  P6  1  0.889397  0.570342  0.000000  1
  P  P7  1  0.429658  0.319056  0.000000  1
  P  P8  1  0.680944  0.110603  0.000000  1
  Ru  Ru9  1  0.559781  0.965437  0.500000  1
  Ru  Ru10  1  0.405657  0.440219  0.500000  1
  Ru  Ru11  1  0.915300  0.120380  0.500000  1
  Ru  Ru12  1  0.205081  0.084700  0.500000  1
  Ru  Ru13  1  0.879620  0.794919  0.500000  1
  Ru  Ru14  1  0.724965  0.887166  0.000000  1
  Ru  Ru15  1  0.112834  0.837799  0.000000  1
  Ru  Ru16  1  0.162201  0.275035  0.000000  1
  Ru  Ru17  1  0.427009  0.081983  0.000000  1
  Ru  Ru18  1  0.918017  0.345027  0.000000  1
  Ru  Ru19  1  0.654973  0.572991  0.000000  1
  Ru  Ru20  1  0.034563  0.594343  0.500000  1
