# generated using pymatgen
data_La3Pr(MoO4)6
_symmetry_space_group_name_H-M   'P 1'
_cell_length_a   7.72774617
_cell_length_b   7.72774262
_cell_length_c   11.06489604
_cell_angle_alpha   89.99712979
_cell_angle_beta   90.00285374
_cell_angle_gamma   89.92514528
_symmetry_Int_Tables_number   1
_chemical_formula_structural   La3Pr(MoO4)6
_chemical_formula_sum   'La3 Pr1 Mo6 O24'
_cell_volume   660.77326579
_cell_formula_units_Z   1
loop_
 _symmetry_equiv_pos_site_id
 _symmetry_equiv_pos_as_xyz
  1  'x, y, z'
loop_
 _atom_site_type_symbol
 _atom_site_label
 _atom_site_symmetry_multiplicity
 _atom_site_fract_x
 _atom_site_fract_y
 _atom_site_fract_z
 _atom_site_occupancy
  La  La0  1  0.190714  0.690694  0.738136  1
  La  La1  1  0.809305  0.309286  0.738136  1
  La  La2  1  0.690276  0.809724  0.261790  1
  Pr  Pr3  1  0.309453  0.190547  0.262363  1
  Mo  Mo4  1  0.209323  0.708561  0.355459  1
  Mo  Mo5  1  0.791438  0.290677  0.355459  1
  Mo  Mo6  1  0.708898  0.791103  0.643902  1
  Mo  Mo7  1  0.291126  0.208874  0.643167  1
  Mo  Mo8  1  0.000657  0.000217  0.000703  1
  Mo  Mo9  1  0.499782  0.499343  0.000703  1
  O  O10  1  0.997903  0.226303  0.298169  1
  O  O11  1  0.003194  0.772354  0.298043  1
  O  O12  1  0.227068  0.003403  0.701591  1
  O  O13  1  0.503203  0.726979  0.701789  1
  O  O14  1  0.773022  0.996798  0.701789  1
  O  O15  1  0.496597  0.272932  0.701591  1
  O  O16  1  0.273696  0.502097  0.298169  1
  O  O17  1  0.727646  0.496806  0.298043  1
  O  O18  1  0.184277  0.043670  0.095083  1
  O  O19  1  0.815860  0.957299  0.094024  1
  O  O20  1  0.043086  0.815984  0.906552  1
  O  O21  1  0.315975  0.542828  0.906493  1
  O  O22  1  0.957172  0.184026  0.906493  1
  O  O23  1  0.684016  0.456914  0.906553  1
  O  O24  1  0.456330  0.315722  0.095083  1
  O  O25  1  0.542701  0.684140  0.094024  1
  O  O26  1  0.627867  0.131021  0.310688  1
  O  O27  1  0.368979  0.872132  0.310688  1
  O  O28  1  0.129784  0.370216  0.688645  1
  O  O29  1  0.870386  0.629614  0.688742  1
  O  O30  1  0.197289  0.697038  0.516232  1
  O  O31  1  0.802961  0.302711  0.516232  1
  O  O32  1  0.696955  0.803046  0.483114  1
  O  O33  1  0.303062  0.196937  0.482351  1
