# generated using pymatgen
data_Pr9NdSi5Ir
_symmetry_space_group_name_H-M   'P 1'
_cell_length_a   7.71575112
_cell_length_b   7.71575103
_cell_length_c   9.14468961
_cell_angle_alpha   114.95275083
_cell_angle_beta   114.95274888
_cell_angle_gamma   89.99999718
_symmetry_Int_Tables_number   1
_chemical_formula_structural   Pr9NdSi5Ir
_chemical_formula_sum   'Pr9 Nd1 Si5 Ir1'
_cell_volume   436.90322646
_cell_formula_units_Z   1
loop_
 _symmetry_equiv_pos_site_id
 _symmetry_equiv_pos_as_xyz
  1  'x, y, z'
loop_
 _atom_site_type_symbol
 _atom_site_label
 _atom_site_symmetry_multiplicity
 _atom_site_fract_x
 _atom_site_fract_y
 _atom_site_fract_z
 _atom_site_occupancy
  Pr  Pr0  1  0.031364  0.031364  0.062729  1
  Pr  Pr1  1  0.949674  0.806991  0.286350  1
  Pr  Pr2  1  0.336675  0.479358  0.286350  1
  Pr  Pr3  1  0.806991  0.336675  0.286350  1
  Pr  Pr4  1  0.479358  0.949674  0.286350  1
  Pr  Pr5  1  0.021003  0.163455  0.713488  1
  Pr  Pr6  1  0.692485  0.550033  0.713488  1
  Pr  Pr7  1  0.163455  0.692485  0.713488  1
  Pr  Pr8  1  0.550033  0.021003  0.713488  1
  Nd  Nd9  1  0.469265  0.469265  0.938530  1
  Si  Si10  1  0.250738  0.250738  0.501477  1
  Si  Si11  1  0.614013  0.884158  0.999530  1
  Si  Si12  1  0.385517  0.115372  0.999530  1
  Si  Si13  1  0.884158  0.385517  0.999530  1
  Si  Si14  1  0.115372  0.614013  0.999530  1
  Ir  Ir15  1  0.749897  0.749897  0.499795  1
