# generated using pymatgen
data_Ho3Ag3C
_symmetry_space_group_name_H-M   'P 1'
_cell_length_a   9.34136714
_cell_length_b   9.34136778
_cell_length_c   9.34136700
_cell_angle_alpha   59.99999922
_cell_angle_beta   59.99999695
_cell_angle_gamma   60.00000229
_symmetry_Int_Tables_number   1
_chemical_formula_structural   Ho3Ag3C
_chemical_formula_sum   'Ho12 Ag12 C4'
_cell_volume   576.38987636
_cell_formula_units_Z   4
loop_
 _symmetry_equiv_pos_site_id
 _symmetry_equiv_pos_as_xyz
  1  'x, y, z'
loop_
 _atom_site_type_symbol
 _atom_site_label
 _atom_site_symmetry_multiplicity
 _atom_site_fract_x
 _atom_site_fract_y
 _atom_site_fract_z
 _atom_site_occupancy
  Ho  Ho0  1  0.441249  0.441249  0.058751  1
  Ho  Ho1  1  0.058751  0.441249  0.058751  1
  Ho  Ho2  1  0.441249  0.058751  0.058751  1
  Ho  Ho3  1  0.058751  0.058751  0.441249  1
  Ho  Ho4  1  0.441249  0.058751  0.441249  1
  Ho  Ho5  1  0.058751  0.441249  0.441249  1
  Ho  Ho6  1  0.808751  0.808751  0.191249  1
  Ho  Ho7  1  0.191249  0.808751  0.191249  1
  Ho  Ho8  1  0.808751  0.191249  0.191249  1
  Ho  Ho9  1  0.191249  0.191249  0.808751  1
  Ho  Ho10  1  0.808751  0.191249  0.808751  1
  Ho  Ho11  1  0.191249  0.808751  0.808751  1
  Ag  Ag12  1  0.832562  0.832562  0.502315  1
  Ag  Ag13  1  0.832562  0.502315  0.832562  1
  Ag  Ag14  1  0.502315  0.832562  0.832562  1
  Ag  Ag15  1  0.832562  0.832562  0.832562  1
  Ag  Ag16  1  0.417438  0.417438  0.747685  1
  Ag  Ag17  1  0.417438  0.747685  0.417438  1
  Ag  Ag18  1  0.747685  0.417438  0.417438  1
  Ag  Ag19  1  0.417438  0.417438  0.417438  1
  Ag  Ag20  1  0.625000  0.625000  0.125000  1
  Ag  Ag21  1  0.625000  0.125000  0.625000  1
  Ag  Ag22  1  0.125000  0.625000  0.625000  1
  Ag  Ag23  1  0.625000  0.625000  0.625000  1
  C  C24  1  0.125000  0.125000  0.625000  1
  C  C25  1  0.125000  0.625000  0.125000  1
  C  C26  1  0.625000  0.125000  0.125000  1
  C  C27  1  0.125000  0.125000  0.125000  1
