# generated using pymatgen
data_YTh3(CoB10)2
_symmetry_space_group_name_H-M   'P 1'
_cell_length_a   4.15953900
_cell_length_b   5.58729851
_cell_length_c   11.16289497
_cell_angle_alpha   90.22219109
_cell_angle_beta   90.00000000
_cell_angle_gamma   90.00000000
_symmetry_Int_Tables_number   1
_chemical_formula_structural   YTh3(CoB10)2
_chemical_formula_sum   'Y1 Th3 Co2 B20'
_cell_volume   259.43027046
_cell_formula_units_Z   1
loop_
 _symmetry_equiv_pos_site_id
 _symmetry_equiv_pos_as_xyz
  1  'x, y, z'
loop_
 _atom_site_type_symbol
 _atom_site_label
 _atom_site_symmetry_multiplicity
 _atom_site_fract_x
 _atom_site_fract_y
 _atom_site_fract_z
 _atom_site_occupancy
  Y  Y0  1  0.500000  0.302498  0.865958  1
  Th  Th1  1  0.500000  0.698660  0.133216  1
  Th  Th2  1  0.500000  0.803213  0.635774  1
  Th  Th3  1  0.500000  0.198324  0.365334  1
  Co  Co4  1  0.000000  0.500371  0.500513  1
  Co  Co5  1  0.000000  0.999060  0.999560  1
  B  B6  1  0.000000  0.126791  0.541009  1
  B  B7  1  0.000000  0.872997  0.460360  1
  B  B8  1  0.000000  0.625914  0.959212  1
  B  B9  1  0.000000  0.371046  0.038331  1
  B  B10  1  0.000000  0.153498  0.698372  1
  B  B11  1  0.000000  0.848130  0.302739  1
  B  B12  1  0.300132  0.199837  0.112549  1
  B  B13  1  0.300380  0.796708  0.886780  1
  B  B14  1  0.699469  0.700686  0.386617  1
  B  B15  1  0.699651  0.299024  0.614867  1
  B  B16  1  0.699620  0.796708  0.886780  1
  B  B17  1  0.699868  0.199837  0.112549  1
  B  B18  1  0.300349  0.299024  0.614867  1
  B  B19  1  0.300531  0.700686  0.386617  1
  B  B20  1  0.000000  0.034634  0.186808  1
  B  B21  1  0.000000  0.967358  0.813971  1
  B  B22  1  0.000000  0.535258  0.312048  1
  B  B23  1  0.000000  0.466504  0.687111  1
  B  B24  1  0.000000  0.348414  0.195650  1
  B  B25  1  0.000000  0.654818  0.802407  1
