# generated using pymatgen
data_Zr2TiIr3Rh2
_symmetry_space_group_name_H-M   'P 1'
_cell_length_a   4.18740200
_cell_length_b   5.60465500
_cell_length_c   11.04893300
_cell_angle_alpha   90.00000000
_cell_angle_beta   90.00000000
_cell_angle_gamma   90.00000000
_symmetry_Int_Tables_number   1
_chemical_formula_structural   Zr2TiIr3Rh2
_chemical_formula_sum   'Zr4 Ti2 Ir6 Rh4'
_cell_volume   259.30678493
_cell_formula_units_Z   2
loop_
 _symmetry_equiv_pos_site_id
 _symmetry_equiv_pos_as_xyz
  1  'x, y, z'
loop_
 _atom_site_type_symbol
 _atom_site_label
 _atom_site_symmetry_multiplicity
 _atom_site_fract_x
 _atom_site_fract_y
 _atom_site_fract_z
 _atom_site_occupancy
  Zr  Zr0  1  0.500000  0.325934  0.143030  1
  Zr  Zr1  1  0.500000  0.674066  0.856970  1
  Zr  Zr2  1  0.500000  0.825934  0.356970  1
  Zr  Zr3  1  0.500000  0.174066  0.643030  1
  Ti  Ti4  1  0.000000  0.000000  0.000000  1
  Ti  Ti5  1  0.000000  0.500000  0.500000  1
  Ir  Ir6  1  0.000000  0.000000  0.500000  1
  Ir  Ir7  1  0.000000  0.500000  0.000000  1
  Ir  Ir8  1  0.500000  0.312655  0.395023  1
  Ir  Ir9  1  0.500000  0.687345  0.604977  1
  Ir  Ir10  1  0.500000  0.812655  0.104977  1
  Ir  Ir11  1  0.500000  0.187345  0.895023  1
  Rh  Rh12  1  0.000000  0.073082  0.242540  1
  Rh  Rh13  1  0.000000  0.926918  0.757460  1
  Rh  Rh14  1  0.000000  0.573082  0.257460  1
  Rh  Rh15  1  0.000000  0.426918  0.742540  1
