# generated using pymatgen
data_K2ZnFeB2(PO4)4
_symmetry_space_group_name_H-M   'P 1'
_cell_length_a   9.11501075
_cell_length_b   9.11501129
_cell_length_c   8.52347200
_cell_angle_alpha   89.07037327
_cell_angle_beta   89.07037322
_cell_angle_gamma   90.50768318
_symmetry_Int_Tables_number   1
_chemical_formula_structural   K2ZnFeB2(PO4)4
_chemical_formula_sum   'K4 Zn2 Fe2 B4 P8 O32'
_cell_volume   707.94336253
_cell_formula_units_Z   2
loop_
 _symmetry_equiv_pos_site_id
 _symmetry_equiv_pos_as_xyz
  1  'x, y, z'
loop_
 _atom_site_type_symbol
 _atom_site_label
 _atom_site_symmetry_multiplicity
 _atom_site_fract_x
 _atom_site_fract_y
 _atom_site_fract_z
 _atom_site_occupancy
  K  K0  1  0.029952  0.970048  0.750000  1
  K  K1  1  0.969523  0.030477  0.250000  1
  K  K2  1  0.597151  0.402849  0.250000  1
  K  K3  1  0.404435  0.595565  0.750000  1
  Zn  Zn4  1  0.932367  0.313728  0.938384  1
  Zn  Zn5  1  0.686272  0.067633  0.561616  1
  Fe  Fe6  1  0.320136  0.935231  0.437190  1
  Fe  Fe7  1  0.064769  0.679864  0.062810  1
  B  B8  1  0.795578  0.574366  0.574342  1
  B  B9  1  0.425634  0.204422  0.925658  1
  B  B10  1  0.203899  0.424749  0.425950  1
  B  B11  1  0.575251  0.796101  0.074050  1
  P  P12  1  0.690559  0.052472  0.940538  1
  P  P13  1  0.613728  0.773002  0.408527  1
  P  P14  1  0.772280  0.612868  0.905365  1
  P  P15  1  0.226998  0.386272  0.091473  1
  P  P16  1  0.051300  0.690796  0.444745  1
  P  P17  1  0.387132  0.227720  0.594635  1
  P  P18  1  0.309204  0.948700  0.055255  1
  P  P19  1  0.947528  0.309441  0.559462  1
  O  O20  1  0.429453  0.270169  0.765853  1
  O  O21  1  0.096945  0.279853  0.083380  1
  O  O22  1  0.926539  0.667683  0.571932  1
  O  O23  1  0.802915  0.472066  0.002643  1
  O  O24  1  0.576918  0.175470  0.979803  1
  O  O25  1  0.424490  0.825847  0.020235  1
  O  O26  1  0.988738  0.676013  0.280948  1
  O  O27  1  0.671665  0.992452  0.776396  1
  O  O28  1  0.203455  0.526367  0.991612  1
  O  O29  1  0.843237  0.116968  0.971492  1
  O  O30  1  0.570045  0.736601  0.236488  1
  O  O31  1  0.729831  0.570547  0.734147  1
  O  O32  1  0.277513  0.100736  0.589727  1
  O  O33  1  0.074188  0.329020  0.433538  1
  O  O34  1  0.624026  0.676331  0.969833  1
  O  O35  1  0.824530  0.423082  0.520197  1
  O  O36  1  0.323987  0.011262  0.219052  1
  O  O37  1  0.323669  0.375974  0.530167  1
  O  O38  1  0.332317  0.073461  0.928068  1
  O  O39  1  0.883032  0.156763  0.528508  1
  O  O40  1  0.263399  0.429955  0.263512  1
  O  O41  1  0.473633  0.796545  0.508388  1
  O  O42  1  0.681946  0.624334  0.464016  1
  O  O43  1  0.007548  0.328335  0.723604  1
  O  O44  1  0.527934  0.197085  0.497357  1
  O  O45  1  0.116608  0.842464  0.475555  1
  O  O46  1  0.670980  0.925812  0.066462  1
  O  O47  1  0.375666  0.318054  0.035984  1
  O  O48  1  0.157536  0.883392  0.024445  1
  O  O49  1  0.899264  0.722487  0.910273  1
  O  O50  1  0.720147  0.903055  0.416620  1
  O  O51  1  0.174153  0.575510  0.479765  1
