# generated using pymatgen
data_Tm20Si15Pt
_symmetry_space_group_name_H-M   'P 1'
_cell_length_a   7.29525915
_cell_length_b   7.63004169
_cell_length_c   14.36414400
_cell_angle_alpha   90.00000000
_cell_angle_beta   90.00000000
_cell_angle_gamma   90.07503266
_symmetry_Int_Tables_number   1
_chemical_formula_structural   Tm20Si15Pt
_chemical_formula_sum   'Tm20 Si15 Pt1'
_cell_volume   799.55255001
_cell_formula_units_Z   1
loop_
 _symmetry_equiv_pos_site_id
 _symmetry_equiv_pos_as_xyz
  1  'x, y, z'
loop_
 _atom_site_type_symbol
 _atom_site_label
 _atom_site_symmetry_multiplicity
 _atom_site_fract_x
 _atom_site_fract_y
 _atom_site_fract_z
 _atom_site_occupancy
  Tm  Tm0  1  0.678225  0.179740  0.623705  1
  Tm  Tm1  1  0.187673  0.324174  0.876395  1
  Tm  Tm2  1  0.318594  0.820036  0.123809  1
  Tm  Tm3  1  0.817443  0.677035  0.375800  1
  Tm  Tm4  1  0.318594  0.820036  0.376191  1
  Tm  Tm5  1  0.817443  0.677035  0.124200  1
  Tm  Tm6  1  0.678225  0.179740  0.876295  1
  Tm  Tm7  1  0.187673  0.324174  0.623605  1
  Tm  Tm8  1  0.523756  0.680298  0.594134  1
  Tm  Tm9  1  0.026358  0.818346  0.905146  1
  Tm  Tm10  1  0.474266  0.316996  0.096975  1
  Tm  Tm11  1  0.973416  0.182276  0.402530  1
  Tm  Tm12  1  0.474266  0.316996  0.403025  1
  Tm  Tm13  1  0.973416  0.182276  0.097470  1
  Tm  Tm14  1  0.523756  0.680298  0.905866  1
  Tm  Tm15  1  0.026358  0.818346  0.594854  1
  Tm  Tm16  1  0.844377  0.510699  0.750000  1
  Tm  Tm17  1  0.355495  0.984787  0.750000  1
  Tm  Tm18  1  0.148244  0.486492  0.250000  1
  Tm  Tm19  1  0.648438  0.012039  0.250000  1
  Si  Si20  1  0.649609  0.970847  0.459172  1
  Si  Si21  1  0.148447  0.528430  0.040660  1
  Si  Si22  1  0.349581  0.026532  0.960300  1
  Si  Si23  1  0.851471  0.471590  0.539925  1
  Si  Si24  1  0.349581  0.026532  0.539700  1
  Si  Si25  1  0.851471  0.471590  0.960075  1
  Si  Si26  1  0.649609  0.970847  0.040828  1
  Si  Si27  1  0.148447  0.528430  0.459340  1
  Si  Si28  1  0.981262  0.103221  0.750000  1
  Si  Si29  1  0.519162  0.604522  0.250000  1
  Si  Si30  1  0.019403  0.894298  0.250000  1
  Si  Si31  1  0.739007  0.874551  0.750000  1
  Si  Si32  1  0.225270  0.633168  0.750000  1
  Si  Si33  1  0.269748  0.129882  0.250000  1
  Si  Si34  1  0.769955  0.368833  0.250000  1
  Pt  Pt35  1  0.481961  0.404908  0.750000  1
