# generated using pymatgen
data_TaNbF10
_symmetry_space_group_name_H-M   'P 1'
_cell_length_a   5.78447085
_cell_length_b   7.60901163
_cell_length_c   9.94682356
_cell_angle_alpha   88.05674957
_cell_angle_beta   106.23074885
_cell_angle_gamma   99.22568197
_symmetry_Int_Tables_number   1
_chemical_formula_structural   TaNbF10
_chemical_formula_sum   'Ta2 Nb2 F20'
_cell_volume   414.88658111
_cell_formula_units_Z   2
loop_
 _symmetry_equiv_pos_site_id
 _symmetry_equiv_pos_as_xyz
  1  'x, y, z'
loop_
 _atom_site_type_symbol
 _atom_site_label
 _atom_site_symmetry_multiplicity
 _atom_site_fract_x
 _atom_site_fract_y
 _atom_site_fract_z
 _atom_site_occupancy
  Ta  Ta0  1  0.966013  0.768552  0.315166  1
  Ta  Ta1  1  0.033987  0.231448  0.684834  1
  Nb  Nb2  1  0.339950  0.382605  0.221201  1
  Nb  Nb3  1  0.660050  0.617395  0.778799  1
  F  F4  1  0.029189  0.249033  0.169222  1
  F  F5  1  0.970811  0.750967  0.830778  1
  F  F6  1  0.496838  0.221617  0.158339  1
  F  F7  1  0.503162  0.778383  0.841661  1
  F  F8  1  0.115410  0.229626  0.883472  1
  F  F9  1  0.884590  0.770374  0.116528  1
  F  F10  1  0.960705  0.290299  0.492844  1
  F  F11  1  0.039295  0.709701  0.507156  1
  F  F12  1  0.764612  0.052200  0.662807  1
  F  F13  1  0.235388  0.947800  0.337193  1
  F  F14  1  0.254549  0.082575  0.673839  1
  F  F15  1  0.745451  0.917425  0.326161  1
  F  F16  1  0.313350  0.444512  0.712797  1
  F  F17  1  0.686650  0.555488  0.287203  1
  F  F18  1  0.826270  0.420343  0.701402  1
  F  F19  1  0.173730  0.579657  0.298598  1
  F  F20  1  0.692227  0.451789  0.926071  1
  F  F21  1  0.307773  0.548211  0.073929  1
  F  F22  1  0.571926  0.668102  0.586296  1
  F  F23  1  0.428074  0.331898  0.413704  1
