# generated using pymatgen
data_Er7ThGePd24
_symmetry_space_group_name_H-M   'P 1'
_cell_length_a   8.34592900
_cell_length_b   8.34592900
_cell_length_c   8.34592900
_cell_angle_alpha   89.99820133
_cell_angle_beta   89.99820133
_cell_angle_gamma   89.99820133
_symmetry_Int_Tables_number   1
_chemical_formula_structural   Er7ThGePd24
_chemical_formula_sum   'Er7 Th1 Ge1 Pd24'
_cell_volume   581.33176877
_cell_formula_units_Z   1
loop_
 _symmetry_equiv_pos_site_id
 _symmetry_equiv_pos_as_xyz
  1  'x, y, z'
loop_
 _atom_site_type_symbol
 _atom_site_label
 _atom_site_symmetry_multiplicity
 _atom_site_fract_x
 _atom_site_fract_y
 _atom_site_fract_z
 _atom_site_occupancy
  Er  Er0  1  0.746175  0.746175  0.746175  1
  Er  Er1  1  0.746239  0.746239  0.253752  1
  Er  Er2  1  0.746239  0.253752  0.746239  1
  Er  Er3  1  0.253657  0.253657  0.746601  1
  Er  Er4  1  0.253657  0.746601  0.253657  1
  Er  Er5  1  0.253752  0.746239  0.746239  1
  Er  Er6  1  0.746601  0.253657  0.253657  1
  Th  Th7  1  0.254450  0.254450  0.254450  1
  Ge  Ge8  1  0.999521  0.999521  0.999521  1
  Pd  Pd9  1  0.259618  0.500664  0.999318  1
  Pd  Pd10  1  0.740366  0.500089  0.999911  1
  Pd  Pd11  1  0.999318  0.259618  0.500664  1
  Pd  Pd12  1  0.500664  0.259618  0.999318  1
  Pd  Pd13  1  0.999911  0.740366  0.500089  1
  Pd  Pd14  1  0.500089  0.740366  0.999911  1
  Pd  Pd15  1  0.500664  0.999318  0.259618  1
  Pd  Pd16  1  0.259618  0.999318  0.500664  1
  Pd  Pd17  1  0.500089  0.999911  0.740366  1
  Pd  Pd18  1  0.740366  0.999911  0.500089  1
  Pd  Pd19  1  0.999318  0.500664  0.259618  1
  Pd  Pd20  1  0.999911  0.500089  0.740366  1
  Pd  Pd21  1  0.253162  0.500926  0.500926  1
  Pd  Pd22  1  0.746902  0.500069  0.500069  1
  Pd  Pd23  1  0.500926  0.253162  0.500926  1
  Pd  Pd24  1  0.500069  0.746902  0.500069  1
  Pd  Pd25  1  0.500926  0.500926  0.253162  1
  Pd  Pd26  1  0.500069  0.500069  0.746902  1
  Pd  Pd27  1  0.289185  0.998684  0.998684  1
  Pd  Pd28  1  0.711429  0.999870  0.999870  1
  Pd  Pd29  1  0.998684  0.289185  0.998684  1
  Pd  Pd30  1  0.999870  0.711429  0.999870  1
  Pd  Pd31  1  0.998684  0.998684  0.289185  1
  Pd  Pd32  1  0.999870  0.999870  0.711429  1
