# generated using pymatgen
data_Ce2B4Ir4Rh
_symmetry_space_group_name_H-M   'P 1'
_cell_length_a   7.56814084
_cell_length_b   6.31808180
_cell_length_c   5.71258198
_cell_angle_alpha   77.78336551
_cell_angle_beta   54.67855043
_cell_angle_gamma   47.52284445
_symmetry_Int_Tables_number   1
_chemical_formula_structural   Ce2B4Ir4Rh
_chemical_formula_sum   'Ce2 B4 Ir4 Rh1'
_cell_volume   156.95317898
_cell_formula_units_Z   1
loop_
 _symmetry_equiv_pos_site_id
 _symmetry_equiv_pos_as_xyz
  1  'x, y, z'
loop_
 _atom_site_type_symbol
 _atom_site_label
 _atom_site_symmetry_multiplicity
 _atom_site_fract_x
 _atom_site_fract_y
 _atom_site_fract_z
 _atom_site_occupancy
  Ce  Ce0  1  0.861276  0.861276  0.138724  1
  Ce  Ce1  1  0.138724  0.138724  0.861276  1
  B  B2  1  0.210418  0.523820  0.476478  1
  B  B3  1  0.789582  0.476180  0.523522  1
  B  B4  1  0.523820  0.210418  0.789285  1
  B  B5  1  0.476180  0.789582  0.210715  1
  Ir  Ir6  1  0.749820  0.749820  0.750180  1
  Ir  Ir7  1  0.250180  0.250180  0.249820  1
  Ir  Ir8  1  0.000000  0.000000  0.500000  1
  Ir  Ir9  1  0.500000  0.500000  0.500000  1
  Rh  Rh10  1  0.500000  0.500000  0.000000  1
