# generated using pymatgen
data_HoEr7Tc2(B12Rh)2
_symmetry_space_group_name_H-M   'P 1'
_cell_length_a   3.65661000
_cell_length_b   9.10817871
_cell_length_c   11.49424700
_cell_angle_alpha   90.36621516
_cell_angle_beta   90.00000000
_cell_angle_gamma   90.00000000
_symmetry_Int_Tables_number   1
_chemical_formula_structural   HoEr7Tc2(B12Rh)2
_chemical_formula_sum   'Ho1 Er7 Tc2 B24 Rh2'
_cell_volume   382.80873587
_cell_formula_units_Z   1
loop_
 _symmetry_equiv_pos_site_id
 _symmetry_equiv_pos_as_xyz
  1  'x, y, z'
loop_
 _atom_site_type_symbol
 _atom_site_label
 _atom_site_symmetry_multiplicity
 _atom_site_fract_x
 _atom_site_fract_y
 _atom_site_fract_z
 _atom_site_occupancy
  Ho  Ho0  1  0.500000  0.318740  0.411015  1
  Er  Er1  1  0.500000  0.681562  0.589121  1
  Er  Er2  1  0.500000  0.173405  0.917169  1
  Er  Er3  1  0.500000  0.826576  0.082788  1
  Er  Er4  1  0.500000  0.441892  0.126567  1
  Er  Er5  1  0.500000  0.558115  0.873354  1
  Er  Er6  1  0.500000  0.053921  0.628538  1
  Er  Er7  1  0.500000  0.945980  0.371516  1
  Tc  Tc8  1  0.500000  0.138965  0.179705  1
  Tc  Tc9  1  0.500000  0.860896  0.820165  1
  B  B10  1  0.000000  0.107402  0.471132  1
  B  B11  1  0.000000  0.892261  0.528994  1
  B  B12  1  0.000000  0.393361  0.970292  1
  B  B13  1  0.000000  0.606675  0.029654  1
  B  B14  1  0.000000  0.132212  0.314890  1
  B  B15  1  0.000000  0.867577  0.684985  1
  B  B16  1  0.000000  0.367365  0.816701  1
  B  B17  1  0.000000  0.632667  0.183285  1
  B  B18  1  0.000000  0.052913  0.067115  1
  B  B19  1  0.000000  0.947029  0.932818  1
  B  B20  1  0.000000  0.445820  0.565854  1
  B  B21  1  0.000000  0.554515  0.434334  1
  B  B22  1  0.000000  0.483424  0.287539  1
  B  B23  1  0.000000  0.516853  0.712359  1
  B  B24  1  0.000000  0.016949  0.787015  1
  B  B25  1  0.000000  0.982931  0.212962  1
  B  B26  1  0.000000  0.248401  0.080823  1
  B  B27  1  0.000000  0.751577  0.919092  1
  B  B28  1  0.000000  0.250603  0.578779  1
  B  B29  1  0.000000  0.749348  0.421505  1
  B  B30  1  0.000000  0.293115  0.234632  1
  B  B31  1  0.000000  0.706764  0.765176  1
  B  B32  1  0.000000  0.207932  0.735036  1
  B  B33  1  0.000000  0.792062  0.265020  1
  Rh  Rh34  1  0.500000  0.361966  0.678766  1
  Rh  Rh35  1  0.500000  0.638224  0.321306  1
