# generated using pymatgen
data_La8BeSi7I6
_symmetry_space_group_name_H-M   'P 1'
_cell_length_a   12.57887075
_cell_length_b   12.57887043
_cell_length_c   12.54521241
_cell_angle_alpha   82.15542877
_cell_angle_beta   82.15542897
_cell_angle_gamma   19.42414499
_symmetry_Int_Tables_number   1
_chemical_formula_structural   La8BeSi7I6
_chemical_formula_sum   'La8 Be1 Si7 I6'
_cell_volume   653.77066398
_cell_formula_units_Z   1
loop_
 _symmetry_equiv_pos_site_id
 _symmetry_equiv_pos_as_xyz
  1  'x, y, z'
loop_
 _atom_site_type_symbol
 _atom_site_label
 _atom_site_symmetry_multiplicity
 _atom_site_fract_x
 _atom_site_fract_y
 _atom_site_fract_z
 _atom_site_occupancy
  La  La0  1  0.496525  0.496525  0.165495  1
  La  La1  1  0.923976  0.923976  0.448623  1
  La  La2  1  0.355563  0.355563  0.025983  1
  La  La3  1  0.074457  0.074457  0.556621  1
  La  La4  1  0.645098  0.645098  0.974980  1
  La  La5  1  0.636940  0.636940  0.291315  1
  La  La6  1  0.362734  0.362734  0.706689  1
  La  La7  1  0.503258  0.503258  0.831499  1
  Be  Be8  1  0.523934  0.523934  0.407983  1
  Si  Si9  1  0.040646  0.040646  0.327532  1
  Si  Si10  1  0.049458  0.049458  0.988810  1
  Si  Si11  1  0.479707  0.479707  0.580360  1
  Si  Si12  1  0.905816  0.905816  0.857353  1
  Si  Si13  1  0.950490  0.950490  0.011824  1
  Si  Si14  1  0.959163  0.959163  0.674510  1
  Si  Si15  1  0.092859  0.092859  0.144298  1
  I  I16  1  0.244489  0.244489  0.870305  1
  I  I17  1  0.756023  0.756023  0.131104  1
  I  I18  1  0.798773  0.798773  0.575748  1
  I  I19  1  0.369267  0.369267  0.288439  1
  I  I20  1  0.198963  0.198963  0.425481  1
  I  I21  1  0.631860  0.631860  0.715046  1
