# generated using pymatgen
data_Tm5Co14P12Ru5
_symmetry_space_group_name_H-M   'P 1'
_cell_length_a   12.05917472
_cell_length_b   12.06079508
_cell_length_c   3.71895200
_cell_angle_alpha   90.00000000
_cell_angle_beta   90.00000000
_cell_angle_gamma   119.93002264
_symmetry_Int_Tables_number   1
_chemical_formula_structural   Tm5Co14P12Ru5
_chemical_formula_sum   'Tm5 Co14 P12 Ru5'
_cell_volume   468.75999058
_cell_formula_units_Z   1
loop_
 _symmetry_equiv_pos_site_id
 _symmetry_equiv_pos_as_xyz
  1  'x, y, z'
loop_
 _atom_site_type_symbol
 _atom_site_label
 _atom_site_symmetry_multiplicity
 _atom_site_fract_x
 _atom_site_fract_y
 _atom_site_fract_z
 _atom_site_occupancy
  Tm  Tm0  1  0.662152  0.333783  0.000000  1
  Tm  Tm1  1  0.333166  0.666803  0.000000  1
  Tm  Tm2  1  0.184908  0.183589  0.500000  1
  Tm  Tm3  1  0.817602  0.000249  0.500000  1
  Tm  Tm4  1  0.000266  0.818510  0.500000  1
  Co  Co5  1  0.827817  0.198317  0.000000  1
  Co  Co6  1  0.801723  0.628663  0.000000  1
  Co  Co7  1  0.374190  0.179185  0.000000  1
  Co  Co8  1  0.194103  0.819304  0.000000  1
  Co  Co9  1  0.623585  0.803560  0.000000  1
  Co  Co10  1  0.181557  0.374679  0.000000  1
  Co  Co11  1  0.479980  0.357474  0.500000  1
  Co  Co12  1  0.131879  0.644054  0.500000  1
  Co  Co13  1  0.512586  0.868253  0.500000  1
  Co  Co14  1  0.356744  0.484131  0.500000  1
  Co  Co15  1  0.716662  0.718194  0.500000  1
  Co  Co16  1  0.280716  0.998603  0.500000  1
  Co  Co17  1  0.003055  0.282671  0.500000  1
  Co  Co18  1  0.999780  0.999610  0.000000  1
  P  P19  1  0.362295  0.362323  0.000000  1
  P  P20  1  0.634681  0.995063  0.000000  1
  P  P21  1  0.004242  0.640223  0.000000  1
  P  P22  1  0.838507  0.314237  0.500000  1
  P  P23  1  0.681070  0.521186  0.500000  1
  P  P24  1  0.474611  0.167033  0.500000  1
  P  P25  1  0.312591  0.833986  0.500000  1
  P  P26  1  0.519877  0.685996  0.500000  1
  P  P27  1  0.168310  0.479047  0.500000  1
  P  P28  1  0.820050  0.822275  0.000000  1
  P  P29  1  0.178829  0.999669  0.000000  1
  P  P30  1  0.002862  0.178914  0.000000  1
  Ru  Ru31  1  0.551830  0.553209  0.000000  1
  Ru  Ru32  1  0.440880  0.991672  0.000000  1
  Ru  Ru33  1  0.009046  0.450156  0.000000  1
  Ru  Ru34  1  0.643071  0.125235  0.500000  1
  Ru  Ru35  1  0.874780  0.520144  0.500000  1
