# generated using pymatgen
data_HoTm2Co4P6Ru5
_symmetry_space_group_name_H-M   'P 1'
_cell_length_a   3.83711000
_cell_length_b   10.63052000
_cell_length_c   12.51039800
_cell_angle_alpha   90.00000000
_cell_angle_beta   90.00000000
_cell_angle_gamma   90.00000000
_symmetry_Int_Tables_number   1
_chemical_formula_structural   HoTm2Co4P6Ru5
_chemical_formula_sum   'Ho2 Tm4 Co8 P12 Ru10'
_cell_volume   510.30507182
_cell_formula_units_Z   2
loop_
 _symmetry_equiv_pos_site_id
 _symmetry_equiv_pos_as_xyz
  1  'x, y, z'
loop_
 _atom_site_type_symbol
 _atom_site_label
 _atom_site_symmetry_multiplicity
 _atom_site_fract_x
 _atom_site_fract_y
 _atom_site_fract_z
 _atom_site_occupancy
  Ho  Ho0  1  0.000000  0.500000  0.527508  1
  Ho  Ho1  1  0.500000  0.000000  0.472492  1
  Tm  Tm2  1  0.500000  0.821718  0.200607  1
  Tm  Tm3  1  0.500000  0.178282  0.200607  1
  Tm  Tm4  1  0.000000  0.678282  0.799393  1
  Tm  Tm5  1  0.000000  0.321718  0.799393  1
  Co  Co6  1  0.000000  0.500000  0.983637  1
  Co  Co7  1  0.500000  0.000000  0.016363  1
  Co  Co8  1  0.500000  0.332167  0.988760  1
  Co  Co9  1  0.500000  0.667833  0.988760  1
  Co  Co10  1  0.000000  0.167833  0.011240  1
  Co  Co11  1  0.000000  0.832167  0.011240  1
  Co  Co12  1  0.500000  0.500000  0.703142  1
  Co  Co13  1  0.000000  0.000000  0.296858  1
  P  P14  1  0.500000  0.314903  0.618451  1
  P  P15  1  0.500000  0.685097  0.618451  1
  P  P16  1  0.000000  0.185097  0.381549  1
  P  P17  1  0.000000  0.814903  0.381549  1
  P  P18  1  0.500000  0.500000  0.880786  1
  P  P19  1  0.000000  0.000000  0.119214  1
  P  P20  1  0.500000  0.845519  0.900549  1
  P  P21  1  0.500000  0.154481  0.900549  1
  P  P22  1  0.000000  0.654481  0.099451  1
  P  P23  1  0.000000  0.345519  0.099451  1
  P  P24  1  0.500000  0.500000  0.336661  1
  P  P25  1  0.000000  0.000000  0.663339  1
  Ru  Ru26  1  0.500000  0.298017  0.427419  1
  Ru  Ru27  1  0.500000  0.701983  0.427419  1
  Ru  Ru28  1  0.000000  0.201983  0.572581  1
  Ru  Ru29  1  0.000000  0.798017  0.572581  1
  Ru  Ru30  1  0.500000  0.874076  0.719357  1
  Ru  Ru31  1  0.500000  0.125924  0.719357  1
  Ru  Ru32  1  0.000000  0.625924  0.280643  1
  Ru  Ru33  1  0.000000  0.374076  0.280643  1
  Ru  Ru34  1  0.500000  0.500000  0.146411  1
  Ru  Ru35  1  0.000000  0.000000  0.853589  1
