# generated using pymatgen
data_NdFe3P12Rh
_symmetry_space_group_name_H-M   'P 1'
_cell_length_a   6.81839036
_cell_length_b   6.83570701
_cell_length_c   6.83570674
_cell_angle_alpha   109.52248104
_cell_angle_beta   109.41991732
_cell_angle_gamma   109.41991261
_symmetry_Int_Tables_number   1
_chemical_formula_structural   NdFe3P12Rh
_chemical_formula_sum   'Nd1 Fe3 P12 Rh1'
_cell_volume   245.41517278
_cell_formula_units_Z   1
loop_
 _symmetry_equiv_pos_site_id
 _symmetry_equiv_pos_as_xyz
  1  'x, y, z'
loop_
 _atom_site_type_symbol
 _atom_site_label
 _atom_site_symmetry_multiplicity
 _atom_site_fract_x
 _atom_site_fract_y
 _atom_site_fract_z
 _atom_site_occupancy
  Nd  Nd0  1  0.000000  0.000000  0.000000  1
  Fe  Fe1  1  0.500000  0.500000  0.500000  1
  Fe  Fe2  1  0.000000  0.500000  0.000000  1
  Fe  Fe3  1  0.000000  0.000000  0.500000  1
  P  P4  1  0.135444  0.790695  0.633944  1
  P  P5  1  0.151305  0.500828  0.350289  1
  P  P6  1  0.848695  0.499172  0.649711  1
  P  P7  1  0.349522  0.150538  0.500828  1
  P  P8  1  0.801016  0.649711  0.150538  1
  P  P9  1  0.864556  0.209305  0.366056  1
  P  P10  1  0.655251  0.156751  0.790695  1
  P  P11  1  0.498500  0.633944  0.843249  1
  P  P12  1  0.650478  0.849462  0.499172  1
  P  P13  1  0.501500  0.366056  0.156751  1
  P  P14  1  0.344749  0.843249  0.209305  1
  P  P15  1  0.198984  0.350289  0.849462  1
  Rh  Rh16  1  0.500000  0.000000  0.000000  1
