# generated using pymatgen
data_Tm8Lu7Sc5Si15Os
_symmetry_space_group_name_H-M   'P 1'
_cell_length_a   7.13135389
_cell_length_b   7.54468010
_cell_length_c   14.11964402
_cell_angle_alpha   90.08593048
_cell_angle_beta   90.02632675
_cell_angle_gamma   90.24506486
_symmetry_Int_Tables_number   1
_chemical_formula_structural   Tm8Lu7Sc5Si15Os
_chemical_formula_sum   'Tm8 Lu7 Sc5 Si15 Os1'
_cell_volume   759.68238819
_cell_formula_units_Z   1
loop_
 _symmetry_equiv_pos_site_id
 _symmetry_equiv_pos_as_xyz
  1  'x, y, z'
loop_
 _atom_site_type_symbol
 _atom_site_label
 _atom_site_symmetry_multiplicity
 _atom_site_fract_x
 _atom_site_fract_y
 _atom_site_fract_z
 _atom_site_occupancy
  Tm  Tm0  1  0.016078  0.182280  0.097044  1
  Tm  Tm1  1  0.987496  0.826425  0.905539  1
  Tm  Tm2  1  0.484448  0.680709  0.904319  1
  Tm  Tm3  1  0.986485  0.826981  0.596094  1
  Tm  Tm4  1  0.514420  0.320387  0.096167  1
  Tm  Tm5  1  0.015859  0.183492  0.401626  1
  Tm  Tm6  1  0.514902  0.319974  0.402290  1
  Tm  Tm7  1  0.484949  0.680084  0.595632  1
  Lu  Lu8  1  0.311780  0.172621  0.627972  1
  Lu  Lu9  1  0.676563  0.825456  0.372762  1
  Lu  Lu10  1  0.176044  0.677888  0.373182  1
  Lu  Lu11  1  0.676216  0.825041  0.125677  1
  Lu  Lu12  1  0.834389  0.316454  0.628217  1
  Lu  Lu13  1  0.311961  0.173063  0.873242  1
  Lu  Lu14  1  0.834190  0.318012  0.873336  1
  Sc  Sc15  1  0.155785  0.510213  0.750568  1
  Sc  Sc16  1  0.842410  0.490422  0.248850  1
  Sc  Sc17  1  0.341944  0.012658  0.248752  1
  Sc  Sc18  1  0.667399  0.988734  0.750391  1
  Sc  Sc19  1  0.176147  0.678511  0.127275  1
  Si  Si20  1  0.979186  0.895272  0.247921  1
  Si  Si21  1  0.476102  0.601919  0.247499  1
  Si  Si22  1  0.521670  0.401112  0.750500  1
  Si  Si23  1  0.283032  0.859119  0.750412  1
  Si  Si24  1  0.715572  0.137831  0.249217  1
  Si  Si25  1  0.216706  0.366561  0.248547  1
  Si  Si26  1  0.775974  0.631482  0.750365  1
  Si  Si27  1  0.158365  0.472730  0.538210  1
  Si  Si28  1  0.843847  0.532014  0.460640  1
  Si  Si29  1  0.344415  0.970157  0.458703  1
  Si  Si30  1  0.850534  0.532291  0.041395  1
  Si  Si31  1  0.651839  0.031331  0.538753  1
  Si  Si32  1  0.161032  0.474665  0.965426  1
  Si  Si33  1  0.651249  0.030943  0.961184  1
  Si  Si34  1  0.340813  0.964977  0.041544  1
  Os  Os35  1  0.020205  0.088193  0.750749  1
