# generated using pymatgen
data_Pr2Tm2Al17GeIr6
_symmetry_space_group_name_H-M   'P 1'
_cell_length_a   7.58468508
_cell_length_b   7.58468384
_cell_length_c   9.52874200
_cell_angle_alpha   90.00000000
_cell_angle_beta   90.00000000
_cell_angle_gamma   119.57166795
_symmetry_Int_Tables_number   1
_chemical_formula_structural   Pr2Tm2Al17GeIr6
_chemical_formula_sum   'Pr2 Tm2 Al17 Ge1 Ir6'
_cell_volume   476.75975116
_cell_formula_units_Z   1
loop_
 _symmetry_equiv_pos_site_id
 _symmetry_equiv_pos_as_xyz
  1  'x, y, z'
loop_
 _atom_site_type_symbol
 _atom_site_label
 _atom_site_symmetry_multiplicity
 _atom_site_fract_x
 _atom_site_fract_y
 _atom_site_fract_z
 _atom_site_occupancy
  Pr  Pr0  1  0.994200  0.675832  0.250000  1
  Pr  Pr1  1  0.675832  0.994200  0.250000  1
  Tm  Tm2  1  0.003089  0.328106  0.750000  1
  Tm  Tm3  1  0.328106  0.003089  0.750000  1
  Al  Al4  1  0.873318  0.873318  0.750000  1
  Al  Al5  1  0.002749  0.337914  0.067657  1
  Al  Al6  1  0.999430  0.664537  0.920402  1
  Al  Al7  1  0.999430  0.664537  0.579598  1
  Al  Al8  1  0.337914  0.002749  0.432343  1
  Al  Al9  1  0.002749  0.337914  0.432343  1
  Al  Al10  1  0.664537  0.999430  0.579598  1
  Al  Al11  1  0.664537  0.999430  0.920402  1
  Al  Al12  1  0.337914  0.002749  0.067657  1
  Al  Al13  1  0.331455  0.331455  0.563868  1
  Al  Al14  1  0.662215  0.662215  0.458839  1
  Al  Al15  1  0.662215  0.662215  0.041161  1
  Al  Al16  1  0.331455  0.331455  0.936132  1
  Al  Al17  1  0.336168  0.549804  0.250000  1
  Al  Al18  1  0.660281  0.449500  0.750000  1
  Al  Al19  1  0.549804  0.336168  0.250000  1
  Al  Al20  1  0.449500  0.660281  0.750000  1
  Ge  Ge21  1  0.138826  0.138826  0.250000  1
  Ir  Ir22  1  0.669200  0.326706  0.997436  1
  Ir  Ir23  1  0.326706  0.669200  0.997436  1
  Ir  Ir24  1  0.326706  0.669200  0.502564  1
  Ir  Ir25  1  0.669200  0.326706  0.502564  1
  Ir  Ir26  1  0.001232  0.001232  0.997138  1
  Ir  Ir27  1  0.001232  0.001232  0.502862  1
