# generated using pymatgen
data_Zr12AlZn11O2
_symmetry_space_group_name_H-M   'P 1'
_cell_length_a   8.56327688
_cell_length_b   8.55247397
_cell_length_c   8.56327700
_cell_angle_alpha   59.95820277
_cell_angle_beta   59.99999569
_cell_angle_gamma   59.95820421
_symmetry_Int_Tables_number   1
_chemical_formula_structural   Zr12AlZn11O2
_chemical_formula_sum   'Zr12 Al1 Zn11 O2'
_cell_volume   443.18195818
_cell_formula_units_Z   1
loop_
 _symmetry_equiv_pos_site_id
 _symmetry_equiv_pos_as_xyz
  1  'x, y, z'
loop_
 _atom_site_type_symbol
 _atom_site_label
 _atom_site_symmetry_multiplicity
 _atom_site_fract_x
 _atom_site_fract_y
 _atom_site_fract_z
 _atom_site_occupancy
  Zr  Zr0  1  0.193371  0.806433  0.193371  1
  Zr  Zr1  1  0.443206  0.056336  0.443206  1
  Zr  Zr2  1  0.443206  0.056336  0.057251  1
  Zr  Zr3  1  0.442651  0.442977  0.057186  1
  Zr  Zr4  1  0.193371  0.806433  0.806825  1
  Zr  Zr5  1  0.057186  0.442977  0.057186  1
  Zr  Zr6  1  0.806825  0.806433  0.193371  1
  Zr  Zr7  1  0.057186  0.442977  0.442651  1
  Zr  Zr8  1  0.191459  0.194128  0.807206  1
  Zr  Zr9  1  0.807206  0.194128  0.191459  1
  Zr  Zr10  1  0.807206  0.194128  0.807206  1
  Zr  Zr11  1  0.057251  0.056336  0.443206  1
  Al  Al12  1  0.831657  0.505031  0.831657  1
  Zn  Zn13  1  0.418178  0.418157  0.745487  1
  Zn  Zn14  1  0.745487  0.418157  0.418178  1
  Zn  Zn15  1  0.418178  0.418157  0.418178  1
  Zn  Zn16  1  0.831859  0.832223  0.504060  1
  Zn  Zn17  1  0.418164  0.745508  0.418164  1
  Zn  Zn18  1  0.831859  0.832223  0.831859  1
  Zn  Zn19  1  0.504060  0.832223  0.831859  1
  Zn  Zn20  1  0.624841  0.125478  0.624841  1
  Zn  Zn21  1  0.624657  0.625207  0.125480  1
  Zn  Zn22  1  0.125480  0.625207  0.624657  1
  Zn  Zn23  1  0.624657  0.625207  0.624657  1
  O  O24  1  0.000634  0.998098  0.000634  1
  O  O25  1  0.250166  0.249502  0.250166  1
