# generated using pymatgen
data_LuCoTeO6
_symmetry_space_group_name_H-M   'P 1'
_cell_length_a   5.03611902
_cell_length_b   5.03638811
_cell_length_c   9.62964102
_cell_angle_alpha   89.99543513
_cell_angle_beta   90.00228282
_cell_angle_gamma   120.00175305
_symmetry_Int_Tables_number   1
_chemical_formula_structural   LuCoTeO6
_chemical_formula_sum   'Lu2 Co2 Te2 O12'
_cell_volume   211.51843788
_cell_formula_units_Z   2
loop_
 _symmetry_equiv_pos_site_id
 _symmetry_equiv_pos_as_xyz
  1  'x, y, z'
loop_
 _atom_site_type_symbol
 _atom_site_label
 _atom_site_symmetry_multiplicity
 _atom_site_fract_x
 _atom_site_fract_y
 _atom_site_fract_z
 _atom_site_occupancy
  Lu  Lu0  1  0.000000  0.000000  0.000000  1
  Lu  Lu1  1  0.000000  0.000000  0.500000  1
  Co  Co2  1  0.333208  0.666604  0.250000  1
  Co  Co3  1  0.666792  0.333396  0.750000  1
  Te  Te4  1  0.333227  0.666613  0.750000  1
  Te  Te5  1  0.666773  0.333387  0.250000  1
  O  O6  1  0.356941  0.360604  0.138599  1
  O  O7  1  0.639384  0.996400  0.138603  1
  O  O8  1  0.003486  0.642864  0.138661  1
  O  O9  1  0.643059  0.639396  0.861401  1
  O  O10  1  0.360616  0.003600  0.861397  1
  O  O11  1  0.996514  0.357136  0.861339  1
  O  O12  1  0.639384  0.642984  0.361397  1
  O  O13  1  0.356941  0.996337  0.361401  1
  O  O14  1  0.003486  0.360623  0.361339  1
  O  O15  1  0.360616  0.357016  0.638603  1
  O  O16  1  0.643059  0.003663  0.638599  1
  O  O17  1  0.996514  0.639377  0.638661  1
