# generated using pymatgen
data_La9Nd3(RuCl3)4
_symmetry_space_group_name_H-M   'P 1'
_cell_length_a   10.44379770
_cell_length_b   10.45604329
_cell_length_c   10.45826200
_cell_angle_alpha   108.59320469
_cell_angle_beta   108.54611519
_cell_angle_gamma   111.25871541
_symmetry_Int_Tables_number   1
_chemical_formula_structural   La9Nd3(RuCl3)4
_chemical_formula_sum   'La9 Nd3 Ru4 Cl12'
_cell_volume   878.83251115
_cell_formula_units_Z   1
loop_
 _symmetry_equiv_pos_site_id
 _symmetry_equiv_pos_as_xyz
  1  'x, y, z'
loop_
 _atom_site_type_symbol
 _atom_site_label
 _atom_site_symmetry_multiplicity
 _atom_site_fract_x
 _atom_site_fract_y
 _atom_site_fract_z
 _atom_site_occupancy
  La  La0  1  0.471093  0.482649  0.239630  1
  La  La1  1  0.742449  0.230350  0.259374  1
  La  La2  1  0.760871  0.018835  0.490339  1
  La  La3  1  0.229464  0.471479  0.490318  1
  La  La4  1  0.268530  0.757001  0.239638  1
  La  La5  1  0.031463  0.269803  0.013525  1
  La  La6  1  0.016950  0.029048  0.259378  1
  La  La7  1  0.482062  0.743712  0.013518  1
  La  La8  1  0.486250  0.236264  0.472504  1
  Nd  Nd9  1  0.013862  0.486815  0.750932  1
  Nd  Nd10  1  0.262062  0.012073  0.024123  1
  Nd  Nd11  1  0.237058  0.264096  0.750919  1
  Ru  Ru12  1  0.251950  0.249012  0.251056  1
  Ru  Ru13  1  0.499100  0.002048  0.251046  1
  Ru  Ru14  1  0.000530  0.250533  0.501078  1
  Ru  Ru15  1  0.250360  0.500356  0.000698  1
  Cl  Cl16  1  0.244529  0.747603  0.753977  1
  Cl  Cl17  1  0.491946  0.493187  0.747735  1
  Cl  Cl18  1  0.005577  0.751226  0.995501  1
  Cl  Cl19  1  0.755788  0.254542  0.747733  1
  Cl  Cl20  1  0.009436  0.006366  0.753985  1
  Cl  Cl21  1  0.248222  0.003750  0.499057  1
  Cl  Cl22  1  0.750837  0.495303  0.499068  1
  Cl  Cl23  1  0.489931  0.244290  0.995518  1
  Cl  Cl24  1  0.747877  0.752189  0.250128  1
  Cl  Cl25  1  0.751846  0.001839  0.003694  1
  Cl  Cl26  1  0.002257  0.497932  0.250132  1
  Cl  Cl27  1  0.497700  0.747695  0.495397  1
