# generated using pymatgen
data_Pr16Dy3YSi16
_symmetry_space_group_name_H-M   'P 1'
_cell_length_a   7.83701300
_cell_length_b   7.83701300
_cell_length_c   15.35434700
_cell_angle_alpha   89.99875541
_cell_angle_beta   90.00124459
_cell_angle_gamma   89.99745581
_symmetry_Int_Tables_number   1
_chemical_formula_structural   Pr16Dy3YSi16
_chemical_formula_sum   'Pr16 Dy3 Y1 Si16'
_cell_volume   943.04514862
_cell_formula_units_Z   1
loop_
 _symmetry_equiv_pos_site_id
 _symmetry_equiv_pos_as_xyz
  1  'x, y, z'
loop_
 _atom_site_type_symbol
 _atom_site_label
 _atom_site_symmetry_multiplicity
 _atom_site_fract_x
 _atom_site_fract_y
 _atom_site_fract_z
 _atom_site_occupancy
  Pr  Pr0  1  0.378537  0.013244  0.445214  1
  Pr  Pr1  1  0.486763  0.878502  0.695206  1
  Pr  Pr2  1  0.513297  0.121387  0.195267  1
  Pr  Pr3  1  0.878502  0.486763  0.304794  1
  Pr  Pr4  1  0.121387  0.513297  0.804733  1
  Pr  Pr5  1  0.621686  0.986553  0.945173  1
  Pr  Pr6  1  0.013244  0.378537  0.554786  1
  Pr  Pr7  1  0.986553  0.621686  0.054827  1
  Pr  Pr8  1  0.124953  0.975499  0.878731  1
  Pr  Pr9  1  0.524357  0.625321  0.128893  1
  Pr  Pr10  1  0.475720  0.374951  0.628823  1
  Pr  Pr11  1  0.625321  0.524357  0.871107  1
  Pr  Pr12  1  0.374951  0.475720  0.371177  1
  Pr  Pr13  1  0.874914  0.024236  0.378840  1
  Pr  Pr14  1  0.975499  0.124953  0.121269  1
  Pr  Pr15  1  0.024236  0.874914  0.621160  1
  Dy  Dy16  1  0.190396  0.809653  0.249990  1
  Dy  Dy17  1  0.809653  0.190396  0.750010  1
  Dy  Dy18  1  0.690388  0.690388  0.500000  1
  Y  Y19  1  0.309615  0.309615  0.000000  1
  Si  Si20  1  0.187419  0.171928  0.709049  1
  Si  Si21  1  0.328099  0.687650  0.958988  1
  Si  Si22  1  0.671916  0.312550  0.459017  1
  Si  Si23  1  0.687650  0.328099  0.041012  1
  Si  Si24  1  0.312550  0.671916  0.540983  1
  Si  Si25  1  0.812531  0.828051  0.209030  1
  Si  Si26  1  0.171928  0.187419  0.290951  1
  Si  Si27  1  0.828051  0.812531  0.790970  1
  Si  Si28  1  0.286833  0.920932  0.063585  1
  Si  Si29  1  0.578959  0.786831  0.313547  1
  Si  Si30  1  0.421088  0.213140  0.813543  1
  Si  Si31  1  0.786831  0.578959  0.686453  1
  Si  Si32  1  0.213140  0.421088  0.186457  1
  Si  Si33  1  0.713159  0.078941  0.563566  1
  Si  Si34  1  0.920932  0.286833  0.936415  1
  Si  Si35  1  0.078941  0.713159  0.436434  1
