# generated using pymatgen
data_YbHo(OsRu)2
_symmetry_space_group_name_H-M   'P 1'
_cell_length_a   5.29296973
_cell_length_b   5.24895148
_cell_length_c   8.92094208
_cell_angle_alpha   89.93658171
_cell_angle_beta   89.99346625
_cell_angle_gamma   120.20524335
_symmetry_Int_Tables_number   1
_chemical_formula_structural   YbHo(OsRu)2
_chemical_formula_sum   'Yb2 Ho2 Os4 Ru4'
_cell_volume   214.19582844
_cell_formula_units_Z   2
loop_
 _symmetry_equiv_pos_site_id
 _symmetry_equiv_pos_as_xyz
  1  'x, y, z'
loop_
 _atom_site_type_symbol
 _atom_site_label
 _atom_site_symmetry_multiplicity
 _atom_site_fract_x
 _atom_site_fract_y
 _atom_site_fract_z
 _atom_site_occupancy
  Yb  Yb0  1  0.328259  0.656933  0.061159  1
  Yb  Yb1  1  0.662889  0.325080  0.940845  1
  Ho  Ho2  1  0.666713  0.332773  0.571148  1
  Ho  Ho3  1  0.332155  0.664583  0.427653  1
  Os  Os4  1  0.174722  0.348886  0.747449  1
  Os  Os5  1  0.169925  0.833963  0.750223  1
  Os  Os6  1  0.663387  0.833430  0.750171  1
  Os  Os7  1  0.843841  0.687918  0.247060  1
  Ru  Ru8  1  0.988991  0.977975  0.498331  1
  Ru  Ru9  1  0.984780  0.969688  0.000849  1
  Ru  Ru10  1  0.827276  0.184379  0.252542  1
  Ru  Ru11  1  0.357061  0.184392  0.252570  1
