# generated using pymatgen
data_Nd8ZnSi7I6
_symmetry_space_group_name_H-M   'P 1'
_cell_length_a   12.27923160
_cell_length_b   12.27923270
_cell_length_c   12.40881571
_cell_angle_alpha   82.65818697
_cell_angle_beta   82.65818599
_cell_angle_gamma   19.88569535
_symmetry_Int_Tables_number   1
_chemical_formula_structural   Nd8ZnSi7I6
_chemical_formula_sum   'Nd8 Zn1 Si7 I6'
_cell_volume   631.03072455
_cell_formula_units_Z   1
loop_
 _symmetry_equiv_pos_site_id
 _symmetry_equiv_pos_as_xyz
  1  'x, y, z'
loop_
 _atom_site_type_symbol
 _atom_site_label
 _atom_site_symmetry_multiplicity
 _atom_site_fract_x
 _atom_site_fract_y
 _atom_site_fract_z
 _atom_site_occupancy
  Nd  Nd0  1  0.498106  0.498106  0.159730  1
  Nd  Nd1  1  0.923575  0.923575  0.451802  1
  Nd  Nd2  1  0.355563  0.355563  0.024848  1
  Nd  Nd3  1  0.074130  0.074130  0.557541  1
  Nd  Nd4  1  0.645262  0.645262  0.975594  1
  Nd  Nd5  1  0.638188  0.638188  0.289193  1
  Nd  Nd6  1  0.362441  0.362441  0.707931  1
  Nd  Nd7  1  0.501500  0.501500  0.834528  1
  Zn  Zn8  1  0.523859  0.523859  0.409191  1
  Si  Si9  1  0.042174  0.042174  0.316389  1
  Si  Si10  1  0.050369  0.050369  0.984586  1
  Si  Si11  1  0.477063  0.477063  0.589916  1
  Si  Si12  1  0.903025  0.903025  0.859103  1
  Si  Si13  1  0.949548  0.949548  0.013920  1
  Si  Si14  1  0.958975  0.958975  0.678907  1
  Si  Si15  1  0.096488  0.096488  0.139824  1
  I  I16  1  0.244259  0.244259  0.870705  1
  I  I17  1  0.756573  0.756573  0.130213  1
  I  I18  1  0.799164  0.799164  0.576186  1
  I  I19  1  0.370991  0.370991  0.287962  1
  I  I20  1  0.198222  0.198222  0.425529  1
  I  I21  1  0.630521  0.630521  0.716405  1
