# generated using pymatgen
data_Sc6Zn19Ni4As
_symmetry_space_group_name_H-M   'P 1'
_cell_length_a   8.60693941
_cell_length_b   8.60694236
_cell_length_c   8.60694300
_cell_angle_alpha   59.90820207
_cell_angle_beta   59.90820609
_cell_angle_gamma   59.90823495
_symmetry_Int_Tables_number   1
_chemical_formula_structural   Sc6Zn19Ni4As
_chemical_formula_sum   'Sc6 Zn19 Ni4 As1'
_cell_volume   449.91071337
_cell_formula_units_Z   1
loop_
 _symmetry_equiv_pos_site_id
 _symmetry_equiv_pos_as_xyz
  1  'x, y, z'
loop_
 _atom_site_type_symbol
 _atom_site_label
 _atom_site_symmetry_multiplicity
 _atom_site_fract_x
 _atom_site_fract_y
 _atom_site_fract_z
 _atom_site_occupancy
  Sc  Sc0  1  0.711215  0.283205  0.283206  1
  Sc  Sc1  1  0.288785  0.716795  0.716794  1
  Sc  Sc2  1  0.283205  0.711214  0.283207  1
  Sc  Sc3  1  0.716795  0.288786  0.716793  1
  Sc  Sc4  1  0.283205  0.283206  0.711214  1
  Sc  Sc5  1  0.716795  0.716794  0.288786  1
  Zn  Zn6  1  0.119211  0.119211  0.119211  1
  Zn  Zn7  1  0.880789  0.880789  0.880789  1
  Zn  Zn8  1  0.123831  0.123831  0.637880  1
  Zn  Zn9  1  0.123832  0.637880  0.123831  1
  Zn  Zn10  1  0.876169  0.876169  0.362120  1
  Zn  Zn11  1  0.876168  0.362120  0.876169  1
  Zn  Zn12  1  0.637880  0.123832  0.123831  1
  Zn  Zn13  1  0.362120  0.876168  0.876169  1
  Zn  Zn14  1  0.500000  0.000000  0.000000  1
  Zn  Zn15  1  0.000000  0.500000  0.000000  1
  Zn  Zn16  1  0.000000  0.000000  0.500000  1
  Zn  Zn17  1  0.332683  0.332683  0.332682  1
  Zn  Zn18  1  0.667317  0.667317  0.667318  1
  Zn  Zn19  1  0.339790  0.339790  0.990794  1
  Zn  Zn20  1  0.339790  0.990795  0.339790  1
  Zn  Zn21  1  0.660210  0.660210  0.009206  1
  Zn  Zn22  1  0.660210  0.009205  0.660210  1
  Zn  Zn23  1  0.990795  0.339790  0.339790  1
  Zn  Zn24  1  0.009205  0.660210  0.660210  1
  Ni  Ni25  1  0.000000  0.500000  0.500000  1
  Ni  Ni26  1  0.500000  0.000000  0.500000  1
  Ni  Ni27  1  0.500000  0.500000  0.000000  1
  Ni  Ni28  1  0.000000  0.000000  0.000000  1
  As  As29  1  0.500000  0.500000  0.500000  1
