# generated using pymatgen
data_TbEr9CuGePb6
_symmetry_space_group_name_H-M   'P 1'
_cell_length_a   9.15145100
_cell_length_b   9.15145071
_cell_length_c   6.68007300
_cell_angle_alpha   90.00000000
_cell_angle_beta   90.00000000
_cell_angle_gamma   119.99999744
_symmetry_Int_Tables_number   1
_chemical_formula_structural   TbEr9CuGePb6
_chemical_formula_sum   'Tb1 Er9 Cu1 Ge1 Pb6'
_cell_volume   484.49773932
_cell_formula_units_Z   1
loop_
 _symmetry_equiv_pos_site_id
 _symmetry_equiv_pos_as_xyz
  1  'x, y, z'
loop_
 _atom_site_type_symbol
 _atom_site_label
 _atom_site_symmetry_multiplicity
 _atom_site_fract_x
 _atom_site_fract_y
 _atom_site_fract_z
 _atom_site_occupancy
  Tb  Tb0  1  0.333333  0.666667  0.500000  1
  Er  Er1  1  0.251001  0.000065  0.242547  1
  Er  Er2  1  0.749064  0.000065  0.757453  1
  Er  Er3  1  0.999935  0.250936  0.242547  1
  Er  Er4  1  0.999935  0.748999  0.757453  1
  Er  Er5  1  0.749064  0.748999  0.242547  1
  Er  Er6  1  0.251001  0.250936  0.757453  1
  Er  Er7  1  0.333333  0.666667  0.000000  1
  Er  Er8  1  0.666667  0.333333  0.000000  1
  Er  Er9  1  0.666667  0.333333  0.500000  1
  Cu  Cu10  1  0.000000  0.000000  0.500000  1
  Ge  Ge11  1  0.000000  0.000000  0.000000  1
  Pb  Pb12  1  0.607794  0.000186  0.249938  1
  Pb  Pb13  1  0.392392  0.000186  0.750062  1
  Pb  Pb14  1  0.999814  0.607608  0.249938  1
  Pb  Pb15  1  0.999814  0.392206  0.750062  1
  Pb  Pb16  1  0.392392  0.392206  0.249938  1
  Pb  Pb17  1  0.607794  0.607608  0.750062  1
