# generated using pymatgen
data_NdTm2Ni2Ir7
_symmetry_space_group_name_H-M   'P 1'
_cell_length_a   5.29877618
_cell_length_b   5.29877647
_cell_length_c   8.97742867
_cell_angle_alpha   72.83546388
_cell_angle_beta   72.83546083
_cell_angle_gamma   59.99999737
_symmetry_Int_Tables_number   1
_chemical_formula_structural   NdTm2Ni2Ir7
_chemical_formula_sum   'Nd1 Tm2 Ni2 Ir7'
_cell_volume   205.22446763
_cell_formula_units_Z   1
loop_
 _symmetry_equiv_pos_site_id
 _symmetry_equiv_pos_as_xyz
  1  'x, y, z'
loop_
 _atom_site_type_symbol
 _atom_site_label
 _atom_site_symmetry_multiplicity
 _atom_site_fract_x
 _atom_site_fract_y
 _atom_site_fract_z
 _atom_site_occupancy
  Nd  Nd0  1  0.000000  0.000000  0.000000  1
  Tm  Tm1  1  0.140686  0.140686  0.577945  1
  Tm  Tm2  1  0.859314  0.859314  0.422055  1
  Ni  Ni3  1  0.333555  0.333555  0.999337  1
  Ni  Ni4  1  0.666445  0.666445  0.000663  1
  Ir  Ir5  1  0.078247  0.582321  0.757112  1
  Ir  Ir6  1  0.582321  0.582321  0.757112  1
  Ir  Ir7  1  0.582321  0.078247  0.757112  1
  Ir  Ir8  1  0.921753  0.417679  0.242888  1
  Ir  Ir9  1  0.417679  0.417679  0.242888  1
  Ir  Ir10  1  0.417679  0.921753  0.242888  1
  Ir  Ir11  1  0.500000  0.500000  0.500000  1
