# generated using pymatgen
data_Cs2Ta3Cl7O5
_symmetry_space_group_name_H-M   'P 1'
_cell_length_a   9.95673036
_cell_length_b   9.95673083
_cell_length_c   11.24912144
_cell_angle_alpha   73.09649391
_cell_angle_beta   73.09649210
_cell_angle_gamma   53.52067761
_symmetry_Int_Tables_number   1
_chemical_formula_structural   Cs2Ta3Cl7O5
_chemical_formula_sum   'Cs4 Ta6 Cl14 O10'
_cell_volume   847.82439562
_cell_formula_units_Z   2
loop_
 _symmetry_equiv_pos_site_id
 _symmetry_equiv_pos_as_xyz
  1  'x, y, z'
loop_
 _atom_site_type_symbol
 _atom_site_label
 _atom_site_symmetry_multiplicity
 _atom_site_fract_x
 _atom_site_fract_y
 _atom_site_fract_z
 _atom_site_occupancy
  Cs  Cs0  1  0.752882  0.841645  0.854200  1
  Cs  Cs1  1  0.158355  0.247118  0.645800  1
  Cs  Cs2  1  0.247118  0.158355  0.145800  1
  Cs  Cs3  1  0.841645  0.752882  0.354200  1
  Ta  Ta4  1  0.215255  0.788243  0.528498  1
  Ta  Ta5  1  0.211757  0.784745  0.971502  1
  Ta  Ta6  1  0.784745  0.211757  0.471502  1
  Ta  Ta7  1  0.788243  0.215255  0.028498  1
  Ta  Ta8  1  0.459308  0.540692  0.250000  1
  Ta  Ta9  1  0.540692  0.459308  0.750000  1
  Cl  Cl10  1  0.065924  0.648395  0.612753  1
  Cl  Cl11  1  0.351605  0.934076  0.887247  1
  Cl  Cl12  1  0.934076  0.351605  0.387247  1
  Cl  Cl13  1  0.648395  0.065924  0.112753  1
  Cl  Cl14  1  0.359311  0.931176  0.463199  1
  Cl  Cl15  1  0.068824  0.640689  0.036801  1
  Cl  Cl16  1  0.640689  0.068824  0.536801  1
  Cl  Cl17  1  0.931176  0.359311  0.963199  1
  Cl  Cl18  1  0.296178  0.417701  0.323062  1
  Cl  Cl19  1  0.582299  0.703822  0.176938  1
  Cl  Cl20  1  0.703822  0.582299  0.676938  1
  Cl  Cl21  1  0.417701  0.296178  0.823062  1
  Cl  Cl22  1  0.091615  0.908385  0.750000  1
  Cl  Cl23  1  0.908385  0.091615  0.250000  1
  O  O24  1  0.293259  0.707424  0.378590  1
  O  O25  1  0.292576  0.706741  0.121410  1
  O  O26  1  0.706741  0.292576  0.621410  1
  O  O27  1  0.707424  0.293259  0.878590  1
  O  O28  1  0.394995  0.605636  0.626981  1
  O  O29  1  0.394364  0.605005  0.873019  1
  O  O30  1  0.605005  0.394364  0.373019  1
  O  O31  1  0.605636  0.394995  0.126981  1
  O  O32  1  0.000000  0.000000  0.500000  1
  O  O33  1  0.000000  0.000000  0.000000  1
