# generated using pymatgen
data_Er4TmOs2C7
_symmetry_space_group_name_H-M   'P 1'
_cell_length_a   8.10317488
_cell_length_b   8.09240189
_cell_length_c   3.48369500
_cell_angle_alpha   90.00000000
_cell_angle_beta   90.00000000
_cell_angle_gamma   121.69065800
_symmetry_Int_Tables_number   1
_chemical_formula_structural   Er4TmOs2C7
_chemical_formula_sum   'Er4 Tm1 Os2 C7'
_cell_volume   194.37914055
_cell_formula_units_Z   1
loop_
 _symmetry_equiv_pos_site_id
 _symmetry_equiv_pos_as_xyz
  1  'x, y, z'
loop_
 _atom_site_type_symbol
 _atom_site_label
 _atom_site_symmetry_multiplicity
 _atom_site_fract_x
 _atom_site_fract_y
 _atom_site_fract_z
 _atom_site_occupancy
  Er  Er0  1  0.499832  0.499923  0.000000  1
  Er  Er1  1  0.077542  0.337190  0.500000  1
  Er  Er2  1  0.922697  0.662774  0.500000  1
  Er  Er3  1  0.661587  0.922747  0.500000  1
  Tm  Tm4  1  0.339155  0.078228  0.500000  1
  Os  Os5  1  0.714040  0.286130  0.000000  1
  Os  Os6  1  0.285618  0.714247  0.000000  1
  C  C7  1  0.630413  0.369597  0.500000  1
  C  C8  1  0.369010  0.630403  0.500000  1
  C  C9  1  0.000433  0.999578  0.000000  1
  C  C10  1  0.173505  0.171384  0.000000  1
  C  C11  1  0.827422  0.827889  0.000000  1
  C  C12  1  0.999736  0.499729  0.000000  1
  C  C13  1  0.499010  0.000183  0.000000  1
