# generated using pymatgen
data_HoLu7Be3Si12Pd
_symmetry_space_group_name_H-M   'P 1'
_cell_length_a   7.88633800
_cell_length_b   7.88633882
_cell_length_c   7.85256200
_cell_angle_alpha   90.00000000
_cell_angle_beta   90.00000000
_cell_angle_gamma   119.99999655
_symmetry_Int_Tables_number   1
_chemical_formula_structural   HoLu7Be3Si12Pd
_chemical_formula_sum   'Ho1 Lu7 Be3 Si12 Pd1'
_cell_volume   422.95371038
_cell_formula_units_Z   1
loop_
 _symmetry_equiv_pos_site_id
 _symmetry_equiv_pos_as_xyz
  1  'x, y, z'
loop_
 _atom_site_type_symbol
 _atom_site_label
 _atom_site_symmetry_multiplicity
 _atom_site_fract_x
 _atom_site_fract_y
 _atom_site_fract_z
 _atom_site_occupancy
  Ho  Ho0  1  0.000000  0.000000  0.751558  1
  Lu  Lu1  1  0.501509  0.003017  0.247741  1
  Lu  Lu2  1  0.501303  0.002607  0.752073  1
  Lu  Lu3  1  0.996983  0.498491  0.247741  1
  Lu  Lu4  1  0.997393  0.498697  0.752073  1
  Lu  Lu5  1  0.501509  0.498491  0.247741  1
  Lu  Lu6  1  0.501303  0.498697  0.752073  1
  Lu  Lu7  1  0.000000  0.000000  0.248617  1
  Be  Be8  1  0.333333  0.666667  0.001594  1
  Be  Be9  1  0.666667  0.333333  0.999972  1
  Be  Be10  1  0.666667  0.333333  0.499624  1
  Si  Si11  1  0.172711  0.345420  0.000447  1
  Si  Si12  1  0.826687  0.653377  0.000392  1
  Si  Si13  1  0.654580  0.827289  0.000447  1
  Si  Si14  1  0.827430  0.654860  0.499543  1
  Si  Si15  1  0.346623  0.173313  0.000392  1
  Si  Si16  1  0.165914  0.331826  0.499077  1
  Si  Si17  1  0.172711  0.827289  0.000447  1
  Si  Si18  1  0.345140  0.172570  0.499543  1
  Si  Si19  1  0.826687  0.173313  0.000392  1
  Si  Si20  1  0.668174  0.834086  0.499077  1
  Si  Si21  1  0.827430  0.172570  0.499543  1
  Si  Si22  1  0.165914  0.834086  0.499077  1
  Pd  Pd23  1  0.333333  0.666667  0.500814  1
