# generated using pymatgen
data_DyY7(Ti3Si4)4
_symmetry_space_group_name_H-M   'P 1'
_cell_length_a   7.06329600
_cell_length_b   7.06320900
_cell_length_c   12.98323800
_cell_angle_alpha   90.00253199
_cell_angle_beta   89.99861766
_cell_angle_gamma   89.99933485
_symmetry_Int_Tables_number   1
_chemical_formula_structural   DyY7(Ti3Si4)4
_chemical_formula_sum   'Dy1 Y7 Ti12 Si16'
_cell_volume   647.72771757
_cell_formula_units_Z   1
loop_
 _symmetry_equiv_pos_site_id
 _symmetry_equiv_pos_as_xyz
  1  'x, y, z'
loop_
 _atom_site_type_symbol
 _atom_site_label
 _atom_site_symmetry_multiplicity
 _atom_site_fract_x
 _atom_site_fract_y
 _atom_site_fract_z
 _atom_site_occupancy
  Dy  Dy0  1  0.340263  0.002522  0.466573  1
  Y  Y1  1  0.997433  0.659743  0.033394  1
  Y  Y2  1  0.002596  0.340211  0.533388  1
  Y  Y3  1  0.659748  0.997433  0.966602  1
  Y  Y4  1  0.159766  0.502579  0.783417  1
  Y  Y5  1  0.840229  0.497421  0.283413  1
  Y  Y6  1  0.502586  0.159758  0.216602  1
  Y  Y7  1  0.497412  0.840233  0.716577  1
  Ti  Ti8  1  0.347825  0.508451  0.373448  1
  Ti  Ti9  1  0.847731  0.991516  0.376573  1
  Ti  Ti10  1  0.008458  0.152249  0.123422  1
  Ti  Ti11  1  0.991563  0.847759  0.623405  1
  Ti  Ti12  1  0.508448  0.347786  0.626530  1
  Ti  Ti13  1  0.152255  0.008476  0.876578  1
  Ti  Ti14  1  0.672884  0.672968  0.499991  1
  Ti  Ti15  1  0.827126  0.172890  0.750006  1
  Ti  Ti16  1  0.172898  0.827149  0.250033  1
  Ti  Ti17  1  0.327087  0.327090  0.999998  1
  Ti  Ti18  1  0.491558  0.652169  0.126533  1
  Ti  Ti19  1  0.652186  0.491555  0.873459  1
  Si  Si20  1  0.046937  0.709293  0.435090  1
  Si  Si21  1  0.953089  0.290780  0.935085  1
  Si  Si22  1  0.709169  0.046882  0.564896  1
  Si  Si23  1  0.209202  0.453022  0.185042  1
  Si  Si24  1  0.790799  0.546997  0.685051  1
  Si  Si25  1  0.453013  0.209208  0.814961  1
  Si  Si26  1  0.546944  0.790867  0.315002  1
  Si  Si27  1  0.290772  0.953096  0.064917  1
  Si  Si28  1  0.797555  0.869907  0.184802  1
  Si  Si29  1  0.297590  0.630195  0.565193  1
  Si  Si30  1  0.702422  0.369889  0.065203  1
  Si  Si31  1  0.630067  0.297509  0.434796  1
  Si  Si32  1  0.369889  0.702417  0.934792  1
  Si  Si33  1  0.130146  0.202383  0.315239  1
  Si  Si34  1  0.202449  0.130055  0.684782  1
  Si  Si35  1  0.869903  0.797541  0.815207  1
