# generated using pymatgen
data_Tb3Y(Co5P3)4
_symmetry_space_group_name_H-M   'P 1'
_cell_length_a   3.65441300
_cell_length_b   10.28906901
_cell_length_c   11.74576101
_cell_angle_alpha   89.99625580
_cell_angle_beta   90.00000000
_cell_angle_gamma   90.00000000
_symmetry_Int_Tables_number   1
_chemical_formula_structural   Tb3Y(Co5P3)4
_chemical_formula_sum   'Tb3 Y1 Co20 P12'
_cell_volume   441.64657424
_cell_formula_units_Z   1
loop_
 _symmetry_equiv_pos_site_id
 _symmetry_equiv_pos_as_xyz
  1  'x, y, z'
loop_
 _atom_site_type_symbol
 _atom_site_label
 _atom_site_symmetry_multiplicity
 _atom_site_fract_x
 _atom_site_fract_y
 _atom_site_fract_z
 _atom_site_occupancy
  Tb  Tb0  1  0.250000  0.917033  0.202588  1
  Tb  Tb1  1  0.750000  0.416971  0.297396  1
  Tb  Tb2  1  0.750000  0.083015  0.797394  1
  Y  Y3  1  0.250000  0.583024  0.702567  1
  Co  Co4  1  0.250000  0.715962  0.991288  1
  Co  Co5  1  0.250000  0.784144  0.491106  1
  Co  Co6  1  0.750000  0.284119  0.008885  1
  Co  Co7  1  0.750000  0.215879  0.508990  1
  Co  Co8  1  0.250000  0.406658  0.488453  1
  Co  Co9  1  0.250000  0.093423  0.988388  1
  Co  Co10  1  0.750000  0.593407  0.511710  1
  Co  Co11  1  0.750000  0.906643  0.011585  1
  Co  Co12  1  0.250000  0.221225  0.176500  1
  Co  Co13  1  0.250000  0.278820  0.676501  1
  Co  Co14  1  0.750000  0.778621  0.823476  1
  Co  Co15  1  0.750000  0.721202  0.323549  1
  Co  Co16  1  0.250000  0.882466  0.698359  1
  Co  Co17  1  0.250000  0.617385  0.198331  1
  Co  Co18  1  0.750000  0.117447  0.301722  1
  Co  Co19  1  0.750000  0.382708  0.801579  1
  Co  Co20  1  0.250000  0.467984  0.931738  1
  Co  Co21  1  0.250000  0.032105  0.431971  1
  Co  Co22  1  0.750000  0.532144  0.067937  1
  Co  Co23  1  0.750000  0.967738  0.568103  1
  P  P24  1  0.250000  0.418523  0.111591  1
  P  P25  1  0.250000  0.081444  0.611729  1
  P  P26  1  0.750000  0.581445  0.888074  1
  P  P27  1  0.750000  0.918534  0.388291  1
  P  P28  1  0.250000  0.271368  0.870384  1
  P  P29  1  0.250000  0.228658  0.370408  1
  P  P30  1  0.750000  0.728629  0.129657  1
  P  P31  1  0.750000  0.771059  0.629690  1
  P  P32  1  0.250000  0.602356  0.391557  1
  P  P33  1  0.250000  0.897637  0.891602  1
  P  P34  1  0.750000  0.397811  0.608453  1
  P  P35  1  0.750000  0.102410  0.108447  1
