# generated using pymatgen
data_Tb2CrFeO6
_symmetry_space_group_name_H-M   'P 1'
_cell_length_a   5.34157899
_cell_length_b   5.63202000
_cell_length_c   7.69929600
_cell_angle_alpha   89.99991041
_cell_angle_beta   90.06212039
_cell_angle_gamma   90.00066094
_symmetry_Int_Tables_number   1
_chemical_formula_structural   Tb2CrFeO6
_chemical_formula_sum   'Tb4 Cr2 Fe2 O12'
_cell_volume   231.62455870
_cell_formula_units_Z   2
loop_
 _symmetry_equiv_pos_site_id
 _symmetry_equiv_pos_as_xyz
  1  'x, y, z'
loop_
 _atom_site_type_symbol
 _atom_site_label
 _atom_site_symmetry_multiplicity
 _atom_site_fract_x
 _atom_site_fract_y
 _atom_site_fract_z
 _atom_site_occupancy
  Tb  Tb0  1  0.518539  0.566540  0.250024  1
  Tb  Tb1  1  0.981512  0.066665  0.249931  1
  Tb  Tb2  1  0.481427  0.433340  0.749989  1
  Tb  Tb3  1  0.018623  0.933462  0.749967  1
  Cr  Cr4  1  0.000061  0.500234  0.500097  1
  Cr  Cr5  1  0.500051  0.999878  0.999938  1
  Fe  Fe6  1  0.999889  0.500169  0.999889  1
  Fe  Fe7  1  0.500120  0.999970  0.500163  1
  O  O8  1  0.389262  0.960845  0.249519  1
  O  O9  1  0.110668  0.461012  0.250481  1
  O  O10  1  0.610698  0.038948  0.750520  1
  O  O11  1  0.889234  0.539105  0.749475  1
  O  O12  1  0.805054  0.802672  0.057312  1
  O  O13  1  0.694913  0.302787  0.442734  1
  O  O14  1  0.194793  0.197118  0.942689  1
  O  O15  1  0.305169  0.697246  0.557361  1
  O  O16  1  0.193874  0.198036  0.556986  1
  O  O17  1  0.306126  0.697921  0.942964  1
  O  O18  1  0.806211  0.802082  0.443034  1
  O  O19  1  0.693776  0.301969  0.056927  1
