# generated using pymatgen
data_Dy(AgO2)2
_symmetry_space_group_name_H-M   'P 1'
_cell_length_a   6.61745434
_cell_length_b   6.61745380
_cell_length_c   6.61745391
_cell_angle_alpha   126.19479281
_cell_angle_beta   126.19478384
_cell_angle_gamma   79.56822625
_symmetry_Int_Tables_number   1
_chemical_formula_structural   Dy(AgO2)2
_chemical_formula_sum   'Dy2 Ag4 O8'
_cell_volume   182.36618059
_cell_formula_units_Z   2
loop_
 _symmetry_equiv_pos_site_id
 _symmetry_equiv_pos_as_xyz
  1  'x, y, z'
loop_
 _atom_site_type_symbol
 _atom_site_label
 _atom_site_symmetry_multiplicity
 _atom_site_fract_x
 _atom_site_fract_y
 _atom_site_fract_z
 _atom_site_occupancy
  Dy  Dy0  1  0.750000  0.250000  0.500000  1
  Dy  Dy1  1  0.000000  0.000000  0.000000  1
  Ag  Ag2  1  0.375000  0.125000  0.750000  1
  Ag  Ag3  1  0.375000  0.625000  0.250000  1
  Ag  Ag4  1  0.875000  0.625000  0.250000  1
  Ag  Ag5  1  0.375000  0.625000  0.750000  1
  O  O6  1  0.034601  0.011487  0.659423  1
  O  O7  1  0.624822  0.965399  0.976886  1
  O  O8  1  0.988513  0.647936  0.023114  1
  O  O9  1  0.397936  0.874822  0.159423  1
  O  O10  1  0.761487  0.602064  0.476886  1
  O  O11  1  0.125178  0.284601  0.523114  1
  O  O12  1  0.352064  0.375178  0.340577  1
  O  O13  1  0.715399  0.238513  0.840577  1
