# generated using pymatgen
data_Zr4TiBeBi3
_symmetry_space_group_name_H-M   'P 1'
_cell_length_a   8.68933200
_cell_length_b   8.68933128
_cell_length_c   5.83495900
_cell_angle_alpha   90.00000000
_cell_angle_beta   90.00000000
_cell_angle_gamma   119.99999513
_symmetry_Int_Tables_number   1
_chemical_formula_structural   Zr4TiBeBi3
_chemical_formula_sum   'Zr8 Ti2 Be2 Bi6'
_cell_volume   381.54099482
_cell_formula_units_Z   2
loop_
 _symmetry_equiv_pos_site_id
 _symmetry_equiv_pos_as_xyz
  1  'x, y, z'
loop_
 _atom_site_type_symbol
 _atom_site_label
 _atom_site_symmetry_multiplicity
 _atom_site_fract_x
 _atom_site_fract_y
 _atom_site_fract_z
 _atom_site_occupancy
  Zr  Zr0  1  0.753245  0.000000  0.247881  1
  Zr  Zr1  1  0.000000  0.753245  0.247881  1
  Zr  Zr2  1  0.246755  0.246755  0.247881  1
  Zr  Zr3  1  0.246755  0.000000  0.752119  1
  Zr  Zr4  1  0.000000  0.246755  0.752119  1
  Zr  Zr5  1  0.753245  0.753245  0.752119  1
  Zr  Zr6  1  0.666667  0.333333  0.000000  1
  Zr  Zr7  1  0.333333  0.666667  0.000000  1
  Ti  Ti8  1  0.333333  0.666667  0.500000  1
  Ti  Ti9  1  0.666667  0.333333  0.500000  1
  Be  Be10  1  0.000000  0.000000  0.500000  1
  Be  Be11  1  0.000000  0.000000  0.000000  1
  Bi  Bi12  1  0.393601  0.000000  0.257092  1
  Bi  Bi13  1  0.000000  0.393601  0.257092  1
  Bi  Bi14  1  0.606399  0.606399  0.257092  1
  Bi  Bi15  1  0.606399  0.000000  0.742908  1
  Bi  Bi16  1  0.000000  0.606399  0.742908  1
  Bi  Bi17  1  0.393601  0.393601  0.742908  1
