# generated using pymatgen
data_Ac2Yb5Ni4Sn13
_symmetry_space_group_name_H-M   'P 1'
_cell_length_a   11.34000700
_cell_length_b   11.34000700
_cell_length_c   4.60949900
_cell_angle_alpha   90.00000000
_cell_angle_beta   90.00000000
_cell_angle_gamma   90.00000000
_symmetry_Int_Tables_number   1
_chemical_formula_structural   Ac2Yb5Ni4Sn13
_chemical_formula_sum   'Ac2 Yb5 Ni4 Sn13'
_cell_volume   592.76202141
_cell_formula_units_Z   1
loop_
 _symmetry_equiv_pos_site_id
 _symmetry_equiv_pos_as_xyz
  1  'x, y, z'
loop_
 _atom_site_type_symbol
 _atom_site_label
 _atom_site_symmetry_multiplicity
 _atom_site_fract_x
 _atom_site_fract_y
 _atom_site_fract_z
 _atom_site_occupancy
  Ac  Ac0  1  0.500000  0.000000  0.500000  1
  Ac  Ac1  1  0.000000  0.500000  0.500000  1
  Yb  Yb2  1  0.000000  0.000000  0.000000  1
  Yb  Yb3  1  0.336163  0.672307  0.500000  1
  Yb  Yb4  1  0.663837  0.327693  0.500000  1
  Yb  Yb5  1  0.327693  0.336163  0.500000  1
  Yb  Yb6  1  0.672307  0.663837  0.500000  1
  Ni  Ni7  1  0.121277  0.722919  0.000000  1
  Ni  Ni8  1  0.878723  0.277081  0.000000  1
  Ni  Ni9  1  0.277081  0.121277  0.000000  1
  Ni  Ni10  1  0.722919  0.878723  0.000000  1
  Sn  Sn11  1  0.282883  0.888196  0.000000  1
  Sn  Sn12  1  0.717117  0.111804  0.000000  1
  Sn  Sn13  1  0.111804  0.282883  0.000000  1
  Sn  Sn14  1  0.888196  0.717117  0.000000  1
  Sn  Sn15  1  0.077014  0.812070  0.500000  1
  Sn  Sn16  1  0.922986  0.187930  0.500000  1
  Sn  Sn17  1  0.187930  0.077014  0.500000  1
  Sn  Sn18  1  0.812070  0.922986  0.500000  1
  Sn  Sn19  1  0.518528  0.776516  0.000000  1
  Sn  Sn20  1  0.481472  0.223484  0.000000  1
  Sn  Sn21  1  0.223484  0.518528  0.000000  1
  Sn  Sn22  1  0.776516  0.481472  0.000000  1
  Sn  Sn23  1  0.500000  0.500000  0.000000  1
