# generated using pymatgen
data_Dy3Tm5Tc(B8Rh)3
_symmetry_space_group_name_H-M   'P 1'
_cell_length_a   3.65064100
_cell_length_b   9.11902217
_cell_length_c   11.47771328
_cell_angle_alpha   90.14871600
_cell_angle_beta   90.00000000
_cell_angle_gamma   90.00000000
_symmetry_Int_Tables_number   1
_chemical_formula_structural   Dy3Tm5Tc(B8Rh)3
_chemical_formula_sum   'Dy3 Tm5 Tc1 B24 Rh3'
_cell_volume   382.09495830
_cell_formula_units_Z   1
loop_
 _symmetry_equiv_pos_site_id
 _symmetry_equiv_pos_as_xyz
  1  'x, y, z'
loop_
 _atom_site_type_symbol
 _atom_site_label
 _atom_site_symmetry_multiplicity
 _atom_site_fract_x
 _atom_site_fract_y
 _atom_site_fract_z
 _atom_site_occupancy
  Dy  Dy0  1  0.500000  0.318547  0.410548  1
  Dy  Dy1  1  0.500000  0.677738  0.585750  1
  Dy  Dy2  1  0.500000  0.178542  0.917372  1
  Tm  Tm3  1  0.500000  0.824745  0.087031  1
  Tm  Tm4  1  0.500000  0.442976  0.126161  1
  Tm  Tm5  1  0.500000  0.556851  0.872762  1
  Tm  Tm6  1  0.500000  0.056113  0.628018  1
  Tm  Tm7  1  0.500000  0.945902  0.372472  1
  Tc  Tc8  1  0.500000  0.138012  0.179213  1
  B  B9  1  0.000000  0.105584  0.472130  1
  B  B10  1  0.000000  0.893362  0.529526  1
  B  B11  1  0.000000  0.394454  0.970091  1
  B  B12  1  0.000000  0.608927  0.029056  1
  B  B13  1  0.000000  0.131276  0.315006  1
  B  B14  1  0.000000  0.867463  0.683835  1
  B  B15  1  0.000000  0.369002  0.816481  1
  B  B16  1  0.000000  0.632792  0.182880  1
  B  B17  1  0.000000  0.053285  0.066900  1
  B  B18  1  0.000000  0.945701  0.934252  1
  B  B19  1  0.000000  0.444699  0.565655  1
  B  B20  1  0.000000  0.553526  0.433308  1
  B  B21  1  0.000000  0.483343  0.285996  1
  B  B22  1  0.000000  0.517324  0.713198  1
  B  B23  1  0.000000  0.017237  0.787173  1
  B  B24  1  0.000000  0.982480  0.213318  1
  B  B25  1  0.000000  0.249303  0.080641  1
  B  B26  1  0.000000  0.750830  0.920913  1
  B  B27  1  0.000000  0.249274  0.579401  1
  B  B28  1  0.000000  0.749875  0.420280  1
  B  B29  1  0.000000  0.292768  0.234271  1
  B  B30  1  0.000000  0.706219  0.764400  1
  B  B31  1  0.000000  0.207209  0.735680  1
  B  B32  1  0.000000  0.793073  0.265010  1
  Rh  Rh33  1  0.500000  0.861433  0.821429  1
  Rh  Rh34  1  0.500000  0.360721  0.679548  1
  Rh  Rh35  1  0.500000  0.639415  0.320295  1
