# generated using pymatgen
data_Pr6DyFeBr12
_symmetry_space_group_name_H-M   'P 1'
_cell_length_a   9.56537704
_cell_length_b   9.56537592
_cell_length_c   9.56537705
_cell_angle_alpha   107.13184151
_cell_angle_beta   107.13183588
_cell_angle_gamma   107.13183616
_symmetry_Int_Tables_number   1
_chemical_formula_structural   Pr6DyFeBr12
_chemical_formula_sum   'Pr6 Dy1 Fe1 Br12'
_cell_volume   726.23587065
_cell_formula_units_Z   1
loop_
 _symmetry_equiv_pos_site_id
 _symmetry_equiv_pos_as_xyz
  1  'x, y, z'
loop_
 _atom_site_type_symbol
 _atom_site_label
 _atom_site_symmetry_multiplicity
 _atom_site_fract_x
 _atom_site_fract_y
 _atom_site_fract_z
 _atom_site_occupancy
  Pr  Pr0  1  0.976299  0.900200  0.691668  1
  Pr  Pr1  1  0.023701  0.099800  0.308332  1
  Pr  Pr2  1  0.099800  0.308332  0.023701  1
  Pr  Pr3  1  0.308332  0.023701  0.099800  1
  Pr  Pr4  1  0.900200  0.691668  0.976299  1
  Pr  Pr5  1  0.691668  0.976299  0.900200  1
  Dy  Dy6  1  0.500000  0.500000  0.500000  1
  Fe  Fe7  1  0.000000  0.000000  0.000000  1
  Br  Br8  1  0.533612  0.608692  0.821075  1
  Br  Br9  1  0.466388  0.391308  0.178925  1
  Br  Br10  1  0.315229  0.927172  0.774925  1
  Br  Br11  1  0.391308  0.178925  0.466388  1
  Br  Br12  1  0.927172  0.774925  0.315229  1
  Br  Br13  1  0.684771  0.072828  0.225075  1
  Br  Br14  1  0.072828  0.225075  0.684771  1
  Br  Br15  1  0.774925  0.315229  0.927172  1
  Br  Br16  1  0.225075  0.684771  0.072828  1
  Br  Br17  1  0.821075  0.533612  0.608692  1
  Br  Br18  1  0.178925  0.466388  0.391308  1
  Br  Br19  1  0.608692  0.821075  0.533612  1
