# generated using pymatgen
data_Li4Ce3Pb4
_symmetry_space_group_name_H-M   'P 1'
_cell_length_a   4.80412524
_cell_length_b   7.35469936
_cell_length_c   8.96520743
_cell_angle_alpha   114.21614735
_cell_angle_beta   105.54122859
_cell_angle_gamma   90.00000353
_symmetry_Int_Tables_number   1
_chemical_formula_structural   Li4Ce3Pb4
_chemical_formula_sum   'Li4 Ce3 Pb4'
_cell_volume   276.14447047
_cell_formula_units_Z   1
loop_
 _symmetry_equiv_pos_site_id
 _symmetry_equiv_pos_as_xyz
  1  'x, y, z'
loop_
 _atom_site_type_symbol
 _atom_site_label
 _atom_site_symmetry_multiplicity
 _atom_site_fract_x
 _atom_site_fract_y
 _atom_site_fract_z
 _atom_site_occupancy
  Li  Li0  1  0.672544  0.982311  0.345088  1
  Li  Li1  1  0.327456  0.017689  0.654912  1
  Li  Li2  1  0.327456  0.637224  0.654912  1
  Li  Li3  1  0.672544  0.362776  0.345088  1
  Ce  Ce4  1  0.000000  0.000000  0.000000  1
  Ce  Ce5  1  0.129005  0.629005  0.258010  1
  Ce  Ce6  1  0.870995  0.370995  0.741990  1
  Pb  Pb7  1  0.500000  0.704723  0.000000  1
  Pb  Pb8  1  0.500000  0.295277  0.000000  1
  Pb  Pb9  1  0.786392  0.786392  0.572784  1
  Pb  Pb10  1  0.213608  0.213608  0.427216  1
