# generated using pymatgen
data_Li4NdEr3Si8
_symmetry_space_group_name_H-M   'P 1'
_cell_length_a   3.79672400
_cell_length_b   7.60476148
_cell_length_c   10.19149174
_cell_angle_alpha   89.89551340
_cell_angle_beta   90.00000000
_cell_angle_gamma   90.00000000
_symmetry_Int_Tables_number   1
_chemical_formula_structural   Li4NdEr3Si8
_chemical_formula_sum   'Li4 Nd1 Er3 Si8'
_cell_volume   294.26029056
_cell_formula_units_Z   1
loop_
 _symmetry_equiv_pos_site_id
 _symmetry_equiv_pos_as_xyz
  1  'x, y, z'
loop_
 _atom_site_type_symbol
 _atom_site_label
 _atom_site_symmetry_multiplicity
 _atom_site_fract_x
 _atom_site_fract_y
 _atom_site_fract_z
 _atom_site_occupancy
  Li  Li0  1  0.250000  0.993863  0.391877  1
  Li  Li1  1  0.750000  0.010592  0.610283  1
  Li  Li2  1  0.250000  0.488702  0.107053  1
  Li  Li3  1  0.750000  0.510628  0.893326  1
  Nd  Nd4  1  0.750000  0.359169  0.363775  1
  Er  Er5  1  0.250000  0.134732  0.863204  1
  Er  Er6  1  0.750000  0.861475  0.135057  1
  Er  Er7  1  0.250000  0.638948  0.636788  1
  Si  Si8  1  0.750000  0.261962  0.061862  1
  Si  Si9  1  0.250000  0.732563  0.932446  1
  Si  Si10  1  0.750000  0.773340  0.432479  1
  Si  Si11  1  0.250000  0.231040  0.574616  1
  Si  Si12  1  0.750000  0.842305  0.819648  1
  Si  Si13  1  0.250000  0.152082  0.174209  1
  Si  Si14  1  0.750000  0.344048  0.684226  1
  Si  Si15  1  0.250000  0.664547  0.319153  1
