# generated using pymatgen
data_Ce3Th(HgPd2)2
_symmetry_space_group_name_H-M   'P 1'
_cell_length_a   7.86159755
_cell_length_b   7.86159755
_cell_length_c   3.81677500
_cell_angle_alpha   90.00000000
_cell_angle_beta   90.00000000
_cell_angle_gamma   89.64115001
_symmetry_Int_Tables_number   1
_chemical_formula_structural   Ce3Th(HgPd2)2
_chemical_formula_sum   'Ce3 Th1 Hg2 Pd4'
_cell_volume   235.89006827
_cell_formula_units_Z   1
loop_
 _symmetry_equiv_pos_site_id
 _symmetry_equiv_pos_as_xyz
  1  'x, y, z'
loop_
 _atom_site_type_symbol
 _atom_site_label
 _atom_site_symmetry_multiplicity
 _atom_site_fract_x
 _atom_site_fract_y
 _atom_site_fract_z
 _atom_site_occupancy
  Ce  Ce0  1  0.824609  0.325868  0.500001  1
  Ce  Ce1  1  0.174133  0.675392  0.500001  1
  Ce  Ce2  1  0.676062  0.823939  0.500001  1
  Th  Th3  1  0.325974  0.174027  0.500001  1
  Hg  Hg4  1  0.998328  0.999067  0.000000  1
  Hg  Hg5  1  0.500933  0.501672  0.000000  1
  Pd  Pd6  1  0.626694  0.127946  0.000000  1
  Pd  Pd7  1  0.128085  0.371915  0.000000  1
  Pd  Pd8  1  0.873130  0.626870  0.000000  1
  Pd  Pd9  1  0.372054  0.873306  0.000000  1
