# generated using pymatgen
data_La8AlZn7Ir7Au
_symmetry_space_group_name_H-M   'P 1'
_cell_length_a   4.10365800
_cell_length_b   7.49329634
_cell_length_c   16.73154115
_cell_angle_alpha   89.55991278
_cell_angle_beta   90.00000000
_cell_angle_gamma   90.00000000
_symmetry_Int_Tables_number   1
_chemical_formula_structural   La8AlZn7Ir7Au
_chemical_formula_sum   'La8 Al1 Zn7 Ir7 Au1'
_cell_volume   514.47846681
_cell_formula_units_Z   1
loop_
 _symmetry_equiv_pos_site_id
 _symmetry_equiv_pos_as_xyz
  1  'x, y, z'
loop_
 _atom_site_type_symbol
 _atom_site_label
 _atom_site_symmetry_multiplicity
 _atom_site_fract_x
 _atom_site_fract_y
 _atom_site_fract_z
 _atom_site_occupancy
  La  La0  1  0.750000  0.326295  0.438358  1
  La  La1  1  0.250000  0.064792  0.718860  1
  La  La2  1  0.250000  0.537795  0.788890  1
  La  La3  1  0.250000  0.664716  0.551500  1
  La  La4  1  0.750000  0.825543  0.058772  1
  La  La5  1  0.250000  0.169124  0.941976  1
  La  La6  1  0.750000  0.459453  0.218770  1
  La  La7  1  0.750000  0.951883  0.283521  1
  Al  Al8  1  0.250000  0.129706  0.149712  1
  Zn  Zn9  1  0.250000  0.000973  0.439513  1
  Zn  Zn10  1  0.750000  0.875608  0.854289  1
  Zn  Zn11  1  0.750000  0.004634  0.557975  1
  Zn  Zn12  1  0.250000  0.497047  0.061070  1
  Zn  Zn13  1  0.750000  0.366540  0.648028  1
  Zn  Zn14  1  0.750000  0.497585  0.941936  1
  Zn  Zn15  1  0.250000  0.626401  0.352207  1
  Ir  Ir16  1  0.750000  0.251162  0.814880  1
  Ir  Ir17  1  0.250000  0.243399  0.306177  1
  Ir  Ir18  1  0.250000  0.734752  0.933125  1
  Ir  Ir19  1  0.250000  0.240358  0.564505  1
  Ir  Ir20  1  0.250000  0.765559  0.181938  1
  Ir  Ir21  1  0.750000  0.758531  0.435839  1
  Ir  Ir22  1  0.750000  0.251816  0.071381  1
  Au  Au23  1  0.750000  0.756331  0.686772  1
