# generated using pymatgen
data_CeHo5BiO12
_symmetry_space_group_name_H-M   'P 1'
_cell_length_a   6.52711395
_cell_length_b   6.56414330
_cell_length_c   6.56730476
_cell_angle_alpha   99.17809224
_cell_angle_beta   99.09454130
_cell_angle_gamma   98.89229235
_symmetry_Int_Tables_number   1
_chemical_formula_structural   CeHo5BiO12
_chemical_formula_sum   'Ce1 Ho5 Bi1 O12'
_cell_volume   269.57569914
_cell_formula_units_Z   1
loop_
 _symmetry_equiv_pos_site_id
 _symmetry_equiv_pos_as_xyz
  1  'x, y, z'
loop_
 _atom_site_type_symbol
 _atom_site_label
 _atom_site_symmetry_multiplicity
 _atom_site_fract_x
 _atom_site_fract_y
 _atom_site_fract_z
 _atom_site_occupancy
  Ce  Ce0  1  0.143043  0.314202  0.604925  1
  Ho  Ho1  1  0.393953  0.857393  0.687392  1
  Ho  Ho2  1  0.690505  0.392048  0.864539  1
  Ho  Ho3  1  0.315370  0.611212  0.144405  1
  Ho  Ho4  1  0.607424  0.140297  0.306719  1
  Ho  Ho5  1  0.853716  0.688487  0.388559  1
  Bi  Bi6  1  0.999762  0.996760  0.996589  1
  O  O7  1  0.072031  0.316184  0.953236  1
  O  O8  1  0.052224  0.924734  0.682153  1
  O  O9  1  0.412298  0.568797  0.821484  1
  O  O10  1  0.177652  0.585080  0.431280  1
  O  O11  1  0.683275  0.050787  0.927425  1
  O  O12  1  0.428325  0.181788  0.586798  1
  O  O13  1  0.567851  0.824406  0.414861  1
  O  O14  1  0.316503  0.949530  0.073450  1
  O  O15  1  0.825903  0.412145  0.571097  1
  O  O16  1  0.586869  0.431041  0.179294  1
  O  O17  1  0.946958  0.071402  0.314567  1
  O  O18  1  0.926338  0.683708  0.051227  1
