# generated using pymatgen
data_Hf18ZnRe7MoSe
_symmetry_space_group_name_H-M   'P 1'
_cell_length_a   8.64419500
_cell_length_b   8.64419462
_cell_length_c   8.62902300
_cell_angle_alpha   90.00000000
_cell_angle_beta   90.00000000
_cell_angle_gamma   120.00302428
_symmetry_Int_Tables_number   1
_chemical_formula_structural   Hf18ZnRe7MoSe
_chemical_formula_sum   'Hf18 Zn1 Re7 Mo1 Se1'
_cell_volume   558.37776287
_cell_formula_units_Z   1
loop_
 _symmetry_equiv_pos_site_id
 _symmetry_equiv_pos_as_xyz
  1  'x, y, z'
loop_
 _atom_site_type_symbol
 _atom_site_label
 _atom_site_symmetry_multiplicity
 _atom_site_fract_x
 _atom_site_fract_y
 _atom_site_fract_z
 _atom_site_occupancy
  Hf  Hf0  1  0.193355  0.806645  0.448110  1
  Hf  Hf1  1  0.193295  0.386426  0.448515  1
  Hf  Hf2  1  0.613574  0.806705  0.448515  1
  Hf  Hf3  1  0.807603  0.192397  0.548274  1
  Hf  Hf4  1  0.807257  0.615026  0.548090  1
  Hf  Hf5  1  0.384974  0.192743  0.548090  1
  Hf  Hf6  1  0.807603  0.192397  0.951726  1
  Hf  Hf7  1  0.807257  0.615026  0.951910  1
  Hf  Hf8  1  0.384974  0.192743  0.951910  1
  Hf  Hf9  1  0.193355  0.806645  0.051890  1
  Hf  Hf10  1  0.193295  0.386426  0.051485  1
  Hf  Hf11  1  0.613574  0.806705  0.051485  1
  Hf  Hf12  1  0.541703  0.458297  0.250000  1
  Hf  Hf13  1  0.541857  0.083464  0.250000  1
  Hf  Hf14  1  0.916536  0.458143  0.250000  1
  Hf  Hf15  1  0.454940  0.545060  0.750000  1
  Hf  Hf16  1  0.455221  0.909798  0.750000  1
  Hf  Hf17  1  0.090202  0.544779  0.750000  1
  Zn  Zn18  1  0.333352  0.666648  0.250000  1
  Re  Re19  1  0.890047  0.109953  0.250000  1
  Re  Re20  1  0.889845  0.779925  0.250000  1
  Re  Re21  1  0.220075  0.110155  0.250000  1
  Re  Re22  1  0.110424  0.220546  0.750000  1
  Re  Re23  1  0.779454  0.889576  0.750000  1
  Re  Re24  1  0.999868  0.000132  0.500276  1
  Re  Re25  1  0.999868  0.000132  0.999724  1
  Mo  Mo26  1  0.109761  0.890239  0.750000  1
  Se  Se27  1  0.666733  0.333267  0.750000  1
