# generated using pymatgen
data_Li8Y7TmSn7Bi
_symmetry_space_group_name_H-M   'P 1'
_cell_length_a   9.41986552
_cell_length_b   9.41986630
_cell_length_c   7.26792501
_cell_angle_alpha   90.07974122
_cell_angle_beta   89.92025903
_cell_angle_gamma   119.98261404
_symmetry_Int_Tables_number   1
_chemical_formula_structural   Li8Y7TmSn7Bi
_chemical_formula_sum   'Li8 Y7 Tm1 Sn7 Bi1'
_cell_volume   558.60653011
_cell_formula_units_Z   1
loop_
 _symmetry_equiv_pos_site_id
 _symmetry_equiv_pos_as_xyz
  1  'x, y, z'
loop_
 _atom_site_type_symbol
 _atom_site_label
 _atom_site_symmetry_multiplicity
 _atom_site_fract_x
 _atom_site_fract_y
 _atom_site_fract_z
 _atom_site_occupancy
  Li  Li0  1  0.829325  0.664508  0.711439  1
  Li  Li1  1  0.833293  0.166707  0.713389  1
  Li  Li2  1  0.335226  0.664774  0.821890  1
  Li  Li3  1  0.666246  0.333754  0.321267  1
  Li  Li4  1  0.666003  0.832585  0.213301  1
  Li  Li5  1  0.167415  0.333997  0.213301  1
  Li  Li6  1  0.166739  0.833261  0.215199  1
  Li  Li7  1  0.335492  0.170675  0.711439  1
  Y  Y8  1  0.997432  0.002568  0.003598  1
  Y  Y9  1  0.998038  0.001962  0.498693  1
  Y  Y10  1  0.511335  0.488665  0.006420  1
  Y  Y11  1  0.019731  0.506487  0.503719  1
  Y  Y12  1  0.493513  0.980269  0.503719  1
  Y  Y13  1  0.516059  0.024518  0.008924  1
  Y  Y14  1  0.975482  0.483941  0.008924  1
  Tm  Tm15  1  0.488611  0.511389  0.505725  1
  Sn  Sn16  1  0.666625  0.333375  0.739698  1
  Sn  Sn17  1  0.333238  0.666762  0.241331  1
  Sn  Sn18  1  0.833345  0.166655  0.269280  1
  Sn  Sn19  1  0.166879  0.333589  0.769082  1
  Sn  Sn20  1  0.333541  0.166701  0.270278  1
  Sn  Sn21  1  0.833299  0.666459  0.270278  1
  Sn  Sn22  1  0.666411  0.833121  0.769082  1
  Bi  Bi23  1  0.166719  0.833281  0.768025  1
