# generated using pymatgen
data_Ce2Ho3CoSb2
_symmetry_space_group_name_H-M   'P 1'
_cell_length_a   7.83803500
_cell_length_b   8.85944500
_cell_length_c   12.02273500
_cell_angle_alpha   90.00000000
_cell_angle_beta   90.00000000
_cell_angle_gamma   90.00000000
_symmetry_Int_Tables_number   1
_chemical_formula_structural   Ce2Ho3CoSb2
_chemical_formula_sum   'Ce8 Ho12 Co4 Sb8'
_cell_volume   834.86641284
_cell_formula_units_Z   4
loop_
 _symmetry_equiv_pos_site_id
 _symmetry_equiv_pos_as_xyz
  1  'x, y, z'
loop_
 _atom_site_type_symbol
 _atom_site_label
 _atom_site_symmetry_multiplicity
 _atom_site_fract_x
 _atom_site_fract_y
 _atom_site_fract_z
 _atom_site_occupancy
  Ce  Ce0  1  0.841961  0.982507  0.052864  1
  Ce  Ce1  1  0.341961  0.017493  0.447136  1
  Ce  Ce2  1  0.158039  0.482507  0.947136  1
  Ce  Ce3  1  0.658039  0.517493  0.552864  1
  Ce  Ce4  1  0.158039  0.017493  0.947136  1
  Ce  Ce5  1  0.658039  0.982507  0.552864  1
  Ce  Ce6  1  0.841961  0.517493  0.052864  1
  Ce  Ce7  1  0.341961  0.482507  0.447136  1
  Ho  Ho8  1  0.166700  0.750000  0.212402  1
  Ho  Ho9  1  0.666700  0.250000  0.287598  1
  Ho  Ho10  1  0.833300  0.250000  0.787598  1
  Ho  Ho11  1  0.333300  0.750000  0.712402  1
  Ho  Ho12  1  0.479566  0.750000  0.000610  1
  Ho  Ho13  1  0.979566  0.250000  0.499390  1
  Ho  Ho14  1  0.520434  0.250000  0.999390  1
  Ho  Ho15  1  0.020434  0.750000  0.500610  1
  Ho  Ho16  1  0.637142  0.750000  0.293910  1
  Ho  Ho17  1  0.137142  0.250000  0.206090  1
  Ho  Ho18  1  0.362858  0.250000  0.706090  1
  Ho  Ho19  1  0.862858  0.750000  0.793910  1
  Co  Co20  1  0.373462  0.750000  0.461056  1
  Co  Co21  1  0.873462  0.250000  0.038944  1
  Co  Co22  1  0.626538  0.250000  0.538944  1
  Co  Co23  1  0.126538  0.750000  0.961056  1
  Sb  Sb24  1  0.933081  0.993341  0.326294  1
  Sb  Sb25  1  0.433081  0.006659  0.173706  1
  Sb  Sb26  1  0.066919  0.493341  0.673706  1
  Sb  Sb27  1  0.566919  0.506659  0.826294  1
  Sb  Sb28  1  0.066919  0.006659  0.673706  1
  Sb  Sb29  1  0.566919  0.993341  0.826294  1
  Sb  Sb30  1  0.933081  0.506659  0.326294  1
  Sb  Sb31  1  0.433081  0.493341  0.173706  1
