# generated using pymatgen
data_YTaNb4(B2Ru5)2
_symmetry_space_group_name_H-M   'P 1'
_cell_length_a   9.53525526
_cell_length_b   9.53711480
_cell_length_c   3.05269300
_cell_angle_alpha   90.00000000
_cell_angle_beta   90.00000000
_cell_angle_gamma   90.31348221
_symmetry_Int_Tables_number   1
_chemical_formula_structural   YTaNb4(B2Ru5)2
_chemical_formula_sum   'Y1 Ta1 Nb4 B4 Ru10'
_cell_volume   277.60415654
_cell_formula_units_Z   1
loop_
 _symmetry_equiv_pos_site_id
 _symmetry_equiv_pos_as_xyz
  1  'x, y, z'
loop_
 _atom_site_type_symbol
 _atom_site_label
 _atom_site_symmetry_multiplicity
 _atom_site_fract_x
 _atom_site_fract_y
 _atom_site_fract_z
 _atom_site_occupancy
  Y  Y0  1  0.824567  0.675631  0.000000  1
  Ta  Ta1  1  0.999280  0.998681  0.000000  1
  Nb  Nb2  1  0.178591  0.321170  0.000000  1
  Nb  Nb3  1  0.324054  0.823680  0.000000  1
  Nb  Nb4  1  0.676624  0.175852  0.000000  1
  Nb  Nb5  1  0.501309  0.500704  0.000000  1
  B  B6  1  0.617906  0.882007  0.000000  1
  B  B7  1  0.376781  0.123289  0.000000  1
  B  B8  1  0.123612  0.619290  0.000000  1
  B  B9  1  0.880717  0.376396  0.000000  1
  Ru  Ru10  1  0.558452  0.725471  0.500000  1
  Ru  Ru11  1  0.427006  0.282865  0.500000  1
  Ru  Ru12  1  0.081577  0.782483  0.500000  1
  Ru  Ru13  1  0.930616  0.215718  0.500000  1
  Ru  Ru14  1  0.283945  0.569442  0.500000  1
  Ru  Ru15  1  0.718127  0.418039  0.500000  1
  Ru  Ru16  1  0.216640  0.072718  0.500000  1
  Ru  Ru17  1  0.775156  0.941398  0.500000  1
  Ru  Ru18  1  0.495856  0.004358  0.500000  1
  Ru  Ru19  1  0.009183  0.490805  0.500000  1
