# generated using pymatgen
data_DyCu4
_symmetry_space_group_name_H-M   'P 1'
_cell_length_a   5.01877198
_cell_length_b   5.01877136
_cell_length_c   10.57142580
_cell_angle_alpha   94.84989734
_cell_angle_beta   94.84990616
_cell_angle_gamma   119.65042677
_symmetry_Int_Tables_number   1
_chemical_formula_structural   DyCu4
_chemical_formula_sum   'Dy3 Cu12'
_cell_volume   228.11084645
_cell_formula_units_Z   3
loop_
 _symmetry_equiv_pos_site_id
 _symmetry_equiv_pos_as_xyz
  1  'x, y, z'
loop_
 _atom_site_type_symbol
 _atom_site_label
 _atom_site_symmetry_multiplicity
 _atom_site_fract_x
 _atom_site_fract_y
 _atom_site_fract_z
 _atom_site_occupancy
  Dy  Dy0  1  0.000000  0.000000  0.000000  1
  Dy  Dy1  1  0.134265  0.134265  0.357819  1
  Dy  Dy2  1  0.865735  0.865735  0.642181  1
  Cu  Cu3  1  0.662911  0.337090  0.000000  1
  Cu  Cu4  1  0.337090  0.662911  0.000000  1
  Cu  Cu5  1  0.569107  0.067452  0.195803  1
  Cu  Cu6  1  0.067452  0.569107  0.195803  1
  Cu  Cu7  1  0.570625  0.570625  0.202194  1
  Cu  Cu8  1  0.808515  0.471652  0.405804  1
  Cu  Cu9  1  0.471652  0.808515  0.405804  1
  Cu  Cu10  1  0.528350  0.191486  0.594196  1
  Cu  Cu11  1  0.191486  0.528350  0.594196  1
  Cu  Cu12  1  0.429374  0.429374  0.797806  1
  Cu  Cu13  1  0.932547  0.430892  0.804198  1
  Cu  Cu14  1  0.430892  0.932547  0.804198  1
