# generated using pymatgen
data_Er2Ta3Co9P7
_symmetry_space_group_name_H-M   'P 1'
_cell_length_a   3.67382100
_cell_length_b   9.22116909
_cell_length_c   9.22116800
_cell_angle_alpha   119.99999609
_cell_angle_beta   90.00000000
_cell_angle_gamma   90.00000000
_symmetry_Int_Tables_number   1
_chemical_formula_structural   Er2Ta3Co9P7
_chemical_formula_sum   'Er2 Ta3 Co9 P7'
_cell_volume   270.53319493
_cell_formula_units_Z   1
loop_
 _symmetry_equiv_pos_site_id
 _symmetry_equiv_pos_as_xyz
  1  'x, y, z'
loop_
 _atom_site_type_symbol
 _atom_site_label
 _atom_site_symmetry_multiplicity
 _atom_site_fract_x
 _atom_site_fract_y
 _atom_site_fract_z
 _atom_site_occupancy
  Er  Er0  1  0.000000  0.666667  0.333333  1
  Er  Er1  1  0.500000  0.333333  0.666667  1
  Ta  Ta2  1  0.500000  0.773737  0.897201  1
  Ta  Ta3  1  0.500000  0.123464  0.226263  1
  Ta  Ta4  1  0.500000  0.102799  0.876536  1
  Co  Co5  1  0.000000  0.567002  0.935655  1
  Co  Co6  1  0.000000  0.368652  0.432998  1
  Co  Co7  1  0.000000  0.064345  0.631348  1
  Co  Co8  1  0.000000  0.878093  0.161706  1
  Co  Co9  1  0.000000  0.283615  0.121907  1
  Co  Co10  1  0.000000  0.838294  0.716385  1
  Co  Co11  1  0.500000  0.946551  0.387635  1
  Co  Co12  1  0.500000  0.441083  0.053449  1
  Co  Co13  1  0.500000  0.612365  0.558917  1
  P  P14  1  0.000000  0.000000  0.000000  1
  P  P15  1  0.500000  0.709710  0.125985  1
  P  P16  1  0.500000  0.416274  0.290290  1
  P  P17  1  0.500000  0.874015  0.583726  1
  P  P18  1  0.000000  0.580884  0.690985  1
  P  P19  1  0.000000  0.110101  0.419116  1
  P  P20  1  0.000000  0.309015  0.889899  1
