# generated using pymatgen
data_Sc4AsBr6
_symmetry_space_group_name_H-M   'P 1'
_cell_length_a   3.86312200
_cell_length_b   12.77294600
_cell_length_c   13.30684700
_cell_angle_alpha   90.00000000
_cell_angle_beta   90.00000000
_cell_angle_gamma   90.00000000
_symmetry_Int_Tables_number   1
_chemical_formula_structural   Sc4AsBr6
_chemical_formula_sum   'Sc8 As2 Br12'
_cell_volume   656.60572227
_cell_formula_units_Z   2
loop_
 _symmetry_equiv_pos_site_id
 _symmetry_equiv_pos_as_xyz
  1  'x, y, z'
loop_
 _atom_site_type_symbol
 _atom_site_label
 _atom_site_symmetry_multiplicity
 _atom_site_fract_x
 _atom_site_fract_y
 _atom_site_fract_z
 _atom_site_occupancy
  Sc  Sc0  1  0.000000  0.109334  0.084223  1
  Sc  Sc1  1  0.000000  0.890666  0.915777  1
  Sc  Sc2  1  0.000000  0.609334  0.415777  1
  Sc  Sc3  1  0.000000  0.390666  0.584223  1
  Sc  Sc4  1  0.500000  0.126965  0.848526  1
  Sc  Sc5  1  0.500000  0.873035  0.151474  1
  Sc  Sc6  1  0.500000  0.626965  0.651474  1
  Sc  Sc7  1  0.500000  0.373035  0.348526  1
  As  As8  1  0.500000  0.000000  0.000000  1
  As  As9  1  0.500000  0.500000  0.500000  1
  Br  Br10  1  0.500000  0.263741  0.677490  1
  Br  Br11  1  0.500000  0.736259  0.322510  1
  Br  Br12  1  0.500000  0.763741  0.822510  1
  Br  Br13  1  0.500000  0.236259  0.177490  1
  Br  Br14  1  0.000000  0.256004  0.927710  1
  Br  Br15  1  0.000000  0.743996  0.072290  1
  Br  Br16  1  0.000000  0.482623  0.244870  1
  Br  Br17  1  0.000000  0.517377  0.755130  1
  Br  Br18  1  0.000000  0.982623  0.255130  1
  Br  Br19  1  0.000000  0.017377  0.744870  1
  Br  Br20  1  0.000000  0.243996  0.427710  1
  Br  Br21  1  0.000000  0.756004  0.572290  1
