# generated using pymatgen
data_Pr10Nd7Y3Sn16
_symmetry_space_group_name_H-M   'P 1'
_cell_length_a   8.29846501
_cell_length_b   8.45387988
_cell_length_c   16.02065700
_cell_angle_alpha   90.01413777
_cell_angle_beta   89.99778369
_cell_angle_gamma   89.97802804
_symmetry_Int_Tables_number   1
_chemical_formula_structural   Pr10Nd7Y3Sn16
_chemical_formula_sum   'Pr10 Nd7 Y3 Sn16'
_cell_volume   1123.91667963
_cell_formula_units_Z   1
loop_
 _symmetry_equiv_pos_site_id
 _symmetry_equiv_pos_as_xyz
  1  'x, y, z'
loop_
 _atom_site_type_symbol
 _atom_site_label
 _atom_site_symmetry_multiplicity
 _atom_site_fract_x
 _atom_site_fract_y
 _atom_site_fract_z
 _atom_site_occupancy
  Pr  Pr0  1  0.368131  0.836638  0.620091  1
  Pr  Pr1  1  0.867306  0.663715  0.879565  1
  Pr  Pr2  1  0.519181  0.318486  0.901480  1
  Pr  Pr3  1  0.018651  0.180567  0.598591  1
  Pr  Pr4  1  0.481018  0.681033  0.400554  1
  Pr  Pr5  1  0.981174  0.818941  0.099029  1
  Pr  Pr6  1  0.481000  0.680975  0.099365  1
  Pr  Pr7  1  0.981140  0.819010  0.401059  1
  Pr  Pr8  1  0.519276  0.318577  0.598529  1
  Pr  Pr9  1  0.018715  0.180463  0.901395  1
  Nd  Nd10  1  0.367893  0.836764  0.879749  1
  Nd  Nd11  1  0.867007  0.663655  0.620569  1
  Nd  Nd12  1  0.632632  0.162907  0.379309  1
  Nd  Nd13  1  0.132697  0.336912  0.121561  1
  Nd  Nd14  1  0.632579  0.163007  0.120825  1
  Nd  Nd15  1  0.132653  0.336810  0.378303  1
  Nd  Nd16  1  0.197489  0.501784  0.750045  1
  Y  Y17  1  0.698685  0.998047  0.749980  1
  Y  Y18  1  0.800931  0.498106  0.250012  1
  Y  Y19  1  0.300787  0.001657  0.249986  1
  Sn  Sn20  1  0.292621  0.034752  0.044217  1
  Sn  Sn21  1  0.792917  0.465555  0.455895  1
  Sn  Sn22  1  0.708128  0.965741  0.543837  1
  Sn  Sn23  1  0.208000  0.535636  0.958204  1
  Sn  Sn24  1  0.706718  0.966307  0.956213  1
  Sn  Sn25  1  0.206555  0.535024  0.541780  1
  Sn  Sn26  1  0.292401  0.035205  0.455335  1
  Sn  Sn27  1  0.792720  0.465159  0.044528  1
  Sn  Sn28  1  0.568142  0.617641  0.749959  1
  Sn  Sn29  1  0.064095  0.885379  0.750020  1
  Sn  Sn30  1  0.435452  0.382413  0.250012  1
  Sn  Sn31  1  0.934885  0.117358  0.249984  1
  Sn  Sn32  1  0.325460  0.141756  0.750192  1
  Sn  Sn33  1  0.822160  0.353274  0.749823  1
  Sn  Sn34  1  0.675803  0.855184  0.250001  1
  Sn  Sn35  1  0.175001  0.645556  0.249995  1
