# generated using pymatgen
data_Sc8Ti12Si15Se
_symmetry_space_group_name_H-M   'P 1'
_cell_length_a   6.88523783
_cell_length_b   6.87280911
_cell_length_c   12.60816456
_cell_angle_alpha   89.92416890
_cell_angle_beta   89.70427467
_cell_angle_gamma   89.97853493
_symmetry_Int_Tables_number   1
_chemical_formula_structural   Sc8Ti12Si15Se
_chemical_formula_sum   'Sc8 Ti12 Si15 Se1'
_cell_volume   596.62150284
_cell_formula_units_Z   1
loop_
 _symmetry_equiv_pos_site_id
 _symmetry_equiv_pos_as_xyz
  1  'x, y, z'
loop_
 _atom_site_type_symbol
 _atom_site_label
 _atom_site_symmetry_multiplicity
 _atom_site_fract_x
 _atom_site_fract_y
 _atom_site_fract_z
 _atom_site_occupancy
  Sc  Sc0  1  0.343192  0.999006  0.464598  1
  Sc  Sc1  1  0.500252  0.843031  0.718377  1
  Sc  Sc2  1  0.500525  0.157488  0.216745  1
  Sc  Sc3  1  0.841029  0.498200  0.282937  1
  Sc  Sc4  1  0.157207  0.501063  0.783318  1
  Sc  Sc5  1  0.661683  0.994409  0.969074  1
  Sc  Sc6  1  0.994641  0.346564  0.530482  1
  Sc  Sc7  1  0.000173  0.658872  0.033334  1
  Ti  Ti8  1  0.326535  0.327997  0.999856  1
  Ti  Ti9  1  0.172331  0.827832  0.249761  1
  Ti  Ti10  1  0.824242  0.173093  0.749862  1
  Ti  Ti11  1  0.672009  0.671339  0.500120  1
  Ti  Ti12  1  0.154487  0.008204  0.873002  1
  Ti  Ti13  1  0.494325  0.650005  0.124194  1
  Ti  Ti14  1  0.505815  0.348232  0.626856  1
  Ti  Ti15  1  0.654114  0.498929  0.877201  1
  Ti  Ti16  1  0.348599  0.504720  0.375320  1
  Ti  Ti17  1  0.848651  0.994783  0.374472  1
  Ti  Ti18  1  0.005302  0.149528  0.125617  1
  Ti  Ti19  1  0.990607  0.844334  0.623367  1
  Si  Si20  1  0.363123  0.705225  0.929384  1
  Si  Si21  1  0.634368  0.296102  0.430492  1
  Si  Si22  1  0.705202  0.363898  0.071156  1
  Si  Si23  1  0.296237  0.636000  0.570075  1
  Si  Si24  1  0.795283  0.863564  0.180187  1
  Si  Si25  1  0.135875  0.204334  0.320600  1
  Si  Si26  1  0.865980  0.797371  0.819448  1
  Si  Si27  1  0.297053  0.954614  0.064236  1
  Si  Si28  1  0.545702  0.795604  0.314349  1
  Si  Si29  1  0.469263  0.205537  0.823428  1
  Si  Si30  1  0.795836  0.545245  0.685330  1
  Si  Si31  1  0.202795  0.454337  0.185588  1
  Si  Si32  1  0.701650  0.044519  0.564069  1
  Si  Si33  1  0.955408  0.296896  0.935390  1
  Si  Si34  1  0.045361  0.703729  0.434257  1
  Se  Se35  1  0.195147  0.135398  0.673517  1
