# generated using pymatgen
data_Hf4Sc4IrRu7
_symmetry_space_group_name_H-M   'P 1'
_cell_length_a   6.42626600
_cell_length_b   4.57903000
_cell_length_c   9.18319100
_cell_angle_alpha   90.00000000
_cell_angle_beta   89.99885002
_cell_angle_gamma   90.00000000
_symmetry_Int_Tables_number   1
_chemical_formula_structural   Hf4Sc4IrRu7
_chemical_formula_sum   'Hf4 Sc4 Ir1 Ru7'
_cell_volume   270.22517343
_cell_formula_units_Z   1
loop_
 _symmetry_equiv_pos_site_id
 _symmetry_equiv_pos_as_xyz
  1  'x, y, z'
loop_
 _atom_site_type_symbol
 _atom_site_label
 _atom_site_symmetry_multiplicity
 _atom_site_fract_x
 _atom_site_fract_y
 _atom_site_fract_z
 _atom_site_occupancy
  Hf  Hf0  1  0.753154  0.250000  0.125046  1
  Hf  Hf1  1  0.248463  0.750000  0.377083  1
  Hf  Hf2  1  0.749974  0.250000  0.625039  1
  Hf  Hf3  1  0.248410  0.750000  0.872881  1
  Sc  Sc4  1  0.248780  0.250000  0.125006  1
  Sc  Sc5  1  0.750489  0.750000  0.376521  1
  Sc  Sc6  1  0.250353  0.250000  0.624988  1
  Sc  Sc7  1  0.750425  0.750000  0.873527  1
  Ir  Ir8  1  0.500057  0.750000  0.125001  1
  Ru  Ru9  1  0.000089  0.750000  0.124944  1
  Ru  Ru10  1  0.500038  0.250000  0.374077  1
  Ru  Ru11  1  0.000034  0.250000  0.374488  1
  Ru  Ru12  1  0.999740  0.750000  0.624946  1
  Ru  Ru13  1  0.499992  0.750000  0.624944  1
  Ru  Ru14  1  0.999998  0.250000  0.875563  1
  Ru  Ru15  1  0.500007  0.250000  0.875948  1
