# generated using pymatgen
data_ZrMn5P3
_symmetry_space_group_name_H-M   'P 1'
_cell_length_a   3.60890800
_cell_length_b   10.52191100
_cell_length_c   11.90955300
_cell_angle_alpha   90.00000000
_cell_angle_beta   90.00000000
_cell_angle_gamma   90.00000000
_symmetry_Int_Tables_number   1
_chemical_formula_structural   ZrMn5P3
_chemical_formula_sum   'Zr4 Mn20 P12'
_cell_volume   452.23679685
_cell_formula_units_Z   4
loop_
 _symmetry_equiv_pos_site_id
 _symmetry_equiv_pos_as_xyz
  1  'x, y, z'
loop_
 _atom_site_type_symbol
 _atom_site_label
 _atom_site_symmetry_multiplicity
 _atom_site_fract_x
 _atom_site_fract_y
 _atom_site_fract_z
 _atom_site_occupancy
  Zr  Zr0  1  0.250000  0.586057  0.702588  1
  Zr  Zr1  1  0.750000  0.413943  0.297412  1
  Zr  Zr2  1  0.750000  0.086057  0.797412  1
  Zr  Zr3  1  0.250000  0.913943  0.202588  1
  Mn  Mn4  1  0.250000  0.408820  0.494855  1
  Mn  Mn5  1  0.750000  0.711614  0.318691  1
  Mn  Mn6  1  0.750000  0.788386  0.818691  1
  Mn  Mn7  1  0.250000  0.288386  0.681309  1
  Mn  Mn8  1  0.250000  0.618679  0.193830  1
  Mn  Mn9  1  0.750000  0.381321  0.806170  1
  Mn  Mn10  1  0.750000  0.118679  0.306170  1
  Mn  Mn11  1  0.250000  0.881321  0.693830  1
  Mn  Mn12  1  0.250000  0.033323  0.432325  1
  Mn  Mn13  1  0.750000  0.966677  0.567675  1
  Mn  Mn14  1  0.750000  0.533323  0.067675  1
  Mn  Mn15  1  0.250000  0.466677  0.932325  1
  Mn  Mn16  1  0.750000  0.908820  0.005145  1
  Mn  Mn17  1  0.250000  0.091180  0.994855  1
  Mn  Mn18  1  0.250000  0.717024  0.982366  1
  Mn  Mn19  1  0.750000  0.282976  0.017634  1
  Mn  Mn20  1  0.750000  0.217024  0.517634  1
  Mn  Mn21  1  0.250000  0.782976  0.482366  1
  Mn  Mn22  1  0.250000  0.211614  0.181309  1
  Mn  Mn23  1  0.750000  0.591180  0.505145  1
  P  P24  1  0.250000  0.587311  0.385782  1
  P  P25  1  0.750000  0.412689  0.614218  1
  P  P26  1  0.750000  0.087311  0.114218  1
  P  P27  1  0.250000  0.912689  0.885782  1
  P  P28  1  0.750000  0.760046  0.623615  1
  P  P29  1  0.250000  0.239954  0.376385  1
  P  P30  1  0.250000  0.411151  0.118902  1
  P  P31  1  0.750000  0.588849  0.881098  1
  P  P32  1  0.750000  0.911151  0.381098  1
  P  P33  1  0.250000  0.088849  0.618902  1
  P  P34  1  0.250000  0.260046  0.876385  1
  P  P35  1  0.750000  0.739954  0.123615  1
