# generated using pymatgen
data_LiHo2Ag3O8
_symmetry_space_group_name_H-M   'P 1'
_cell_length_a   6.62798647
_cell_length_b   6.50522871
_cell_length_c   6.54210487
_cell_angle_alpha   126.34163456
_cell_angle_beta   126.90957585
_cell_angle_gamma   80.55559113
_symmetry_Int_Tables_number   1
_chemical_formula_structural   LiHo2Ag3O8
_chemical_formula_sum   'Li1 Ho2 Ag3 O8'
_cell_volume   173.43062971
_cell_formula_units_Z   1
loop_
 _symmetry_equiv_pos_site_id
 _symmetry_equiv_pos_as_xyz
  1  'x, y, z'
loop_
 _atom_site_type_symbol
 _atom_site_label
 _atom_site_symmetry_multiplicity
 _atom_site_fract_x
 _atom_site_fract_y
 _atom_site_fract_z
 _atom_site_occupancy
  Li  Li0  1  0.375000  0.625000  0.750000  1
  Ho  Ho1  1  0.734131  0.262032  0.498298  1
  Ho  Ho2  1  0.015869  0.987968  0.001702  1
  Ag  Ag3  1  0.375000  0.625000  0.250000  1
  Ag  Ag4  1  0.875000  0.625000  0.250000  1
  Ag  Ag5  1  0.375000  0.125000  0.750000  1
  O  O6  1  0.125736  0.597231  0.843084  1
  O  O7  1  0.762463  0.286358  0.156818  1
  O  O8  1  0.343031  0.003192  0.957700  1
  O  O9  1  0.707994  0.861432  0.451061  1
  O  O10  1  0.042006  0.388568  0.048939  1
  O  O11  1  0.406969  0.246808  0.542300  1
  O  O12  1  0.987537  0.963642  0.343182  1
  O  O13  1  0.624264  0.652769  0.656916  1
