# generated using pymatgen
data_Tb6Al24IrRu5Pt2
_symmetry_space_group_name_H-M   'P 1'
_cell_length_a   8.85701195
_cell_length_b   8.81162325
_cell_length_c   9.56214011
_cell_angle_alpha   90.00000095
_cell_angle_beta   90.09664554
_cell_angle_gamma   119.83062257
_symmetry_Int_Tables_number   1
_chemical_formula_structural   Tb6Al24IrRu5Pt2
_chemical_formula_sum   'Tb6 Al24 Ir1 Ru5 Pt2'
_cell_volume   647.39117279
_cell_formula_units_Z   1
loop_
 _symmetry_equiv_pos_site_id
 _symmetry_equiv_pos_as_xyz
  1  'x, y, z'
loop_
 _atom_site_type_symbol
 _atom_site_label
 _atom_site_symmetry_multiplicity
 _atom_site_fract_x
 _atom_site_fract_y
 _atom_site_fract_z
 _atom_site_occupancy
  Tb  Tb0  1  0.384899  0.192449  0.249628  1
  Tb  Tb1  1  0.808751  0.194020  0.248968  1
  Tb  Tb2  1  0.808751  0.614730  0.248968  1
  Tb  Tb3  1  0.615101  0.807551  0.750372  1
  Tb  Tb4  1  0.191249  0.805980  0.751032  1
  Tb  Tb5  1  0.191249  0.385270  0.751032  1
  Al  Al6  1  0.437814  0.874764  0.246919  1
  Al  Al7  1  0.123890  0.561945  0.252226  1
  Al  Al8  1  0.437814  0.563050  0.246919  1
  Al  Al9  1  0.562186  0.125236  0.753081  1
  Al  Al10  1  0.876110  0.438055  0.747774  1
  Al  Al11  1  0.562186  0.436950  0.753081  1
  Al  Al12  1  0.158028  0.832622  0.421608  1
  Al  Al13  1  0.158028  0.325407  0.421608  1
  Al  Al14  1  0.676093  0.838047  0.421550  1
  Al  Al15  1  0.841972  0.167378  0.578392  1
  Al  Al16  1  0.841972  0.674593  0.578392  1
  Al  Al17  1  0.323907  0.161953  0.578450  1
  Al  Al18  1  0.834064  0.161362  0.923787  1
  Al  Al19  1  0.834064  0.672701  0.923787  1
  Al  Al20  1  0.326312  0.163155  0.924463  1
  Al  Al21  1  0.165936  0.838638  0.076213  1
  Al  Al22  1  0.165936  0.327299  0.076213  1
  Al  Al23  1  0.673688  0.836845  0.075537  1
  Al  Al24  1  0.327278  0.663640  0.526642  1
  Al  Al25  1  0.672722  0.336360  0.473358  1
  Al  Al26  1  0.664697  0.332348  0.025315  1
  Al  Al27  1  0.335303  0.667652  0.974685  1
  Al  Al28  1  0.002085  0.001042  0.249638  1
  Al  Al29  1  0.997915  0.998958  0.750362  1
  Ir  Ir30  1  0.000000  0.500000  0.000000  1
  Ru  Ru31  1  0.000000  0.000000  0.500000  1
  Ru  Ru32  1  0.000000  0.000000  0.000000  1
  Ru  Ru33  1  0.000000  0.500000  0.500000  1
  Ru  Ru34  1  0.500000  0.000000  0.000000  1
  Ru  Ru35  1  0.500000  0.500000  0.000000  1
  Pt  Pt36  1  0.500000  0.000000  0.500000  1
  Pt  Pt37  1  0.500000  0.500000  0.500000  1
