# generated using pymatgen
data_Nd2B2PdPt5Au2
_symmetry_space_group_name_H-M   'P 1'
_cell_length_a   5.55994234
_cell_length_b   5.55994101
_cell_length_c   7.72355900
_cell_angle_alpha   90.00000000
_cell_angle_beta   90.00000000
_cell_angle_gamma   120.03986771
_symmetry_Int_Tables_number   1
_chemical_formula_structural   Nd2B2PdPt5Au2
_chemical_formula_sum   'Nd2 B2 Pd1 Pt5 Au2'
_cell_volume   206.68738022
_cell_formula_units_Z   1
loop_
 _symmetry_equiv_pos_site_id
 _symmetry_equiv_pos_as_xyz
  1  'x, y, z'
loop_
 _atom_site_type_symbol
 _atom_site_label
 _atom_site_symmetry_multiplicity
 _atom_site_fract_x
 _atom_site_fract_y
 _atom_site_fract_z
 _atom_site_occupancy
  Nd  Nd0  1  0.000000  0.000000  0.504554  1
  Nd  Nd1  1  0.000000  0.000000  0.000723  1
  B  B2  1  0.331865  0.668135  0.998670  1
  B  B3  1  0.668135  0.331865  0.998670  1
  Pd  Pd4  1  0.500000  0.500000  0.197116  1
  Pt  Pt5  1  0.500000  0.000000  0.193190  1
  Pt  Pt6  1  0.500000  0.000000  0.804101  1
  Pt  Pt7  1  0.000000  0.500000  0.193190  1
  Pt  Pt8  1  0.000000  0.500000  0.804101  1
  Pt  Pt9  1  0.500000  0.500000  0.808562  1
  Au  Au10  1  0.333787  0.666213  0.498562  1
  Au  Au11  1  0.666213  0.333787  0.498562  1
