# generated using pymatgen
data_Dy9Ho6Tm(Ga3Co)2
_symmetry_space_group_name_H-M   'P 1'
_cell_length_a   9.95886100
_cell_length_b   9.95886195
_cell_length_c   6.92868200
_cell_angle_alpha   90.00000000
_cell_angle_beta   90.00000000
_cell_angle_gamma   119.99999354
_symmetry_Int_Tables_number   1
_chemical_formula_structural   Dy9Ho6Tm(Ga3Co)2
_chemical_formula_sum   'Dy9 Ho6 Tm1 Ga6 Co2'
_cell_volume   595.11469204
_cell_formula_units_Z   1
loop_
 _symmetry_equiv_pos_site_id
 _symmetry_equiv_pos_as_xyz
  1  'x, y, z'
loop_
 _atom_site_type_symbol
 _atom_site_label
 _atom_site_symmetry_multiplicity
 _atom_site_fract_x
 _atom_site_fract_y
 _atom_site_fract_z
 _atom_site_occupancy
  Dy  Dy0  1  0.666667  0.333333  0.327974  1
  Dy  Dy1  1  0.463083  0.536917  0.207431  1
  Dy  Dy2  1  0.073833  0.536917  0.207431  1
  Dy  Dy3  1  0.463083  0.926167  0.207431  1
  Dy  Dy4  1  0.536455  0.463545  0.708252  1
  Dy  Dy5  1  0.927091  0.463545  0.708252  1
  Dy  Dy6  1  0.536455  0.072909  0.708252  1
  Dy  Dy7  1  0.000000  0.000000  0.232190  1
  Dy  Dy8  1  0.000000  0.000000  0.731123  1
  Ho  Ho9  1  0.173372  0.826628  0.512386  1
  Ho  Ho10  1  0.653255  0.826628  0.512386  1
  Ho  Ho11  1  0.173372  0.346745  0.512386  1
  Ho  Ho12  1  0.827255  0.172745  0.011253  1
  Ho  Ho13  1  0.345489  0.172745  0.011253  1
  Ho  Ho14  1  0.827255  0.654511  0.011253  1
  Tm  Tm15  1  0.333333  0.666667  0.825850  1
  Ga  Ga16  1  0.163885  0.836115  0.957527  1
  Ga  Ga17  1  0.672232  0.836115  0.957527  1
  Ga  Ga18  1  0.163885  0.327768  0.957527  1
  Ga  Ga19  1  0.837009  0.162991  0.458621  1
  Ga  Ga20  1  0.325982  0.162991  0.458621  1
  Ga  Ga21  1  0.837009  0.674018  0.458621  1
  Co  Co22  1  0.333333  0.666667  0.445093  1
  Co  Co23  1  0.666667  0.333333  0.946199  1
