# generated using pymatgen
data_Tb7YBe3Si12Pd
_symmetry_space_group_name_H-M   'P 1'
_cell_length_a   7.95137000
_cell_length_b   7.94993778
_cell_length_c   8.13051600
_cell_angle_alpha   90.00180406
_cell_angle_beta   90.00000000
_cell_angle_gamma   120.00596798
_symmetry_Int_Tables_number   1
_chemical_formula_structural   Tb7YBe3Si12Pd
_chemical_formula_sum   'Tb7 Y1 Be3 Si12 Pd1'
_cell_volume   445.06999050
_cell_formula_units_Z   1
loop_
 _symmetry_equiv_pos_site_id
 _symmetry_equiv_pos_as_xyz
  1  'x, y, z'
loop_
 _atom_site_type_symbol
 _atom_site_label
 _atom_site_symmetry_multiplicity
 _atom_site_fract_x
 _atom_site_fract_y
 _atom_site_fract_z
 _atom_site_occupancy
  Tb  Tb0  1  0.501858  0.003718  0.752129  1
  Tb  Tb1  1  0.997716  0.498832  0.247955  1
  Tb  Tb2  1  0.996234  0.498117  0.752123  1
  Tb  Tb3  1  0.501116  0.498832  0.247955  1
  Tb  Tb4  1  0.501881  0.498117  0.752123  1
  Tb  Tb5  1  0.999991  0.999981  0.249016  1
  Tb  Tb6  1  0.000004  0.000009  0.750616  1
  Y  Y7  1  0.501214  0.002429  0.247871  1
  Be  Be8  1  0.333338  0.666676  0.001292  1
  Be  Be9  1  0.666634  0.333267  0.001117  1
  Be  Be10  1  0.666633  0.333266  0.497863  1
  Si  Si11  1  0.172133  0.344265  0.999425  1
  Si  Si12  1  0.826891  0.653783  0.000365  1
  Si  Si13  1  0.655728  0.827874  0.999357  1
  Si  Si14  1  0.828230  0.656460  0.499983  1
  Si  Si15  1  0.346238  0.173108  0.000254  1
  Si  Si16  1  0.166045  0.332088  0.499450  1
  Si  Si17  1  0.172147  0.827874  0.999357  1
  Si  Si18  1  0.343565  0.171775  0.500106  1
  Si  Si19  1  0.826870  0.173108  0.000254  1
  Si  Si20  1  0.667887  0.833938  0.499518  1
  Si  Si21  1  0.828211  0.171775  0.500106  1
  Si  Si22  1  0.166052  0.833938  0.499518  1
  Pd  Pd23  1  0.333384  0.666769  0.502247  1
