# generated using pymatgen
data_Hf8Nb2CoSn6Se
_symmetry_space_group_name_H-M   'P 1'
_cell_length_a   5.77294100
_cell_length_b   8.54188167
_cell_length_c   8.54188100
_cell_angle_alpha   119.99999355
_cell_angle_beta   90.00000000
_cell_angle_gamma   90.00000000
_symmetry_Int_Tables_number   1
_chemical_formula_structural   Hf8Nb2CoSn6Se
_chemical_formula_sum   'Hf8 Nb2 Co1 Sn6 Se1'
_cell_volume   364.78321482
_cell_formula_units_Z   1
loop_
 _symmetry_equiv_pos_site_id
 _symmetry_equiv_pos_as_xyz
  1  'x, y, z'
loop_
 _atom_site_type_symbol
 _atom_site_label
 _atom_site_symmetry_multiplicity
 _atom_site_fract_x
 _atom_site_fract_y
 _atom_site_fract_z
 _atom_site_occupancy
  Hf  Hf0  1  0.762205  0.742054  0.742054  1
  Hf  Hf1  1  0.237795  0.257946  0.257946  1
  Hf  Hf2  1  0.762205  0.000000  0.257946  1
  Hf  Hf3  1  0.237795  0.000000  0.742054  1
  Hf  Hf4  1  0.762205  0.257946  0.000000  1
  Hf  Hf5  1  0.237795  0.742054  0.000000  1
  Hf  Hf6  1  0.500000  0.333333  0.666667  1
  Hf  Hf7  1  0.500000  0.666667  0.333333  1
  Nb  Nb8  1  0.000000  0.666667  0.333333  1
  Nb  Nb9  1  0.000000  0.333333  0.666667  1
  Co  Co10  1  0.000000  0.000000  0.000000  1
  Sn  Sn11  1  0.754690  0.395304  0.395304  1
  Sn  Sn12  1  0.245310  0.604696  0.604696  1
  Sn  Sn13  1  0.754690  0.000000  0.604696  1
  Sn  Sn14  1  0.245310  0.000000  0.395304  1
  Sn  Sn15  1  0.754690  0.604696  0.000000  1
  Sn  Sn16  1  0.245310  0.395304  0.000000  1
  Se  Se17  1  0.500000  0.000000  0.000000  1
