# generated using pymatgen
data_Hf6Ta3NbGa5Ge
_symmetry_space_group_name_H-M   'P 1'
_cell_length_a   7.93257800
_cell_length_b   7.92939311
_cell_length_c   5.45212800
_cell_angle_alpha   90.00431129
_cell_angle_beta   89.99637954
_cell_angle_gamma   120.01311027
_symmetry_Int_Tables_number   1
_chemical_formula_structural   Hf6Ta3NbGa5Ge
_chemical_formula_sum   'Hf6 Ta3 Nb1 Ga5 Ge1'
_cell_volume   296.95701273
_cell_formula_units_Z   1
loop_
 _symmetry_equiv_pos_site_id
 _symmetry_equiv_pos_as_xyz
  1  'x, y, z'
loop_
 _atom_site_type_symbol
 _atom_site_label
 _atom_site_symmetry_multiplicity
 _atom_site_fract_x
 _atom_site_fract_y
 _atom_site_fract_z
 _atom_site_occupancy
  Hf  Hf0  1  0.751492  0.750533  0.250040  1
  Hf  Hf1  1  0.749790  0.000164  0.749965  1
  Hf  Hf2  1  0.000647  0.249310  0.250078  1
  Hf  Hf3  1  0.248295  0.249045  0.749946  1
  Hf  Hf4  1  0.249156  0.000121  0.250038  1
  Hf  Hf5  1  0.998896  0.750776  0.749910  1
  Ta  Ta6  1  0.666475  0.332413  0.999392  1
  Ta  Ta7  1  0.666511  0.332358  0.500536  1
  Ta  Ta8  1  0.334037  0.667552  0.500594  1
  Nb  Nb9  1  0.334262  0.667760  0.999550  1
  Ga  Ga10  1  0.603336  0.602791  0.749742  1
  Ga  Ga11  1  0.000208  0.397030  0.749807  1
  Ga  Ga12  1  0.000113  0.603352  0.250182  1
  Ga  Ga13  1  0.396947  0.396421  0.250201  1
  Ga  Ga14  1  0.394635  0.000210  0.749785  1
  Ge  Ge15  1  0.605202  0.000164  0.250233  1
