# generated using pymatgen
data_HoTm(Ni2P)4
_symmetry_space_group_name_H-M   'P 1'
_cell_length_a   3.59499400
_cell_length_b   7.06194001
_cell_length_c   7.06194001
_cell_angle_alpha   89.99537541
_cell_angle_beta   90.00000000
_cell_angle_gamma   90.00000000
_symmetry_Int_Tables_number   1
_chemical_formula_structural   HoTm(Ni2P)4
_chemical_formula_sum   'Ho1 Tm1 Ni8 P4'
_cell_volume   179.28593313
_cell_formula_units_Z   1
loop_
 _symmetry_equiv_pos_site_id
 _symmetry_equiv_pos_as_xyz
  1  'x, y, z'
loop_
 _atom_site_type_symbol
 _atom_site_label
 _atom_site_symmetry_multiplicity
 _atom_site_fract_x
 _atom_site_fract_y
 _atom_site_fract_z
 _atom_site_occupancy
  Ho  Ho0  1  0.000000  0.500000  0.500000  1
  Tm  Tm1  1  0.500000  0.000000  0.000000  1
  Ni  Ni2  1  0.500000  0.162840  0.585083  1
  Ni  Ni3  1  0.500000  0.837160  0.414917  1
  Ni  Ni4  1  0.000000  0.335657  0.084495  1
  Ni  Ni5  1  0.000000  0.664343  0.915505  1
  Ni  Ni6  1  0.500000  0.585083  0.162840  1
  Ni  Ni7  1  0.500000  0.414917  0.837160  1
  Ni  Ni8  1  0.000000  0.084495  0.335657  1
  Ni  Ni9  1  0.000000  0.915505  0.664343  1
  P  P10  1  0.500000  0.720766  0.720766  1
  P  P11  1  0.500000  0.279234  0.279234  1
  P  P12  1  0.000000  0.780645  0.219355  1
  P  P13  1  0.000000  0.219355  0.780645  1
