# generated using pymatgen
data_Ca12CdSi7Pt8
_symmetry_space_group_name_H-M   'P 1'
_cell_length_a   5.70819800
_cell_length_b   8.19051057
_cell_length_c   13.43031100
_cell_angle_alpha   90.54942600
_cell_angle_beta   90.00000000
_cell_angle_gamma   90.00000000
_symmetry_Int_Tables_number   1
_chemical_formula_structural   Ca12CdSi7Pt8
_chemical_formula_sum   'Ca12 Cd1 Si7 Pt8'
_cell_volume   627.87921408
_cell_formula_units_Z   1
loop_
 _symmetry_equiv_pos_site_id
 _symmetry_equiv_pos_as_xyz
  1  'x, y, z'
loop_
 _atom_site_type_symbol
 _atom_site_label
 _atom_site_symmetry_multiplicity
 _atom_site_fract_x
 _atom_site_fract_y
 _atom_site_fract_z
 _atom_site_occupancy
  Ca  Ca0  1  0.141077  0.612090  0.104425  1
  Ca  Ca1  1  0.141077  0.887910  0.895575  1
  Ca  Ca2  1  0.865639  0.115898  0.395908  1
  Ca  Ca3  1  0.865639  0.384102  0.604092  1
  Ca  Ca4  1  0.854669  0.394830  0.895201  1
  Ca  Ca5  1  0.854669  0.105170  0.104799  1
  Ca  Ca6  1  0.131955  0.886769  0.603207  1
  Ca  Ca7  1  0.131955  0.613231  0.396793  1
  Ca  Ca8  1  0.353298  0.255929  0.253059  1
  Ca  Ca9  1  0.353298  0.244071  0.746941  1
  Ca  Ca10  1  0.647735  0.756114  0.255187  1
  Ca  Ca11  1  0.647735  0.743886  0.744813  1
  Cd  Cd12  1  0.350880  0.250000  0.000000  1
  Si  Si13  1  0.591964  0.750000  0.500000  1
  Si  Si14  1  0.618312  0.750000  0.000000  1
  Si  Si15  1  0.407872  0.250000  0.500000  1
  Si  Si16  1  0.835628  0.405993  0.250921  1
  Si  Si17  1  0.835628  0.094007  0.749079  1
  Si  Si18  1  0.161501  0.908735  0.254264  1
  Si  Si19  1  0.161501  0.591265  0.745736  1
  Pt  Pt20  1  0.645810  0.490682  0.095165  1
  Pt  Pt21  1  0.645810  0.009318  0.904835  1
  Pt  Pt22  1  0.369719  0.972148  0.411492  1
  Pt  Pt23  1  0.369719  0.527852  0.588508  1
  Pt  Pt24  1  0.378553  0.554049  0.901713  1
  Pt  Pt25  1  0.378553  0.945951  0.098287  1
  Pt  Pt26  1  0.629904  0.027230  0.590041  1
  Pt  Pt27  1  0.629904  0.472770  0.409959  1
