# generated using pymatgen
data_ScSb3(SeO3)8
_symmetry_space_group_name_H-M   'P 1'
_cell_length_a   8.43213798
_cell_length_b   8.61640592
_cell_length_c   8.45387132
_cell_angle_alpha   90.02082379
_cell_angle_beta   90.13923847
_cell_angle_gamma   89.90826653
_symmetry_Int_Tables_number   1
_chemical_formula_structural   ScSb3(SeO3)8
_chemical_formula_sum   'Sc1 Sb3 Se8 O24'
_cell_volume   614.21104377
_cell_formula_units_Z   1
loop_
 _symmetry_equiv_pos_site_id
 _symmetry_equiv_pos_as_xyz
  1  'x, y, z'
loop_
 _atom_site_type_symbol
 _atom_site_label
 _atom_site_symmetry_multiplicity
 _atom_site_fract_x
 _atom_site_fract_y
 _atom_site_fract_z
 _atom_site_occupancy
  Sc  Sc0  1  0.000000  0.500000  0.000000  1
  Sb  Sb1  1  0.500000  0.500000  0.500000  1
  Sb  Sb2  1  0.000000  0.000000  0.500000  1
  Sb  Sb3  1  0.500000  0.000000  0.000000  1
  Se  Se4  1  0.333814  0.680113  0.156152  1
  Se  Se5  1  0.847139  0.321325  0.329682  1
  Se  Se6  1  0.681520  0.849184  0.678096  1
  Se  Se7  1  0.183646  0.167699  0.818397  1
  Se  Se8  1  0.666186  0.319887  0.843848  1
  Se  Se9  1  0.152861  0.678675  0.670318  1
  Se  Se10  1  0.318480  0.150816  0.321904  1
  Se  Se11  1  0.816354  0.832301  0.181603  1
  O  O12  1  0.237695  0.561308  0.028295  1
  O  O13  1  0.759051  0.444237  0.461213  1
  O  O14  1  0.764300  0.990246  0.548159  1
  O  O15  1  0.264774  0.030274  0.954067  1
  O  O16  1  0.544901  0.982110  0.764973  1
  O  O17  1  0.468770  0.558359  0.241823  1
  O  O18  1  0.980639  0.437165  0.238244  1
  O  O19  1  0.046301  0.033973  0.734325  1
  O  O20  1  0.987861  0.228299  0.465316  1
  O  O21  1  0.559435  0.757173  0.551212  1
  O  O22  1  0.468872  0.770947  0.015180  1
  O  O23  1  0.063288  0.264635  0.940642  1
  O  O24  1  0.762305  0.438692  0.971705  1
  O  O25  1  0.240949  0.555763  0.538787  1
  O  O26  1  0.235700  0.009754  0.451841  1
  O  O27  1  0.735226  0.969726  0.045933  1
  O  O28  1  0.455099  0.017890  0.235027  1
  O  O29  1  0.531230  0.441641  0.758177  1
  O  O30  1  0.019361  0.562835  0.761756  1
  O  O31  1  0.953699  0.966027  0.265675  1
  O  O32  1  0.012139  0.771701  0.534684  1
  O  O33  1  0.440565  0.242827  0.448788  1
  O  O34  1  0.531128  0.229053  0.984820  1
  O  O35  1  0.936712  0.735365  0.059358  1
