# generated using pymatgen
data_Hf2Mn2SiAs
_symmetry_space_group_name_H-M   'P 1'
_cell_length_a   3.68092200
_cell_length_b   6.56436700
_cell_length_c   7.69891400
_cell_angle_alpha   90.00000000
_cell_angle_beta   90.00000000
_cell_angle_gamma   90.00000000
_symmetry_Int_Tables_number   1
_chemical_formula_structural   Hf2Mn2SiAs
_chemical_formula_sum   'Hf4 Mn4 Si2 As2'
_cell_volume   186.02826544
_cell_formula_units_Z   2
loop_
 _symmetry_equiv_pos_site_id
 _symmetry_equiv_pos_as_xyz
  1  'x, y, z'
loop_
 _atom_site_type_symbol
 _atom_site_label
 _atom_site_symmetry_multiplicity
 _atom_site_fract_x
 _atom_site_fract_y
 _atom_site_fract_z
 _atom_site_occupancy
  Hf  Hf0  1  0.250000  0.969488  0.322116  1
  Hf  Hf1  1  0.250000  0.469488  0.177884  1
  Hf  Hf2  1  0.750000  0.035531  0.672960  1
  Hf  Hf3  1  0.750000  0.535531  0.827040  1
  Mn  Mn4  1  0.250000  0.359841  0.557902  1
  Mn  Mn5  1  0.250000  0.859841  0.942098  1
  Mn  Mn6  1  0.750000  0.633902  0.431899  1
  Mn  Mn7  1  0.750000  0.133902  0.068101  1
  Si  Si8  1  0.750000  0.267198  0.373884  1
  Si  Si9  1  0.750000  0.767198  0.126116  1
  As  As10  1  0.250000  0.734040  0.626355  1
  As  As11  1  0.250000  0.234040  0.873645  1
