# generated using pymatgen
data_Pr2Re9Tc8C3
_symmetry_space_group_name_H-M   'P 1'
_cell_length_a   7.05737987
_cell_length_b   7.05737935
_cell_length_c   7.05737908
_cell_angle_alpha   82.87049864
_cell_angle_beta   82.87051007
_cell_angle_gamma   82.87050413
_symmetry_Int_Tables_number   1
_chemical_formula_structural   Pr2Re9Tc8C3
_chemical_formula_sum   'Pr2 Re9 Tc8 C3'
_cell_volume   343.97366753
_cell_formula_units_Z   1
loop_
 _symmetry_equiv_pos_site_id
 _symmetry_equiv_pos_as_xyz
  1  'x, y, z'
loop_
 _atom_site_type_symbol
 _atom_site_label
 _atom_site_symmetry_multiplicity
 _atom_site_fract_x
 _atom_site_fract_y
 _atom_site_fract_z
 _atom_site_occupancy
  Pr  Pr0  1  0.649315  0.649315  0.649315  1
  Pr  Pr1  1  0.350685  0.350685  0.350685  1
  Re  Re2  1  0.000000  0.000000  0.500000  1
  Re  Re3  1  0.500000  0.000000  0.000000  1
  Re  Re4  1  0.000000  0.500000  0.000000  1
  Re  Re5  1  0.720790  0.279210  0.000000  1
  Re  Re6  1  0.000000  0.720790  0.279210  1
  Re  Re7  1  0.279210  0.000000  0.720790  1
  Re  Re8  1  0.000000  0.279210  0.720790  1
  Re  Re9  1  0.720790  0.000000  0.279210  1
  Re  Re10  1  0.279210  0.720790  0.000000  1
  Tc  Tc11  1  0.347183  0.347183  0.867310  1
  Tc  Tc12  1  0.867310  0.347183  0.347183  1
  Tc  Tc13  1  0.347183  0.867310  0.347183  1
  Tc  Tc14  1  0.652817  0.652817  0.132690  1
  Tc  Tc15  1  0.132690  0.652817  0.652817  1
  Tc  Tc16  1  0.652817  0.132690  0.652817  1
  Tc  Tc17  1  0.903399  0.903399  0.903399  1
  Tc  Tc18  1  0.096601  0.096601  0.096601  1
  C  C19  1  0.500000  0.500000  0.000000  1
  C  C20  1  0.000000  0.500000  0.500000  1
  C  C21  1  0.500000  0.000000  0.500000  1
