# generated using pymatgen
data_Sm3In3HgRh2
_symmetry_space_group_name_H-M   'P 1'
_cell_length_a   7.92680300
_cell_length_b   7.92680158
_cell_length_c   3.88445100
_cell_angle_alpha   90.00000000
_cell_angle_beta   90.00000000
_cell_angle_gamma   119.99999339
_symmetry_Int_Tables_number   1
_chemical_formula_structural   Sm3In3HgRh2
_chemical_formula_sum   'Sm3 In3 Hg1 Rh2'
_cell_volume   211.37633361
_cell_formula_units_Z   1
loop_
 _symmetry_equiv_pos_site_id
 _symmetry_equiv_pos_as_xyz
  1  'x, y, z'
loop_
 _atom_site_type_symbol
 _atom_site_label
 _atom_site_symmetry_multiplicity
 _atom_site_fract_x
 _atom_site_fract_y
 _atom_site_fract_z
 _atom_site_occupancy
  Sm  Sm0  1  0.974340  0.392843  0.500000  1
  Sm  Sm1  1  0.607157  0.581496  0.500000  1
  Sm  Sm2  1  0.418504  0.025660  0.500000  1
  In  In3  1  0.253316  0.249034  0.000000  1
  In  In4  1  0.995718  0.746684  0.000000  1
  In  In5  1  0.750966  0.004282  0.000000  1
  Hg  Hg6  1  0.333333  0.666667  0.000000  1
  Rh  Rh7  1  0.000000  0.000000  0.500000  1
  Rh  Rh8  1  0.666667  0.333333  0.000000  1
