# generated using pymatgen
data_Dy6Cd17Ag6Ge
_symmetry_space_group_name_H-M   'P 1'
_cell_length_a   9.92012962
_cell_length_b   9.92012648
_cell_length_c   9.92013000
_cell_angle_alpha   59.99997493
_cell_angle_beta   59.99998541
_cell_angle_gamma   59.99998172
_symmetry_Int_Tables_number   1
_chemical_formula_structural   Dy6Cd17Ag6Ge
_chemical_formula_sum   'Dy6 Cd17 Ag6 Ge1'
_cell_volume   690.29818579
_cell_formula_units_Z   1
loop_
 _symmetry_equiv_pos_site_id
 _symmetry_equiv_pos_as_xyz
  1  'x, y, z'
loop_
 _atom_site_type_symbol
 _atom_site_label
 _atom_site_symmetry_multiplicity
 _atom_site_fract_x
 _atom_site_fract_y
 _atom_site_fract_z
 _atom_site_occupancy
  Dy  Dy0  1  0.794098  0.794098  0.205902  1
  Dy  Dy1  1  0.205902  0.794098  0.205902  1
  Dy  Dy2  1  0.794098  0.205902  0.205902  1
  Dy  Dy3  1  0.205902  0.205902  0.794098  1
  Dy  Dy4  1  0.794098  0.205902  0.794098  1
  Dy  Dy5  1  0.205902  0.794098  0.794098  1
  Cd  Cd6  1  0.835734  0.835734  0.492798  1
  Cd  Cd7  1  0.835734  0.492798  0.835734  1
  Cd  Cd8  1  0.492798  0.835734  0.835734  1
  Cd  Cd9  1  0.835734  0.835734  0.835734  1
  Cd  Cd10  1  0.164266  0.164266  0.507202  1
  Cd  Cd11  1  0.164266  0.507202  0.164266  1
  Cd  Cd12  1  0.507202  0.164266  0.164266  1
  Cd  Cd13  1  0.164266  0.164266  0.164266  1
  Cd  Cd14  1  0.622767  0.622767  0.131698  1
  Cd  Cd15  1  0.622767  0.131697  0.622767  1
  Cd  Cd16  1  0.131698  0.622767  0.622767  1
  Cd  Cd17  1  0.622767  0.622767  0.622767  1
  Cd  Cd18  1  0.377233  0.377233  0.868302  1
  Cd  Cd19  1  0.377233  0.868303  0.377233  1
  Cd  Cd20  1  0.868302  0.377233  0.377233  1
  Cd  Cd21  1  0.377233  0.377233  0.377233  1
  Cd  Cd22  1  0.500000  0.500000  0.500000  1
  Ag  Ag23  1  0.000000  0.000000  0.500000  1
  Ag  Ag24  1  0.500000  0.000000  0.500000  1
  Ag  Ag25  1  0.000000  0.500000  0.500000  1
  Ag  Ag26  1  0.500000  0.500000  0.000000  1
  Ag  Ag27  1  0.000000  0.500000  0.000000  1
  Ag  Ag28  1  0.500000  0.000000  0.000000  1
  Ge  Ge29  1  0.000000  0.000000  0.000000  1
