# generated using pymatgen
data_Cr2SF18
_symmetry_space_group_name_H-M   'P 1'
_cell_length_a   8.86673300
_cell_length_b   8.86673236
_cell_length_c   5.12745700
_cell_angle_alpha   90.00000000
_cell_angle_beta   90.00000000
_cell_angle_gamma   120.00000611
_symmetry_Int_Tables_number   1
_chemical_formula_structural   Cr2SF18
_chemical_formula_sum   'Cr2 S1 F18'
_cell_volume   349.10804941
_cell_formula_units_Z   1
loop_
 _symmetry_equiv_pos_site_id
 _symmetry_equiv_pos_as_xyz
  1  'x, y, z'
loop_
 _atom_site_type_symbol
 _atom_site_label
 _atom_site_symmetry_multiplicity
 _atom_site_fract_x
 _atom_site_fract_y
 _atom_site_fract_z
 _atom_site_occupancy
  Cr  Cr0  1  0.666667  0.333333  0.446530  1
  Cr  Cr1  1  0.333333  0.666667  0.553470  1
  S  S2  1  0.000000  0.000000  0.000000  1
  F  F3  1  0.239880  0.760120  0.355345  1
  F  F4  1  0.239880  0.479761  0.355345  1
  F  F5  1  0.520239  0.760120  0.355345  1
  F  F6  1  0.084926  0.915074  0.820187  1
  F  F7  1  0.084926  0.169851  0.820187  1
  F  F8  1  0.830149  0.915074  0.820187  1
  F  F9  1  0.169851  0.084926  0.179813  1
  F  F10  1  0.915074  0.830149  0.179813  1
  F  F11  1  0.915074  0.084926  0.179813  1
  F  F12  1  0.426882  0.573118  0.751454  1
  F  F13  1  0.426882  0.853765  0.751454  1
  F  F14  1  0.146235  0.573118  0.751454  1
  F  F15  1  0.853765  0.426882  0.248546  1
  F  F16  1  0.573118  0.146235  0.248546  1
  F  F17  1  0.573118  0.426882  0.248546  1
  F  F18  1  0.760120  0.239880  0.644655  1
  F  F19  1  0.760120  0.520239  0.644655  1
  F  F20  1  0.479761  0.239880  0.644655  1
