# generated using pymatgen
data_Tb5YNiI10
_symmetry_space_group_name_H-M   'P 1'
_cell_length_a   7.72627489
_cell_length_b   9.70679699
_cell_length_c   9.72783748
_cell_angle_alpha   107.22332324
_cell_angle_beta   96.99423625
_cell_angle_gamma   104.74018015
_symmetry_Int_Tables_number   1
_chemical_formula_structural   Tb5YNiI10
_chemical_formula_sum   'Tb5 Y1 Ni1 I10'
_cell_volume   658.39246547
_cell_formula_units_Z   1
loop_
 _symmetry_equiv_pos_site_id
 _symmetry_equiv_pos_as_xyz
  1  'x, y, z'
loop_
 _atom_site_type_symbol
 _atom_site_label
 _atom_site_symmetry_multiplicity
 _atom_site_fract_x
 _atom_site_fract_y
 _atom_site_fract_z
 _atom_site_occupancy
  Tb  Tb0  1  0.888124  0.959993  0.236090  1
  Tb  Tb1  1  0.112639  0.040000  0.764071  1
  Tb  Tb2  1  0.030577  0.719965  0.916018  1
  Tb  Tb3  1  0.970008  0.280154  0.084061  1
  Tb  Tb4  1  0.658782  0.878325  0.837390  1
  Y  Y5  1  0.341932  0.121754  0.162626  1
  Ni  Ni6  1  0.999623  0.999874  0.999726  1
  I  I7  1  0.647178  0.548547  0.728008  1
  I  I8  1  0.353211  0.450607  0.272024  1
  I  I9  1  0.740834  0.912002  0.537742  1
  I  I10  1  0.259517  0.088201  0.461790  1
  I  I11  1  0.085213  0.371585  0.819294  1
  I  I12  1  0.914767  0.628364  0.180707  1
  I  I13  1  0.453888  0.815957  0.093066  1
  I  I14  1  0.545714  0.185041  0.907827  1
  I  I15  1  0.222797  0.742535  0.654394  1
  I  I16  1  0.775195  0.257097  0.345166  1
