# generated using pymatgen
data_Ca2SmTm5(B6Os)4
_symmetry_space_group_name_H-M   'P 1'
_cell_length_a   3.63081300
_cell_length_b   9.12545332
_cell_length_c   11.52984201
_cell_angle_alpha   89.83804943
_cell_angle_beta   90.00000000
_cell_angle_gamma   90.00000000
_symmetry_Int_Tables_number   1
_chemical_formula_structural   Ca2SmTm5(B6Os)4
_chemical_formula_sum   'Ca2 Sm1 Tm5 B24 Os4'
_cell_volume   382.01459108
_cell_formula_units_Z   1
loop_
 _symmetry_equiv_pos_site_id
 _symmetry_equiv_pos_as_xyz
  1  'x, y, z'
loop_
 _atom_site_type_symbol
 _atom_site_label
 _atom_site_symmetry_multiplicity
 _atom_site_fract_x
 _atom_site_fract_y
 _atom_site_fract_z
 _atom_site_occupancy
  Ca  Ca0  1  0.000000  0.323365  0.415097  1
  Ca  Ca1  1  0.000000  0.676407  0.585348  1
  Sm  Sm2  1  0.000000  0.821667  0.086102  1
  Tm  Tm3  1  0.000000  0.178521  0.913461  1
  Tm  Tm4  1  0.000000  0.942465  0.370412  1
  Tm  Tm5  1  0.000000  0.057988  0.629588  1
  Tm  Tm6  1  0.000000  0.442607  0.129793  1
  Tm  Tm7  1  0.000000  0.556641  0.869752  1
  B  B8  1  0.500000  0.553724  0.432373  1
  B  B9  1  0.500000  0.445538  0.568369  1
  B  B10  1  0.500000  0.055363  0.066346  1
  B  B11  1  0.500000  0.947422  0.932033  1
  B  B12  1  0.500000  0.748768  0.417755  1
  B  B13  1  0.500000  0.251095  0.583141  1
  B  B14  1  0.500000  0.249374  0.080539  1
  B  B15  1  0.500000  0.751041  0.917129  1
  B  B16  1  0.500000  0.790911  0.265595  1
  B  B17  1  0.500000  0.208117  0.736131  1
  B  B18  1  0.500000  0.290716  0.233641  1
  B  B19  1  0.500000  0.709611  0.765580  1
  B  B20  1  0.500000  0.629799  0.185646  1
  B  B21  1  0.500000  0.368449  0.815693  1
  B  B22  1  0.500000  0.130601  0.314000  1
  B  B23  1  0.500000  0.870429  0.685961  1
  B  B24  1  0.500000  0.984169  0.212370  1
  B  B25  1  0.500000  0.018292  0.787971  1
  B  B26  1  0.500000  0.483023  0.287584  1
  B  B27  1  0.500000  0.515993  0.712825  1
  B  B28  1  0.500000  0.599945  0.027390  1
  B  B29  1  0.500000  0.397115  0.971664  1
  B  B30  1  0.500000  0.098403  0.473043  1
  B  B31  1  0.500000  0.902014  0.527177  1
  Os  Os32  1  0.000000  0.639647  0.318681  1
  Os  Os33  1  0.000000  0.359125  0.682664  1
  Os  Os34  1  0.000000  0.137993  0.177916  1
  Os  Os35  1  0.000000  0.863661  0.821230  1
