# generated using pymatgen
data_LiDy3Y6Cd3Ru
_symmetry_space_group_name_H-M   'P 1'
_cell_length_a   9.49439700
_cell_length_b   9.49439812
_cell_length_c   9.74203600
_cell_angle_alpha   90.00000000
_cell_angle_beta   90.00000000
_cell_angle_gamma   119.99999958
_symmetry_Int_Tables_number   1
_chemical_formula_structural   LiDy3Y6Cd3Ru
_chemical_formula_sum   'Li2 Dy6 Y12 Cd6 Ru2'
_cell_volume   760.52796807
_cell_formula_units_Z   2
loop_
 _symmetry_equiv_pos_site_id
 _symmetry_equiv_pos_as_xyz
  1  'x, y, z'
loop_
 _atom_site_type_symbol
 _atom_site_label
 _atom_site_symmetry_multiplicity
 _atom_site_fract_x
 _atom_site_fract_y
 _atom_site_fract_z
 _atom_site_occupancy
  Li  Li0  1  0.000000  0.000000  0.500000  1
  Li  Li1  1  0.000000  0.000000  0.000000  1
  Dy  Dy2  1  0.208381  0.791619  0.441286  1
  Dy  Dy3  1  0.208381  0.416764  0.441286  1
  Dy  Dy4  1  0.583236  0.791619  0.441286  1
  Dy  Dy5  1  0.791619  0.208381  0.558714  1
  Dy  Dy6  1  0.791619  0.583236  0.558714  1
  Dy  Dy7  1  0.416764  0.208381  0.558714  1
  Y  Y8  1  0.792065  0.207935  0.941595  1
  Y  Y9  1  0.792065  0.584130  0.941595  1
  Y  Y10  1  0.415870  0.207935  0.941595  1
  Y  Y11  1  0.207935  0.792065  0.058405  1
  Y  Y12  1  0.207935  0.415870  0.058405  1
  Y  Y13  1  0.584130  0.792065  0.058405  1
  Y  Y14  1  0.542354  0.457646  0.250533  1
  Y  Y15  1  0.542354  0.084710  0.250533  1
  Y  Y16  1  0.915290  0.457646  0.250533  1
  Y  Y17  1  0.457646  0.542354  0.749467  1
  Y  Y18  1  0.457646  0.915290  0.749467  1
  Y  Y19  1  0.084710  0.542354  0.749467  1
  Cd  Cd20  1  0.891695  0.108305  0.249886  1
  Cd  Cd21  1  0.891695  0.783391  0.249886  1
  Cd  Cd22  1  0.216609  0.108305  0.249886  1
  Cd  Cd23  1  0.108305  0.891695  0.750114  1
  Cd  Cd24  1  0.108305  0.216609  0.750114  1
  Cd  Cd25  1  0.783391  0.891695  0.750114  1
  Ru  Ru26  1  0.333333  0.666667  0.252436  1
  Ru  Ru27  1  0.666667  0.333333  0.747564  1
