# generated using pymatgen
data_Y3Tl2
_symmetry_space_group_name_H-M   'P 1'
_cell_length_a   11.69033206
_cell_length_b   11.69033191
_cell_length_c   11.69033200
_cell_angle_alpha   116.58831801
_cell_angle_beta   116.58831766
_cell_angle_gamma   96.01831905
_symmetry_Int_Tables_number   1
_chemical_formula_structural   Y3Tl2
_chemical_formula_sum   'Y24 Tl16'
_cell_volume   1180.90847592
_cell_formula_units_Z   8
loop_
 _symmetry_equiv_pos_site_id
 _symmetry_equiv_pos_as_xyz
  1  'x, y, z'
loop_
 _atom_site_type_symbol
 _atom_site_label
 _atom_site_symmetry_multiplicity
 _atom_site_fract_x
 _atom_site_fract_y
 _atom_site_fract_z
 _atom_site_occupancy
  Y  Y0  1  0.145712  0.645712  0.500000  1
  Y  Y1  1  0.645712  0.145712  0.500000  1
  Y  Y2  1  0.854288  0.354288  0.500000  1
  Y  Y3  1  0.354288  0.854288  0.500000  1
  Y  Y4  1  0.669469  0.169469  0.838940  1
  Y  Y5  1  0.330531  0.830531  0.161060  1
  Y  Y6  1  0.169469  0.330531  0.500000  1
  Y  Y7  1  0.830531  0.669469  0.500000  1
  Y  Y8  1  0.067839  0.931615  0.272578  1
  Y  Y9  1  0.659037  0.795261  0.727422  1
  Y  Y10  1  0.567839  0.295261  0.136224  1
  Y  Y11  1  0.159037  0.431615  0.863776  1
  Y  Y12  1  0.795261  0.067839  0.136224  1
  Y  Y13  1  0.931615  0.659037  0.863776  1
  Y  Y14  1  0.431615  0.567839  0.272578  1
  Y  Y15  1  0.295261  0.159037  0.727422  1
  Y  Y16  1  0.932161  0.068385  0.727422  1
  Y  Y17  1  0.340963  0.204739  0.272578  1
  Y  Y18  1  0.432161  0.704739  0.863776  1
  Y  Y19  1  0.840963  0.568385  0.136224  1
  Y  Y20  1  0.204739  0.932161  0.863776  1
  Y  Y21  1  0.068385  0.340963  0.136224  1
  Y  Y22  1  0.568385  0.432161  0.727422  1
  Y  Y23  1  0.704739  0.840963  0.272578  1
  Tl  Tl24  1  0.750000  0.750000  0.000000  1
  Tl  Tl25  1  0.250000  0.250000  0.000000  1
  Tl  Tl26  1  0.000000  0.000000  0.000000  1
  Tl  Tl27  1  0.500000  0.500000  0.000000  1
  Tl  Tl28  1  0.119205  0.619205  0.738409  1
  Tl  Tl29  1  0.880795  0.380795  0.261591  1
  Tl  Tl30  1  0.619205  0.880795  0.500000  1
  Tl  Tl31  1  0.380795  0.119205  0.500000  1
  Tl  Tl32  1  0.871306  0.371306  0.844699  1
  Tl  Tl33  1  0.526606  0.026606  0.155301  1
  Tl  Tl34  1  0.371306  0.526606  0.500000  1
  Tl  Tl35  1  0.026606  0.871306  0.500000  1
  Tl  Tl36  1  0.128694  0.628694  0.155301  1
  Tl  Tl37  1  0.473394  0.973394  0.844699  1
  Tl  Tl38  1  0.628694  0.473394  0.500000  1
  Tl  Tl39  1  0.973394  0.128694  0.500000  1
