# generated using pymatgen
data_La15Y(CdRu)4
_symmetry_space_group_name_H-M   'P 1'
_cell_length_a   10.04920728
_cell_length_b   10.13227004
_cell_length_c   10.04920809
_cell_angle_alpha   59.72619140
_cell_angle_beta   60.11054466
_cell_angle_gamma   59.72619529
_symmetry_Int_Tables_number   1
_chemical_formula_structural   La15Y(CdRu)4
_chemical_formula_sum   'La15 Y1 Cd4 Ru4'
_cell_volume   721.11421209
_cell_formula_units_Z   1
loop_
 _symmetry_equiv_pos_site_id
 _symmetry_equiv_pos_as_xyz
  1  'x, y, z'
loop_
 _atom_site_type_symbol
 _atom_site_label
 _atom_site_symmetry_multiplicity
 _atom_site_fract_x
 _atom_site_fract_y
 _atom_site_fract_z
 _atom_site_occupancy
  La  La0  1  0.442047  0.438520  0.059583  1
  La  La1  1  0.059583  0.059850  0.442047  1
  La  La2  1  0.442047  0.059850  0.059583  1
  La  La3  1  0.842866  0.848839  0.842866  1
  La  La4  1  0.691138  0.309627  0.315741  1
  La  La5  1  0.059583  0.438520  0.442047  1
  La  La6  1  0.315741  0.683494  0.691138  1
  La  La7  1  0.315741  0.309627  0.691138  1
  La  La8  1  0.846155  0.846846  0.460153  1
  La  La9  1  0.691138  0.683494  0.315741  1
  La  La10  1  0.460153  0.846846  0.846155  1
  La  La11  1  0.058759  0.441241  0.058759  1
  La  La12  1  0.842866  0.465429  0.842866  1
  La  La13  1  0.443106  0.056894  0.443106  1
  La  La14  1  0.312143  0.687857  0.312143  1
  Y  Y15  1  0.691778  0.308222  0.691778  1
  Cd  Cd16  1  0.077822  0.764581  0.077822  1
  Cd  Cd17  1  0.074297  0.080697  0.764309  1
  Cd  Cd18  1  0.764309  0.080697  0.074297  1
  Cd  Cd19  1  0.077822  0.079776  0.077822  1
  Ru  Ru20  1  0.632698  0.088592  0.632698  1
  Ru  Ru21  1  0.632698  0.646010  0.632698  1
  Ru  Ru22  1  0.634825  0.637245  0.090684  1
  Ru  Ru23  1  0.090684  0.637245  0.634825  1
