# generated using pymatgen
data_Ho2Er9Th5(MgRu)4
_symmetry_space_group_name_H-M   'P 1'
_cell_length_a   9.69539586
_cell_length_b   9.74518155
_cell_length_c   9.74306813
_cell_angle_alpha   59.81953930
_cell_angle_beta   60.17613038
_cell_angle_gamma   60.15444554
_symmetry_Int_Tables_number   1
_chemical_formula_structural   Ho2Er9Th5(MgRu)4
_chemical_formula_sum   'Ho2 Er9 Th5 Mg4 Ru4'
_cell_volume   651.65533931
_cell_formula_units_Z   1
loop_
 _symmetry_equiv_pos_site_id
 _symmetry_equiv_pos_as_xyz
  1  'x, y, z'
loop_
 _atom_site_type_symbol
 _atom_site_label
 _atom_site_symmetry_multiplicity
 _atom_site_fract_x
 _atom_site_fract_y
 _atom_site_fract_z
 _atom_site_occupancy
  Ho  Ho0  1  0.563446  0.565510  0.935270  1
  Ho  Ho1  1  0.935775  0.935270  0.565510  1
  Er  Er2  1  0.185799  0.814201  0.814201  1
  Er  Er3  1  0.190984  0.809812  0.185035  1
  Er  Er4  1  0.814168  0.185035  0.809812  1
  Er  Er5  1  0.191122  0.185040  0.809759  1
  Er  Er6  1  0.814079  0.809759  0.185040  1
  Er  Er7  1  0.931567  0.568433  0.568433  1
  Er  Er8  1  0.564891  0.935109  0.935109  1
  Er  Er9  1  0.562864  0.935821  0.565110  1
  Er  Er10  1  0.936205  0.565110  0.935821  1
  Th  Th11  1  0.341740  0.349106  0.348986  1
  Th  Th12  1  0.346925  0.347398  0.958808  1
  Th  Th13  1  0.346869  0.958808  0.347398  1
  Th  Th14  1  0.960167  0.348986  0.349106  1
  Th  Th15  1  0.816615  0.183385  0.183385  1
  Mg  Mg16  1  0.582892  0.579229  0.578466  1
  Mg  Mg17  1  0.579340  0.582499  0.258278  1
  Mg  Mg18  1  0.579884  0.258278  0.582499  1
  Mg  Mg19  1  0.259415  0.578466  0.579229  1
  Ru  Ru20  1  0.129318  0.147298  0.146803  1
  Ru  Ru21  1  0.144950  0.141604  0.569041  1
  Ru  Ru22  1  0.144406  0.569041  0.141604  1
  Ru  Ru23  1  0.576579  0.146803  0.147298  1
