# generated using pymatgen
data_YbPr2Pa(Ga3Ir)6
_symmetry_space_group_name_H-M   'P 1'
_cell_length_a   7.64884188
_cell_length_b   7.64848233
_cell_length_c   9.53640300
_cell_angle_alpha   90.00000000
_cell_angle_beta   90.00000000
_cell_angle_gamma   119.68698207
_symmetry_Int_Tables_number   1
_chemical_formula_structural   YbPr2Pa(Ga3Ir)6
_chemical_formula_sum   'Yb1 Pr2 Pa1 Ga18 Ir6'
_cell_volume   484.67140336
_cell_formula_units_Z   1
loop_
 _symmetry_equiv_pos_site_id
 _symmetry_equiv_pos_as_xyz
  1  'x, y, z'
loop_
 _atom_site_type_symbol
 _atom_site_label
 _atom_site_symmetry_multiplicity
 _atom_site_fract_x
 _atom_site_fract_y
 _atom_site_fract_z
 _atom_site_occupancy
  Yb  Yb0  1  0.670963  0.997048  0.250000  1
  Pr  Pr1  1  0.002320  0.331181  0.750000  1
  Pr  Pr2  1  0.331674  0.003341  0.750000  1
  Pa  Pa3  1  0.999297  0.670347  0.250000  1
  Ga  Ga4  1  0.130173  0.128923  0.250000  1
  Ga  Ga5  1  0.869192  0.871794  0.750000  1
  Ga  Ga6  1  0.996576  0.328512  0.083485  1
  Ga  Ga7  1  0.997570  0.665220  0.921666  1
  Ga  Ga8  1  0.997570  0.665220  0.578334  1
  Ga  Ga9  1  0.341675  0.003177  0.416684  1
  Ga  Ga10  1  0.996576  0.328512  0.416515  1
  Ga  Ga11  1  0.665384  0.997933  0.572517  1
  Ga  Ga12  1  0.665384  0.997933  0.927483  1
  Ga  Ga13  1  0.341675  0.003177  0.083316  1
  Ga  Ga14  1  0.333271  0.333518  0.560240  1
  Ga  Ga15  1  0.664023  0.669253  0.433472  1
  Ga  Ga16  1  0.664023  0.669253  0.066528  1
  Ga  Ga17  1  0.333271  0.333518  0.939760  1
  Ga  Ga18  1  0.338765  0.545551  0.250000  1
  Ga  Ga19  1  0.661318  0.456619  0.750000  1
  Ga  Ga20  1  0.547118  0.342015  0.250000  1
  Ga  Ga21  1  0.456125  0.663806  0.750000  1
  Ir  Ir22  1  0.673615  0.332838  0.002839  1
  Ir  Ir23  1  0.324851  0.669416  0.003672  1
  Ir  Ir24  1  0.324851  0.669416  0.496328  1
  Ir  Ir25  1  0.673615  0.332838  0.497161  1
  Ir  Ir26  1  0.999564  0.994820  0.004815  1
  Ir  Ir27  1  0.999564  0.994820  0.495185  1
