# generated using pymatgen
data_K20TaNb(InP6)2
_symmetry_space_group_name_H-M   'P 1'
_cell_length_a   8.18667405
_cell_length_b   8.98700483
_cell_length_c   17.29657648
_cell_angle_alpha   59.99445815
_cell_angle_beta   89.99511943
_cell_angle_gamma   89.98784474
_symmetry_Int_Tables_number   1
_chemical_formula_structural   K20TaNb(InP6)2
_chemical_formula_sum   'K20 Ta1 Nb1 In2 P12'
_cell_volume   1102.01877178
_cell_formula_units_Z   1
loop_
 _symmetry_equiv_pos_site_id
 _symmetry_equiv_pos_as_xyz
  1  'x, y, z'
loop_
 _atom_site_type_symbol
 _atom_site_label
 _atom_site_symmetry_multiplicity
 _atom_site_fract_x
 _atom_site_fract_y
 _atom_site_fract_z
 _atom_site_occupancy
  K  K0  1  0.747861  0.907976  0.410472  1
  K  K1  1  0.252082  0.908147  0.910453  1
  K  K2  1  0.765164  0.091684  0.591329  1
  K  K3  1  0.234791  0.091471  0.091421  1
  K  K4  1  0.577526  0.161291  0.756707  1
  K  K5  1  0.422429  0.161317  0.256661  1
  K  K6  1  0.918423  0.840841  0.240109  1
  K  K7  1  0.081655  0.840806  0.740112  1
  K  K8  1  0.737952  0.544879  0.756575  1
  K  K9  1  0.261944  0.544871  0.256581  1
  K  K10  1  0.773617  0.457326  0.239396  1
  K  K11  1  0.226400  0.457320  0.739295  1
  K  K12  1  0.079548  0.160848  0.417926  1
  K  K13  1  0.920427  0.160914  0.917914  1
  K  K14  1  0.423119  0.841025  0.581208  1
  K  K15  1  0.576850  0.841119  0.081129  1
  K  K16  1  0.250798  0.269116  0.573254  1
  K  K17  1  0.749163  0.269121  0.073231  1
  K  K18  1  0.223588  0.734409  0.424208  1
  K  K19  1  0.776467  0.734342  0.924186  1
  Ta  Ta20  1  0.377750  0.504370  0.923688  1
  Nb  Nb21  1  0.622247  0.504363  0.423652  1
  In  In22  1  0.883460  0.492659  0.583230  1
  In  In23  1  0.116283  0.492670  0.083320  1
  P  P24  1  0.922181  0.485511  0.428161  1
  P  P25  1  0.079233  0.485550  0.928120  1
  P  P26  1  0.551259  0.514296  0.559291  1
  P  P27  1  0.448587  0.514250  0.058684  1
  P  P28  1  0.966388  0.199176  0.723943  1
  P  P29  1  0.033571  0.199222  0.223935  1
  P  P30  1  0.536566  0.765900  0.291062  1
  P  P31  1  0.463217  0.765187  0.791521  1
  P  P32  1  0.999776  0.771982  0.577112  1
  P  P33  1  0.000172  0.771949  0.077124  1
  P  P34  1  0.503204  0.256598  0.422448  1
  P  P35  1  0.496301  0.257500  0.922541  1
