# generated using pymatgen
data_Ce4NiPd3Pb2
_symmetry_space_group_name_H-M   'P 1'
_cell_length_a   7.87413910
_cell_length_b   7.87413910
_cell_length_c   3.72974100
_cell_angle_alpha   90.00000000
_cell_angle_beta   90.00000000
_cell_angle_gamma   89.52691298
_symmetry_Int_Tables_number   1
_chemical_formula_structural   Ce4NiPd3Pb2
_chemical_formula_sum   'Ce4 Ni1 Pd3 Pb2'
_cell_volume   231.24376704
_cell_formula_units_Z   1
loop_
 _symmetry_equiv_pos_site_id
 _symmetry_equiv_pos_as_xyz
  1  'x, y, z'
loop_
 _atom_site_type_symbol
 _atom_site_label
 _atom_site_symmetry_multiplicity
 _atom_site_fract_x
 _atom_site_fract_y
 _atom_site_fract_z
 _atom_site_occupancy
  Ce  Ce0  1  0.667072  0.174984  0.500000  1
  Ce  Ce1  1  0.184276  0.315724  0.500000  1
  Ce  Ce2  1  0.825508  0.674492  0.500000  1
  Ce  Ce3  1  0.325016  0.832928  0.500000  1
  Ni  Ni4  1  0.374740  0.125260  0.000000  1
  Pd  Pd5  1  0.127592  0.625622  0.000000  1
  Pd  Pd6  1  0.621306  0.878694  0.000000  1
  Pd  Pd7  1  0.874378  0.372408  0.000000  1
  Pb  Pb8  1  0.001388  0.001276  0.000000  1
  Pb  Pb9  1  0.498724  0.498612  0.000000  1
