# generated using pymatgen
data_AcAlI
_symmetry_space_group_name_H-M   'P 1'
_cell_length_a   4.53372300
_cell_length_b   4.53372386
_cell_length_c   12.78141500
_cell_angle_alpha   90.00000000
_cell_angle_beta   90.00000000
_cell_angle_gamma   120.00000100
_symmetry_Int_Tables_number   1
_chemical_formula_structural   AcAlI
_chemical_formula_sum   'Ac2 Al2 I2'
_cell_volume   227.52001656
_cell_formula_units_Z   2
loop_
 _symmetry_equiv_pos_site_id
 _symmetry_equiv_pos_as_xyz
  1  'x, y, z'
loop_
 _atom_site_type_symbol
 _atom_site_label
 _atom_site_symmetry_multiplicity
 _atom_site_fract_x
 _atom_site_fract_y
 _atom_site_fract_z
 _atom_site_occupancy
  Ac  Ac0  1  0.000000  0.000000  0.178499  1
  Ac  Ac1  1  0.000000  0.000000  0.821501  1
  Al  Al2  1  0.333333  0.666667  0.985064  1
  Al  Al3  1  0.666667  0.333333  0.014936  1
  I  I4  1  0.666667  0.333333  0.650440  1
  I  I5  1  0.333333  0.666667  0.349560  1
