# generated using pymatgen
data_NdEr3(Al8Pd3)3
_symmetry_space_group_name_H-M   'P 1'
_cell_length_a   7.55053663
_cell_length_b   7.58027378
_cell_length_c   13.20326407
_cell_angle_alpha   84.58150262
_cell_angle_beta   79.09880032
_cell_angle_gamma   60.02860376
_symmetry_Int_Tables_number   1
_chemical_formula_structural   NdEr3(Al8Pd3)3
_chemical_formula_sum   'Nd1 Er3 Al24 Pd9'
_cell_volume   642.82274113
_cell_formula_units_Z   1
loop_
 _symmetry_equiv_pos_site_id
 _symmetry_equiv_pos_as_xyz
  1  'x, y, z'
loop_
 _atom_site_type_symbol
 _atom_site_label
 _atom_site_symmetry_multiplicity
 _atom_site_fract_x
 _atom_site_fract_y
 _atom_site_fract_z
 _atom_site_occupancy
  Nd  Nd0  1  0.393036  0.168363  0.809588  1
  Er  Er1  1  0.606737  0.830831  0.191829  1
  Er  Er2  1  0.733495  0.498458  0.808381  1
  Er  Er3  1  0.266089  0.501967  0.191912  1
  Al  Al4  1  0.686109  0.831318  0.946491  1
  Al  Al5  1  0.315180  0.166342  0.057404  1
  Al  Al6  1  0.146396  0.832949  0.561026  1
  Al  Al7  1  0.854229  0.167004  0.437823  1
  Al  Al8  1  0.479330  0.166668  0.558281  1
  Al  Al9  1  0.520993  0.833096  0.440233  1
  Al  Al10  1  0.217221  0.165253  0.329420  1
  Al  Al11  1  0.784640  0.833606  0.668628  1
  Al  Al12  1  0.437311  0.507930  0.668848  1
  Al  Al13  1  0.563348  0.493317  0.329170  1
  Al  Al14  1  0.108391  0.159502  0.667638  1
  Al  Al15  1  0.890999  0.840534  0.330206  1
  Al  Al16  1  0.352317  0.501729  0.946492  1
  Al  Al17  1  0.646890  0.500725  0.055669  1
  Al  Al18  1  0.012773  0.167747  0.956047  1
  Al  Al19  1  0.984309  0.832414  0.046687  1
  Al  Al20  1  0.186889  0.499575  0.440307  1
  Al  Al21  1  0.813196  0.500652  0.558747  1
  Al  Al22  1  0.733589  0.164106  0.183929  1
  Al  Al23  1  0.267060  0.832330  0.816143  1
  Al  Al24  1  0.058487  0.633251  0.815123  1
  Al  Al25  1  0.937946  0.369586  0.185023  1
  Al  Al26  1  0.858082  0.042280  0.816144  1
  Al  Al27  1  0.144530  0.957969  0.184127  1
  Pd  Pd28  1  0.118932  0.493391  0.637730  1
  Pd  Pd29  1  0.880616  0.508009  0.361052  1
  Pd  Pd30  1  0.656951  0.171321  0.000629  1
  Pd  Pd31  1  0.342768  0.828487  0.000794  1
  Pd  Pd32  1  0.537660  0.166825  0.361104  1
  Pd  Pd33  1  0.462368  0.832290  0.637718  1
  Pd  Pd34  1  0.778877  0.175136  0.637113  1
  Pd  Pd35  1  0.222494  0.824588  0.361751  1
  Pd  Pd36  1  0.999761  0.500451  0.000792  1
