# generated using pymatgen
data_Sr5Au6
_symmetry_space_group_name_H-M   'P 1'
_cell_length_a   16.80762599
_cell_length_b   16.80762603
_cell_length_c   4.28696700
_cell_angle_alpha   90.00000000
_cell_angle_beta   90.00000000
_cell_angle_gamma   164.45357550
_symmetry_Int_Tables_number   1
_chemical_formula_structural   Sr5Au6
_chemical_formula_sum   'Sr5 Au6'
_cell_volume   324.58511814
_cell_formula_units_Z   1
loop_
 _symmetry_equiv_pos_site_id
 _symmetry_equiv_pos_as_xyz
  1  'x, y, z'
loop_
 _atom_site_type_symbol
 _atom_site_label
 _atom_site_symmetry_multiplicity
 _atom_site_fract_x
 _atom_site_fract_y
 _atom_site_fract_z
 _atom_site_occupancy
  Sr  Sr0  1  0.000000  0.000000  0.000000  1
  Sr  Sr1  1  0.615842  0.384158  0.000000  1
  Sr  Sr2  1  0.384158  0.615842  0.000000  1
  Sr  Sr3  1  0.802274  0.197725  0.500000  1
  Sr  Sr4  1  0.197725  0.802274  0.500000  1
  Au  Au5  1  0.719777  0.280223  0.000000  1
  Au  Au6  1  0.280223  0.719777  0.000000  1
  Au  Au7  1  0.902964  0.097036  0.500000  1
  Au  Au8  1  0.541760  0.458239  0.500000  1
  Au  Au9  1  0.458239  0.541760  0.500000  1
  Au  Au10  1  0.097036  0.902964  0.500000  1
