# generated using pymatgen
data_Mn8NbReOs2
_symmetry_space_group_name_H-M   'P 1'
_cell_length_a   4.68514300
_cell_length_b   4.68514114
_cell_length_c   7.70915700
_cell_angle_alpha   90.00000000
_cell_angle_beta   90.00000000
_cell_angle_gamma   120.00000607
_symmetry_Int_Tables_number   1
_chemical_formula_structural   Mn8NbReOs2
_chemical_formula_sum   'Mn8 Nb1 Re1 Os2'
_cell_volume   146.54905593
_cell_formula_units_Z   1
loop_
 _symmetry_equiv_pos_site_id
 _symmetry_equiv_pos_as_xyz
  1  'x, y, z'
loop_
 _atom_site_type_symbol
 _atom_site_label
 _atom_site_symmetry_multiplicity
 _atom_site_fract_x
 _atom_site_fract_y
 _atom_site_fract_z
 _atom_site_occupancy
  Mn  Mn0  1  0.173619  0.347236  0.747604  1
  Mn  Mn1  1  0.826076  0.173924  0.254042  1
  Mn  Mn2  1  0.347849  0.173924  0.254042  1
  Mn  Mn3  1  0.652764  0.826381  0.747604  1
  Mn  Mn4  1  0.000000  0.000000  0.000813  1
  Mn  Mn5  1  0.000000  0.000000  0.499808  1
  Mn  Mn6  1  0.826076  0.652151  0.254042  1
  Mn  Mn7  1  0.173619  0.826381  0.747604  1
  Nb  Nb8  1  0.333333  0.666667  0.062839  1
  Re  Re9  1  0.333333  0.666667  0.435859  1
  Os  Os10  1  0.666667  0.333333  0.925323  1
  Os  Os11  1  0.666667  0.333333  0.570418  1
