# generated using pymatgen
data_Ho5Er3Re3B24Ru
_symmetry_space_group_name_H-M   'P 1'
_cell_length_a   3.66084700
_cell_length_b   9.13559725
_cell_length_c   11.51769300
_cell_angle_alpha   90.10688020
_cell_angle_beta   90.00000000
_cell_angle_gamma   90.00000000
_symmetry_Int_Tables_number   1
_chemical_formula_structural   Ho5Er3Re3B24Ru
_chemical_formula_sum   'Ho5 Er3 Re3 B24 Ru1'
_cell_volume   385.19732862
_cell_formula_units_Z   1
loop_
 _symmetry_equiv_pos_site_id
 _symmetry_equiv_pos_as_xyz
  1  'x, y, z'
loop_
 _atom_site_type_symbol
 _atom_site_label
 _atom_site_symmetry_multiplicity
 _atom_site_fract_x
 _atom_site_fract_y
 _atom_site_fract_z
 _atom_site_occupancy
  Ho  Ho0  1  0.000000  0.321620  0.414234  1
  Ho  Ho1  1  0.000000  0.677506  0.587702  1
  Ho  Ho2  1  0.000000  0.824642  0.084022  1
  Ho  Ho3  1  0.000000  0.176888  0.913668  1
  Ho  Ho4  1  0.000000  0.941659  0.369873  1
  Er  Er5  1  0.000000  0.056504  0.629259  1
  Er  Er6  1  0.000000  0.443150  0.130372  1
  Er  Er7  1  0.000000  0.556960  0.871106  1
  Re  Re8  1  0.000000  0.362168  0.678366  1
  Re  Re9  1  0.000000  0.138441  0.179574  1
  Re  Re10  1  0.000000  0.861815  0.820741  1
  B  B11  1  0.500000  0.553868  0.432793  1
  B  B12  1  0.500000  0.447131  0.566607  1
  B  B13  1  0.500000  0.053218  0.066677  1
  B  B14  1  0.500000  0.947124  0.932972  1
  B  B15  1  0.500000  0.748368  0.418618  1
  B  B16  1  0.500000  0.250329  0.580960  1
  B  B17  1  0.500000  0.249716  0.081284  1
  B  B18  1  0.500000  0.751020  0.918929  1
  B  B19  1  0.500000  0.790753  0.265226  1
  B  B20  1  0.500000  0.207855  0.734333  1
  B  B21  1  0.500000  0.292083  0.235217  1
  B  B22  1  0.500000  0.707775  0.765683  1
  B  B23  1  0.500000  0.631212  0.185529  1
  B  B24  1  0.500000  0.369677  0.814343  1
  B  B25  1  0.500000  0.130844  0.315088  1
  B  B26  1  0.500000  0.868991  0.685286  1
  B  B27  1  0.500000  0.982025  0.211761  1
  B  B28  1  0.500000  0.018128  0.787541  1
  B  B29  1  0.500000  0.483156  0.288192  1
  B  B30  1  0.500000  0.518590  0.712113  1
  B  B31  1  0.500000  0.601594  0.028801  1
  B  B32  1  0.500000  0.399064  0.972354  1
  B  B33  1  0.500000  0.100355  0.471717  1
  B  B34  1  0.500000  0.897694  0.528239  1
  Ru  Ru35  1  0.000000  0.638077  0.320823  1
