# generated using pymatgen
data_Y6NpO12
_symmetry_space_group_name_H-M   'P 1'
_cell_length_a   6.59452519
_cell_length_b   6.59452472
_cell_length_c   6.59452520
_cell_angle_alpha   98.93154823
_cell_angle_beta   98.93155684
_cell_angle_gamma   98.93155180
_symmetry_Int_Tables_number   1
_chemical_formula_structural   Y6NpO12
_chemical_formula_sum   'Y6 Np1 O12'
_cell_volume   275.10124371
_cell_formula_units_Z   1
loop_
 _symmetry_equiv_pos_site_id
 _symmetry_equiv_pos_as_xyz
  1  'x, y, z'
loop_
 _atom_site_type_symbol
 _atom_site_label
 _atom_site_symmetry_multiplicity
 _atom_site_fract_x
 _atom_site_fract_y
 _atom_site_fract_z
 _atom_site_occupancy
  Y  Y0  1  0.390381  0.678311  0.854848  1
  Y  Y1  1  0.854848  0.390381  0.678311  1
  Y  Y2  1  0.678311  0.854848  0.390381  1
  Y  Y3  1  0.609619  0.321689  0.145152  1
  Y  Y4  1  0.145152  0.609619  0.321689  1
  Y  Y5  1  0.321689  0.145152  0.609619  1
  Np  Np6  1  0.000000  0.000000  0.000000  1
  O  O7  1  0.177506  0.427505  0.588557  1
  O  O8  1  0.588557  0.177506  0.427505  1
  O  O9  1  0.427505  0.588557  0.177506  1
  O  O10  1  0.822494  0.572495  0.411443  1
  O  O11  1  0.411443  0.822494  0.572495  1
  O  O12  1  0.572495  0.411443  0.822494  1
  O  O13  1  0.919827  0.045927  0.694004  1
  O  O14  1  0.954073  0.305996  0.080173  1
  O  O15  1  0.305996  0.080173  0.954073  1
  O  O16  1  0.080173  0.954073  0.305996  1
  O  O17  1  0.045927  0.694004  0.919827  1
  O  O18  1  0.694004  0.919827  0.045927  1
