# generated using pymatgen
data_Tb3Tm5(CdIr)2
_symmetry_space_group_name_H-M   'P 1'
_cell_length_a   9.57693831
_cell_length_b   9.57693093
_cell_length_c   9.57692600
_cell_angle_alpha   60.00003155
_cell_angle_beta   60.00005542
_cell_angle_gamma   59.99999781
_symmetry_Int_Tables_number   1
_chemical_formula_structural   Tb3Tm5(CdIr)2
_chemical_formula_sum   'Tb6 Tm10 Cd4 Ir4'
_cell_volume   621.10418731
_cell_formula_units_Z   2
loop_
 _symmetry_equiv_pos_site_id
 _symmetry_equiv_pos_as_xyz
  1  'x, y, z'
loop_
 _atom_site_type_symbol
 _atom_site_label
 _atom_site_symmetry_multiplicity
 _atom_site_fract_x
 _atom_site_fract_y
 _atom_site_fract_z
 _atom_site_occupancy
  Tb  Tb0  1  0.189231  0.810769  0.810769  1
  Tb  Tb1  1  0.810769  0.189231  0.189231  1
  Tb  Tb2  1  0.810769  0.189231  0.810770  1
  Tb  Tb3  1  0.189231  0.810769  0.189231  1
  Tb  Tb4  1  0.810769  0.810769  0.189231  1
  Tb  Tb5  1  0.189231  0.189231  0.810769  1
  Tm  Tm6  1  0.598600  0.598600  0.598600  1
  Tm  Tm7  1  0.598600  0.598600  0.204201  1
  Tm  Tm8  1  0.598600  0.204201  0.598600  1
  Tm  Tm9  1  0.204201  0.598600  0.598600  1
  Tm  Tm10  1  0.061561  0.438440  0.438440  1
  Tm  Tm11  1  0.438440  0.061560  0.061560  1
  Tm  Tm12  1  0.438440  0.061560  0.438440  1
  Tm  Tm13  1  0.061561  0.438440  0.061559  1
  Tm  Tm14  1  0.438440  0.438440  0.061560  1
  Tm  Tm15  1  0.061561  0.061559  0.438440  1
  Cd  Cd16  1  0.830737  0.830736  0.830736  1
  Cd  Cd17  1  0.830736  0.830736  0.507792  1
  Cd  Cd18  1  0.830736  0.507792  0.830736  1
  Cd  Cd19  1  0.507792  0.830736  0.830736  1
  Ir  Ir20  1  0.391596  0.391597  0.391596  1
  Ir  Ir21  1  0.391596  0.391596  0.825213  1
  Ir  Ir22  1  0.391596  0.825212  0.391596  1
  Ir  Ir23  1  0.825212  0.391596  0.391596  1
