# generated using pymatgen
data_LiTb2Y14Cd3Pt4
_symmetry_space_group_name_H-M   'P 1'
_cell_length_a   9.73722850
_cell_length_b   9.73722839
_cell_length_c   9.73559502
_cell_angle_alpha   59.89957714
_cell_angle_beta   59.89957465
_cell_angle_gamma   59.88632797
_symmetry_Int_Tables_number   1
_chemical_formula_structural   LiTb2Y14Cd3Pt4
_chemical_formula_sum   'Li1 Tb2 Y14 Cd3 Pt4'
_cell_volume   651.15440530
_cell_formula_units_Z   1
loop_
 _symmetry_equiv_pos_site_id
 _symmetry_equiv_pos_as_xyz
  1  'x, y, z'
loop_
 _atom_site_type_symbol
 _atom_site_label
 _atom_site_symmetry_multiplicity
 _atom_site_fract_x
 _atom_site_fract_y
 _atom_site_fract_z
 _atom_site_occupancy
  Li  Li0  1  0.571470  0.571470  0.571288  1
  Tb  Tb1  1  0.351072  0.351072  0.351326  1
  Tb  Tb2  1  0.352418  0.352418  0.944127  1
  Y  Y3  1  0.352909  0.942913  0.352893  1
  Y  Y4  1  0.942913  0.352909  0.352893  1
  Y  Y5  1  0.809817  0.192443  0.192048  1
  Y  Y6  1  0.188428  0.812349  0.812331  1
  Y  Y7  1  0.192443  0.809817  0.192048  1
  Y  Y8  1  0.812349  0.188428  0.812331  1
  Y  Y9  1  0.192214  0.192214  0.810015  1
  Y  Y10  1  0.812374  0.812374  0.188244  1
  Y  Y11  1  0.937319  0.564669  0.564797  1
  Y  Y12  1  0.563124  0.936663  0.936338  1
  Y  Y13  1  0.564669  0.937319  0.564797  1
  Y  Y14  1  0.936663  0.563124  0.936338  1
  Y  Y15  1  0.564488  0.564488  0.937053  1
  Y  Y16  1  0.936353  0.936353  0.563347  1
  Cd  Cd17  1  0.582330  0.582330  0.253688  1
  Cd  Cd18  1  0.582439  0.253533  0.582058  1
  Cd  Cd19  1  0.253533  0.582439  0.582058  1
  Pt  Pt20  1  0.144078  0.144078  0.143692  1
  Pt  Pt21  1  0.143025  0.143025  0.570498  1
  Pt  Pt22  1  0.143125  0.570446  0.142895  1
  Pt  Pt23  1  0.570446  0.143125  0.142895  1
