# generated using pymatgen
data_Y4Lu8Tc3Ru
_symmetry_space_group_name_H-M   'P 1'
_cell_length_a   6.20977217
_cell_length_b   7.39897328
_cell_length_c   8.90987000
_cell_angle_alpha   90.00000000
_cell_angle_beta   90.00000000
_cell_angle_gamma   90.02919476
_symmetry_Int_Tables_number   1
_chemical_formula_structural   Y4Lu8Tc3Ru
_chemical_formula_sum   'Y4 Lu8 Tc3 Ru1'
_cell_volume   409.37228474
_cell_formula_units_Z   1
loop_
 _symmetry_equiv_pos_site_id
 _symmetry_equiv_pos_as_xyz
  1  'x, y, z'
loop_
 _atom_site_type_symbol
 _atom_site_label
 _atom_site_symmetry_multiplicity
 _atom_site_fract_x
 _atom_site_fract_y
 _atom_site_fract_z
 _atom_site_occupancy
  Y  Y0  1  0.876357  0.539739  0.250000  1
  Y  Y1  1  0.623903  0.038565  0.250000  1
  Y  Y2  1  0.126970  0.458131  0.750000  1
  Y  Y3  1  0.377097  0.959632  0.750000  1
  Lu  Lu4  1  0.341610  0.675158  0.062741  1
  Lu  Lu5  1  0.155319  0.175005  0.437608  1
  Lu  Lu6  1  0.656403  0.326294  0.563050  1
  Lu  Lu7  1  0.843949  0.824619  0.937203  1
  Lu  Lu8  1  0.656403  0.326294  0.936950  1
  Lu  Lu9  1  0.843949  0.824619  0.562797  1
  Lu  Lu10  1  0.341610  0.675158  0.437259  1
  Lu  Lu11  1  0.155319  0.175005  0.062392  1
  Tc  Tc12  1  0.047858  0.883082  0.250000  1
  Tc  Tc13  1  0.453896  0.384687  0.250000  1
  Tc  Tc14  1  0.953165  0.116743  0.750000  1
  Ru  Ru15  1  0.546191  0.617269  0.750000  1
