# generated using pymatgen
data_Ni4P4Ru3
_symmetry_space_group_name_H-M   'P 1'
_cell_length_a   5.68830793
_cell_length_b   3.62694600
_cell_length_c   6.78200217
_cell_angle_alpha   90.00000000
_cell_angle_beta   91.58346069
_cell_angle_gamma   90.00000000
_symmetry_Int_Tables_number   1
_chemical_formula_structural   Ni4P4Ru3
_chemical_formula_sum   'Ni4 P4 Ru3'
_cell_volume   139.86731514
_cell_formula_units_Z   1
loop_
 _symmetry_equiv_pos_site_id
 _symmetry_equiv_pos_as_xyz
  1  'x, y, z'
loop_
 _atom_site_type_symbol
 _atom_site_label
 _atom_site_symmetry_multiplicity
 _atom_site_fract_x
 _atom_site_fract_y
 _atom_site_fract_z
 _atom_site_occupancy
  Ni  Ni0  1  0.639610  0.250000  0.069591  1
  Ni  Ni1  1  0.136696  0.250000  0.440644  1
  Ni  Ni2  1  0.871294  0.749999  0.572551  1
  Ni  Ni3  1  0.354259  0.749999  0.937545  1
  P  P4  1  0.243778  0.250000  0.115105  1
  P  P5  1  0.752995  0.250000  0.383809  1
  P  P6  1  0.255367  0.749999  0.624434  1
  P  P7  1  0.744317  0.749999  0.878726  1
  Ru  Ru8  1  0.981660  0.749999  0.164224  1
  Ru  Ru9  1  0.480176  0.749999  0.336623  1
  Ru  Ru10  1  0.537822  0.250000  0.674008  1
