# generated using pymatgen
data_CeDy(BIr)8
_symmetry_space_group_name_H-M   'P 1'
_cell_length_a   3.97437900
_cell_length_b   7.68077600
_cell_length_c   7.68077600
_cell_angle_alpha   90.00000000
_cell_angle_beta   90.00000000
_cell_angle_gamma   90.00000000
_symmetry_Int_Tables_number   1
_chemical_formula_structural   CeDy(BIr)8
_chemical_formula_sum   'Ce1 Dy1 B8 Ir8'
_cell_volume   234.46578638
_cell_formula_units_Z   1
loop_
 _symmetry_equiv_pos_site_id
 _symmetry_equiv_pos_as_xyz
  1  'x, y, z'
loop_
 _atom_site_type_symbol
 _atom_site_label
 _atom_site_symmetry_multiplicity
 _atom_site_fract_x
 _atom_site_fract_y
 _atom_site_fract_z
 _atom_site_occupancy
  Ce  Ce0  1  0.750000  0.750000  0.750000  1
  Dy  Dy1  1  0.250000  0.250000  0.250000  1
  B  B2  1  0.357444  0.907906  0.029698  1
  B  B3  1  0.357444  0.592094  0.470302  1
  B  B4  1  0.864712  0.526680  0.091918  1
  B  B5  1  0.864712  0.973320  0.408082  1
  B  B6  1  0.635288  0.091918  0.973320  1
  B  B7  1  0.635288  0.408082  0.526680  1
  B  B8  1  0.142556  0.470302  0.907906  1
  B  B9  1  0.142556  0.029698  0.592094  1
  Ir  Ir10  1  0.135501  0.410167  0.640714  1
  Ir  Ir11  1  0.135501  0.089833  0.859286  1
  Ir  Ir12  1  0.640472  0.141850  0.587441  1
  Ir  Ir13  1  0.640472  0.358150  0.912559  1
  Ir  Ir14  1  0.859528  0.587441  0.358150  1
  Ir  Ir15  1  0.859528  0.912559  0.141850  1
  Ir  Ir16  1  0.364499  0.859286  0.410167  1
  Ir  Ir17  1  0.364499  0.640714  0.089833  1
