# generated using pymatgen
data_Er5Lu5(GaBi2)2
_symmetry_space_group_name_H-M   'P 1'
_cell_length_a   11.86610200
_cell_length_b   9.06141809
_cell_length_c   7.95075000
_cell_angle_alpha   89.99170416
_cell_angle_beta   90.00000000
_cell_angle_gamma   90.00000000
_symmetry_Int_Tables_number   1
_chemical_formula_structural   Er5Lu5(GaBi2)2
_chemical_formula_sum   'Er10 Lu10 Ga4 Bi8'
_cell_volume   854.89413929
_cell_formula_units_Z   2
loop_
 _symmetry_equiv_pos_site_id
 _symmetry_equiv_pos_as_xyz
  1  'x, y, z'
loop_
 _atom_site_type_symbol
 _atom_site_label
 _atom_site_symmetry_multiplicity
 _atom_site_fract_x
 _atom_site_fract_y
 _atom_site_fract_z
 _atom_site_occupancy
  Er  Er0  1  0.061970  0.945651  0.818724  1
  Er  Er1  1  0.561970  0.554349  0.681276  1
  Er  Er2  1  0.212962  0.749755  0.167704  1
  Er  Er3  1  0.712962  0.750245  0.332296  1
  Er  Er4  1  0.787239  0.249900  0.832471  1
  Er  Er5  1  0.287239  0.250100  0.667529  1
  Er  Er6  1  0.293060  0.749980  0.640821  1
  Er  Er7  1  0.793060  0.750020  0.859179  1
  Er  Er8  1  0.706933  0.249978  0.358755  1
  Er  Er9  1  0.206933  0.250022  0.141245  1
  Lu  Lu10  1  0.061766  0.555180  0.819833  1
  Lu  Lu11  1  0.561766  0.944820  0.680167  1
  Lu  Lu12  1  0.938286  0.055399  0.180096  1
  Lu  Lu13  1  0.438286  0.444601  0.319904  1
  Lu  Lu14  1  0.938260  0.444713  0.180315  1
  Lu  Lu15  1  0.438260  0.055287  0.319685  1
  Lu  Lu16  1  0.001690  0.750023  0.460678  1
  Lu  Lu17  1  0.501690  0.749977  0.039322  1
  Lu  Lu18  1  0.998219  0.250139  0.538702  1
  Lu  Lu19  1  0.498219  0.249861  0.961298  1
  Ga  Ga20  1  0.474228  0.750635  0.406697  1
  Ga  Ga21  1  0.974228  0.749365  0.093303  1
  Ga  Ga22  1  0.525211  0.248479  0.592161  1
  Ga  Ga23  1  0.025211  0.251521  0.907839  1
  Bi  Bi24  1  0.325884  0.509565  0.934193  1
  Bi  Bi25  1  0.825884  0.990435  0.565807  1
  Bi  Bi26  1  0.674030  0.009899  0.065767  1
  Bi  Bi27  1  0.174030  0.490101  0.434233  1
  Bi  Bi28  1  0.674218  0.490280  0.065939  1
  Bi  Bi29  1  0.174218  0.009720  0.434061  1
  Bi  Bi30  1  0.326048  0.990383  0.934714  1
  Bi  Bi31  1  0.826048  0.509617  0.565286  1
