# generated using pymatgen
data_BaCo2(Sb6Ru)2
_symmetry_space_group_name_H-M   'P 1'
_cell_length_a   8.10733755
_cell_length_b   8.06257310
_cell_length_c   8.06257360
_cell_angle_alpha   109.14258476
_cell_angle_beta   109.49006052
_cell_angle_gamma   109.55585587
_symmetry_Int_Tables_number   1
_chemical_formula_structural   BaCo2(Sb6Ru)2
_chemical_formula_sum   'Ba1 Co2 Sb12 Ru2'
_cell_volume   406.81766066
_cell_formula_units_Z   1
loop_
 _symmetry_equiv_pos_site_id
 _symmetry_equiv_pos_as_xyz
  1  'x, y, z'
loop_
 _atom_site_type_symbol
 _atom_site_label
 _atom_site_symmetry_multiplicity
 _atom_site_fract_x
 _atom_site_fract_y
 _atom_site_fract_z
 _atom_site_occupancy
  Ba  Ba0  1  0.000000  0.000000  0.000000  1
  Co  Co1  1  0.500000  0.500000  0.500000  1
  Co  Co2  1  0.500000  0.000000  0.000000  1
  Sb  Sb3  1  0.165260  0.820099  0.664040  1
  Sb  Sb4  1  0.165260  0.501220  0.345161  1
  Sb  Sb5  1  0.499291  0.661194  0.838097  1
  Sb  Sb6  1  0.344559  0.843583  0.179722  1
  Sb  Sb7  1  0.816437  0.657581  0.158856  1
  Sb  Sb8  1  0.655441  0.835164  0.499025  1
  Sb  Sb9  1  0.183563  0.342419  0.841144  1
  Sb  Sb10  1  0.655441  0.156417  0.820278  1
  Sb  Sb11  1  0.344559  0.164836  0.500975  1
  Sb  Sb12  1  0.500709  0.338806  0.161903  1
  Sb  Sb13  1  0.834740  0.498780  0.654839  1
  Sb  Sb14  1  0.834740  0.179901  0.335960  1
  Ru  Ru15  1  0.000000  0.000000  0.500000  1
  Ru  Ru16  1  0.000000  0.500000  0.000000  1
