# generated using pymatgen
data_LaPr2Dy2P12Ru19
_symmetry_space_group_name_H-M   'P 1'
_cell_length_a   12.62075500
_cell_length_b   12.62509340
_cell_length_c   4.01589400
_cell_angle_alpha   90.00000000
_cell_angle_beta   90.00000000
_cell_angle_gamma   119.98863074
_symmetry_Int_Tables_number   1
_chemical_formula_structural   LaPr2Dy2P12Ru19
_chemical_formula_sum   'La1 Pr2 Dy2 P12 Ru19'
_cell_volume   554.22045652
_cell_formula_units_Z   1
loop_
 _symmetry_equiv_pos_site_id
 _symmetry_equiv_pos_as_xyz
  1  'x, y, z'
loop_
 _atom_site_type_symbol
 _atom_site_label
 _atom_site_symmetry_multiplicity
 _atom_site_fract_x
 _atom_site_fract_y
 _atom_site_fract_z
 _atom_site_occupancy
  La  La0  1  0.817277  0.000000  0.500000  1
  Pr  Pr1  1  0.184052  0.183802  0.500000  1
  Pr  Pr2  1  0.000250  0.816198  0.500000  1
  Dy  Dy3  1  0.666409  0.333395  0.000000  1
  Dy  Dy4  1  0.333014  0.666605  0.000000  1
  P  P5  1  0.624756  0.000000  0.000000  1
  P  P6  1  0.374619  0.374592  0.000000  1
  P  P7  1  0.000028  0.625408  0.000000  1
  P  P8  1  0.695313  0.520999  0.500000  1
  P  P9  1  0.826043  0.304643  0.500000  1
  P  P10  1  0.304390  0.825979  0.500000  1
  P  P11  1  0.521397  0.695357  0.500000  1
  P  P12  1  0.188840  0.000000  0.000000  1
  P  P13  1  0.811064  0.810002  0.000000  1
  P  P14  1  0.001062  0.189998  0.000000  1
  P  P15  1  0.478413  0.174021  0.500000  1
  P  P16  1  0.174312  0.479001  0.500000  1
  Ru  Ru17  1  0.618442  0.803917  0.000000  1
  Ru  Ru18  1  0.185769  0.381554  0.000000  1
  Ru  Ru19  1  0.381181  0.185496  0.000000  1
  Ru  Ru20  1  0.195684  0.814504  0.000000  1
  Ru  Ru21  1  0.804216  0.618446  0.000000  1
  Ru  Ru22  1  0.874322  0.506305  0.500000  1
  Ru  Ru23  1  0.493682  0.367983  0.500000  1
  Ru  Ru24  1  0.631823  0.125802  0.500000  1
  Ru  Ru25  1  0.125700  0.632017  0.500000  1
  Ru  Ru26  1  0.368017  0.493695  0.500000  1
  Ru  Ru27  1  0.506021  0.874198  0.500000  1
  Ru  Ru28  1  0.999792  0.000000  0.000000  1
  Ru  Ru29  1  0.712499  0.712044  0.500000  1
  Ru  Ru30  1  0.000454  0.287956  0.500000  1
  Ru  Ru31  1  0.445361  0.000000  0.000000  1
  Ru  Ru32  1  0.553969  0.553882  0.000000  1
  Ru  Ru33  1  0.000086  0.446118  0.000000  1
  Ru  Ru34  1  0.814526  0.196083  0.000000  1
  Ru  Ru35  1  0.287214  0.000000  0.500000  1
