# generated using pymatgen
data_Nd2Th2(Ga8Pd3)3
_symmetry_space_group_name_H-M   'P 1'
_cell_length_a   7.65229767
_cell_length_b   7.65079230
_cell_length_c   13.46692287
_cell_angle_alpha   84.68277203
_cell_angle_beta   100.67776592
_cell_angle_gamma   119.88534255
_symmetry_Int_Tables_number   1
_chemical_formula_structural   Nd2Th2(Ga8Pd3)3
_chemical_formula_sum   'Nd2 Th2 Ga24 Pd9'
_cell_volume   671.75680077
_cell_formula_units_Z   1
loop_
 _symmetry_equiv_pos_site_id
 _symmetry_equiv_pos_as_xyz
  1  'x, y, z'
loop_
 _atom_site_type_symbol
 _atom_site_label
 _atom_site_symmetry_multiplicity
 _atom_site_fract_x
 _atom_site_fract_y
 _atom_site_fract_z
 _atom_site_occupancy
  Nd  Nd0  1  0.770100  0.502464  0.809261  1
  Nd  Nd1  1  0.229900  0.497536  0.190739  1
  Th  Th2  1  0.436028  0.831493  0.807724  1
  Th  Th3  1  0.563972  0.168507  0.192276  1
  Ga  Ga4  1  0.478209  0.167608  0.941124  1
  Ga  Ga5  1  0.521791  0.832392  0.058876  1
  Ga  Ga6  1  0.021792  0.165330  0.559159  1
  Ga  Ga7  1  0.978208  0.834670  0.440841  1
  Ga  Ga8  1  0.352948  0.832623  0.556451  1
  Ga  Ga9  1  0.647052  0.167377  0.443549  1
  Ga  Ga10  1  0.616154  0.832788  0.331117  1
  Ga  Ga11  1  0.383846  0.167212  0.668883  1
  Ga  Ga12  1  0.055771  0.492252  0.669409  1
  Ga  Ga13  1  0.944229  0.507748  0.330591  1
  Ga  Ga14  1  0.732058  0.839067  0.667932  1
  Ga  Ga15  1  0.267942  0.160933  0.332068  1
  Ga  Ga16  1  0.145321  0.497287  0.942479  1
  Ga  Ga17  1  0.854679  0.502713  0.057521  1
  Ga  Ga18  1  0.817515  0.833878  0.949401  1
  Ga  Ga19  1  0.182485  0.166122  0.050599  1
  Ga  Ga20  1  0.311992  0.498471  0.442355  1
  Ga  Ga21  1  0.688008  0.501529  0.557645  1
  Ga  Ga22  1  0.100424  0.836406  0.183314  1
  Ga  Ga23  1  0.899576  0.163594  0.816686  1
  Ga  Ga24  1  0.305057  0.367312  0.815318  1
  Ga  Ga25  1  0.694943  0.632688  0.184682  1
  Ga  Ga26  1  0.099953  0.961496  0.815881  1
  Ga  Ga27  1  0.900047  0.038504  0.184119  1
  Pd  Pd28  1  0.384033  0.504253  0.636801  1
  Pd  Pd29  1  0.615967  0.495747  0.363199  1
  Pd  Pd30  1  0.172320  0.830853  0.999233  1
  Pd  Pd31  1  0.827680  0.169147  0.000767  1
  Pd  Pd32  1  0.291503  0.833891  0.362440  1
  Pd  Pd33  1  0.708497  0.166109  0.637560  1
  Pd  Pd34  1  0.048422  0.828883  0.637241  1
  Pd  Pd35  1  0.951578  0.171117  0.362759  1
  Pd  Pd36  1  0.500000  0.500000  0.000000  1
