# generated using pymatgen
data_HoEr7(InPd)2
_symmetry_space_group_name_H-M   'P 1'
_cell_length_a   9.65250102
_cell_length_b   9.65250014
_cell_length_c   9.68302800
_cell_angle_alpha   59.89533066
_cell_angle_beta   59.89533369
_cell_angle_gamma   59.79531085
_symmetry_Int_Tables_number   1
_chemical_formula_structural   HoEr7(InPd)2
_chemical_formula_sum   'Ho2 Er14 In4 Pd4'
_cell_volume   635.93505206
_cell_formula_units_Z   2
loop_
 _symmetry_equiv_pos_site_id
 _symmetry_equiv_pos_as_xyz
  1  'x, y, z'
loop_
 _atom_site_type_symbol
 _atom_site_label
 _atom_site_symmetry_multiplicity
 _atom_site_fract_x
 _atom_site_fract_y
 _atom_site_fract_z
 _atom_site_occupancy
  Ho  Ho0  1  0.352352  0.352352  0.353218  1
  Ho  Ho1  1  0.352352  0.352352  0.942077  1
  Er  Er2  1  0.352239  0.941655  0.353053  1
  Er  Er3  1  0.941655  0.352239  0.353053  1
  Er  Er4  1  0.810931  0.189702  0.189233  1
  Er  Er5  1  0.189702  0.810931  0.810134  1
  Er  Er6  1  0.189702  0.810931  0.189233  1
  Er  Er7  1  0.810931  0.189702  0.810134  1
  Er  Er8  1  0.189097  0.189097  0.810903  1
  Er  Er9  1  0.810174  0.810174  0.189826  1
  Er  Er10  1  0.935316  0.564209  0.564409  1
  Er  Er11  1  0.564209  0.935316  0.936066  1
  Er  Er12  1  0.564209  0.935316  0.564409  1
  Er  Er13  1  0.935316  0.564209  0.936066  1
  Er  Er14  1  0.564624  0.564624  0.935376  1
  Er  Er15  1  0.936071  0.936071  0.563929  1
  In  In16  1  0.583782  0.583782  0.583379  1
  In  In17  1  0.583782  0.583782  0.249056  1
  In  In18  1  0.583603  0.249959  0.583219  1
  In  In19  1  0.249959  0.583603  0.583219  1
  Pd  Pd20  1  0.144039  0.144039  0.144146  1
  Pd  Pd21  1  0.144039  0.144039  0.567775  1
  Pd  Pd22  1  0.143810  0.568103  0.144043  1
  Pd  Pd23  1  0.568103  0.143810  0.144043  1
