# generated using pymatgen
data_Sb7Mo2Ru
_symmetry_space_group_name_H-M   'P 1'
_cell_length_a   8.31564424
_cell_length_b   8.30434798
_cell_length_c   8.31564470
_cell_angle_alpha   109.25288635
_cell_angle_beta   109.96338868
_cell_angle_gamma   109.25288611
_symmetry_Int_Tables_number   1
_chemical_formula_structural   Sb7Mo2Ru
_chemical_formula_sum   'Sb14 Mo4 Ru2'
_cell_volume   441.73410245
_cell_formula_units_Z   2
loop_
 _symmetry_equiv_pos_site_id
 _symmetry_equiv_pos_as_xyz
  1  'x, y, z'
loop_
 _atom_site_type_symbol
 _atom_site_label
 _atom_site_symmetry_multiplicity
 _atom_site_fract_x
 _atom_site_fract_y
 _atom_site_fract_z
 _atom_site_occupancy
  Sb  Sb0  1  0.749240  0.250706  0.501466  1
  Sb  Sb1  1  0.501466  0.250706  0.749240  1
  Sb  Sb2  1  0.501942  0.750760  0.248818  1
  Sb  Sb3  1  0.251551  0.503102  0.751551  1
  Sb  Sb4  1  0.751551  0.503102  0.251551  1
  Sb  Sb5  1  0.248818  0.750760  0.501942  1
  Sb  Sb6  1  0.326701  0.326730  0.326701  1
  Sb  Sb7  1  0.000519  0.000374  0.326737  1
  Sb  Sb8  1  0.326737  0.000374  0.000519  1
  Sb  Sb9  1  0.000029  0.326730  0.000029  1
  Sb  Sb10  1  0.673637  0.000374  0.999855  1
  Sb  Sb11  1  0.999886  0.674751  0.999886  1
  Sb  Sb12  1  0.999855  0.000374  0.673637  1
  Sb  Sb13  1  0.674865  0.674751  0.674865  1
  Mo  Mo14  1  0.999613  0.654632  0.655019  1
  Mo  Mo15  1  0.658817  0.999312  0.658817  1
  Mo  Mo16  1  0.340495  0.999312  0.340495  1
  Mo  Mo17  1  0.655019  0.654632  0.999613  1
  Ru  Ru18  1  0.339576  0.339259  0.999682  1
  Ru  Ru19  1  0.999682  0.339259  0.339576  1
