# generated using pymatgen
data_Ba6MgNi4O15
_symmetry_space_group_name_H-M   'P 1'
_cell_length_a   7.21200399
_cell_length_b   7.21199814
_cell_length_c   7.21198332
_cell_angle_alpha   88.51817722
_cell_angle_beta   88.51820401
_cell_angle_gamma   88.51842665
_symmetry_Int_Tables_number   1
_chemical_formula_structural   Ba6MgNi4O15
_chemical_formula_sum   'Ba6 Mg1 Ni4 O15'
_cell_volume   374.74666798
_cell_formula_units_Z   1
loop_
 _symmetry_equiv_pos_site_id
 _symmetry_equiv_pos_as_xyz
  1  'x, y, z'
loop_
 _atom_site_type_symbol
 _atom_site_label
 _atom_site_symmetry_multiplicity
 _atom_site_fract_x
 _atom_site_fract_y
 _atom_site_fract_z
 _atom_site_occupancy
  Ba  Ba0  1  0.336072  0.663927  0.000002  1
  Ba  Ba1  1  0.000002  0.336075  0.663926  1
  Ba  Ba2  1  0.663925  0.000002  0.336075  1
  Ba  Ba3  1  0.146753  0.853251  0.500004  1
  Ba  Ba4  1  0.500003  0.146754  0.853252  1
  Ba  Ba5  1  0.853253  0.500004  0.146752  1
  Mg  Mg6  1  0.500000  0.499997  0.499996  1
  Ni  Ni7  1  0.291324  0.291322  0.291321  1
  Ni  Ni8  1  0.708651  0.708651  0.708652  1
  Ni  Ni9  1  0.095336  0.095336  0.095331  1
  Ni  Ni10  1  0.904664  0.904664  0.904661  1
  O  O11  1  0.143052  0.000007  0.856959  1
  O  O12  1  0.856957  0.143056  0.000009  1
  O  O13  1  0.000005  0.856960  0.143058  1
  O  O14  1  0.037292  0.193392  0.329167  1
  O  O15  1  0.329165  0.037289  0.193390  1
  O  O16  1  0.193391  0.329166  0.037288  1
  O  O17  1  0.806606  0.962714  0.670832  1
  O  O18  1  0.670827  0.806609  0.962716  1
  O  O19  1  0.962712  0.670831  0.806611  1
  O  O20  1  0.369692  0.234215  0.529793  1
  O  O21  1  0.529796  0.369688  0.234215  1
  O  O22  1  0.234219  0.529794  0.369689  1
  O  O23  1  0.765788  0.630310  0.470205  1
  O  O24  1  0.470204  0.765785  0.630309  1
  O  O25  1  0.630311  0.470205  0.765786  1
