# generated using pymatgen
data_Ho8Zn4Ag3Ir
_symmetry_space_group_name_H-M   'P 1'
_cell_length_a   7.16129901
_cell_length_b   7.18311000
_cell_length_c   7.16265600
_cell_angle_alpha   90.00000000
_cell_angle_beta   90.00241623
_cell_angle_gamma   90.00000000
_symmetry_Int_Tables_number   1
_chemical_formula_structural   Ho8Zn4Ag3Ir
_chemical_formula_sum   'Ho8 Zn4 Ag3 Ir1'
_cell_volume   368.44987867
_cell_formula_units_Z   1
loop_
 _symmetry_equiv_pos_site_id
 _symmetry_equiv_pos_as_xyz
  1  'x, y, z'
loop_
 _atom_site_type_symbol
 _atom_site_label
 _atom_site_symmetry_multiplicity
 _atom_site_fract_x
 _atom_site_fract_y
 _atom_site_fract_z
 _atom_site_occupancy
  Ho  Ho0  1  0.243119  0.508818  0.256810  1
  Ho  Ho1  1  0.243119  0.991182  0.256810  1
  Ho  Ho2  1  0.756915  0.994180  0.257007  1
  Ho  Ho3  1  0.756915  0.505820  0.257007  1
  Ho  Ho4  1  0.243036  0.508835  0.743111  1
  Ho  Ho5  1  0.243036  0.991166  0.743111  1
  Ho  Ho6  1  0.756836  0.994205  0.743072  1
  Ho  Ho7  1  0.756836  0.505795  0.743072  1
  Zn  Zn8  1  0.003366  0.250000  0.000005  1
  Zn  Zn9  1  0.996562  0.750000  0.999999  1
  Zn  Zn10  1  0.503532  0.750000  0.500000  1
  Zn  Zn11  1  0.496537  0.250000  0.500004  1
  Ag  Ag12  1  0.496390  0.250000  0.000000  1
  Ag  Ag13  1  0.503451  0.750000  0.999997  1
  Ag  Ag14  1  0.003874  0.250000  0.499971  1
  Ir  Ir15  1  0.996477  0.750000  0.500018  1
