# generated using pymatgen
data_SmY2PaN4
_symmetry_space_group_name_H-M   'P 1'
_cell_length_a   6.07264951
_cell_length_b   6.07265022
_cell_length_c   4.92417500
_cell_angle_alpha   66.08137266
_cell_angle_beta   66.08138002
_cell_angle_gamma   47.83724852
_symmetry_Int_Tables_number   1
_chemical_formula_structural   SmY2PaN4
_chemical_formula_sum   'Sm1 Y2 Pa1 N4'
_cell_volume   120.63789546
_cell_formula_units_Z   1
loop_
 _symmetry_equiv_pos_site_id
 _symmetry_equiv_pos_as_xyz
  1  'x, y, z'
loop_
 _atom_site_type_symbol
 _atom_site_label
 _atom_site_symmetry_multiplicity
 _atom_site_fract_x
 _atom_site_fract_y
 _atom_site_fract_z
 _atom_site_occupancy
  Sm  Sm0  1  0.497069  0.502931  0.502931  1
  Y  Y1  1  0.747045  0.752955  0.752955  1
  Y  Y2  1  0.247045  0.252955  0.252955  1
  Pa  Pa3  1  0.996824  0.003176  0.003176  1
  N  N4  1  0.997143  0.002857  0.503426  1
  N  N5  1  0.229300  0.235064  0.770700  1
  N  N6  1  0.496574  0.503426  0.002857  1
  N  N7  1  0.764936  0.770700  0.235064  1
