# generated using pymatgen
data_Gd3YF12
_symmetry_space_group_name_H-M   'P 1'
_cell_length_a   4.64850564
_cell_length_b   6.42807909
_cell_length_c   7.03998500
_cell_angle_alpha   90.00000000
_cell_angle_beta   90.00000000
_cell_angle_gamma   89.80679166
_symmetry_Int_Tables_number   1
_chemical_formula_structural   Gd3YF12
_chemical_formula_sum   'Gd3 Y1 F12'
_cell_volume   210.36032762
_cell_formula_units_Z   1
loop_
 _symmetry_equiv_pos_site_id
 _symmetry_equiv_pos_as_xyz
  1  'x, y, z'
loop_
 _atom_site_type_symbol
 _atom_site_label
 _atom_site_symmetry_multiplicity
 _atom_site_fract_x
 _atom_site_fract_y
 _atom_site_fract_z
 _atom_site_occupancy
  Gd  Gd0  1  0.950811  0.632744  0.750000  1
  Gd  Gd1  1  0.450717  0.866402  0.250000  1
  Gd  Gd2  1  0.549558  0.134220  0.750000  1
  Y  Y3  1  0.047614  0.366055  0.250000  1
  F  F4  1  0.360259  0.165542  0.435929  1
  F  F5  1  0.863809  0.336455  0.561024  1
  F  F6  1  0.136864  0.660380  0.064722  1
  F  F7  1  0.636890  0.836731  0.937371  1
  F  F8  1  0.611603  0.526378  0.250000  1
  F  F9  1  0.107206  0.972095  0.750000  1
  F  F10  1  0.893369  0.031399  0.250000  1
  F  F11  1  0.393477  0.472491  0.750000  1
  F  F12  1  0.360259  0.165542  0.064071  1
  F  F13  1  0.863809  0.336455  0.938976  1
  F  F14  1  0.136864  0.660380  0.435278  1
  F  F15  1  0.636890  0.836731  0.562629  1
