# generated using pymatgen
data_Mg4Be(BRh2)4
_symmetry_space_group_name_H-M   'P 1'
_cell_length_a   9.41460962
_cell_length_b   9.41461060
_cell_length_c   2.91024000
_cell_angle_alpha   90.00000000
_cell_angle_beta   90.00000000
_cell_angle_gamma   125.73982397
_symmetry_Int_Tables_number   1
_chemical_formula_structural   Mg4Be(BRh2)4
_chemical_formula_sum   'Mg4 Be1 B4 Rh8'
_cell_volume   209.37128441
_cell_formula_units_Z   1
loop_
 _symmetry_equiv_pos_site_id
 _symmetry_equiv_pos_as_xyz
  1  'x, y, z'
loop_
 _atom_site_type_symbol
 _atom_site_label
 _atom_site_symmetry_multiplicity
 _atom_site_fract_x
 _atom_site_fract_y
 _atom_site_fract_z
 _atom_site_occupancy
  Mg  Mg0  1  0.205641  0.794359  0.500000  1
  Mg  Mg1  1  0.794359  0.205641  0.500000  1
  Mg  Mg2  1  0.345600  0.345600  0.500000  1
  Mg  Mg3  1  0.654400  0.654400  0.500000  1
  Be  Be4  1  0.000000  0.000000  0.500000  1
  B  B5  1  0.455595  0.151049  0.500000  1
  B  B6  1  0.151049  0.455595  0.500000  1
  B  B7  1  0.544405  0.848951  0.500000  1
  B  B8  1  0.848951  0.544405  0.500000  1
  Rh  Rh9  1  0.629350  0.370650  0.000000  1
  Rh  Rh10  1  0.370650  0.629350  0.000000  1
  Rh  Rh11  1  0.927178  0.746760  0.000000  1
  Rh  Rh12  1  0.072822  0.253240  0.000000  1
  Rh  Rh13  1  0.500000  0.000000  0.000000  1
  Rh  Rh14  1  0.253240  0.072822  0.000000  1
  Rh  Rh15  1  0.746760  0.927178  0.000000  1
  Rh  Rh16  1  0.000000  0.500000  0.000000  1
