# generated using pymatgen
data_Dy3TmAl24Pt8Rh
_symmetry_space_group_name_H-M   'P 1'
_cell_length_a   7.51554311
_cell_length_b   7.53977589
_cell_length_c   13.16670112
_cell_angle_alpha   84.63631511
_cell_angle_beta   79.13841570
_cell_angle_gamma   59.92443480
_symmetry_Int_Tables_number   1
_chemical_formula_structural   Dy3TmAl24Pt8Rh
_chemical_formula_sum   'Dy3 Tm1 Al24 Pt8 Rh1'
_cell_volume   634.08013407
_cell_formula_units_Z   1
loop_
 _symmetry_equiv_pos_site_id
 _symmetry_equiv_pos_as_xyz
  1  'x, y, z'
loop_
 _atom_site_type_symbol
 _atom_site_label
 _atom_site_symmetry_multiplicity
 _atom_site_fract_x
 _atom_site_fract_y
 _atom_site_fract_z
 _atom_site_occupancy
  Dy  Dy0  1  0.394294  0.167974  0.808719  1
  Dy  Dy1  1  0.605797  0.832047  0.191288  1
  Dy  Dy2  1  0.733161  0.498422  0.808759  1
  Tm  Tm3  1  0.266412  0.501524  0.191763  1
  Al  Al4  1  0.687409  0.830181  0.945623  1
  Al  Al5  1  0.312514  0.170380  0.054787  1
  Al  Al6  1  0.146611  0.832070  0.561620  1
  Al  Al7  1  0.853444  0.167917  0.438279  1
  Al  Al8  1  0.480039  0.166738  0.558910  1
  Al  Al9  1  0.519959  0.833299  0.440989  1
  Al  Al10  1  0.217207  0.165647  0.327810  1
  Al  Al11  1  0.782940  0.834562  0.671817  1
  Al  Al12  1  0.436076  0.507176  0.671752  1
  Al  Al13  1  0.563759  0.492812  0.327865  1
  Al  Al14  1  0.109357  0.160224  0.669719  1
  Al  Al15  1  0.891057  0.839528  0.329894  1
  Al  Al16  1  0.348996  0.499214  0.946059  1
  Al  Al17  1  0.650212  0.500824  0.054700  1
  Al  Al18  1  0.015174  0.172038  0.954737  1
  Al  Al19  1  0.985190  0.827515  0.045742  1
  Al  Al20  1  0.186646  0.499334  0.440980  1
  Al  Al21  1  0.813457  0.500648  0.558858  1
  Al  Al22  1  0.734345  0.164597  0.182920  1
  Al  Al23  1  0.265094  0.835970  0.817063  1
  Al  Al24  1  0.060907  0.628239  0.818037  1
  Al  Al25  1  0.939741  0.371729  0.181961  1
  Al  Al26  1  0.856029  0.041046  0.816703  1
  Al  Al27  1  0.143964  0.958293  0.183250  1
  Pt  Pt28  1  0.120056  0.492243  0.638498  1
  Pt  Pt29  1  0.880422  0.507824  0.361191  1
  Pt  Pt30  1  0.656974  0.171536  0.000006  1
  Pt  Pt31  1  0.342843  0.828511  0.000242  1
  Pt  Pt32  1  0.537248  0.167185  0.361294  1
  Pt  Pt33  1  0.462435  0.833222  0.638388  1
  Pt  Pt34  1  0.778738  0.175080  0.637172  1
  Pt  Pt35  1  0.221477  0.824463  0.362492  1
  Rh  Rh36  1  0.000020  0.499990  0.000113  1
