# generated using pymatgen
data_PrNd3Th4(As2Au)8
_symmetry_space_group_name_H-M   'P 1'
_cell_length_a   5.89917500
_cell_length_b   5.89683600
_cell_length_c   20.30830902
_cell_angle_alpha   90.00462031
_cell_angle_beta   90.00000000
_cell_angle_gamma   90.00000000
_symmetry_Int_Tables_number   1
_chemical_formula_structural   PrNd3Th4(As2Au)8
_chemical_formula_sum   'Pr1 Nd3 Th4 As16 Au8'
_cell_volume   706.45433007
_cell_formula_units_Z   1
loop_
 _symmetry_equiv_pos_site_id
 _symmetry_equiv_pos_as_xyz
  1  'x, y, z'
loop_
 _atom_site_type_symbol
 _atom_site_label
 _atom_site_symmetry_multiplicity
 _atom_site_fract_x
 _atom_site_fract_y
 _atom_site_fract_z
 _atom_site_occupancy
  Pr  Pr0  1  0.750000  0.509681  0.113088  1
  Nd  Nd1  1  0.750000  0.490289  0.613001  1
  Nd  Nd2  1  0.250000  0.509713  0.387006  1
  Nd  Nd3  1  0.250000  0.490296  0.886977  1
  Th  Th4  1  0.250000  0.990162  0.616153  1
  Th  Th5  1  0.750000  0.009837  0.383846  1
  Th  Th6  1  0.750000  0.990155  0.883804  1
  Th  Th7  1  0.250000  0.009831  0.116186  1
  As  As8  1  0.750000  0.989687  0.655262  1
  As  As9  1  0.250000  0.010313  0.344726  1
  As  As10  1  0.250000  0.989684  0.844721  1
  As  As11  1  0.750000  0.010290  0.155470  1
  As  As12  1  0.250000  0.489750  0.655888  1
  As  As13  1  0.750000  0.510249  0.344107  1
  As  As14  1  0.750000  0.489745  0.844102  1
  As  As15  1  0.250000  0.510254  0.156100  1
  As  As16  1  0.003595  0.234430  0.500145  1
  As  As17  1  0.503596  0.765566  0.499844  1
  As  As18  1  0.996793  0.233928  0.999682  1
  As  As19  1  0.495892  0.766134  0.999959  1
  As  As20  1  0.996404  0.765566  0.499844  1
  As  As21  1  0.496405  0.234430  0.500145  1
  As  As22  1  0.004108  0.766134  0.999959  1
  As  As23  1  0.503207  0.233928  0.999682  1
  Au  Au24  1  0.499998  0.733073  0.750003  1
  Au  Au25  1  0.000103  0.266824  0.250079  1
  Au  Au26  1  0.499897  0.266824  0.250079  1
  Au  Au27  1  0.000002  0.733073  0.750003  1
  Au  Au28  1  0.499995  0.233389  0.750002  1
  Au  Au29  1  0.000089  0.766690  0.250066  1
  Au  Au30  1  0.499911  0.766690  0.250066  1
  Au  Au31  1  0.000005  0.233389  0.750002  1
