# generated using pymatgen
data_Ba3Th(PPt3)8
_symmetry_space_group_name_H-M   'P 1'
_cell_length_a   8.63953082
_cell_length_b   8.63953082
_cell_length_c   8.63953082
_cell_angle_alpha   89.96476638
_cell_angle_beta   90.03523362
_cell_angle_gamma   90.03523362
_symmetry_Int_Tables_number   1
_chemical_formula_structural   Ba3Th(PPt3)8
_chemical_formula_sum   'Ba3 Th1 P8 Pt24'
_cell_volume   644.86711099
_cell_formula_units_Z   1
loop_
 _symmetry_equiv_pos_site_id
 _symmetry_equiv_pos_as_xyz
  1  'x, y, z'
loop_
 _atom_site_type_symbol
 _atom_site_label
 _atom_site_symmetry_multiplicity
 _atom_site_fract_x
 _atom_site_fract_y
 _atom_site_fract_z
 _atom_site_occupancy
  Ba  Ba0  1  0.500000  0.000000  0.500000  1
  Ba  Ba1  1  0.000000  0.500000  0.500000  1
  Ba  Ba2  1  0.000000  0.000000  0.000000  1
  Th  Th3  1  0.500000  0.500000  0.000000  1
  P  P4  1  0.807384  0.301236  0.193088  1
  P  P5  1  0.194953  0.805047  0.305047  1
  P  P6  1  0.698764  0.693088  0.692616  1
  P  P7  1  0.306912  0.192616  0.801236  1
  P  P8  1  0.192616  0.698764  0.806912  1
  P  P9  1  0.805047  0.194953  0.694953  1
  P  P10  1  0.301236  0.306912  0.307384  1
  P  P11  1  0.693088  0.807384  0.198764  1
  Pt  Pt12  1  0.421958  0.834846  0.148029  1
  Pt  Pt13  1  0.580364  0.350123  0.331615  1
  Pt  Pt14  1  0.077442  0.158358  0.654273  1
  Pt  Pt15  1  0.924895  0.656196  0.844467  1
  Pt  Pt16  1  0.168385  0.419636  0.850123  1
  Pt  Pt17  1  0.351971  0.578042  0.334846  1
  Pt  Pt18  1  0.655533  0.075105  0.156196  1
  Pt  Pt19  1  0.845727  0.922558  0.658358  1
  Pt  Pt20  1  0.841642  0.154273  0.422558  1
  Pt  Pt21  1  0.343804  0.344467  0.575105  1
  Pt  Pt22  1  0.165154  0.648029  0.078042  1
  Pt  Pt23  1  0.649877  0.831615  0.919636  1
  Pt  Pt24  1  0.578042  0.165154  0.851971  1
  Pt  Pt25  1  0.419636  0.649877  0.668385  1
  Pt  Pt26  1  0.922558  0.841642  0.345727  1
  Pt  Pt27  1  0.075105  0.343804  0.155533  1
  Pt  Pt28  1  0.831615  0.580364  0.149877  1
  Pt  Pt29  1  0.648029  0.421958  0.665154  1
  Pt  Pt30  1  0.344467  0.924895  0.843804  1
  Pt  Pt31  1  0.154273  0.077442  0.341642  1
  Pt  Pt32  1  0.158358  0.845727  0.577442  1
  Pt  Pt33  1  0.656196  0.655533  0.424895  1
  Pt  Pt34  1  0.834846  0.351971  0.921958  1
  Pt  Pt35  1  0.350123  0.168385  0.080364  1
