# generated using pymatgen
data_Hf5(In2Ir)2
_symmetry_space_group_name_H-M   'P 1'
_cell_length_a   3.42391900
_cell_length_b   7.63243265
_cell_length_c   17.46696300
_cell_angle_alpha   90.11227302
_cell_angle_beta   90.00000000
_cell_angle_gamma   90.00000000
_symmetry_Int_Tables_number   1
_chemical_formula_structural   Hf5(In2Ir)2
_chemical_formula_sum   'Hf10 In8 Ir4'
_cell_volume   456.46031892
_cell_formula_units_Z   2
loop_
 _symmetry_equiv_pos_site_id
 _symmetry_equiv_pos_as_xyz
  1  'x, y, z'
loop_
 _atom_site_type_symbol
 _atom_site_label
 _atom_site_symmetry_multiplicity
 _atom_site_fract_x
 _atom_site_fract_y
 _atom_site_fract_z
 _atom_site_occupancy
  Hf  Hf0  1  0.000000  0.139663  0.418442  1
  Hf  Hf1  1  0.000000  0.860781  0.581583  1
  Hf  Hf2  1  0.000000  0.361403  0.918840  1
  Hf  Hf3  1  0.000000  0.638625  0.081257  1
  Hf  Hf4  1  0.000000  0.264988  0.223759  1
  Hf  Hf5  1  0.000000  0.734066  0.775841  1
  Hf  Hf6  1  0.000000  0.233957  0.724466  1
  Hf  Hf7  1  0.000000  0.765868  0.275758  1
  Hf  Hf8  1  0.000000  0.000156  0.000182  1
  Hf  Hf9  1  0.000000  0.500241  0.499847  1
  In  In10  1  0.500000  0.443882  0.351610  1
  In  In11  1  0.500000  0.555738  0.647995  1
  In  In12  1  0.500000  0.056399  0.852341  1
  In  In13  1  0.500000  0.942894  0.147777  1
  In  In14  1  0.500000  0.302122  0.065565  1
  In  In15  1  0.500000  0.698368  0.934456  1
  In  In16  1  0.500000  0.197658  0.565654  1
  In  In17  1  0.500000  0.803077  0.434578  1
  Ir  Ir18  1  0.500000  0.050914  0.306886  1
  Ir  Ir19  1  0.500000  0.949290  0.693173  1
  Ir  Ir20  1  0.500000  0.449506  0.807239  1
  Ir  Ir21  1  0.500000  0.550405  0.192750  1
