# generated using pymatgen
data_Zr4NbSn3N
_symmetry_space_group_name_H-M   'P 1'
_cell_length_a   8.42716500
_cell_length_b   8.42716477
_cell_length_c   5.71596000
_cell_angle_alpha   90.00000000
_cell_angle_beta   90.00000000
_cell_angle_gamma   119.99999696
_symmetry_Int_Tables_number   1
_chemical_formula_structural   Zr4NbSn3N
_chemical_formula_sum   'Zr8 Nb2 Sn6 N2'
_cell_volume   351.54652465
_cell_formula_units_Z   2
loop_
 _symmetry_equiv_pos_site_id
 _symmetry_equiv_pos_as_xyz
  1  'x, y, z'
loop_
 _atom_site_type_symbol
 _atom_site_label
 _atom_site_symmetry_multiplicity
 _atom_site_fract_x
 _atom_site_fract_y
 _atom_site_fract_z
 _atom_site_occupancy
  Zr  Zr0  1  0.333333  0.666667  0.500000  1
  Zr  Zr1  1  0.666667  0.333333  0.500000  1
  Zr  Zr2  1  0.777953  0.777953  0.749882  1
  Zr  Zr3  1  0.222047  0.000000  0.749882  1
  Zr  Zr4  1  0.000000  0.222047  0.749882  1
  Zr  Zr5  1  0.222047  0.222047  0.250118  1
  Zr  Zr6  1  0.777953  0.000000  0.250118  1
  Zr  Zr7  1  0.000000  0.777953  0.250118  1
  Nb  Nb8  1  0.666667  0.333333  0.000000  1
  Nb  Nb9  1  0.333333  0.666667  0.000000  1
  Sn  Sn10  1  0.407421  0.407421  0.757022  1
  Sn  Sn11  1  0.592579  0.000000  0.757022  1
  Sn  Sn12  1  0.000000  0.592579  0.757022  1
  Sn  Sn13  1  0.592579  0.592579  0.242978  1
  Sn  Sn14  1  0.407421  0.000000  0.242978  1
  Sn  Sn15  1  0.000000  0.407421  0.242978  1
  N  N16  1  0.000000  0.000000  0.000000  1
  N  N17  1  0.000000  0.000000  0.500000  1
