# generated using pymatgen
data_CsRb3(MnBr4)2
_symmetry_space_group_name_H-M   'P 1'
_cell_length_a   7.90935400
_cell_length_b   10.13495430
_cell_length_c   13.77606395
_cell_angle_alpha   90.21793352
_cell_angle_beta   90.00000000
_cell_angle_gamma   90.00000000
_symmetry_Int_Tables_number   1
_chemical_formula_structural   CsRb3(MnBr4)2
_chemical_formula_sum   'Cs2 Rb6 Mn4 Br16'
_cell_volume   1104.29426591
_cell_formula_units_Z   2
loop_
 _symmetry_equiv_pos_site_id
 _symmetry_equiv_pos_as_xyz
  1  'x, y, z'
loop_
 _atom_site_type_symbol
 _atom_site_label
 _atom_site_symmetry_multiplicity
 _atom_site_fract_x
 _atom_site_fract_y
 _atom_site_fract_z
 _atom_site_occupancy
  Cs  Cs0  1  0.250000  0.130049  0.094125  1
  Cs  Cs1  1  0.750000  0.869951  0.905875  1
  Rb  Rb2  1  0.250000  0.629204  0.408366  1
  Rb  Rb3  1  0.250000  0.480266  0.827370  1
  Rb  Rb4  1  0.750000  0.019442  0.327753  1
  Rb  Rb5  1  0.750000  0.370796  0.591634  1
  Rb  Rb6  1  0.750000  0.519734  0.172630  1
  Rb  Rb7  1  0.250000  0.980558  0.672247  1
  Mn  Mn8  1  0.250000  0.729719  0.077252  1
  Mn  Mn9  1  0.750000  0.771287  0.576657  1
  Mn  Mn10  1  0.250000  0.228713  0.423343  1
  Mn  Mn11  1  0.750000  0.270281  0.922748  1
  Br  Br12  1  0.994178  0.324391  0.345667  1
  Br  Br13  1  0.250000  0.313202  0.593806  1
  Br  Br14  1  0.250000  0.812729  0.906417  1
  Br  Br15  1  0.506927  0.821306  0.156371  1
  Br  Br16  1  0.493073  0.178694  0.843629  1
  Br  Br17  1  0.006927  0.178694  0.843629  1
  Br  Br18  1  0.005822  0.675609  0.654333  1
  Br  Br19  1  0.750000  0.016416  0.589859  1
  Br  Br20  1  0.494178  0.675609  0.654333  1
  Br  Br21  1  0.750000  0.514133  0.910067  1
  Br  Br22  1  0.993073  0.821306  0.156371  1
  Br  Br23  1  0.505822  0.324391  0.345667  1
  Br  Br24  1  0.250000  0.485867  0.089933  1
  Br  Br25  1  0.250000  0.983584  0.410141  1
  Br  Br26  1  0.750000  0.686798  0.406194  1
  Br  Br27  1  0.750000  0.187271  0.093583  1
