# generated using pymatgen
data_Tm12Th4CdIn3Rh4
_symmetry_space_group_name_H-M   'P 1'
_cell_length_a   9.69799238
_cell_length_b   9.69799269
_cell_length_c   9.69799200
_cell_angle_alpha   59.76443217
_cell_angle_beta   59.76443794
_cell_angle_gamma   59.76443047
_symmetry_Int_Tables_number   1
_chemical_formula_structural   Tm12Th4CdIn3Rh4
_chemical_formula_sum   'Tm12 Th4 Cd1 In3 Rh4'
_cell_volume   641.50692938
_cell_formula_units_Z   1
loop_
 _symmetry_equiv_pos_site_id
 _symmetry_equiv_pos_as_xyz
  1  'x, y, z'
loop_
 _atom_site_type_symbol
 _atom_site_label
 _atom_site_symmetry_multiplicity
 _atom_site_fract_x
 _atom_site_fract_y
 _atom_site_fract_z
 _atom_site_occupancy
  Tm  Tm0  1  0.062146  0.438703  0.438703  1
  Tm  Tm1  1  0.436898  0.062421  0.062421  1
  Tm  Tm2  1  0.438703  0.062146  0.438703  1
  Tm  Tm3  1  0.062421  0.436898  0.062421  1
  Tm  Tm4  1  0.438703  0.438703  0.062146  1
  Tm  Tm5  1  0.062421  0.062421  0.436898  1
  Tm  Tm6  1  0.183101  0.816062  0.816062  1
  Tm  Tm7  1  0.815144  0.185094  0.185094  1
  Tm  Tm8  1  0.816062  0.183101  0.816062  1
  Tm  Tm9  1  0.185094  0.815144  0.185094  1
  Tm  Tm10  1  0.816062  0.816062  0.183101  1
  Tm  Tm11  1  0.185094  0.185094  0.815144  1
  Th  Th12  1  0.598518  0.598518  0.598518  1
  Th  Th13  1  0.600206  0.600206  0.199531  1
  Th  Th14  1  0.600206  0.199531  0.600206  1
  Th  Th15  1  0.199531  0.600206  0.600206  1
  Cd  Cd16  1  0.834909  0.834909  0.834909  1
  In  In17  1  0.833515  0.833515  0.498752  1
  In  In18  1  0.833515  0.498752  0.833515  1
  In  In19  1  0.498752  0.833515  0.833515  1
  Rh  Rh20  1  0.393327  0.393327  0.393327  1
  Rh  Rh21  1  0.392158  0.392158  0.821359  1
  Rh  Rh22  1  0.392158  0.821359  0.392158  1
  Rh  Rh23  1  0.821359  0.392158  0.392158  1
