# generated using pymatgen
data_Ca3SnHg2Pd3
_symmetry_space_group_name_H-M   'P 1'
_cell_length_a   7.64273700
_cell_length_b   7.72361625
_cell_length_c   4.04141400
_cell_angle_alpha   90.00000000
_cell_angle_beta   90.00000000
_cell_angle_gamma   119.65420419
_symmetry_Int_Tables_number   1
_chemical_formula_structural   Ca3SnHg2Pd3
_chemical_formula_sum   'Ca3 Sn1 Hg2 Pd3'
_cell_volume   207.31767974
_cell_formula_units_Z   1
loop_
 _symmetry_equiv_pos_site_id
 _symmetry_equiv_pos_as_xyz
  1  'x, y, z'
loop_
 _atom_site_type_symbol
 _atom_site_label
 _atom_site_symmetry_multiplicity
 _atom_site_fract_x
 _atom_site_fract_y
 _atom_site_fract_z
 _atom_site_occupancy
  Ca  Ca0  1  0.992670  0.592670  0.000000  1
  Ca  Ca1  1  0.399999  0.407330  0.000000  1
  Ca  Ca2  1  0.609290  0.000000  0.000000  1
  Sn  Sn3  1  0.261229  0.000000  0.500000  1
  Hg  Hg4  1  0.734587  0.732515  0.500000  1
  Hg  Hg5  1  0.002072  0.267485  0.500000  1
  Pd  Pd6  1  0.329844  0.681734  0.500000  1
  Pd  Pd7  1  0.022198  0.000000  0.000000  1
  Pd  Pd8  1  0.648111  0.318266  0.500000  1
