# generated using pymatgen
data_Pr8Sc12Si15Au
_symmetry_space_group_name_H-M   'P 1'
_cell_length_a   7.25172790
_cell_length_b   7.59098275
_cell_length_c   14.31957500
_cell_angle_alpha   90.00000000
_cell_angle_beta   90.00000000
_cell_angle_gamma   90.52985098
_symmetry_Int_Tables_number   1
_chemical_formula_structural   Pr8Sc12Si15Au
_chemical_formula_sum   'Pr8 Sc12 Si15 Au1'
_cell_volume   788.22655611
_cell_formula_units_Z   1
loop_
 _symmetry_equiv_pos_site_id
 _symmetry_equiv_pos_as_xyz
  1  'x, y, z'
loop_
 _atom_site_type_symbol
 _atom_site_label
 _atom_site_symmetry_multiplicity
 _atom_site_fract_x
 _atom_site_fract_y
 _atom_site_fract_z
 _atom_site_occupancy
  Pr  Pr0  1  0.012701  0.174309  0.401476  1
  Pr  Pr1  1  0.512468  0.327248  0.401509  1
  Pr  Pr2  1  0.490608  0.666984  0.906407  1
  Pr  Pr3  1  0.490608  0.666984  0.593593  1
  Pr  Pr4  1  0.986655  0.826524  0.595218  1
  Pr  Pr5  1  0.986655  0.826524  0.904782  1
  Pr  Pr6  1  0.512468  0.327248  0.098491  1
  Pr  Pr7  1  0.012701  0.174309  0.098524  1
  Sc  Sc8  1  0.328408  0.183060  0.623153  1
  Sc  Sc9  1  0.670947  0.824532  0.374344  1
  Sc  Sc10  1  0.658530  0.998088  0.750000  1
  Sc  Sc11  1  0.171555  0.675245  0.374616  1
  Sc  Sc12  1  0.828690  0.323842  0.876761  1
  Sc  Sc13  1  0.828690  0.323842  0.623239  1
  Sc  Sc14  1  0.839806  0.502351  0.250000  1
  Sc  Sc15  1  0.340131  0.998133  0.250000  1
  Sc  Sc16  1  0.328408  0.183060  0.876847  1
  Sc  Sc17  1  0.171555  0.675245  0.125384  1
  Sc  Sc18  1  0.670947  0.824532  0.125656  1
  Sc  Sc19  1  0.162419  0.494702  0.750000  1
  Si  Si20  1  0.465361  0.625202  0.250000  1
  Si  Si21  1  0.027935  0.130834  0.750000  1
  Si  Si22  1  0.537824  0.376684  0.750000  1
  Si  Si23  1  0.150720  0.463764  0.539577  1
  Si  Si24  1  0.967796  0.874186  0.250000  1
  Si  Si25  1  0.711690  0.116772  0.250000  1
  Si  Si26  1  0.847931  0.537022  0.040820  1
  Si  Si27  1  0.349369  0.962876  0.038784  1
  Si  Si28  1  0.150720  0.463764  0.960423  1
  Si  Si29  1  0.650821  0.037548  0.539088  1
  Si  Si30  1  0.349369  0.962876  0.461216  1
  Si  Si31  1  0.847931  0.537022  0.459180  1
  Si  Si32  1  0.786644  0.612398  0.750000  1
  Si  Si33  1  0.212998  0.384596  0.250000  1
  Si  Si34  1  0.650821  0.037548  0.960912  1
  Au  Au35  1  0.287120  0.880148  0.750000  1
