# generated using pymatgen
data_Th3Mg(Al8Pt3)3
_symmetry_space_group_name_H-M   'P 1'
_cell_length_a   7.59291651
_cell_length_b   7.61523103
_cell_length_c   13.21790003
_cell_angle_alpha   84.49906156
_cell_angle_beta   78.91900307
_cell_angle_gamma   59.97876602
_symmetry_Int_Tables_number   1
_chemical_formula_structural   Th3Mg(Al8Pt3)3
_chemical_formula_sum   'Th3 Mg1 Al24 Pt9'
_cell_volume   649.40944114
_cell_formula_units_Z   1
loop_
 _symmetry_equiv_pos_site_id
 _symmetry_equiv_pos_as_xyz
  1  'x, y, z'
loop_
 _atom_site_type_symbol
 _atom_site_label
 _atom_site_symmetry_multiplicity
 _atom_site_fract_x
 _atom_site_fract_y
 _atom_site_fract_z
 _atom_site_occupancy
  Th  Th0  1  0.393616  0.170030  0.808104  1
  Th  Th1  1  0.605324  0.832357  0.191798  1
  Th  Th2  1  0.733253  0.497094  0.808138  1
  Mg  Mg3  1  0.258716  0.500530  0.209976  1
  Al  Al4  1  0.688821  0.834363  0.946023  1
  Al  Al5  1  0.311510  0.176285  0.059738  1
  Al  Al6  1  0.146756  0.832147  0.559365  1
  Al  Al7  1  0.854398  0.167041  0.436778  1
  Al  Al8  1  0.480851  0.167200  0.556709  1
  Al  Al9  1  0.519605  0.833480  0.440537  1
  Al  Al10  1  0.214055  0.169821  0.329882  1
  Al  Al11  1  0.787920  0.834007  0.663850  1
  Al  Al12  1  0.436261  0.510114  0.663964  1
  Al  Al13  1  0.561112  0.489954  0.329155  1
  Al  Al14  1  0.112818  0.156063  0.662717  1
  Al  Al15  1  0.894639  0.838789  0.331466  1
  Al  Al16  1  0.344419  0.504494  0.954682  1
  Al  Al17  1  0.637411  0.499199  0.060310  1
  Al  Al18  1  0.013103  0.163790  0.959636  1
  Al  Al19  1  0.990165  0.827238  0.051280  1
  Al  Al20  1  0.186744  0.499665  0.441039  1
  Al  Al21  1  0.815410  0.499651  0.556410  1
  Al  Al22  1  0.735595  0.162885  0.182339  1
  Al  Al23  1  0.263250  0.834803  0.815730  1
  Al  Al24  1  0.063867  0.634494  0.814482  1
  Al  Al25  1  0.937817  0.368740  0.183366  1
  Al  Al26  1  0.862715  0.035978  0.814673  1
  Al  Al27  1  0.145596  0.957558  0.182273  1
  Pt  Pt28  1  0.120199  0.491486  0.638322  1
  Pt  Pt29  1  0.880609  0.508038  0.360321  1
  Pt  Pt30  1  0.659327  0.170473  0.997346  1
  Pt  Pt31  1  0.344754  0.832864  0.997018  1
  Pt  Pt32  1  0.538103  0.166919  0.360972  1
  Pt  Pt33  1  0.463756  0.832874  0.636869  1
  Pt  Pt34  1  0.779446  0.174774  0.635789  1
  Pt  Pt35  1  0.221306  0.824805  0.361684  1
  Pt  Pt36  1  0.996754  0.499994  0.997263  1
