# generated using pymatgen
data_Mg4In4B(IrRh)2
_symmetry_space_group_name_H-M   'P 1'
_cell_length_a   8.72948469
_cell_length_b   8.73932922
_cell_length_c   8.69860703
_cell_angle_alpha   60.29683548
_cell_angle_beta   60.16899035
_cell_angle_gamma   60.12079260
_symmetry_Int_Tables_number   1
_chemical_formula_structural   Mg4In4B(IrRh)2
_chemical_formula_sum   'Mg8 In8 B2 Ir4 Rh4'
_cell_volume   471.32231064
_cell_formula_units_Z   2
loop_
 _symmetry_equiv_pos_site_id
 _symmetry_equiv_pos_as_xyz
  1  'x, y, z'
loop_
 _atom_site_type_symbol
 _atom_site_label
 _atom_site_symmetry_multiplicity
 _atom_site_fract_x
 _atom_site_fract_y
 _atom_site_fract_z
 _atom_site_occupancy
  Mg  Mg0  1  0.127780  0.122370  0.624862  1
  Mg  Mg1  1  0.547120  0.950648  0.549546  1
  Mg  Mg2  1  0.127224  0.623861  0.121504  1
  Mg  Mg3  1  0.546333  0.548747  0.948364  1
  Mg  Mg4  1  0.957056  0.546583  0.950995  1
  Mg  Mg5  1  0.125420  0.126733  0.123509  1
  Mg  Mg6  1  0.622962  0.126027  0.125038  1
  Mg  Mg7  1  0.298762  0.703034  0.705626  1
  In  In8  1  0.955071  0.946066  0.549914  1
  In  In9  1  0.305844  0.697367  0.296750  1
  In  In10  1  0.697209  0.307578  0.701085  1
  In  In11  1  0.296574  0.301468  0.701243  1
  In  In12  1  0.703467  0.301355  0.289839  1
  In  In13  1  0.698894  0.701867  0.301831  1
  In  In14  1  0.941966  0.556591  0.556697  1
  In  In15  1  0.555842  0.942862  0.944173  1
  B  B16  1  0.249382  0.250194  0.249341  1
  B  B17  1  0.002068  0.002606  0.995461  1
  Ir  Ir18  1  0.902195  0.899658  0.905585  1
  Ir  Ir19  1  0.899789  0.293362  0.906049  1
  Ir  Ir20  1  0.293594  0.900143  0.903087  1
  Ir  Ir21  1  0.346215  0.345868  0.960658  1
  Rh  Rh22  1  0.957553  0.346209  0.350191  1
  Rh  Rh23  1  0.901411  0.903338  0.291423  1
  Rh  Rh24  1  0.344921  0.959514  0.347762  1
  Rh  Rh25  1  0.345348  0.345951  0.349467  1
