# generated using pymatgen
data_LaCu4Ag
_symmetry_space_group_name_H-M   'P 1'
_cell_length_a   5.17985920
_cell_length_b   5.17985847
_cell_length_c   5.17985900
_cell_angle_alpha   60.00000303
_cell_angle_beta   60.00000765
_cell_angle_gamma   60.00000785
_symmetry_Int_Tables_number   1
_chemical_formula_structural   LaCu4Ag
_chemical_formula_sum   'La1 Cu4 Ag1'
_cell_volume   98.27404897
_cell_formula_units_Z   1
loop_
 _symmetry_equiv_pos_site_id
 _symmetry_equiv_pos_as_xyz
  1  'x, y, z'
loop_
 _atom_site_type_symbol
 _atom_site_label
 _atom_site_symmetry_multiplicity
 _atom_site_fract_x
 _atom_site_fract_y
 _atom_site_fract_z
 _atom_site_occupancy
  La  La0  1  0.000000  0.000000  0.000000  1
  Cu  Cu1  1  0.622636  0.622636  0.132091  1
  Cu  Cu2  1  0.622636  0.132091  0.622636  1
  Cu  Cu3  1  0.132091  0.622636  0.622636  1
  Cu  Cu4  1  0.622636  0.622636  0.622636  1
  Ag  Ag5  1  0.250000  0.250000  0.250000  1
