# generated using pymatgen
data_TbCr3InO12
_symmetry_space_group_name_H-M   'P 1'
_cell_length_a   9.43165833
_cell_length_b   9.43165756
_cell_length_c   9.95239488
_cell_angle_alpha   118.28375025
_cell_angle_beta   61.71623503
_cell_angle_gamma   120.00000340
_symmetry_Int_Tables_number   1
_chemical_formula_structural   TbCr3InO12
_chemical_formula_sum   'Tb2 Cr6 In2 O24'
_cell_volume   641.77164312
_cell_formula_units_Z   2
loop_
 _symmetry_equiv_pos_site_id
 _symmetry_equiv_pos_as_xyz
  1  'x, y, z'
loop_
 _atom_site_type_symbol
 _atom_site_label
 _atom_site_symmetry_multiplicity
 _atom_site_fract_x
 _atom_site_fract_y
 _atom_site_fract_z
 _atom_site_occupancy
  Tb  Tb0  1  0.645377  0.354624  0.063872  1
  Tb  Tb1  1  0.857604  0.142397  0.427190  1
  Cr  Cr2  1  0.248545  0.025779  0.249067  1
  Cr  Cr3  1  0.974220  0.471833  0.249067  1
  Cr  Cr4  1  0.528167  0.751454  0.249067  1
  Cr  Cr5  1  0.456984  0.250630  0.750761  1
  Cr  Cr6  1  0.042885  0.543016  0.750761  1
  Cr  Cr7  1  0.749370  0.957115  0.750761  1
  In  In8  1  0.142329  0.857672  0.573014  1
  In  In9  1  0.352889  0.647112  0.941333  1
  O  O10  1  0.159208  0.492148  0.099565  1
  O  O11  1  0.507851  0.766625  0.099565  1
  O  O12  1  0.233375  0.840791  0.099565  1
  O  O13  1  0.446021  0.170098  0.206596  1
  O  O14  1  0.829902  0.482519  0.206596  1
  O  O15  1  0.517481  0.553979  0.206596  1
  O  O16  1  0.108757  0.098494  0.270489  1
  O  O17  1  0.901505  0.280752  0.270489  1
  O  O18  1  0.719248  0.891243  0.270489  1
  O  O19  1  0.200904  0.995916  0.419670  1
  O  O20  1  0.004085  0.624659  0.419670  1
  O  O21  1  0.375341  0.799096  0.419670  1
  O  O22  1  0.617556  0.213934  0.584628  1
  O  O23  1  0.011751  0.382444  0.584628  1
  O  O24  1  0.786065  0.988248  0.584628  1
  O  O25  1  0.270271  0.101090  0.723607  1
  O  O26  1  0.107211  0.729729  0.723607  1
  O  O27  1  0.898912  0.892789  0.723607  1
  O  O28  1  0.460655  0.446707  0.795655  1
  O  O29  1  0.190397  0.539345  0.795655  1
  O  O30  1  0.553292  0.809601  0.795655  1
  O  O31  1  0.760148  0.142901  0.898159  1
  O  O32  1  0.484594  0.239852  0.898159  1
  O  O33  1  0.857099  0.515407  0.898159  1
