# generated using pymatgen
data_Ho5Er3(Si3Ni)4
_symmetry_space_group_name_H-M   'P 1'
_cell_length_a   7.91902800
_cell_length_b   7.91902850
_cell_length_c   7.88823900
_cell_angle_alpha   90.00000000
_cell_angle_beta   90.00000000
_cell_angle_gamma   119.99999791
_symmetry_Int_Tables_number   1
_chemical_formula_structural   Ho5Er3(Si3Ni)4
_chemical_formula_sum   'Ho5 Er3 Si12 Ni4'
_cell_volume   428.40495561
_cell_formula_units_Z   1
loop_
 _symmetry_equiv_pos_site_id
 _symmetry_equiv_pos_as_xyz
  1  'x, y, z'
loop_
 _atom_site_type_symbol
 _atom_site_label
 _atom_site_symmetry_multiplicity
 _atom_site_fract_x
 _atom_site_fract_y
 _atom_site_fract_z
 _atom_site_occupancy
  Ho  Ho0  1  0.000000  0.000000  0.250000  1
  Ho  Ho1  1  0.000000  0.000000  0.750000  1
  Ho  Ho2  1  0.499537  0.500463  0.250000  1
  Ho  Ho3  1  0.499537  0.999074  0.250000  1
  Ho  Ho4  1  0.000926  0.500463  0.250000  1
  Er  Er5  1  0.500245  0.499755  0.750000  1
  Er  Er6  1  0.999509  0.499755  0.750000  1
  Er  Er7  1  0.500245  0.000491  0.750000  1
  Si  Si8  1  0.829293  0.170707  0.500159  1
  Si  Si9  1  0.829293  0.658588  0.500159  1
  Si  Si10  1  0.341412  0.170707  0.500159  1
  Si  Si11  1  0.829293  0.170707  0.999841  1
  Si  Si12  1  0.829293  0.658588  0.999841  1
  Si  Si13  1  0.341412  0.170707  0.999841  1
  Si  Si14  1  0.170709  0.829291  0.999315  1
  Si  Si15  1  0.658582  0.829291  0.999315  1
  Si  Si16  1  0.170709  0.341418  0.999315  1
  Si  Si17  1  0.170709  0.829291  0.500685  1
  Si  Si18  1  0.658582  0.829291  0.500685  1
  Si  Si19  1  0.170709  0.341418  0.500685  1
  Ni  Ni20  1  0.666667  0.333333  0.501197  1
  Ni  Ni21  1  0.666667  0.333333  0.998803  1
  Ni  Ni22  1  0.333333  0.666667  0.997412  1
  Ni  Ni23  1  0.333333  0.666667  0.502588  1
