# generated using pymatgen
data_Hf16Co4MoRu3
_symmetry_space_group_name_H-M   'P 1'
_cell_length_a   8.62024263
_cell_length_b   8.60760939
_cell_length_c   8.60805708
_cell_angle_alpha   59.99854506
_cell_angle_beta   60.05208977
_cell_angle_gamma   60.04732389
_symmetry_Int_Tables_number   1
_chemical_formula_structural   Hf16Co4MoRu3
_chemical_formula_sum   'Hf16 Co4 Mo1 Ru3'
_cell_volume   451.97382265
_cell_formula_units_Z   1
loop_
 _symmetry_equiv_pos_site_id
 _symmetry_equiv_pos_as_xyz
  1  'x, y, z'
loop_
 _atom_site_type_symbol
 _atom_site_label
 _atom_site_symmetry_multiplicity
 _atom_site_fract_x
 _atom_site_fract_y
 _atom_site_fract_z
 _atom_site_occupancy
  Hf  Hf0  1  0.057082  0.647649  0.647608  1
  Hf  Hf1  1  0.649076  0.053613  0.648648  1
  Hf  Hf2  1  0.649090  0.648715  0.053470  1
  Hf  Hf3  1  0.649105  0.648704  0.648703  1
  Hf  Hf4  1  0.801342  0.798447  0.200125  1
  Hf  Hf5  1  0.201299  0.201436  0.798636  1
  Hf  Hf6  1  0.801326  0.200099  0.798509  1
  Hf  Hf7  1  0.201279  0.798631  0.201416  1
  Hf  Hf8  1  0.201329  0.798593  0.798640  1
  Hf  Hf9  1  0.801308  0.200088  0.200097  1
  Hf  Hf10  1  0.435514  0.435428  0.064549  1
  Hf  Hf11  1  0.063963  0.066479  0.434771  1
  Hf  Hf12  1  0.435574  0.064444  0.435492  1
  Hf  Hf13  1  0.063964  0.434757  0.066503  1
  Hf  Hf14  1  0.063965  0.434757  0.434758  1
  Hf  Hf15  1  0.435539  0.064473  0.064557  1
  Co  Co16  1  0.422495  0.859237  0.859120  1
  Co  Co17  1  0.859482  0.422872  0.858807  1
  Co  Co18  1  0.859437  0.858848  0.422893  1
  Co  Co19  1  0.859447  0.858867  0.858806  1
  Mo  Mo20  1  0.742466  0.419171  0.419187  1
  Ru  Ru21  1  0.415296  0.753760  0.415465  1
  Ru  Ru22  1  0.415302  0.415458  0.753794  1
  Ru  Ru23  1  0.415317  0.415473  0.415447  1
