# generated using pymatgen
data_Dy10AlBi2Pb3
_symmetry_space_group_name_H-M   'P 1'
_cell_length_a   9.02910947
_cell_length_b   9.04835222
_cell_length_c   6.57653600
_cell_angle_alpha   90.00000000
_cell_angle_beta   90.00000000
_cell_angle_gamma   119.64781748
_symmetry_Int_Tables_number   1
_chemical_formula_structural   Dy10AlBi2Pb3
_chemical_formula_sum   'Dy10 Al1 Bi2 Pb3'
_cell_volume   466.95235651
_cell_formula_units_Z   1
loop_
 _symmetry_equiv_pos_site_id
 _symmetry_equiv_pos_as_xyz
  1  'x, y, z'
loop_
 _atom_site_type_symbol
 _atom_site_label
 _atom_site_symmetry_multiplicity
 _atom_site_fract_x
 _atom_site_fract_y
 _atom_site_fract_z
 _atom_site_occupancy
  Dy  Dy0  1  0.241282  0.237240  0.750000  1
  Dy  Dy1  1  0.240176  0.996473  0.250000  1
  Dy  Dy2  1  0.341791  0.679312  0.003122  1
  Dy  Dy3  1  0.666143  0.324044  0.002718  1
  Dy  Dy4  1  0.000242  0.764580  0.750000  1
  Dy  Dy5  1  0.759572  0.771136  0.250000  1
  Dy  Dy6  1  0.986019  0.228400  0.250000  1
  Dy  Dy7  1  0.761191  0.996991  0.750000  1
  Dy  Dy8  1  0.341791  0.679312  0.496878  1
  Dy  Dy9  1  0.666143  0.324044  0.497282  1
  Al  Al10  1  0.601890  0.001862  0.250000  1
  Bi  Bi11  1  0.004329  0.395777  0.750000  1
  Bi  Bi12  1  0.387523  0.390100  0.250000  1
  Pb  Pb13  1  0.606944  0.603755  0.750000  1
  Pb  Pb14  1  0.396462  0.000877  0.750000  1
  Pb  Pb15  1  0.998501  0.606096  0.250000  1
