# generated using pymatgen
data_DyEr3As6Rh7
_symmetry_space_group_name_H-M   'P 1'
_cell_length_a   7.25559615
_cell_length_b   7.26824144
_cell_length_c   7.26824208
_cell_angle_alpha   109.50643022
_cell_angle_beta   109.43598358
_cell_angle_gamma   109.43598176
_symmetry_Int_Tables_number   1
_chemical_formula_structural   DyEr3As6Rh7
_chemical_formula_sum   'Dy1 Er3 As6 Rh7'
_cell_volume   295.18796820
_cell_formula_units_Z   1
loop_
 _symmetry_equiv_pos_site_id
 _symmetry_equiv_pos_as_xyz
  1  'x, y, z'
loop_
 _atom_site_type_symbol
 _atom_site_label
 _atom_site_symmetry_multiplicity
 _atom_site_fract_x
 _atom_site_fract_y
 _atom_site_fract_z
 _atom_site_occupancy
  Dy  Dy0  1  0.500000  0.000000  0.000000  1
  Er  Er1  1  0.500000  0.500000  0.500000  1
  Er  Er2  1  0.000000  0.500000  0.000000  1
  Er  Er3  1  0.000000  0.000000  0.500000  1
  As  As4  1  0.682873  0.000000  0.681338  1
  As  As5  1  0.682873  0.681338  0.000000  1
  As  As6  1  0.317127  0.318662  0.000000  1
  As  As7  1  0.998465  0.681338  0.681338  1
  As  As8  1  0.001535  0.318662  0.318662  1
  As  As9  1  0.317127  0.000000  0.318662  1
  Rh  Rh10  1  0.500000  0.749806  0.250194  1
  Rh  Rh11  1  0.750194  0.250194  0.500389  1
  Rh  Rh12  1  0.249806  0.749806  0.499611  1
  Rh  Rh13  1  0.249806  0.499611  0.749806  1
  Rh  Rh14  1  0.000000  0.000000  0.000000  1
  Rh  Rh15  1  0.500000  0.250194  0.749806  1
  Rh  Rh16  1  0.750194  0.500389  0.250194  1
