# generated using pymatgen
data_DyY7(ErBi)12
_symmetry_space_group_name_H-M   'P 1'
_cell_length_a   8.23677002
_cell_length_b   9.45981800
_cell_length_c   12.04913903
_cell_angle_alpha   90.00000000
_cell_angle_beta   89.99149870
_cell_angle_gamma   90.00000000
_symmetry_Int_Tables_number   1
_chemical_formula_structural   DyY7(ErBi)12
_chemical_formula_sum   'Dy1 Y7 Er12 Bi12'
_cell_volume   938.84896569
_cell_formula_units_Z   1
loop_
 _symmetry_equiv_pos_site_id
 _symmetry_equiv_pos_as_xyz
  1  'x, y, z'
loop_
 _atom_site_type_symbol
 _atom_site_label
 _atom_site_symmetry_multiplicity
 _atom_site_fract_x
 _atom_site_fract_y
 _atom_site_fract_z
 _atom_site_occupancy
  Dy  Dy0  1  0.186498  0.750000  0.718758  1
  Y  Y1  1  0.686325  0.750000  0.781157  1
  Y  Y2  1  0.813659  0.250000  0.281155  1
  Y  Y3  1  0.313610  0.250000  0.218786  1
  Y  Y4  1  0.353760  0.750000  0.215492  1
  Y  Y5  1  0.853824  0.750000  0.284493  1
  Y  Y6  1  0.646128  0.250000  0.784452  1
  Y  Y7  1  0.146230  0.250000  0.715548  1
  Er  Er8  1  0.026000  0.750000  0.988903  1
  Er  Er9  1  0.525705  0.750000  0.511054  1
  Er  Er10  1  0.974157  0.250000  0.010976  1
  Er  Er11  1  0.474130  0.250000  0.489054  1
  Er  Er12  1  0.306329  0.435816  0.940088  1
  Er  Er13  1  0.806304  0.064171  0.559918  1
  Er  Er14  1  0.693678  0.935815  0.059922  1
  Er  Er15  1  0.193697  0.564221  0.440151  1
  Er  Er16  1  0.693678  0.564185  0.059922  1
  Er  Er17  1  0.193697  0.935779  0.440151  1
  Er  Er18  1  0.306329  0.064184  0.940088  1
  Er  Er19  1  0.806304  0.435829  0.559918  1
  Bi  Bi20  1  0.433775  0.003695  0.673344  1
  Bi  Bi21  1  0.933840  0.496283  0.826639  1
  Bi  Bi22  1  0.566182  0.503746  0.326692  1
  Bi  Bi23  1  0.066177  0.996253  0.173318  1
  Bi  Bi24  1  0.566182  0.996254  0.326692  1
  Bi  Bi25  1  0.066177  0.503747  0.173318  1
  Bi  Bi26  1  0.433775  0.496305  0.673344  1
  Bi  Bi27  1  0.933840  0.003717  0.826639  1
  Bi  Bi28  1  0.408958  0.750000  0.958122  1
  Bi  Bi29  1  0.908954  0.750000  0.541917  1
  Bi  Bi30  1  0.591050  0.250000  0.041849  1
  Bi  Bi31  1  0.091049  0.250000  0.458140  1
