# generated using pymatgen
data_Ho3Zr(Si3Ni5)4
_symmetry_space_group_name_H-M   'P 1'
_cell_length_a   3.77252500
_cell_length_b   6.60248316
_cell_length_c   18.64951000
_cell_angle_alpha   89.98656358
_cell_angle_beta   90.00000000
_cell_angle_gamma   90.00000000
_symmetry_Int_Tables_number   1
_chemical_formula_structural   Ho3Zr(Si3Ni5)4
_chemical_formula_sum   'Ho3 Zr1 Si12 Ni20'
_cell_volume   464.52259405
_cell_formula_units_Z   1
loop_
 _symmetry_equiv_pos_site_id
 _symmetry_equiv_pos_as_xyz
  1  'x, y, z'
loop_
 _atom_site_type_symbol
 _atom_site_label
 _atom_site_symmetry_multiplicity
 _atom_site_fract_x
 _atom_site_fract_y
 _atom_site_fract_z
 _atom_site_occupancy
  Ho  Ho0  1  0.750000  0.123712  0.642374  1
  Ho  Ho1  1  0.750000  0.376036  0.144308  1
  Ho  Ho2  1  0.250000  0.623819  0.856416  1
  Zr  Zr3  1  0.250000  0.877973  0.356493  1
  Si  Si4  1  0.250000  0.079326  0.087712  1
  Si  Si5  1  0.750000  0.920317  0.913699  1
  Si  Si6  1  0.750000  0.592068  0.412170  1
  Si  Si7  1  0.250000  0.417564  0.583513  1
  Si  Si8  1  0.250000  0.656626  0.075712  1
  Si  Si9  1  0.750000  0.344469  0.926210  1
  Si  Si10  1  0.750000  0.146616  0.423816  1
  Si  Si11  1  0.250000  0.844020  0.574041  1
  Si  Si12  1  0.250000  0.378082  0.263396  1
  Si  Si13  1  0.750000  0.621732  0.737536  1
  Si  Si14  1  0.750000  0.878723  0.240733  1
  Si  Si15  1  0.250000  0.122640  0.761459  1
  Ni  Ni16  1  0.250000  0.069094  0.208735  1
  Ni  Ni17  1  0.750000  0.930942  0.793002  1
  Ni  Ni18  1  0.750000  0.570608  0.293388  1
  Ni  Ni19  1  0.250000  0.431229  0.705066  1
  Ni  Ni20  1  0.250000  0.619383  0.482491  1
  Ni  Ni21  1  0.750000  0.384413  0.511816  1
  Ni  Ni22  1  0.750000  0.113860  0.016463  1
  Ni  Ni23  1  0.250000  0.885076  0.984629  1
  Ni  Ni24  1  0.250000  0.684983  0.201498  1
  Ni  Ni25  1  0.750000  0.315225  0.800440  1
  Ni  Ni26  1  0.750000  0.181818  0.301540  1
  Ni  Ni27  1  0.250000  0.815622  0.698918  1
  Ni  Ni28  1  0.250000  0.353031  0.385644  1
  Ni  Ni29  1  0.750000  0.642277  0.614580  1
  Ni  Ni30  1  0.750000  0.855206  0.117609  1
  Ni  Ni31  1  0.250000  0.146037  0.884528  1
  Ni  Ni32  1  0.250000  0.365821  0.006568  1
  Ni  Ni33  1  0.750000  0.634863  0.995297  1
  Ni  Ni34  1  0.750000  0.865827  0.494008  1
  Ni  Ni35  1  0.250000  0.130959  0.504196  1
