# generated using pymatgen
data_Dy9Y(Zn2Bi)2
_symmetry_space_group_name_H-M   'P 1'
_cell_length_a   8.62651564
_cell_length_b   8.62651550
_cell_length_c   8.62651591
_cell_angle_alpha   123.34074923
_cell_angle_beta   123.34074258
_cell_angle_gamma   84.30492427
_symmetry_Int_Tables_number   1
_chemical_formula_structural   Dy9Y(Zn2Bi)2
_chemical_formula_sum   'Dy9 Y1 Zn4 Bi2'
_cell_volume   428.69487977
_cell_formula_units_Z   1
loop_
 _symmetry_equiv_pos_site_id
 _symmetry_equiv_pos_as_xyz
  1  'x, y, z'
loop_
 _atom_site_type_symbol
 _atom_site_label
 _atom_site_symmetry_multiplicity
 _atom_site_fract_x
 _atom_site_fract_y
 _atom_site_fract_z
 _atom_site_occupancy
  Dy  Dy0  1  0.500000  0.500000  0.000000  1
  Dy  Dy1  1  0.509729  0.009801  0.804257  1
  Dy  Dy2  1  0.205545  0.705473  0.195743  1
  Dy  Dy3  1  0.009801  0.205545  0.500071  1
  Dy  Dy4  1  0.705473  0.509729  0.499929  1
  Dy  Dy5  1  0.490271  0.990199  0.195743  1
  Dy  Dy6  1  0.794455  0.294527  0.804257  1
  Dy  Dy7  1  0.990199  0.794455  0.499929  1
  Dy  Dy8  1  0.294527  0.490271  0.500071  1
  Y  Y9  1  0.000000  0.000000  0.000000  1
  Zn  Zn10  1  0.139608  0.639676  0.779283  1
  Zn  Zn11  1  0.860392  0.360324  0.220717  1
  Zn  Zn12  1  0.639676  0.860392  0.500069  1
  Zn  Zn13  1  0.360324  0.139608  0.499931  1
  Bi  Bi14  1  0.249985  0.249985  0.000000  1
  Bi  Bi15  1  0.750015  0.750015  0.000000  1
