# generated using pymatgen
data_BaTa8ZnS16
_symmetry_space_group_name_H-M   'P 1'
_cell_length_a   6.71101802
_cell_length_b   6.71102201
_cell_length_c   14.27406500
_cell_angle_alpha   89.98485436
_cell_angle_beta   90.00392728
_cell_angle_gamma   120.00354025
_symmetry_Int_Tables_number   1
_chemical_formula_structural   BaTa8ZnS16
_chemical_formula_sum   'Ba1 Ta8 Zn1 S16'
_cell_volume   556.72389184
_cell_formula_units_Z   1
loop_
 _symmetry_equiv_pos_site_id
 _symmetry_equiv_pos_as_xyz
  1  'x, y, z'
loop_
 _atom_site_type_symbol
 _atom_site_label
 _atom_site_symmetry_multiplicity
 _atom_site_fract_x
 _atom_site_fract_y
 _atom_site_fract_z
 _atom_site_occupancy
  Ba  Ba0  1  0.000000  0.000000  0.500000  1
  Ta  Ta1  1  0.504404  0.495776  0.780943  1
  Ta  Ta2  1  0.008756  0.504234  0.219055  1
  Ta  Ta3  1  0.495572  0.991030  0.219056  1
  Ta  Ta4  1  0.504428  0.008970  0.780944  1
  Ta  Ta5  1  0.991244  0.495766  0.780945  1
  Ta  Ta6  1  0.495596  0.504224  0.219057  1
  Ta  Ta7  1  0.000025  0.000165  0.780189  1
  Ta  Ta8  1  0.999975  0.999835  0.219811  1
  Zn  Zn9  1  0.000000  0.000000  0.000000  1
  S  S10  1  0.831724  0.167998  0.327156  1
  S  S11  1  0.831750  0.663332  0.327179  1
  S  S12  1  0.336410  0.167982  0.327165  1
  S  S13  1  0.661808  0.831006  0.888591  1
  S  S14  1  0.168250  0.336668  0.672821  1
  S  S15  1  0.169098  0.831004  0.888595  1
  S  S16  1  0.169100  0.338295  0.888594  1
  S  S17  1  0.830902  0.168996  0.111405  1
  S  S18  1  0.338192  0.168994  0.111409  1
  S  S19  1  0.663590  0.832018  0.672835  1
  S  S20  1  0.333328  0.666561  0.109516  1
  S  S21  1  0.666717  0.333610  0.668920  1
  S  S22  1  0.666672  0.333439  0.890484  1
  S  S23  1  0.333283  0.666390  0.331080  1
  S  S24  1  0.830900  0.661705  0.111406  1
  S  S25  1  0.168276  0.832002  0.672844  1
