# generated using pymatgen
data_Sc4Ga3Si3Ir4Pt3
_symmetry_space_group_name_H-M   'P 1'
_cell_length_a   7.06764814
_cell_length_b   7.06764873
_cell_length_c   7.13206800
_cell_angle_alpha   109.65595455
_cell_angle_beta   109.65595626
_cell_angle_gamma   109.28585325
_symmetry_Int_Tables_number   1
_chemical_formula_structural   Sc4Ga3Si3Ir4Pt3
_chemical_formula_sum   'Sc4 Ga3 Si3 Ir4 Pt3'
_cell_volume   273.62026196
_cell_formula_units_Z   1
loop_
 _symmetry_equiv_pos_site_id
 _symmetry_equiv_pos_as_xyz
  1  'x, y, z'
loop_
 _atom_site_type_symbol
 _atom_site_label
 _atom_site_symmetry_multiplicity
 _atom_site_fract_x
 _atom_site_fract_y
 _atom_site_fract_z
 _atom_site_occupancy
  Sc  Sc0  1  0.000000  0.000000  0.538800  1
  Sc  Sc1  1  0.008193  0.488611  0.005411  1
  Sc  Sc2  1  0.480418  0.991807  0.997218  1
  Sc  Sc3  1  0.511389  0.519582  0.516800  1
  Ga  Ga4  1  0.708819  0.713029  0.012908  1
  Ga  Ga5  1  0.286971  0.995790  0.299879  1
  Ga  Ga6  1  0.004210  0.291181  0.304089  1
  Si  Si7  1  0.328029  0.332453  0.005986  1
  Si  Si8  1  0.667547  0.995576  0.673532  1
  Si  Si9  1  0.004424  0.671971  0.677957  1
  Ir  Ir10  1  0.253636  0.501690  0.754453  1
  Ir  Ir11  1  0.248053  0.746364  0.500816  1
  Ir  Ir12  1  0.498310  0.751947  0.252763  1
  Ir  Ir13  1  0.000000  0.000000  0.951776  1
  Pt  Pt14  1  0.748170  0.249492  0.501759  1
  Pt  Pt15  1  0.750508  0.498678  0.252266  1
  Pt  Pt16  1  0.501322  0.251830  0.753588  1
