# generated using pymatgen
data_Er2HfVF14
_symmetry_space_group_name_H-M   'P 1'
_cell_length_a   5.60204400
_cell_length_b   8.87134543
_cell_length_c   11.90725537
_cell_angle_alpha   63.88757896
_cell_angle_beta   90.00000000
_cell_angle_gamma   90.00000000
_symmetry_Int_Tables_number   1
_chemical_formula_structural   Er2HfVF14
_chemical_formula_sum   'Er4 Hf2 V2 F28'
_cell_volume   531.36287698
_cell_formula_units_Z   2
loop_
 _symmetry_equiv_pos_site_id
 _symmetry_equiv_pos_as_xyz
  1  'x, y, z'
loop_
 _atom_site_type_symbol
 _atom_site_label
 _atom_site_symmetry_multiplicity
 _atom_site_fract_x
 _atom_site_fract_y
 _atom_site_fract_z
 _atom_site_occupancy
  Er  Er0  1  0.756189  0.803748  0.783196  1
  Er  Er1  1  0.256189  0.196252  0.716804  1
  Er  Er2  1  0.243663  0.187614  0.236498  1
  Er  Er3  1  0.743663  0.812386  0.263502  1
  Hf  Hf4  1  0.753897  0.267144  0.956157  1
  Hf  Hf5  1  0.253897  0.732856  0.543843  1
  V  V6  1  0.247870  0.720858  0.051668  1
  V  V7  1  0.747870  0.279142  0.448332  1
  F  F8  1  0.462169  0.704312  0.932791  1
  F  F9  1  0.962169  0.295688  0.567209  1
  F  F10  1  0.530247  0.288891  0.078669  1
  F  F11  1  0.030247  0.711109  0.421331  1
  F  F12  1  0.472992  0.288363  0.543215  1
  F  F13  1  0.972992  0.711637  0.956785  1
  F  F14  1  0.543735  0.719291  0.448472  1
  F  F15  1  0.043735  0.280709  0.051528  1
  F  F16  1  0.763973  0.517985  0.857802  1
  F  F17  1  0.263973  0.482015  0.642198  1
  F  F18  1  0.235443  0.490122  0.137923  1
  F  F19  1  0.735443  0.509878  0.362077  1
  F  F20  1  0.757784  0.017704  0.055674  1
  F  F21  1  0.257784  0.982296  0.444326  1
  F  F22  1  0.248645  0.946252  0.965245  1
  F  F23  1  0.748645  0.053748  0.534755  1
  F  F24  1  0.980040  0.743007  0.649928  1
  F  F25  1  0.480040  0.256993  0.850072  1
  F  F26  1  0.010139  0.278030  0.347673  1
  F  F27  1  0.510139  0.721970  0.152327  1
  F  F28  1  0.038738  0.737146  0.173688  1
  F  F29  1  0.538738  0.262854  0.326312  1
  F  F30  1  0.971865  0.243105  0.829266  1
  F  F31  1  0.471865  0.756895  0.670734  1
  F  F32  1  0.430233  0.974728  0.235565  1
  F  F33  1  0.930233  0.025272  0.264435  1
  F  F34  1  0.552377  0.020147  0.761184  1
  F  F35  1  0.052377  0.979853  0.738816  1
