# generated using pymatgen
data_LaTb2PtO7
_symmetry_space_group_name_H-M   'P 1'
_cell_length_a   6.56056413
_cell_length_b   6.56056486
_cell_length_c   7.60310500
_cell_angle_alpha   90.00000000
_cell_angle_beta   90.00000000
_cell_angle_gamma   109.19211968
_symmetry_Int_Tables_number   1
_chemical_formula_structural   LaTb2PtO7
_chemical_formula_sum   'La2 Tb4 Pt2 O14'
_cell_volume   309.05751951
_cell_formula_units_Z   2
loop_
 _symmetry_equiv_pos_site_id
 _symmetry_equiv_pos_as_xyz
  1  'x, y, z'
loop_
 _atom_site_type_symbol
 _atom_site_label
 _atom_site_symmetry_multiplicity
 _atom_site_fract_x
 _atom_site_fract_y
 _atom_site_fract_z
 _atom_site_occupancy
  La  La0  1  0.500000  0.500000  0.500000  1
  La  La1  1  0.500000  0.500000  0.000000  1
  Tb  Tb2  1  0.532939  0.999893  0.750000  1
  Tb  Tb3  1  0.999893  0.532939  0.250000  1
  Tb  Tb4  1  0.467061  0.000107  0.250000  1
  Tb  Tb5  1  0.000107  0.467061  0.750000  1
  Pt  Pt6  1  0.000000  0.000000  0.500000  1
  Pt  Pt7  1  0.000000  0.000000  0.000000  1
  O  O8  1  0.679169  0.931858  0.474055  1
  O  O9  1  0.931858  0.679169  0.525945  1
  O  O10  1  0.679169  0.931858  0.025945  1
  O  O11  1  0.931858  0.679169  0.974055  1
  O  O12  1  0.320831  0.068142  0.525945  1
  O  O13  1  0.068142  0.320831  0.474055  1
  O  O14  1  0.320831  0.068142  0.974055  1
  O  O15  1  0.068142  0.320831  0.025945  1
  O  O16  1  0.926729  0.073271  0.750000  1
  O  O17  1  0.073271  0.926729  0.250000  1
  O  O18  1  0.362256  0.637744  0.750000  1
  O  O19  1  0.637744  0.362256  0.250000  1
  O  O20  1  0.641701  0.358299  0.750000  1
  O  O21  1  0.358299  0.641701  0.250000  1
