# generated using pymatgen
data_Tb12Dy8CoBi8Os3
_symmetry_space_group_name_H-M   'P 1'
_cell_length_a   7.99372480
_cell_length_b   9.02070900
_cell_length_c   12.49605701
_cell_angle_alpha   90.00000000
_cell_angle_beta   90.25679084
_cell_angle_gamma   90.00000000
_symmetry_Int_Tables_number   1
_chemical_formula_structural   Tb12Dy8CoBi8Os3
_chemical_formula_sum   'Tb12 Dy8 Co1 Bi8 Os3'
_cell_volume   901.06994037
_cell_formula_units_Z   1
loop_
 _symmetry_equiv_pos_site_id
 _symmetry_equiv_pos_as_xyz
  1  'x, y, z'
loop_
 _atom_site_type_symbol
 _atom_site_label
 _atom_site_symmetry_multiplicity
 _atom_site_fract_x
 _atom_site_fract_y
 _atom_site_fract_z
 _atom_site_occupancy
  Tb  Tb0  1  0.844055  0.750000  0.798986  1
  Tb  Tb1  1  0.158488  0.250000  0.207093  1
  Tb  Tb2  1  0.341753  0.250000  0.708503  1
  Tb  Tb3  1  0.656851  0.750000  0.293539  1
  Tb  Tb4  1  0.375604  0.750000  0.694376  1
  Tb  Tb5  1  0.623117  0.250000  0.306204  1
  Tb  Tb6  1  0.875103  0.250000  0.807125  1
  Tb  Tb7  1  0.121115  0.750000  0.187823  1
  Tb  Tb8  1  0.942518  0.750000  0.504919  1
  Tb  Tb9  1  0.057695  0.250000  0.495767  1
  Tb  Tb10  1  0.445809  0.250000  0.996483  1
  Tb  Tb11  1  0.552947  0.750000  0.003753  1
  Dy  Dy12  1  0.674418  0.041943  0.564120  1
  Dy  Dy13  1  0.324577  0.957130  0.435559  1
  Dy  Dy14  1  0.175838  0.958616  0.935755  1
  Dy  Dy15  1  0.324577  0.542870  0.435559  1
  Dy  Dy16  1  0.825385  0.038369  0.063117  1
  Dy  Dy17  1  0.674418  0.458057  0.564120  1
  Dy  Dy18  1  0.825385  0.461631  0.063117  1
  Dy  Dy19  1  0.175838  0.541384  0.935755  1
  Co  Co20  1  0.931299  0.750000  0.009241  1
  Bi  Bi21  1  0.570233  0.492948  0.827952  1
  Bi  Bi22  1  0.430858  0.507782  0.171834  1
  Bi  Bi23  1  0.068351  0.507582  0.673116  1
  Bi  Bi24  1  0.430858  0.992218  0.171834  1
  Bi  Bi25  1  0.931270  0.493334  0.326517  1
  Bi  Bi26  1  0.570233  0.007052  0.827952  1
  Bi  Bi27  1  0.931270  0.006666  0.326517  1
  Bi  Bi28  1  0.068351  0.992418  0.673116  1
  Os  Os29  1  0.574763  0.750000  0.511406  1
  Os  Os30  1  0.424162  0.250000  0.489306  1
  Os  Os31  1  0.072858  0.250000  0.989535  1
