# generated using pymatgen
data_Hf4Zr6Al2Sn5Sb
_symmetry_space_group_name_H-M   'P 1'
_cell_length_a   8.71894990
_cell_length_b   8.72249944
_cell_length_c   5.86710100
_cell_angle_alpha   90.00000000
_cell_angle_beta   90.00000000
_cell_angle_gamma   120.01347089
_symmetry_Int_Tables_number   1
_chemical_formula_structural   Hf4Zr6Al2Sn5Sb
_chemical_formula_sum   'Hf4 Zr6 Al2 Sn5 Sb1'
_cell_volume   386.36729781
_cell_formula_units_Z   1
loop_
 _symmetry_equiv_pos_site_id
 _symmetry_equiv_pos_as_xyz
  1  'x, y, z'
loop_
 _atom_site_type_symbol
 _atom_site_label
 _atom_site_symmetry_multiplicity
 _atom_site_fract_x
 _atom_site_fract_y
 _atom_site_fract_z
 _atom_site_occupancy
  Hf  Hf0  1  0.667359  0.333381  0.999692  1
  Hf  Hf1  1  0.332641  0.666023  0.999692  1
  Hf  Hf2  1  0.332641  0.666023  0.500308  1
  Hf  Hf3  1  0.667359  0.333381  0.500308  1
  Zr  Zr4  1  0.729715  0.728997  0.750000  1
  Zr  Zr5  1  0.270285  0.999283  0.750000  1
  Zr  Zr6  1  0.000000  0.271201  0.750000  1
  Zr  Zr7  1  0.268846  0.270559  0.250000  1
  Zr  Zr8  1  0.731154  0.001713  0.250000  1
  Zr  Zr9  1  0.000000  0.728614  0.250000  1
  Al  Al10  1  0.000000  0.999227  0.999053  1
  Al  Al11  1  0.000000  0.999227  0.500947  1
  Sn  Sn12  1  0.386805  0.385924  0.750000  1
  Sn  Sn13  1  0.613195  0.999119  0.750000  1
  Sn  Sn14  1  0.000000  0.614526  0.750000  1
  Sn  Sn15  1  0.613848  0.614077  0.250000  1
  Sn  Sn16  1  0.386152  0.000228  0.250000  1
  Sb  Sb17  1  0.000000  0.388496  0.250000  1
