# generated using pymatgen
data_Pr2Tm3Pb4
_symmetry_space_group_name_H-M   'P 1'
_cell_length_a   8.25596800
_cell_length_b   8.36724600
_cell_length_c   15.73558200
_cell_angle_alpha   90.00000000
_cell_angle_beta   90.00000000
_cell_angle_gamma   90.00000000
_symmetry_Int_Tables_number   1
_chemical_formula_structural   Pr2Tm3Pb4
_chemical_formula_sum   'Pr8 Tm12 Pb16'
_cell_volume   1087.00952345
_cell_formula_units_Z   4
loop_
 _symmetry_equiv_pos_site_id
 _symmetry_equiv_pos_as_xyz
  1  'x, y, z'
loop_
 _atom_site_type_symbol
 _atom_site_label
 _atom_site_symmetry_multiplicity
 _atom_site_fract_x
 _atom_site_fract_y
 _atom_site_fract_z
 _atom_site_occupancy
  Pr  Pr0  1  0.473731  0.677360  0.597416  1
  Pr  Pr1  1  0.973731  0.822640  0.902584  1
  Pr  Pr2  1  0.526269  0.322640  0.097416  1
  Pr  Pr3  1  0.026269  0.177360  0.402584  1
  Pr  Pr4  1  0.526269  0.322640  0.402584  1
  Pr  Pr5  1  0.026269  0.177360  0.097416  1
  Pr  Pr6  1  0.473731  0.677360  0.902584  1
  Pr  Pr7  1  0.973731  0.822640  0.597416  1
  Tm  Tm8  1  0.634351  0.158053  0.622970  1
  Tm  Tm9  1  0.134351  0.341947  0.877030  1
  Tm  Tm10  1  0.365649  0.841947  0.122970  1
  Tm  Tm11  1  0.865649  0.658053  0.377030  1
  Tm  Tm12  1  0.365649  0.841947  0.377030  1
  Tm  Tm13  1  0.865649  0.658053  0.122970  1
  Tm  Tm14  1  0.634351  0.158053  0.877030  1
  Tm  Tm15  1  0.134351  0.341947  0.622970  1
  Tm  Tm16  1  0.800302  0.493830  0.750000  1
  Tm  Tm17  1  0.300302  0.006170  0.750000  1
  Tm  Tm18  1  0.199698  0.506170  0.250000  1
  Tm  Tm19  1  0.699698  0.993830  0.250000  1
  Pb  Pb20  1  0.704119  0.958654  0.456201  1
  Pb  Pb21  1  0.204119  0.541346  0.043799  1
  Pb  Pb22  1  0.295881  0.041346  0.956201  1
  Pb  Pb23  1  0.795881  0.458654  0.543799  1
  Pb  Pb24  1  0.295881  0.041346  0.543799  1
  Pb  Pb25  1  0.795881  0.458654  0.956201  1
  Pb  Pb26  1  0.704119  0.958654  0.043799  1
  Pb  Pb27  1  0.204119  0.541346  0.456201  1
  Pb  Pb28  1  0.438726  0.370418  0.750000  1
  Pb  Pb29  1  0.938726  0.129582  0.750000  1
  Pb  Pb30  1  0.561274  0.629582  0.250000  1
  Pb  Pb31  1  0.061274  0.870418  0.250000  1
  Pb  Pb32  1  0.663731  0.849843  0.750000  1
  Pb  Pb33  1  0.163731  0.650157  0.750000  1
  Pb  Pb34  1  0.336269  0.150157  0.250000  1
  Pb  Pb35  1  0.836269  0.349843  0.250000  1
