# generated using pymatgen
data_Er10In3Hg5Pd4
_symmetry_space_group_name_H-M   'P 1'
_cell_length_a   3.61732700
_cell_length_b   7.91414604
_cell_length_c   18.21246711
_cell_angle_alpha   89.68544037
_cell_angle_beta   90.00000000
_cell_angle_gamma   90.00000000
_symmetry_Int_Tables_number   1
_chemical_formula_structural   Er10In3Hg5Pd4
_chemical_formula_sum   'Er10 In3 Hg5 Pd4'
_cell_volume   521.37963703
_cell_formula_units_Z   1
loop_
 _symmetry_equiv_pos_site_id
 _symmetry_equiv_pos_as_xyz
  1  'x, y, z'
loop_
 _atom_site_type_symbol
 _atom_site_label
 _atom_site_symmetry_multiplicity
 _atom_site_fract_x
 _atom_site_fract_y
 _atom_site_fract_z
 _atom_site_occupancy
  Er  Er0  1  0.000000  0.497129  0.501318  1
  Er  Er1  1  0.000000  0.001110  0.000625  1
  Er  Er2  1  0.000000  0.745523  0.284244  1
  Er  Er3  1  0.000000  0.264977  0.712357  1
  Er  Er4  1  0.000000  0.754106  0.782775  1
  Er  Er5  1  0.000000  0.246231  0.216316  1
  Er  Er6  1  0.000000  0.612268  0.083713  1
  Er  Er7  1  0.000000  0.386344  0.916470  1
  Er  Er8  1  0.000000  0.883208  0.585397  1
  Er  Er9  1  0.000000  0.108876  0.416660  1
  In  In10  1  0.500000  0.420010  0.352028  1
  In  In11  1  0.500000  0.921616  0.149234  1
  In  In12  1  0.500000  0.079347  0.849441  1
  Hg  Hg13  1  0.500000  0.713601  0.934250  1
  Hg  Hg14  1  0.500000  0.287300  0.066268  1
  Hg  Hg15  1  0.500000  0.784283  0.434276  1
  Hg  Hg16  1  0.500000  0.205836  0.563953  1
  Hg  Hg17  1  0.500000  0.581800  0.647944  1
  Pd  Pd18  1  0.500000  0.534104  0.197935  1
  Pd  Pd19  1  0.500000  0.465736  0.803809  1
  Pd  Pd20  1  0.500000  0.973159  0.698028  1
  Pd  Pd21  1  0.500000  0.033435  0.302958  1
