# generated using pymatgen
data_DyY9(CoSb2)2
_symmetry_space_group_name_H-M   'P 1'
_cell_length_a   7.93110400
_cell_length_b   8.78605900
_cell_length_c   12.22999100
_cell_angle_alpha   90.00000000
_cell_angle_beta   90.00000000
_cell_angle_gamma   90.00293449
_symmetry_Int_Tables_number   1
_chemical_formula_structural   DyY9(CoSb2)2
_chemical_formula_sum   'Dy2 Y18 Co4 Sb8'
_cell_volume   852.22426841
_cell_formula_units_Z   2
loop_
 _symmetry_equiv_pos_site_id
 _symmetry_equiv_pos_as_xyz
  1  'x, y, z'
loop_
 _atom_site_type_symbol
 _atom_site_label
 _atom_site_symmetry_multiplicity
 _atom_site_fract_x
 _atom_site_fract_y
 _atom_site_fract_z
 _atom_site_occupancy
  Dy  Dy0  1  0.822398  0.965563  0.065184  1
  Dy  Dy1  1  0.677602  0.534437  0.565184  1
  Y  Y2  1  0.155200  0.750224  0.203805  1
  Y  Y3  1  0.344800  0.749776  0.703805  1
  Y  Y4  1  0.844593  0.250008  0.795929  1
  Y  Y5  1  0.655407  0.249992  0.295929  1
  Y  Y6  1  0.457090  0.750467  0.998559  1
  Y  Y7  1  0.042910  0.749533  0.498559  1
  Y  Y8  1  0.544287  0.249417  0.001741  1
  Y  Y9  1  0.955713  0.250583  0.501741  1
  Y  Y10  1  0.623037  0.750215  0.305706  1
  Y  Y11  1  0.876963  0.749785  0.805706  1
  Y  Y12  1  0.376964  0.250201  0.694307  1
  Y  Y13  1  0.123036  0.249799  0.194307  1
  Y  Y14  1  0.821394  0.534514  0.065734  1
  Y  Y15  1  0.678606  0.965486  0.565734  1
  Y  Y16  1  0.178667  0.034226  0.934188  1
  Y  Y17  1  0.321333  0.465774  0.434188  1
  Y  Y18  1  0.178532  0.465525  0.934368  1
  Y  Y19  1  0.321468  0.034475  0.434368  1
  Co  Co20  1  0.436166  0.749637  0.490739  1
  Co  Co21  1  0.063834  0.750363  0.990739  1
  Co  Co22  1  0.565210  0.251212  0.509658  1
  Co  Co23  1  0.934790  0.248788  0.009658  1
  Sb  Sb24  1  0.928800  0.508365  0.326940  1
  Sb  Sb25  1  0.571200  0.991635  0.826940  1
  Sb  Sb26  1  0.071314  0.008212  0.672772  1
  Sb  Sb27  1  0.428686  0.491788  0.172772  1
  Sb  Sb28  1  0.071486  0.491706  0.673064  1
  Sb  Sb29  1  0.428514  0.008294  0.173064  1
  Sb  Sb30  1  0.928706  0.991744  0.327306  1
  Sb  Sb31  1  0.571294  0.508256  0.827306  1
