# generated using pymatgen
data_Ca5TbNd2(Si3Au)4
_symmetry_space_group_name_H-M   'P 1'
_cell_length_a   8.27866600
_cell_length_b   8.30814875
_cell_length_c   8.52413700
_cell_angle_alpha   90.00000000
_cell_angle_beta   90.00000000
_cell_angle_gamma   119.88261430
_symmetry_Int_Tables_number   1
_chemical_formula_structural   Ca5TbNd2(Si3Au)4
_chemical_formula_sum   'Ca5 Tb1 Nd2 Si12 Au4'
_cell_volume   508.34454955
_cell_formula_units_Z   1
loop_
 _symmetry_equiv_pos_site_id
 _symmetry_equiv_pos_as_xyz
  1  'x, y, z'
loop_
 _atom_site_type_symbol
 _atom_site_label
 _atom_site_symmetry_multiplicity
 _atom_site_fract_x
 _atom_site_fract_y
 _atom_site_fract_z
 _atom_site_occupancy
  Ca  Ca0  1  0.499533  0.500488  0.750000  1
  Ca  Ca1  1  0.500500  0.499638  0.250000  1
  Ca  Ca2  1  0.000954  0.500489  0.750000  1
  Ca  Ca3  1  0.999138  0.499638  0.250000  1
  Ca  Ca4  1  0.499455  0.998908  0.750000  1
  Tb  Tb5  1  0.500379  0.000759  0.250000  1
  Nd  Nd6  1  0.000007  0.000016  0.750000  1
  Nd  Nd7  1  0.999995  0.999989  0.250000  1
  Si  Si8  1  0.836603  0.162637  0.002235  1
  Si  Si9  1  0.163395  0.837388  0.002960  1
  Si  Si10  1  0.326034  0.162636  0.002235  1
  Si  Si11  1  0.163395  0.837388  0.497040  1
  Si  Si12  1  0.673993  0.837388  0.002960  1
  Si  Si13  1  0.836603  0.162637  0.497765  1
  Si  Si14  1  0.836500  0.673000  0.000300  1
  Si  Si15  1  0.673993  0.837388  0.497040  1
  Si  Si16  1  0.163509  0.327017  0.001096  1
  Si  Si17  1  0.326034  0.162636  0.497765  1
  Si  Si18  1  0.163509  0.327017  0.498904  1
  Si  Si19  1  0.836500  0.673000  0.499700  1
  Au  Au20  1  0.666431  0.332865  0.001952  1
  Au  Au21  1  0.333554  0.667107  0.003899  1
  Au  Au22  1  0.333554  0.667107  0.496101  1
  Au  Au23  1  0.666431  0.332865  0.498048  1
