# generated using pymatgen
data_CeTh(SbN)2
_symmetry_space_group_name_H-M   'P 1'
_cell_length_a   4.17000900
_cell_length_b   4.17000900
_cell_length_c   7.91243300
_cell_angle_alpha   90.00000000
_cell_angle_beta   90.00000000
_cell_angle_gamma   90.00000000
_symmetry_Int_Tables_number   1
_chemical_formula_structural   CeTh(SbN)2
_chemical_formula_sum   'Ce1 Th1 Sb2 N2'
_cell_volume   137.58910010
_cell_formula_units_Z   1
loop_
 _symmetry_equiv_pos_site_id
 _symmetry_equiv_pos_as_xyz
  1  'x, y, z'
loop_
 _atom_site_type_symbol
 _atom_site_label
 _atom_site_symmetry_multiplicity
 _atom_site_fract_x
 _atom_site_fract_y
 _atom_site_fract_z
 _atom_site_occupancy
  Ce  Ce0  1  0.000000  0.500001  0.136661  1
  Th  Th1  1  0.500001  0.000000  0.866216  1
  Sb  Sb2  1  0.500001  0.000000  0.436351  1
  Sb  Sb3  1  0.000000  0.500001  0.555180  1
  N  N4  1  0.000000  0.000000  0.002796  1
  N  N5  1  0.500001  0.500001  0.002796  1
