# generated using pymatgen
data_Th10HgGe2Sb5
_symmetry_space_group_name_H-M   'P 1'
_cell_length_a   9.55969000
_cell_length_b   9.55968879
_cell_length_c   6.50819400
_cell_angle_alpha   90.00000000
_cell_angle_beta   90.00000000
_cell_angle_gamma   119.95837123
_symmetry_Int_Tables_number   1
_chemical_formula_structural   Th10HgGe2Sb5
_chemical_formula_sum   'Th10 Hg1 Ge2 Sb5'
_cell_volume   515.30067361
_cell_formula_units_Z   1
loop_
 _symmetry_equiv_pos_site_id
 _symmetry_equiv_pos_as_xyz
  1  'x, y, z'
loop_
 _atom_site_type_symbol
 _atom_site_label
 _atom_site_symmetry_multiplicity
 _atom_site_fract_x
 _atom_site_fract_y
 _atom_site_fract_z
 _atom_site_occupancy
  Th  Th0  1  0.666972  0.332611  0.999853  1
  Th  Th1  1  0.332611  0.666972  0.999853  1
  Th  Th2  1  0.332611  0.666972  0.500147  1
  Th  Th3  1  0.666972  0.332611  0.500147  1
  Th  Th4  1  0.736042  0.736042  0.750000  1
  Th  Th5  1  0.265641  0.999575  0.750000  1
  Th  Th6  1  0.999575  0.265641  0.750000  1
  Th  Th7  1  0.263526  0.263526  0.250000  1
  Th  Th8  1  0.735647  0.000726  0.250000  1
  Th  Th9  1  0.000726  0.735647  0.250000  1
  Hg  Hg10  1  0.385992  0.385992  0.750000  1
  Ge  Ge11  1  0.999930  0.999930  0.000790  1
  Ge  Ge12  1  0.999930  0.999930  0.499210  1
  Sb  Sb13  1  0.613543  0.000188  0.750000  1
  Sb  Sb14  1  0.000188  0.613543  0.750000  1
  Sb  Sb15  1  0.610364  0.610364  0.250000  1
  Sb  Sb16  1  0.387703  0.002026  0.250000  1
  Sb  Sb17  1  0.002026  0.387703  0.250000  1
