# generated using pymatgen
data_Tm3ThZnFe
_symmetry_space_group_name_H-M   'P 1'
_cell_length_a   9.37090940
_cell_length_b   9.37090908
_cell_length_c   9.37090900
_cell_angle_alpha   60.00000380
_cell_angle_beta   60.00000494
_cell_angle_gamma   59.99999400
_symmetry_Int_Tables_number   1
_chemical_formula_structural   Tm3ThZnFe
_chemical_formula_sum   'Tm12 Th4 Zn4 Fe4'
_cell_volume   581.87566517
_cell_formula_units_Z   4
loop_
 _symmetry_equiv_pos_site_id
 _symmetry_equiv_pos_as_xyz
  1  'x, y, z'
loop_
 _atom_site_type_symbol
 _atom_site_label
 _atom_site_symmetry_multiplicity
 _atom_site_fract_x
 _atom_site_fract_y
 _atom_site_fract_z
 _atom_site_occupancy
  Tm  Tm0  1  0.811039  0.188961  0.188961  1
  Tm  Tm1  1  0.188961  0.811039  0.811039  1
  Tm  Tm2  1  0.188961  0.811039  0.188961  1
  Tm  Tm3  1  0.811039  0.188961  0.811039  1
  Tm  Tm4  1  0.188961  0.188961  0.811039  1
  Tm  Tm5  1  0.811039  0.811039  0.188961  1
  Tm  Tm6  1  0.936200  0.563800  0.563800  1
  Tm  Tm7  1  0.563800  0.936200  0.936200  1
  Tm  Tm8  1  0.563800  0.936200  0.563800  1
  Tm  Tm9  1  0.936200  0.563800  0.936200  1
  Tm  Tm10  1  0.563800  0.563800  0.936200  1
  Tm  Tm11  1  0.936200  0.936200  0.563800  1
  Th  Th12  1  0.347397  0.347397  0.347397  1
  Th  Th13  1  0.347397  0.347397  0.957810  1
  Th  Th14  1  0.347397  0.957810  0.347397  1
  Th  Th15  1  0.957810  0.347397  0.347397  1
  Zn  Zn16  1  0.578974  0.578974  0.578974  1
  Zn  Zn17  1  0.578974  0.578974  0.263078  1
  Zn  Zn18  1  0.578974  0.263078  0.578974  1
  Zn  Zn19  1  0.263078  0.578974  0.578974  1
  Fe  Fe20  1  0.143215  0.143215  0.143215  1
  Fe  Fe21  1  0.143215  0.143215  0.570356  1
  Fe  Fe22  1  0.143215  0.570356  0.143215  1
  Fe  Fe23  1  0.570356  0.143215  0.143215  1
