# generated using pymatgen
data_Tm8Ti12Si15P
_symmetry_space_group_name_H-M   'P 1'
_cell_length_a   6.99096903
_cell_length_b   6.98438072
_cell_length_c   12.82084600
_cell_angle_alpha   89.96334714
_cell_angle_beta   89.83774981
_cell_angle_gamma   89.94431828
_symmetry_Int_Tables_number   1
_chemical_formula_structural   Tm8Ti12Si15P
_chemical_formula_sum   'Tm8 Ti12 Si15 P1'
_cell_volume   626.00807004
_cell_formula_units_Z   1
loop_
 _symmetry_equiv_pos_site_id
 _symmetry_equiv_pos_as_xyz
  1  'x, y, z'
loop_
 _atom_site_type_symbol
 _atom_site_label
 _atom_site_symmetry_multiplicity
 _atom_site_fract_x
 _atom_site_fract_y
 _atom_site_fract_z
 _atom_site_occupancy
  Tm  Tm0  1  0.340492  0.002553  0.467916  1
  Tm  Tm1  1  0.494840  0.844539  0.716951  1
  Tm  Tm2  1  0.501764  0.158754  0.216758  1
  Tm  Tm3  1  0.840177  0.497332  0.283416  1
  Tm  Tm4  1  0.159137  0.497794  0.782018  1
  Tm  Tm5  1  0.660439  0.995811  0.967172  1
  Tm  Tm6  1  0.002682  0.340045  0.534104  1
  Tm  Tm7  1  0.998474  0.659416  0.032975  1
  Ti  Ti8  1  0.326816  0.326979  0.999433  1
  Ti  Ti9  1  0.172631  0.827239  0.249962  1
  Ti  Ti10  1  0.828323  0.172783  0.749343  1
  Ti  Ti11  1  0.672344  0.672657  0.500239  1
  Ti  Ti12  1  0.153657  0.009178  0.871770  1
  Ti  Ti13  1  0.492826  0.651475  0.124785  1
  Ti  Ti14  1  0.504613  0.345534  0.626522  1
  Ti  Ti15  1  0.653279  0.495350  0.875323  1
  Ti  Ti16  1  0.347765  0.506552  0.374827  1
  Ti  Ti17  1  0.847961  0.992985  0.375218  1
  Ti  Ti18  1  0.007007  0.150916  0.124852  1
  Ti  Ti19  1  0.995100  0.850851  0.625357  1
  Si  Si20  1  0.367259  0.704087  0.931955  1
  Si  Si21  1  0.630847  0.296924  0.434079  1
  Si  Si22  1  0.704328  0.368326  0.067309  1
  Si  Si23  1  0.296380  0.631477  0.567125  1
  Si  Si24  1  0.795963  0.868153  0.183332  1
  Si  Si25  1  0.131694  0.203493  0.317464  1
  Si  Si26  1  0.869549  0.796163  0.816272  1
  Si  Si27  1  0.291929  0.953741  0.063580  1
  Si  Si28  1  0.545746  0.791793  0.314781  1
  Si  Si29  1  0.459926  0.210071  0.817550  1
  Si  Si30  1  0.790466  0.546892  0.684984  1
  Si  Si31  1  0.207946  0.453511  0.185562  1
  Si  Si32  1  0.707772  0.045547  0.564245  1
  Si  Si33  1  0.954167  0.291627  0.935575  1
  Si  Si34  1  0.045889  0.707983  0.435674  1
  P  P35  1  0.199814  0.131467  0.681570  1
