# generated using pymatgen
data_Tb4AlRu7
_symmetry_space_group_name_H-M   'P 1'
_cell_length_a   5.39212900
_cell_length_b   5.39212865
_cell_length_c   8.62889800
_cell_angle_alpha   90.00000000
_cell_angle_beta   90.00000000
_cell_angle_gamma   120.00000829
_symmetry_Int_Tables_number   1
_chemical_formula_structural   Tb4AlRu7
_chemical_formula_sum   'Tb4 Al1 Ru7'
_cell_volume   217.27334457
_cell_formula_units_Z   1
loop_
 _symmetry_equiv_pos_site_id
 _symmetry_equiv_pos_as_xyz
  1  'x, y, z'
loop_
 _atom_site_type_symbol
 _atom_site_label
 _atom_site_symmetry_multiplicity
 _atom_site_fract_x
 _atom_site_fract_y
 _atom_site_fract_z
 _atom_site_occupancy
  Tb  Tb0  1  0.333333  0.666667  0.429816  1
  Tb  Tb1  1  0.666667  0.333333  0.570184  1
  Tb  Tb2  1  0.666667  0.333333  0.934709  1
  Tb  Tb3  1  0.333333  0.666667  0.065291  1
  Al  Al4  1  0.000000  0.000000  0.500000  1
  Ru  Ru5  1  0.000000  0.000000  0.000000  1
  Ru  Ru6  1  0.828843  0.171157  0.251299  1
  Ru  Ru7  1  0.828843  0.657686  0.251299  1
  Ru  Ru8  1  0.342314  0.171157  0.251299  1
  Ru  Ru9  1  0.171157  0.828843  0.748701  1
  Ru  Ru10  1  0.171157  0.342314  0.748701  1
  Ru  Ru11  1  0.657686  0.828843  0.748701  1
