# generated using pymatgen
data_PrYBe2(Re2C)2
_symmetry_space_group_name_H-M   'P 1'
_cell_length_a   5.64248184
_cell_length_b   5.64248102
_cell_length_c   7.36069800
_cell_angle_alpha   90.00000000
_cell_angle_beta   90.00000000
_cell_angle_gamma   139.78501011
_symmetry_Int_Tables_number   1
_chemical_formula_structural   PrYBe2(Re2C)2
_chemical_formula_sum   'Pr1 Y1 Be2 Re4 C2'
_cell_volume   151.30785384
_cell_formula_units_Z   1
loop_
 _symmetry_equiv_pos_site_id
 _symmetry_equiv_pos_as_xyz
  1  'x, y, z'
loop_
 _atom_site_type_symbol
 _atom_site_label
 _atom_site_symmetry_multiplicity
 _atom_site_fract_x
 _atom_site_fract_y
 _atom_site_fract_z
 _atom_site_occupancy
  Pr  Pr0  1  0.534223  0.465777  0.250000  1
  Y  Y1  1  0.465461  0.534539  0.750000  1
  Be  Be2  1  0.257779  0.742221  0.250000  1
  Be  Be3  1  0.742339  0.257661  0.750000  1
  Re  Re4  1  0.818807  0.181193  0.060111  1
  Re  Re5  1  0.181802  0.818198  0.934990  1
  Re  Re6  1  0.181802  0.818198  0.565010  1
  Re  Re7  1  0.818807  0.181193  0.439889  1
  C  C8  1  0.999490  0.000510  0.992252  1
  C  C9  1  0.999490  0.000510  0.507748  1
