# generated using pymatgen
data_Th4In2CuRh3
_symmetry_space_group_name_H-M   'P 1'
_cell_length_a   7.80632500
_cell_length_b   7.80632558
_cell_length_c   3.78794500
_cell_angle_alpha   90.00000000
_cell_angle_beta   90.00000000
_cell_angle_gamma   90.08976408
_symmetry_Int_Tables_number   1
_chemical_formula_structural   Th4In2CuRh3
_chemical_formula_sum   'Th4 In2 Cu1 Rh3'
_cell_volume   230.83221574
_cell_formula_units_Z   1
loop_
 _symmetry_equiv_pos_site_id
 _symmetry_equiv_pos_as_xyz
  1  'x, y, z'
loop_
 _atom_site_type_symbol
 _atom_site_label
 _atom_site_symmetry_multiplicity
 _atom_site_fract_x
 _atom_site_fract_y
 _atom_site_fract_z
 _atom_site_occupancy
  Th  Th0  1  0.315885  0.169027  0.500001  1
  Th  Th1  1  0.835265  0.335265  0.500001  1
  Th  Th2  1  0.176862  0.676862  0.500001  1
  Th  Th3  1  0.669027  0.815885  0.500001  1
  In  In4  1  0.989644  0.000451  0.000000  1
  In  In5  1  0.500451  0.489644  0.000000  1
  Cu  Cu6  1  0.627841  0.127843  0.000000  1
  Rh  Rh7  1  0.135002  0.369489  0.000000  1
  Rh  Rh8  1  0.869489  0.635000  0.000000  1
  Rh  Rh9  1  0.380536  0.880536  0.000000  1
