# generated using pymatgen
data_Sm2Y6Cd2NiOs
_symmetry_space_group_name_H-M   'P 1'
_cell_length_a   9.66235277
_cell_length_b   9.66235326
_cell_length_c   9.75297200
_cell_angle_alpha   59.68927249
_cell_angle_beta   59.68927082
_cell_angle_gamma   59.53035389
_symmetry_Int_Tables_number   1
_chemical_formula_structural   Sm2Y6Cd2NiOs
_chemical_formula_sum   'Sm4 Y12 Cd4 Ni2 Os2'
_cell_volume   638.53001831
_cell_formula_units_Z   2
loop_
 _symmetry_equiv_pos_site_id
 _symmetry_equiv_pos_as_xyz
  1  'x, y, z'
loop_
 _atom_site_type_symbol
 _atom_site_label
 _atom_site_symmetry_multiplicity
 _atom_site_fract_x
 _atom_site_fract_y
 _atom_site_fract_z
 _atom_site_occupancy
  Sm  Sm0  1  0.601145  0.601145  0.594660  1
  Sm  Sm1  1  0.601145  0.601145  0.203050  1
  Sm  Sm2  1  0.602804  0.202467  0.597364  1
  Sm  Sm3  1  0.202467  0.602804  0.597364  1
  Y  Y4  1  0.061814  0.436013  0.439919  1
  Y  Y5  1  0.436013  0.061814  0.062254  1
  Y  Y6  1  0.436013  0.061814  0.439919  1
  Y  Y7  1  0.061814  0.436013  0.062254  1
  Y  Y8  1  0.438077  0.438077  0.061923  1
  Y  Y9  1  0.060202  0.060202  0.439798  1
  Y  Y10  1  0.188066  0.806539  0.817382  1
  Y  Y11  1  0.806539  0.188066  0.188013  1
  Y  Y12  1  0.806539  0.188066  0.817382  1
  Y  Y13  1  0.188066  0.806539  0.188013  1
  Y  Y14  1  0.815065  0.815065  0.184935  1
  Y  Y15  1  0.190337  0.190337  0.809663  1
  Cd  Cd16  1  0.829776  0.829776  0.832432  1
  Cd  Cd17  1  0.829776  0.829776  0.508014  1
  Cd  Cd18  1  0.829968  0.506741  0.831645  1
  Cd  Cd19  1  0.506741  0.829968  0.831645  1
  Ni  Ni20  1  0.392443  0.827843  0.389858  1
  Ni  Ni21  1  0.827843  0.392443  0.389858  1
  Os  Os22  1  0.393675  0.393675  0.387686  1
  Os  Os23  1  0.393675  0.393675  0.824967  1
