# generated using pymatgen
data_Nd6Er5Tm5(CdIr)4
_symmetry_space_group_name_H-M   'P 1'
_cell_length_a   9.69364540
_cell_length_b   9.68458255
_cell_length_c   9.68458265
_cell_angle_alpha   59.95537322
_cell_angle_beta   59.96903938
_cell_angle_gamma   59.96904266
_symmetry_Int_Tables_number   1
_chemical_formula_structural   Nd6Er5Tm5(CdIr)4
_chemical_formula_sum   'Nd6 Er5 Tm5 Cd4 Ir4'
_cell_volume   642.36816800
_cell_formula_units_Z   1
loop_
 _symmetry_equiv_pos_site_id
 _symmetry_equiv_pos_as_xyz
  1  'x, y, z'
loop_
 _atom_site_type_symbol
 _atom_site_label
 _atom_site_symmetry_multiplicity
 _atom_site_fract_x
 _atom_site_fract_y
 _atom_site_fract_z
 _atom_site_occupancy
  Nd  Nd0  1  0.940954  0.559046  0.559046  1
  Nd  Nd1  1  0.558565  0.941435  0.941435  1
  Nd  Nd2  1  0.558731  0.940922  0.558840  1
  Nd  Nd3  1  0.941507  0.558840  0.940922  1
  Nd  Nd4  1  0.558731  0.558840  0.940922  1
  Nd  Nd5  1  0.941507  0.940922  0.558840  1
  Er  Er6  1  0.346371  0.347504  0.347504  1
  Er  Er7  1  0.346952  0.347856  0.958240  1
  Er  Er8  1  0.346952  0.958240  0.347856  1
  Er  Er9  1  0.958621  0.347504  0.347504  1
  Er  Er10  1  0.813458  0.186542  0.186542  1
  Tm  Tm11  1  0.186426  0.813574  0.813574  1
  Tm  Tm12  1  0.187405  0.812884  0.185792  1
  Tm  Tm13  1  0.813918  0.185792  0.812884  1
  Tm  Tm14  1  0.187405  0.185792  0.812884  1
  Tm  Tm15  1  0.813918  0.812884  0.185792  1
  Cd  Cd16  1  0.579242  0.579301  0.579301  1
  Cd  Cd17  1  0.579363  0.579543  0.261729  1
  Cd  Cd18  1  0.579363  0.261729  0.579543  1
  Cd  Cd19  1  0.262154  0.579301  0.579301  1
  Ir  Ir20  1  0.140813  0.141352  0.141352  1
  Ir  Ir21  1  0.140579  0.141714  0.577128  1
  Ir  Ir22  1  0.140579  0.577128  0.141714  1
  Ir  Ir23  1  0.576484  0.141352  0.141352  1
