# generated using pymatgen
data_Na6Sn3(PS4)4
_symmetry_space_group_name_H-M   'P 1'
_cell_length_a   6.18973676
_cell_length_b   11.45902376
_cell_length_c   11.45902400
_cell_angle_alpha   116.83166307
_cell_angle_beta   100.37291586
_cell_angle_gamma   100.37291395
_symmetry_Int_Tables_number   1
_chemical_formula_structural   Na6Sn3(PS4)4
_chemical_formula_sum   'Na6 Sn3 P4 S16'
_cell_volume   681.05967832
_cell_formula_units_Z   1
loop_
 _symmetry_equiv_pos_site_id
 _symmetry_equiv_pos_as_xyz
  1  'x, y, z'
loop_
 _atom_site_type_symbol
 _atom_site_label
 _atom_site_symmetry_multiplicity
 _atom_site_fract_x
 _atom_site_fract_y
 _atom_site_fract_z
 _atom_site_occupancy
  Na  Na0  1  0.341045  0.744802  0.194387  1
  Na  Na1  1  0.596244  0.449585  0.255198  1
  Na  Na2  1  0.596244  0.255198  0.449585  1
  Na  Na3  1  0.146659  0.805613  0.550415  1
  Na  Na4  1  0.341045  0.194387  0.744802  1
  Na  Na5  1  0.146659  0.550415  0.805613  1
  Sn  Sn6  1  0.974450  0.267843  0.000000  1
  Sn  Sn7  1  0.974450  0.000000  0.267843  1
  Sn  Sn8  1  0.706607  0.732157  0.732157  1
  P  P9  1  0.595990  0.000000  0.000000  1
  P  P10  1  0.764817  0.525542  0.000000  1
  P  P11  1  0.239275  0.474457  0.474457  1
  P  P12  1  0.764817  0.000000  0.525542  1
  S  S13  1  0.924172  0.000000  0.000000  1
  S  S14  1  0.540532  0.173530  0.000000  1
  S  S15  1  0.428445  0.491064  0.000000  1
  S  S16  1  0.897952  0.702338  0.000000  1
  S  S17  1  0.967250  0.532380  0.170458  1
  S  S18  1  0.540532  0.000000  0.173530  1
  S  S19  1  0.195615  0.297663  0.297663  1
  S  S20  1  0.796791  0.829542  0.361921  1
  S  S21  1  0.434869  0.638079  0.467620  1
  S  S22  1  0.428445  0.000000  0.491064  1
  S  S23  1  0.937382  0.508936  0.508936  1
  S  S24  1  0.967250  0.170458  0.532380  1
  S  S25  1  0.434869  0.467620  0.638079  1
  S  S26  1  0.897952  0.000000  0.702338  1
  S  S27  1  0.367003  0.826471  0.826471  1
  S  S28  1  0.796791  0.361921  0.829542  1
