# generated using pymatgen
data_Y5RuRh
_symmetry_space_group_name_H-M   'P 1'
_cell_length_a   6.42282291
_cell_length_b   7.29297718
_cell_length_c   8.59021794
_cell_angle_alpha   96.50612676
_cell_angle_beta   111.95295941
_cell_angle_gamma   89.99999863
_symmetry_Int_Tables_number   1
_chemical_formula_structural   Y5RuRh
_chemical_formula_sum   'Y10 Ru2 Rh2'
_cell_volume   370.40717912
_cell_formula_units_Z   2
loop_
 _symmetry_equiv_pos_site_id
 _symmetry_equiv_pos_as_xyz
  1  'x, y, z'
loop_
 _atom_site_type_symbol
 _atom_site_label
 _atom_site_symmetry_multiplicity
 _atom_site_fract_x
 _atom_site_fract_y
 _atom_site_fract_z
 _atom_site_occupancy
  Y  Y0  1  0.982102  0.916723  0.188095  1
  Y  Y1  1  0.794007  0.583277  0.811905  1
  Y  Y2  1  0.022536  0.086325  0.814265  1
  Y  Y3  1  0.208271  0.413675  0.185735  1
  Y  Y4  1  0.642760  0.816870  0.434048  1
  Y  Y5  1  0.208712  0.683130  0.565952  1
  Y  Y6  1  0.354431  0.186265  0.563094  1
  Y  Y7  1  0.791337  0.313735  0.436906  1
  Y  Y8  1  0.421673  0.750000  0.000000  1
  Y  Y9  1  0.575896  0.250000  0.000000  1
  Ru  Ru10  1  0.175896  0.425101  0.779116  1
  Ru  Ru11  1  0.396780  0.074899  0.220884  1
  Rh  Rh12  1  0.823490  0.576315  0.221381  1
  Rh  Rh13  1  0.602109  0.923685  0.778619  1
