# generated using pymatgen
data_Ce4ErHgAu4
_symmetry_space_group_name_H-M   'P 1'
_cell_length_a   8.17823000
_cell_length_b   8.17823000
_cell_length_c   3.89234600
_cell_angle_alpha   90.00000000
_cell_angle_beta   90.00000000
_cell_angle_gamma   90.00000000
_symmetry_Int_Tables_number   1
_chemical_formula_structural   Ce4ErHgAu4
_chemical_formula_sum   'Ce4 Er1 Hg1 Au4'
_cell_volume   260.33351324
_cell_formula_units_Z   1
loop_
 _symmetry_equiv_pos_site_id
 _symmetry_equiv_pos_as_xyz
  1  'x, y, z'
loop_
 _atom_site_type_symbol
 _atom_site_label
 _atom_site_symmetry_multiplicity
 _atom_site_fract_x
 _atom_site_fract_y
 _atom_site_fract_z
 _atom_site_occupancy
  Ce  Ce0  1  0.348848  0.187547  0.500000  1
  Ce  Ce1  1  0.812453  0.348848  0.500000  1
  Ce  Ce2  1  0.187547  0.651152  0.500000  1
  Ce  Ce3  1  0.651152  0.812453  0.500000  1
  Er  Er4  1  0.000000  0.000000  0.000000  1
  Hg  Hg5  1  0.500000  0.500000  0.000000  1
  Au  Au6  1  0.643996  0.114986  0.000000  1
  Au  Au7  1  0.114986  0.356004  0.000000  1
  Au  Au8  1  0.885014  0.643996  0.000000  1
  Au  Au9  1  0.356004  0.885014  0.000000  1
