# generated using pymatgen
data_Tm5SiBi2Pt
_symmetry_space_group_name_H-M   'P 1'
_cell_length_a   8.58826114
_cell_length_b   8.58826120
_cell_length_c   7.84791700
_cell_angle_alpha   90.00000000
_cell_angle_beta   90.00000000
_cell_angle_gamma   125.71840916
_symmetry_Int_Tables_number   1
_chemical_formula_structural   Tm5SiBi2Pt
_chemical_formula_sum   'Tm10 Si2 Bi4 Pt2'
_cell_volume   469.96475043
_cell_formula_units_Z   2
loop_
 _symmetry_equiv_pos_site_id
 _symmetry_equiv_pos_as_xyz
  1  'x, y, z'
loop_
 _atom_site_type_symbol
 _atom_site_label
 _atom_site_symmetry_multiplicity
 _atom_site_fract_x
 _atom_site_fract_y
 _atom_site_fract_z
 _atom_site_occupancy
  Tm  Tm0  1  0.544121  0.787556  0.161299  1
  Tm  Tm1  1  0.287556  0.044121  0.338701  1
  Tm  Tm2  1  0.215029  0.450489  0.825932  1
  Tm  Tm3  1  0.950489  0.715029  0.674068  1
  Tm  Tm4  1  0.715029  0.950489  0.674068  1
  Tm  Tm5  1  0.450489  0.215029  0.825932  1
  Tm  Tm6  1  0.787556  0.544121  0.161299  1
  Tm  Tm7  1  0.044121  0.287556  0.338701  1
  Tm  Tm8  1  0.501241  0.501241  0.503965  1
  Tm  Tm9  1  0.001241  0.001241  0.996035  1
  Si  Si10  1  0.872307  0.872307  0.369869  1
  Si  Si11  1  0.372307  0.372307  0.130131  1
  Bi  Bi12  1  0.292392  0.710744  0.498481  1
  Bi  Bi13  1  0.210744  0.792392  0.001519  1
  Bi  Bi14  1  0.710744  0.292392  0.498481  1
  Bi  Bi15  1  0.792392  0.210744  0.001519  1
  Pt  Pt16  1  0.626120  0.626120  0.875933  1
  Pt  Pt17  1  0.126120  0.126120  0.624067  1
