# generated using pymatgen
data_Y6Er10MgCo4Hg3
_symmetry_space_group_name_H-M   'P 1'
_cell_length_a   9.43574919
_cell_length_b   9.42896042
_cell_length_c   9.42896200
_cell_angle_alpha   60.00000147
_cell_angle_beta   60.02379859
_cell_angle_gamma   60.02379779
_symmetry_Int_Tables_number   1
_chemical_formula_structural   Y6Er10MgCo4Hg3
_chemical_formula_sum   'Y6 Er10 Mg1 Co4 Hg3'
_cell_volume   593.39682689
_cell_formula_units_Z   1
loop_
 _symmetry_equiv_pos_site_id
 _symmetry_equiv_pos_as_xyz
  1  'x, y, z'
loop_
 _atom_site_type_symbol
 _atom_site_label
 _atom_site_symmetry_multiplicity
 _atom_site_fract_x
 _atom_site_fract_y
 _atom_site_fract_z
 _atom_site_occupancy
  Y  Y0  1  0.937544  0.561763  0.561763  1
  Y  Y1  1  0.560783  0.938418  0.938418  1
  Y  Y2  1  0.560783  0.938418  0.562381  1
  Y  Y3  1  0.937544  0.561763  0.938931  1
  Y  Y4  1  0.560783  0.562381  0.938418  1
  Y  Y5  1  0.937544  0.938931  0.561763  1
  Er  Er6  1  0.347634  0.345591  0.345591  1
  Er  Er7  1  0.347634  0.345591  0.961184  1
  Er  Er8  1  0.347634  0.961184  0.345591  1
  Er  Er9  1  0.952014  0.349328  0.349328  1
  Er  Er10  1  0.810901  0.188691  0.188691  1
  Er  Er11  1  0.184846  0.814121  0.814121  1
  Er  Er12  1  0.184846  0.814121  0.186911  1
  Er  Er13  1  0.810901  0.188691  0.811718  1
  Er  Er14  1  0.184846  0.186911  0.814121  1
  Er  Er15  1  0.810901  0.811718  0.188691  1
  Mg  Mg16  1  0.286273  0.571242  0.571242  1
  Co  Co17  1  0.139262  0.142434  0.142434  1
  Co  Co18  1  0.139262  0.142434  0.575870  1
  Co  Co19  1  0.139262  0.575870  0.142434  1
  Co  Co20  1  0.575576  0.141474  0.141474  1
  Hg  Hg21  1  0.581075  0.585106  0.585106  1
  Hg  Hg22  1  0.581075  0.585106  0.248713  1
  Hg  Hg23  1  0.581075  0.248713  0.585106  1
