# generated using pymatgen
data_LiZr4Ir3
_symmetry_space_group_name_H-M   'P 1'
_cell_length_a   7.95282500
_cell_length_b   7.95282520
_cell_length_c   5.38339600
_cell_angle_alpha   90.00000000
_cell_angle_beta   90.00000000
_cell_angle_gamma   119.99999501
_symmetry_Int_Tables_number   1
_chemical_formula_structural   LiZr4Ir3
_chemical_formula_sum   'Li2 Zr8 Ir6'
_cell_volume   294.86949355
_cell_formula_units_Z   2
loop_
 _symmetry_equiv_pos_site_id
 _symmetry_equiv_pos_as_xyz
  1  'x, y, z'
loop_
 _atom_site_type_symbol
 _atom_site_label
 _atom_site_symmetry_multiplicity
 _atom_site_fract_x
 _atom_site_fract_y
 _atom_site_fract_z
 _atom_site_occupancy
  Li  Li0  1  0.666667  0.333333  0.000000  1
  Li  Li1  1  0.333333  0.666667  0.000000  1
  Zr  Zr2  1  0.333333  0.666667  0.500000  1
  Zr  Zr3  1  0.666667  0.333333  0.500000  1
  Zr  Zr4  1  0.753429  0.753429  0.751958  1
  Zr  Zr5  1  0.246571  0.000000  0.751958  1
  Zr  Zr6  1  0.000000  0.246571  0.751958  1
  Zr  Zr7  1  0.246571  0.246571  0.248042  1
  Zr  Zr8  1  0.753429  0.000000  0.248042  1
  Zr  Zr9  1  0.000000  0.753429  0.248042  1
  Ir  Ir10  1  0.397763  0.397763  0.760162  1
  Ir  Ir11  1  0.602237  0.000000  0.760162  1
  Ir  Ir12  1  0.000000  0.602237  0.760162  1
  Ir  Ir13  1  0.602237  0.602237  0.239838  1
  Ir  Ir14  1  0.397763  0.000000  0.239838  1
  Ir  Ir15  1  0.000000  0.397763  0.239838  1
