# generated using pymatgen
data_TmSc3Mn15Fe5P12
_symmetry_space_group_name_H-M   'P 1'
_cell_length_a   3.55222200
_cell_length_b   10.43706449
_cell_length_c   12.10721894
_cell_angle_alpha   89.72633597
_cell_angle_beta   90.00000000
_cell_angle_gamma   90.00000000
_symmetry_Int_Tables_number   1
_chemical_formula_structural   TmSc3Mn15Fe5P12
_chemical_formula_sum   'Tm1 Sc3 Mn15 Fe5 P12'
_cell_volume   448.86723849
_cell_formula_units_Z   1
loop_
 _symmetry_equiv_pos_site_id
 _symmetry_equiv_pos_as_xyz
  1  'x, y, z'
loop_
 _atom_site_type_symbol
 _atom_site_label
 _atom_site_symmetry_multiplicity
 _atom_site_fract_x
 _atom_site_fract_y
 _atom_site_fract_z
 _atom_site_occupancy
  Tm  Tm0  1  0.750000  0.084364  0.790697  1
  Sc  Sc1  1  0.250000  0.579145  0.711268  1
  Sc  Sc2  1  0.250000  0.918715  0.207327  1
  Sc  Sc3  1  0.750000  0.417844  0.292926  1
  Mn  Mn4  1  0.250000  0.710271  0.986879  1
  Mn  Mn5  1  0.250000  0.787742  0.486491  1
  Mn  Mn6  1  0.750000  0.292171  0.011760  1
  Mn  Mn7  1  0.750000  0.211623  0.514149  1
  Mn  Mn8  1  0.250000  0.408929  0.493290  1
  Mn  Mn9  1  0.250000  0.093388  0.992209  1
  Mn  Mn10  1  0.750000  0.589587  0.508188  1
  Mn  Mn11  1  0.750000  0.909710  0.008501  1
  Mn  Mn12  1  0.250000  0.219238  0.176689  1
  Mn  Mn13  1  0.250000  0.282636  0.674266  1
  Mn  Mn14  1  0.750000  0.777706  0.824223  1
  Mn  Mn15  1  0.750000  0.718381  0.323867  1
  Mn  Mn16  1  0.250000  0.874447  0.697332  1
  Mn  Mn17  1  0.250000  0.623359  0.198738  1
  Mn  Mn18  1  0.750000  0.123930  0.301635  1
  Fe  Fe19  1  0.750000  0.376961  0.800621  1
  Fe  Fe20  1  0.250000  0.464283  0.934409  1
  Fe  Fe21  1  0.250000  0.036780  0.429322  1
  Fe  Fe22  1  0.750000  0.538752  0.070496  1
  Fe  Fe23  1  0.750000  0.959717  0.566418  1
  P  P24  1  0.250000  0.421984  0.114145  1
  P  P25  1  0.250000  0.077050  0.609257  1
  P  P26  1  0.750000  0.573399  0.886307  1
  P  P27  1  0.750000  0.920966  0.385346  1
  P  P28  1  0.250000  0.268906  0.869020  1
  P  P29  1  0.250000  0.240762  0.370661  1
  P  P30  1  0.750000  0.741552  0.129932  1
  P  P31  1  0.750000  0.757231  0.630024  1
  P  P32  1  0.250000  0.589959  0.384988  1
  P  P33  1  0.250000  0.906554  0.885340  1
  P  P34  1  0.750000  0.409886  0.617809  1
  P  P35  1  0.750000  0.092068  0.115470  1
