# generated using pymatgen
data_K16Ti7MnP4(O4F9)4
_symmetry_space_group_name_H-M   'P 1'
_cell_length_a   11.16271500
_cell_length_b   5.93705218
_cell_length_c   20.49010500
_cell_angle_alpha   74.14203170
_cell_angle_beta   90.00000000
_cell_angle_gamma   90.00000000
_symmetry_Int_Tables_number   1
_chemical_formula_structural   K16Ti7MnP4(O4F9)4
_chemical_formula_sum   'K16 Ti7 Mn1 P4 O16 F36'
_cell_volume   1306.27250363
_cell_formula_units_Z   1
loop_
 _symmetry_equiv_pos_site_id
 _symmetry_equiv_pos_as_xyz
  1  'x, y, z'
loop_
 _atom_site_type_symbol
 _atom_site_label
 _atom_site_symmetry_multiplicity
 _atom_site_fract_x
 _atom_site_fract_y
 _atom_site_fract_z
 _atom_site_occupancy
  K  K0  1  0.045936  0.657517  0.833048  1
  K  K1  1  0.454359  0.658398  0.332490  1
  K  K2  1  0.268511  0.455995  0.516009  1
  K  K3  1  0.731489  0.544005  0.483991  1
  K  K4  1  0.757041  0.127085  0.860561  1
  K  K5  1  0.770509  0.543546  0.984051  1
  K  K6  1  0.455384  0.644312  0.848032  1
  K  K7  1  0.043897  0.643930  0.347821  1
  K  K8  1  0.242959  0.872915  0.139439  1
  K  K9  1  0.956103  0.356070  0.652179  1
  K  K10  1  0.544616  0.355688  0.151968  1
  K  K11  1  0.545641  0.341602  0.667510  1
  K  K12  1  0.255717  0.871724  0.640495  1
  K  K13  1  0.229491  0.456454  0.015949  1
  K  K14  1  0.744283  0.128276  0.359505  1
  K  K15  1  0.954064  0.342483  0.166952  1
  Ti  Ti16  1  0.000000  0.000000  0.500000  1
  Ti  Ti17  1  0.746441  0.719255  0.755056  1
  Ti  Ti18  1  0.253559  0.280745  0.244944  1
  Ti  Ti19  1  0.245650  0.279341  0.745786  1
  Ti  Ti20  1  0.500000  0.000000  0.000000  1
  Ti  Ti21  1  0.754350  0.720659  0.254214  1
  Ti  Ti22  1  0.500000  0.000000  0.500000  1
  Mn  Mn23  1  0.000000  0.000000  0.000000  1
  P  P24  1  0.752431  0.955953  0.591610  1
  P  P25  1  0.248121  0.042570  0.909836  1
  P  P26  1  0.751879  0.957430  0.090164  1
  P  P27  1  0.247569  0.044047  0.408390  1
  O  O28  1  0.160832  0.082073  0.966117  1
  O  O29  1  0.373053  0.116914  0.932115  1
  O  O30  1  0.754141  0.202019  0.098618  1
  O  O31  1  0.626947  0.883086  0.067885  1
  O  O32  1  0.839168  0.917927  0.033883  1
  O  O33  1  0.249412  0.798889  0.400241  1
  O  O34  1  0.339211  0.078514  0.462888  1
  O  O35  1  0.217239  0.232988  0.841822  1
  O  O36  1  0.720250  0.764997  0.659204  1
  O  O37  1  0.279750  0.235003  0.340796  1
  O  O38  1  0.123158  0.119352  0.430756  1
  O  O39  1  0.245859  0.797981  0.901382  1
  O  O40  1  0.660789  0.921486  0.537112  1
  O  O41  1  0.750588  0.201111  0.599759  1
  O  O42  1  0.876842  0.880648  0.569244  1
  O  O43  1  0.782761  0.767012  0.158178  1
  F  F44  1  0.963172  0.856432  0.932638  1
  F  F45  1  0.441005  0.713167  0.557734  1
  F  F46  1  0.772005  0.664813  0.851388  1
  F  F47  1  0.131666  0.055534  0.257617  1
  F  F48  1  0.127121  0.519569  0.724155  1
  F  F49  1  0.137936  0.521191  0.239686  1
  F  F50  1  0.036828  0.143568  0.067362  1
  F  F51  1  0.368007  0.055124  0.758248  1
  F  F52  1  0.902140  0.257831  0.455864  1
  F  F53  1  0.943010  0.280584  0.943591  1
  F  F54  1  0.460236  0.148278  0.568212  1
  F  F55  1  0.868334  0.944466  0.742383  1
  F  F56  1  0.372709  0.519809  0.223631  1
  F  F57  1  0.361467  0.519453  0.740544  1
  F  F58  1  0.928576  0.827056  0.444050  1
  F  F59  1  0.869046  0.945556  0.262278  1
  F  F60  1  0.729598  0.665891  0.350530  1
  F  F61  1  0.097860  0.742169  0.544136  1
  F  F62  1  0.071424  0.172944  0.555950  1
  F  F63  1  0.404280  0.740385  0.045067  1
  F  F64  1  0.539764  0.851722  0.431788  1
  F  F65  1  0.558995  0.286833  0.442266  1
  F  F66  1  0.631993  0.944876  0.241752  1
  F  F67  1  0.270402  0.334109  0.649470  1
  F  F68  1  0.430321  0.171618  0.056600  1
  F  F69  1  0.862064  0.478809  0.760314  1
  F  F70  1  0.130954  0.054444  0.737722  1
  F  F71  1  0.056990  0.719416  0.056409  1
  F  F72  1  0.227995  0.335187  0.148612  1
  F  F73  1  0.872879  0.480431  0.275845  1
  F  F74  1  0.631267  0.944029  0.762648  1
  F  F75  1  0.638533  0.480547  0.259456  1
  F  F76  1  0.595720  0.259615  0.954933  1
  F  F77  1  0.368733  0.055971  0.237352  1
  F  F78  1  0.569679  0.828382  0.943400  1
  F  F79  1  0.627291  0.480191  0.776369  1
