# generated using pymatgen
data_Pr20Ir3Pt5Rh4
_symmetry_space_group_name_H-M   'P 1'
_cell_length_a   11.42883698
_cell_length_b   11.42883698
_cell_length_c   6.62067375
_cell_angle_alpha   90.05904207
_cell_angle_beta   90.05904207
_cell_angle_gamma   89.86905830
_symmetry_Int_Tables_number   1
_chemical_formula_structural   Pr20Ir3Pt5Rh4
_chemical_formula_sum   'Pr20 Ir3 Pt5 Rh4'
_cell_volume   864.77807295
_cell_formula_units_Z   1
loop_
 _symmetry_equiv_pos_site_id
 _symmetry_equiv_pos_as_xyz
  1  'x, y, z'
loop_
 _atom_site_type_symbol
 _atom_site_label
 _atom_site_symmetry_multiplicity
 _atom_site_fract_x
 _atom_site_fract_y
 _atom_site_fract_z
 _atom_site_occupancy
  Pr  Pr0  1  0.294237  0.093059  0.378968  1
  Pr  Pr1  1  0.295262  0.906543  0.878346  1
  Pr  Pr2  1  0.705034  0.088640  0.878004  1
  Pr  Pr3  1  0.705037  0.905854  0.378439  1
  Pr  Pr4  1  0.589003  0.789667  0.884677  1
  Pr  Pr5  1  0.587011  0.206595  0.379191  1
  Pr  Pr6  1  0.410933  0.791325  0.384363  1
  Pr  Pr7  1  0.407920  0.208108  0.885290  1
  Pr  Pr8  1  0.210333  0.410997  0.615323  1
  Pr  Pr9  1  0.208675  0.589067  0.115637  1
  Pr  Pr10  1  0.793405  0.412989  0.120809  1
  Pr  Pr11  1  0.791892  0.592080  0.614710  1
  Pr  Pr12  1  0.906941  0.705763  0.121032  1
  Pr  Pr13  1  0.911360  0.294966  0.621996  1
  Pr  Pr14  1  0.093457  0.704738  0.621654  1
  Pr  Pr15  1  0.094146  0.294963  0.121561  1
  Pr  Pr16  1  0.999609  0.999534  0.499158  1
  Pr  Pr17  1  0.000466  0.000391  0.000842  1
  Pr  Pr18  1  0.498156  0.501386  0.000026  1
  Pr  Pr19  1  0.498614  0.501844  0.499974  1
  Ir  Ir20  1  0.654604  0.653668  0.249963  1
  Ir  Ir21  1  0.346332  0.345396  0.250037  1
  Ir  Ir22  1  0.344471  0.655529  0.750000  1
  Pt  Pt23  1  0.844964  0.155036  0.250000  1
  Pt  Pt24  1  0.845790  0.846655  0.750298  1
  Pt  Pt25  1  0.153345  0.154210  0.749702  1
  Pt  Pt26  1  0.154566  0.845434  0.250000  1
  Pt  Pt27  1  0.655485  0.344515  0.750000  1
  Rh  Rh28  1  0.500615  0.000576  0.116577  1
  Rh  Rh29  1  0.500417  0.001503  0.617197  1
  Rh  Rh30  1  0.998497  0.499583  0.882803  1
  Rh  Rh31  1  0.999424  0.499385  0.383423  1
