# generated using pymatgen
data_Dy5Tm(Si3Os)8
_symmetry_space_group_name_H-M   'P 1'
_cell_length_a   10.12013629
_cell_length_b   10.12013542
_cell_length_c   8.17134829
_cell_angle_alpha   90.03351352
_cell_angle_beta   90.03351035
_cell_angle_gamma   132.39434589
_symmetry_Int_Tables_number   1
_chemical_formula_structural   Dy5Tm(Si3Os)8
_chemical_formula_sum   'Dy5 Tm1 Si24 Os8'
_cell_volume   618.05812116
_cell_formula_units_Z   1
loop_
 _symmetry_equiv_pos_site_id
 _symmetry_equiv_pos_as_xyz
  1  'x, y, z'
loop_
 _atom_site_type_symbol
 _atom_site_label
 _atom_site_symmetry_multiplicity
 _atom_site_fract_x
 _atom_site_fract_y
 _atom_site_fract_z
 _atom_site_occupancy
  Dy  Dy0  1  0.000000  0.000000  0.000000  1
  Dy  Dy1  1  0.501546  0.001319  0.749404  1
  Dy  Dy2  1  0.998681  0.498454  0.250596  1
  Dy  Dy3  1  0.498454  0.998681  0.250596  1
  Dy  Dy4  1  0.001319  0.501546  0.749404  1
  Tm  Tm5  1  0.500000  0.500000  0.500000  1
  Si  Si6  1  0.795113  0.204887  0.500000  1
  Si  Si7  1  0.295651  0.704349  0.000000  1
  Si  Si8  1  0.204887  0.795113  0.500000  1
  Si  Si9  1  0.704349  0.295651  0.000000  1
  Si  Si10  1  0.332111  0.332111  0.833231  1
  Si  Si11  1  0.667889  0.667889  0.166769  1
  Si  Si12  1  0.167345  0.167345  0.333156  1
  Si  Si13  1  0.832655  0.832655  0.666844  1
  Si  Si14  1  0.121046  0.886073  0.727757  1
  Si  Si15  1  0.113927  0.878954  0.272243  1
  Si  Si16  1  0.611740  0.377481  0.228627  1
  Si  Si17  1  0.622519  0.388260  0.771373  1
  Si  Si18  1  0.878954  0.113927  0.272243  1
  Si  Si19  1  0.886073  0.121046  0.727757  1
  Si  Si20  1  0.388260  0.622519  0.771373  1
  Si  Si21  1  0.377481  0.611740  0.228627  1
  Si  Si22  1  0.344866  0.111002  0.504172  1
  Si  Si23  1  0.888998  0.655134  0.495828  1
  Si  Si24  1  0.388283  0.154568  0.004752  1
  Si  Si25  1  0.845432  0.611717  0.995248  1
  Si  Si26  1  0.655134  0.888998  0.495828  1
  Si  Si27  1  0.111002  0.344866  0.504172  1
  Si  Si28  1  0.611717  0.845432  0.995248  1
  Si  Si29  1  0.154568  0.388283  0.004752  1
  Os  Os30  1  0.668437  0.331563  0.500000  1
  Os  Os31  1  0.169499  0.830501  0.000000  1
  Os  Os32  1  0.331563  0.668437  0.500000  1
  Os  Os33  1  0.830501  0.169499  0.000000  1
  Os  Os34  1  0.127214  0.127214  0.626630  1
  Os  Os35  1  0.872786  0.872786  0.373370  1
  Os  Os36  1  0.373793  0.373793  0.128908  1
  Os  Os37  1  0.626207  0.626207  0.871092  1
