# generated using pymatgen
data_Ho5TmAl24(Os3Ru)2
_symmetry_space_group_name_H-M   'P 1'
_cell_length_a   8.80467800
_cell_length_b   8.81381680
_cell_length_c   9.53845800
_cell_angle_alpha   90.00000000
_cell_angle_beta   90.00000000
_cell_angle_gamma   119.96571397
_symmetry_Int_Tables_number   1
_chemical_formula_structural   Ho5TmAl24(Os3Ru)2
_chemical_formula_sum   'Ho5 Tm1 Al24 Os6 Ru2'
_cell_volume   641.26308613
_cell_formula_units_Z   1
loop_
 _symmetry_equiv_pos_site_id
 _symmetry_equiv_pos_as_xyz
  1  'x, y, z'
loop_
 _atom_site_type_symbol
 _atom_site_label
 _atom_site_symmetry_multiplicity
 _atom_site_fract_x
 _atom_site_fract_y
 _atom_site_fract_z
 _atom_site_occupancy
  Ho  Ho0  1  0.806135  0.193563  0.750000  1
  Ho  Ho1  1  0.193530  0.806624  0.250000  1
  Ho  Ho2  1  0.387429  0.193563  0.750000  1
  Ho  Ho3  1  0.613094  0.806624  0.250000  1
  Ho  Ho4  1  0.805878  0.611756  0.750000  1
  Tm  Tm5  1  0.194804  0.389609  0.250000  1
  Al  Al6  1  0.666527  0.333053  0.984831  1
  Al  Al7  1  0.333386  0.666773  0.015658  1
  Al  Al8  1  0.333386  0.666773  0.484342  1
  Al  Al9  1  0.666527  0.333053  0.515169  1
  Al  Al10  1  0.838469  0.162044  0.422906  1
  Al  Al11  1  0.161895  0.837903  0.576737  1
  Al  Al12  1  0.323573  0.162044  0.422906  1
  Al  Al13  1  0.161895  0.837903  0.923263  1
  Al  Al14  1  0.676009  0.837903  0.576737  1
  Al  Al15  1  0.838469  0.162044  0.077094  1
  Al  Al16  1  0.838079  0.676159  0.422917  1
  Al  Al17  1  0.676009  0.837903  0.923263  1
  Al  Al18  1  0.161777  0.323553  0.576357  1
  Al  Al19  1  0.323573  0.162044  0.077094  1
  Al  Al20  1  0.161777  0.323553  0.923643  1
  Al  Al21  1  0.838079  0.676159  0.077083  1
  Al  Al22  1  0.439130  0.560259  0.750000  1
  Al  Al23  1  0.560069  0.439532  0.250000  1
  Al  Al24  1  0.121127  0.560259  0.750000  1
  Al  Al25  1  0.879465  0.439532  0.250000  1
  Al  Al26  1  0.439416  0.878833  0.750000  1
  Al  Al27  1  0.560558  0.121116  0.250000  1
  Al  Al28  1  0.999671  0.999343  0.750000  1
  Al  Al29  1  0.001095  0.002192  0.250000  1
  Os  Os30  1  0.499487  0.499768  0.000229  1
  Os  Os31  1  0.000282  0.499768  0.000229  1
  Os  Os32  1  0.499487  0.499768  0.499771  1
  Os  Os33  1  0.499971  0.999943  0.000082  1
  Os  Os34  1  0.000282  0.499768  0.499771  1
  Os  Os35  1  0.499971  0.999943  0.499918  1
  Ru  Ru36  1  0.999844  0.999687  0.999955  1
  Ru  Ru37  1  0.999844  0.999687  0.500045  1
