# generated using pymatgen
data_Sm2Dy5Ho(WO6)4
_symmetry_space_group_name_H-M   'P 1'
_cell_length_a   5.42984513
_cell_length_b   7.74729774
_cell_length_c   11.52922308
_cell_angle_alpha   75.52044007
_cell_angle_beta   89.99913356
_cell_angle_gamma   89.97593584
_symmetry_Int_Tables_number   1
_chemical_formula_structural   Sm2Dy5Ho(WO6)4
_chemical_formula_sum   'Sm2 Dy5 Ho1 W4 O24'
_cell_volume   469.59052117
_cell_formula_units_Z   1
loop_
 _symmetry_equiv_pos_site_id
 _symmetry_equiv_pos_as_xyz
  1  'x, y, z'
loop_
 _atom_site_type_symbol
 _atom_site_label
 _atom_site_symmetry_multiplicity
 _atom_site_fract_x
 _atom_site_fract_y
 _atom_site_fract_z
 _atom_site_occupancy
  Sm  Sm0  1  0.683831  0.500188  0.749687  1
  Sm  Sm1  1  0.315949  0.500109  0.250116  1
  Dy  Dy2  1  0.740055  0.999825  0.749593  1
  Dy  Dy3  1  0.259886  0.999909  0.250338  1
  Dy  Dy4  1  0.813762  0.796210  0.077161  1
  Dy  Dy5  1  0.186057  0.203848  0.922836  1
  Dy  Dy6  1  0.814301  0.203720  0.422909  1
  Ho  Ho7  1  0.185772  0.795742  0.577404  1
  W  W8  1  0.253772  0.725854  0.884566  1
  W  W9  1  0.745975  0.725767  0.385198  1
  W  W10  1  0.254081  0.274342  0.615136  1
  W  W11  1  0.746018  0.274293  0.115173  1
  O  O12  1  0.042036  0.940188  0.895557  1
  O  O13  1  0.531502  0.847368  0.930024  1
  O  O14  1  0.957886  0.939908  0.396094  1
  O  O15  1  0.455728  0.792377  0.726942  1
  O  O16  1  0.467761  0.846887  0.431286  1
  O  O17  1  0.983669  0.715059  0.770343  1
  O  O18  1  0.543383  0.792354  0.227934  1
  O  O19  1  0.852578  0.638717  0.546979  1
  O  O20  1  0.354328  0.492048  0.886714  1
  O  O21  1  0.016155  0.714890  0.270993  1
  O  O22  1  0.353352  0.508514  0.613126  1
  O  O23  1  0.851329  0.361704  0.953235  1
  O  O24  1  0.148553  0.638541  0.046578  1
  O  O25  1  0.645733  0.492067  0.387214  1
  O  O26  1  0.983236  0.284781  0.728865  1
  O  O27  1  0.645499  0.508109  0.113216  1
  O  O28  1  0.148669  0.361536  0.453225  1
  O  O29  1  0.456588  0.208015  0.772287  1
  O  O30  1  0.016492  0.285160  0.229109  1
  O  O31  1  0.532189  0.153061  0.569519  1
  O  O32  1  0.543511  0.207791  0.272449  1
  O  O33  1  0.043747  0.058988  0.604228  1
  O  O34  1  0.468739  0.152324  0.069583  1
  O  O35  1  0.957875  0.059803  0.104386  1
