# generated using pymatgen
data_U3Co3As4
_symmetry_space_group_name_H-M   'P 1'
_cell_length_a   7.66370266
_cell_length_b   7.66370357
_cell_length_c   7.66370600
_cell_angle_alpha   109.47122177
_cell_angle_beta   109.47122418
_cell_angle_gamma   109.47121467
_symmetry_Int_Tables_number   1
_chemical_formula_structural   U3Co3As4
_chemical_formula_sum   'U6 Co6 As8'
_cell_volume   346.49286521
_cell_formula_units_Z   2
loop_
 _symmetry_equiv_pos_site_id
 _symmetry_equiv_pos_as_xyz
  1  'x, y, z'
loop_
 _atom_site_type_symbol
 _atom_site_label
 _atom_site_symmetry_multiplicity
 _atom_site_fract_x
 _atom_site_fract_y
 _atom_site_fract_z
 _atom_site_occupancy
  U  U0  1  0.875000  0.250000  0.125000  1
  U  U1  1  0.625000  0.750000  0.375000  1
  U  U2  1  0.250000  0.125000  0.875000  1
  U  U3  1  0.750000  0.375000  0.625000  1
  U  U4  1  0.125000  0.875000  0.250000  1
  U  U5  1  0.375000  0.625000  0.750000  1
  Co  Co6  1  0.375000  0.250000  0.625000  1
  Co  Co7  1  0.125000  0.750000  0.875000  1
  Co  Co8  1  0.250000  0.625000  0.375000  1
  Co  Co9  1  0.750000  0.875000  0.125000  1
  Co  Co10  1  0.625000  0.375000  0.250000  1
  Co  Co11  1  0.875000  0.125000  0.750000  1
  As  As12  1  0.663850  0.500000  0.000000  1
  As  As13  1  0.500000  0.000000  0.663850  1
  As  As14  1  0.000000  0.663850  0.500000  1
  As  As15  1  0.836150  0.836150  0.836150  1
  As  As16  1  0.500000  0.000000  0.163850  1
  As  As17  1  0.163850  0.500000  0.000000  1
  As  As18  1  0.000000  0.163850  0.500000  1
  As  As19  1  0.336150  0.336150  0.336150  1
