# generated using pymatgen
data_Ho4CdPd3PtPb
_symmetry_space_group_name_H-M   'P 1'
_cell_length_a   7.83371683
_cell_length_b   7.84777178
_cell_length_c   3.62870200
_cell_angle_alpha   90.00000000
_cell_angle_beta   90.00000000
_cell_angle_gamma   90.12685757
_symmetry_Int_Tables_number   1
_chemical_formula_structural   Ho4CdPd3PtPb
_chemical_formula_sum   'Ho4 Cd1 Pd3 Pt1 Pb1'
_cell_volume   223.08197114
_cell_formula_units_Z   1
loop_
 _symmetry_equiv_pos_site_id
 _symmetry_equiv_pos_as_xyz
  1  'x, y, z'
loop_
 _atom_site_type_symbol
 _atom_site_label
 _atom_site_symmetry_multiplicity
 _atom_site_fract_x
 _atom_site_fract_y
 _atom_site_fract_z
 _atom_site_occupancy
  Ho  Ho0  1  0.661238  0.175229  0.500000  1
  Ho  Ho1  1  0.176968  0.329586  0.500000  1
  Ho  Ho2  1  0.827843  0.665193  0.500000  1
  Ho  Ho3  1  0.331576  0.830757  0.500000  1
  Cd  Cd4  1  0.997550  0.000367  0.000000  1
  Pd  Pd5  1  0.119496  0.634939  0.000000  1
  Pd  Pd6  1  0.638853  0.878536  0.000000  1
  Pd  Pd7  1  0.880134  0.365173  0.000000  1
  Pt  Pt8  1  0.365704  0.116318  0.000000  1
  Pb  Pb9  1  0.500639  0.503900  0.000000  1
