# generated using pymatgen
data_Ti2Fe4Co8P7
_symmetry_space_group_name_H-M   'P 1'
_cell_length_a   8.81713903
_cell_length_b   8.82988393
_cell_length_c   3.52185900
_cell_angle_alpha   90.00000000
_cell_angle_beta   90.00000000
_cell_angle_gamma   119.89847819
_symmetry_Int_Tables_number   1
_chemical_formula_structural   Ti2Fe4Co8P7
_chemical_formula_sum   'Ti2 Fe4 Co8 P7'
_cell_volume   237.69971193
_cell_formula_units_Z   1
loop_
 _symmetry_equiv_pos_site_id
 _symmetry_equiv_pos_as_xyz
  1  'x, y, z'
loop_
 _atom_site_type_symbol
 _atom_site_label
 _atom_site_symmetry_multiplicity
 _atom_site_fract_x
 _atom_site_fract_y
 _atom_site_fract_z
 _atom_site_occupancy
  Ti  Ti0  1  0.002844  0.000402  0.000000  1
  Ti  Ti1  1  0.333153  0.666432  0.500000  1
  Fe  Fe2  1  0.385969  0.169924  0.000000  1
  Fe  Fe3  1  0.887155  0.461556  0.500000  1
  Fe  Fe4  1  0.539192  0.427985  0.500000  1
  Fe  Fe5  1  0.573410  0.111691  0.500000  1
  Co  Co6  1  0.102790  0.705145  0.000000  1
  Co  Co7  1  0.294962  0.399314  0.000000  1
  Co  Co8  1  0.602799  0.896931  0.000000  1
  Co  Co9  1  0.828826  0.216288  0.000000  1
  Co  Co10  1  0.784080  0.613305  0.000000  1
  Co  Co11  1  0.054677  0.280410  0.500000  1
  Co  Co12  1  0.719322  0.774134  0.500000  1
  Co  Co13  1  0.225264  0.943713  0.500000  1
  P  P14  1  0.082943  0.454499  0.000000  1
  P  P15  1  0.545390  0.628867  0.000000  1
  P  P16  1  0.371263  0.916867  0.000000  1
  P  P17  1  0.789313  0.045361  0.500000  1
  P  P18  1  0.954498  0.743443  0.500000  1
  P  P19  1  0.257535  0.210877  0.500000  1
  P  P20  1  0.664617  0.332853  0.000000  1
