# generated using pymatgen
data_Tb3Pr16TmSn16
_symmetry_space_group_name_H-M   'P 1'
_cell_length_a   8.29269000
_cell_length_b   8.44765120
_cell_length_c   16.05011100
_cell_angle_alpha   90.00000000
_cell_angle_beta   90.00000000
_cell_angle_gamma   89.95099190
_symmetry_Int_Tables_number   1
_chemical_formula_structural   Tb3Pr16TmSn16
_chemical_formula_sum   'Tb3 Pr16 Tm1 Sn16'
_cell_volume   1124.37009415
_cell_formula_units_Z   1
loop_
 _symmetry_equiv_pos_site_id
 _symmetry_equiv_pos_as_xyz
  1  'x, y, z'
loop_
 _atom_site_type_symbol
 _atom_site_label
 _atom_site_symmetry_multiplicity
 _atom_site_fract_x
 _atom_site_fract_y
 _atom_site_fract_z
 _atom_site_occupancy
  Tb  Tb0  1  0.698568  0.998722  0.750000  1
  Tb  Tb1  1  0.801371  0.498301  0.250000  1
  Tb  Tb2  1  0.301412  0.001650  0.250000  1
  Pr  Pr3  1  0.366677  0.837270  0.878658  1
  Pr  Pr4  1  0.867479  0.662117  0.621019  1
  Pr  Pr5  1  0.632890  0.162599  0.378883  1
  Pr  Pr6  1  0.132859  0.337444  0.120481  1
  Pr  Pr7  1  0.632890  0.162599  0.121117  1
  Pr  Pr8  1  0.132859  0.337444  0.379519  1
  Pr  Pr9  1  0.366677  0.837270  0.621342  1
  Pr  Pr10  1  0.867479  0.662117  0.878981  1
  Pr  Pr11  1  0.518717  0.319632  0.901278  1
  Pr  Pr12  1  0.019168  0.181143  0.598701  1
  Pr  Pr13  1  0.481061  0.680696  0.401689  1
  Pr  Pr14  1  0.980931  0.819204  0.098609  1
  Pr  Pr15  1  0.481061  0.680696  0.098311  1
  Pr  Pr16  1  0.980931  0.819204  0.401391  1
  Pr  Pr17  1  0.518717  0.319632  0.598722  1
  Pr  Pr18  1  0.019168  0.181143  0.901299  1
  Tm  Tm19  1  0.199653  0.501897  0.750000  1
  Sn  Sn20  1  0.292811  0.034450  0.043610  1
  Sn  Sn21  1  0.792469  0.465004  0.456405  1
  Sn  Sn22  1  0.707246  0.965312  0.543893  1
  Sn  Sn23  1  0.207397  0.534397  0.955403  1
  Sn  Sn24  1  0.707246  0.965312  0.956107  1
  Sn  Sn25  1  0.207397  0.534397  0.544597  1
  Sn  Sn26  1  0.292811  0.034450  0.456390  1
  Sn  Sn27  1  0.792469  0.465004  0.043595  1
  Sn  Sn28  1  0.563513  0.615609  0.750000  1
  Sn  Sn29  1  0.064664  0.883702  0.750000  1
  Sn  Sn30  1  0.435365  0.384109  0.250000  1
  Sn  Sn31  1  0.935924  0.116260  0.250000  1
  Sn  Sn32  1  0.324966  0.148356  0.750000  1
  Sn  Sn33  1  0.825417  0.353813  0.750000  1
  Sn  Sn34  1  0.674589  0.852842  0.250000  1
  Sn  Sn35  1  0.175148  0.646205  0.250000  1
