# generated using pymatgen
data_Nd3CdPd3Au2
_symmetry_space_group_name_H-M   'P 1'
_cell_length_a   7.71531369
_cell_length_b   7.71531432
_cell_length_c   3.98421700
_cell_angle_alpha   90.00000000
_cell_angle_beta   90.00000000
_cell_angle_gamma   120.90139131
_symmetry_Int_Tables_number   1
_chemical_formula_structural   Nd3CdPd3Au2
_chemical_formula_sum   'Nd3 Cd1 Pd3 Au2'
_cell_volume   203.49981785
_cell_formula_units_Z   1
loop_
 _symmetry_equiv_pos_site_id
 _symmetry_equiv_pos_as_xyz
  1  'x, y, z'
loop_
 _atom_site_type_symbol
 _atom_site_label
 _atom_site_symmetry_multiplicity
 _atom_site_fract_x
 _atom_site_fract_y
 _atom_site_fract_z
 _atom_site_occupancy
  Nd  Nd0  1  0.603011  0.014058  0.000000  1
  Nd  Nd1  1  0.014058  0.603011  0.000000  1
  Nd  Nd2  1  0.374742  0.374742  0.000000  1
  Cd  Cd3  1  0.742136  0.742136  0.500000  1
  Pd  Pd4  1  0.344318  0.669441  0.500000  1
  Pd  Pd5  1  0.669441  0.344318  0.500000  1
  Pd  Pd6  1  0.992328  0.992328  0.000000  1
  Au  Au7  1  0.263143  0.996823  0.500000  1
  Au  Au8  1  0.996823  0.263143  0.500000  1
