# generated using pymatgen
data_Yb4PaPd15
_symmetry_space_group_name_H-M   'P 1'
_cell_length_a   4.10154900
_cell_length_b   4.10154900
_cell_length_c   20.44857300
_cell_angle_alpha   90.00000000
_cell_angle_beta   90.00000000
_cell_angle_gamma   90.00000000
_symmetry_Int_Tables_number   1
_chemical_formula_structural   Yb4PaPd15
_chemical_formula_sum   'Yb4 Pa1 Pd15'
_cell_volume   344.00029488
_cell_formula_units_Z   1
loop_
 _symmetry_equiv_pos_site_id
 _symmetry_equiv_pos_as_xyz
  1  'x, y, z'
loop_
 _atom_site_type_symbol
 _atom_site_label
 _atom_site_symmetry_multiplicity
 _atom_site_fract_x
 _atom_site_fract_y
 _atom_site_fract_z
 _atom_site_occupancy
  Yb  Yb0  1  0.000000  0.000000  0.202768  1
  Yb  Yb1  1  0.000000  0.000000  0.400016  1
  Yb  Yb2  1  0.000000  0.000000  0.599984  1
  Yb  Yb3  1  0.000000  0.000000  0.797232  1
  Pa  Pa4  1  0.000000  0.000000  0.000000  1
  Pd  Pd5  1  0.500000  0.500000  0.000000  1
  Pd  Pd6  1  0.500000  0.500000  0.200279  1
  Pd  Pd7  1  0.500000  0.500000  0.401745  1
  Pd  Pd8  1  0.500000  0.500000  0.598255  1
  Pd  Pd9  1  0.500000  0.500000  0.799721  1
  Pd  Pd10  1  0.500000  0.000000  0.097616  1
  Pd  Pd11  1  0.500000  0.000000  0.300934  1
  Pd  Pd12  1  0.500000  0.000000  0.500000  1
  Pd  Pd13  1  0.500000  0.000000  0.699066  1
  Pd  Pd14  1  0.500000  0.000000  0.902384  1
  Pd  Pd15  1  0.000000  0.500000  0.097616  1
  Pd  Pd16  1  0.000000  0.500000  0.300934  1
  Pd  Pd17  1  0.000000  0.500000  0.500000  1
  Pd  Pd18  1  0.000000  0.500000  0.699066  1
  Pd  Pd19  1  0.000000  0.500000  0.902384  1
