# generated using pymatgen
data_CaHo(Al5Fe)4
_symmetry_space_group_name_H-M   'P 1'
_cell_length_a   6.77235282
_cell_length_b   6.77235281
_cell_length_c   8.97441200
_cell_angle_alpha   90.00000000
_cell_angle_beta   90.00000000
_cell_angle_gamma   97.13313071
_symmetry_Int_Tables_number   1
_chemical_formula_structural   CaHo(Al5Fe)4
_chemical_formula_sum   'Ca1 Ho1 Al20 Fe4'
_cell_volume   408.42354446
_cell_formula_units_Z   1
loop_
 _symmetry_equiv_pos_site_id
 _symmetry_equiv_pos_as_xyz
  1  'x, y, z'
loop_
 _atom_site_type_symbol
 _atom_site_label
 _atom_site_symmetry_multiplicity
 _atom_site_fract_x
 _atom_site_fract_y
 _atom_site_fract_z
 _atom_site_occupancy
  Ca  Ca0  1  0.876397  0.123603  0.750000  1
  Ho  Ho1  1  0.124816  0.875184  0.250000  1
  Al  Al2  1  0.625562  0.374438  0.544736  1
  Al  Al3  1  0.374311  0.625689  0.449539  1
  Al  Al4  1  0.374311  0.625689  0.050461  1
  Al  Al5  1  0.625562  0.374438  0.955264  1
  Al  Al6  1  0.227302  0.228037  0.499296  1
  Al  Al7  1  0.771963  0.772698  0.499296  1
  Al  Al8  1  0.771963  0.772698  0.000704  1
  Al  Al9  1  0.227302  0.228037  0.000704  1
  Al  Al10  1  0.843454  0.156546  0.096908  1
  Al  Al11  1  0.159296  0.840704  0.903586  1
  Al  Al12  1  0.159296  0.840704  0.596414  1
  Al  Al13  1  0.843454  0.156546  0.403092  1
  Al  Al14  1  0.866600  0.586209  0.750000  1
  Al  Al15  1  0.134062  0.416695  0.250000  1
  Al  Al16  1  0.413791  0.133400  0.750000  1
  Al  Al17  1  0.583305  0.865938  0.250000  1
  Al  Al18  1  0.220093  0.476675  0.750000  1
  Al  Al19  1  0.779572  0.521803  0.250000  1
  Al  Al20  1  0.523325  0.779907  0.750000  1
  Al  Al21  1  0.478197  0.220428  0.250000  1
  Fe  Fe22  1  0.999885  0.501853  0.499483  1
  Fe  Fe23  1  0.999885  0.501853  0.000517  1
  Fe  Fe24  1  0.498147  0.000115  0.000517  1
  Fe  Fe25  1  0.498147  0.000115  0.499483  1
