# generated using pymatgen
data_Ho3Hg(Ir2O7)2
_symmetry_space_group_name_H-M   'P 1'
_cell_length_a   7.19080343
_cell_length_b   7.32018198
_cell_length_c   7.32018300
_cell_angle_alpha   59.99999087
_cell_angle_beta   59.40300624
_cell_angle_gamma   59.40300249
_symmetry_Int_Tables_number   1
_chemical_formula_structural   Ho3Hg(Ir2O7)2
_chemical_formula_sum   'Ho3 Hg1 Ir4 O14'
_cell_volume   269.97764099
_cell_formula_units_Z   1
loop_
 _symmetry_equiv_pos_site_id
 _symmetry_equiv_pos_as_xyz
  1  'x, y, z'
loop_
 _atom_site_type_symbol
 _atom_site_label
 _atom_site_symmetry_multiplicity
 _atom_site_fract_x
 _atom_site_fract_y
 _atom_site_fract_z
 _atom_site_occupancy
  Ho  Ho0  1  0.125000  0.125000  0.625000  1
  Ho  Ho1  1  0.125000  0.125000  0.125000  1
  Ho  Ho2  1  0.125000  0.625000  0.125000  1
  Hg  Hg3  1  0.625000  0.125000  0.125000  1
  Ir  Ir4  1  0.625000  0.625000  0.625000  1
  Ir  Ir5  1  0.125000  0.625000  0.625000  1
  Ir  Ir6  1  0.625000  0.125000  0.625000  1
  Ir  Ir7  1  0.625000  0.625000  0.125000  1
  O  O8  1  0.964986  0.537556  0.537556  1
  O  O9  1  0.285014  0.290096  0.712444  1
  O  O10  1  0.964986  0.537556  0.959904  1
  O  O11  1  0.715726  0.296293  0.296293  1
  O  O12  1  0.534274  0.558312  0.953707  1
  O  O13  1  0.534274  0.953707  0.558312  1
  O  O14  1  0.534274  0.953707  0.953707  1
  O  O15  1  0.241567  0.252811  0.252811  1
  O  O16  1  0.285014  0.712444  0.712444  1
  O  O17  1  0.715726  0.296293  0.691688  1
  O  O18  1  0.008433  0.997189  0.997189  1
  O  O19  1  0.964986  0.959904  0.537556  1
  O  O20  1  0.285014  0.712444  0.290096  1
  O  O21  1  0.715726  0.691688  0.296293  1
