# generated using pymatgen
data_U8Nb11Si16Tc
_symmetry_space_group_name_H-M   'P 1'
_cell_length_a   7.01778017
_cell_length_b   7.02375483
_cell_length_c   12.96099899
_cell_angle_alpha   90.02785990
_cell_angle_beta   90.00599073
_cell_angle_gamma   89.99003500
_symmetry_Int_Tables_number   1
_chemical_formula_structural   U8Nb11Si16Tc
_chemical_formula_sum   'U8 Nb11 Si16 Tc1'
_cell_volume   638.86268113
_cell_formula_units_Z   1
loop_
 _symmetry_equiv_pos_site_id
 _symmetry_equiv_pos_as_xyz
  1  'x, y, z'
loop_
 _atom_site_type_symbol
 _atom_site_label
 _atom_site_symmetry_multiplicity
 _atom_site_fract_x
 _atom_site_fract_y
 _atom_site_fract_z
 _atom_site_occupancy
  U  U0  1  0.995734  0.331440  0.221429  1
  U  U1  1  0.009017  0.672986  0.717210  1
  U  U2  1  0.167049  0.498645  0.469225  1
  U  U3  1  0.504975  0.829297  0.033073  1
  U  U4  1  0.828413  0.506724  0.969592  1
  U  U5  1  0.495812  0.166447  0.528781  1
  U  U6  1  0.327913  0.992961  0.779881  1
  U  U7  1  0.669843  0.005407  0.280173  1
  Nb  Nb8  1  0.167873  0.166480  0.000903  1
  Nb  Nb9  1  0.831688  0.833625  0.499343  1
  Nb  Nb10  1  0.329516  0.666426  0.250212  1
  Nb  Nb11  1  0.668252  0.331549  0.749618  1
  Nb  Nb12  1  0.843758  0.000812  0.874073  1
  Nb  Nb13  1  0.496008  0.658785  0.623475  1
  Nb  Nb14  1  0.344475  0.499170  0.875892  1
  Nb  Nb15  1  0.496791  0.339093  0.125381  1
  Nb  Nb16  1  0.658727  0.498018  0.375681  1
  Nb  Nb17  1  0.999523  0.158013  0.626589  1
  Nb  Nb18  1  0.997520  0.841675  0.124166  1
  Si  Si19  1  0.293576  0.035998  0.188074  1
  Si  Si20  1  0.702235  0.960461  0.684054  1
  Si  Si21  1  0.459052  0.796778  0.432615  1
  Si  Si22  1  0.202066  0.537803  0.065345  1
  Si  Si23  1  0.538865  0.200638  0.934729  1
  Si  Si24  1  0.795017  0.461266  0.565461  1
  Si  Si25  1  0.039911  0.299355  0.815899  1
  Si  Si26  1  0.964105  0.713233  0.315950  1
  Si  Si27  1  0.370404  0.289977  0.317365  1
  Si  Si28  1  0.629440  0.707306  0.815039  1
  Si  Si29  1  0.205012  0.874579  0.561569  1
  Si  Si30  1  0.128927  0.792121  0.934462  1
  Si  Si31  1  0.793098  0.129815  0.066272  1
  Si  Si32  1  0.879281  0.202069  0.433990  1
  Si  Si33  1  0.294166  0.369967  0.683483  1
  Si  Si34  1  0.706058  0.625554  0.185310  1
  Tc  Tc35  1  0.165898  0.005529  0.375685  1
