# generated using pymatgen
data_Ca12Al3Si5Pd8
_symmetry_space_group_name_H-M   'P 1'
_cell_length_a   5.76109400
_cell_length_b   8.03979362
_cell_length_c   13.55820525
_cell_angle_alpha   90.15591081
_cell_angle_beta   90.00000000
_cell_angle_gamma   90.00000000
_symmetry_Int_Tables_number   1
_chemical_formula_structural   Ca12Al3Si5Pd8
_chemical_formula_sum   'Ca12 Al3 Si5 Pd8'
_cell_volume   627.98671783
_cell_formula_units_Z   1
loop_
 _symmetry_equiv_pos_site_id
 _symmetry_equiv_pos_as_xyz
  1  'x, y, z'
loop_
 _atom_site_type_symbol
 _atom_site_label
 _atom_site_symmetry_multiplicity
 _atom_site_fract_x
 _atom_site_fract_y
 _atom_site_fract_z
 _atom_site_occupancy
  Ca  Ca0  1  0.134727  0.610241  0.106384  1
  Ca  Ca1  1  0.134727  0.889759  0.893616  1
  Ca  Ca2  1  0.869472  0.113821  0.394728  1
  Ca  Ca3  1  0.869472  0.386179  0.605272  1
  Ca  Ca4  1  0.865700  0.390106  0.893310  1
  Ca  Ca5  1  0.865700  0.109894  0.106690  1
  Ca  Ca6  1  0.134303  0.890241  0.606043  1
  Ca  Ca7  1  0.134303  0.609759  0.393957  1
  Ca  Ca8  1  0.351964  0.256711  0.251512  1
  Ca  Ca9  1  0.351964  0.243289  0.748488  1
  Ca  Ca10  1  0.648843  0.756930  0.250588  1
  Ca  Ca11  1  0.648843  0.743070  0.749412  1
  Al  Al12  1  0.379255  0.250000  0.000000  1
  Al  Al13  1  0.616250  0.750000  0.500000  1
  Al  Al14  1  0.621676  0.750000  0.000000  1
  Si  Si15  1  0.380430  0.250000  0.500000  1
  Si  Si16  1  0.835892  0.405690  0.250755  1
  Si  Si17  1  0.835892  0.094310  0.749245  1
  Si  Si18  1  0.165176  0.903519  0.251755  1
  Si  Si19  1  0.165176  0.596481  0.748245  1
  Pd  Pd20  1  0.626372  0.469550  0.091693  1
  Pd  Pd21  1  0.626372  0.030450  0.908307  1
  Pd  Pd22  1  0.373447  0.975635  0.410213  1
  Pd  Pd23  1  0.373447  0.524365  0.589787  1
  Pd  Pd24  1  0.372395  0.529944  0.908000  1
  Pd  Pd25  1  0.372395  0.970056  0.092000  1
  Pd  Pd26  1  0.622903  0.036401  0.590008  1
  Pd  Pd27  1  0.622903  0.463599  0.409992  1
