# generated using pymatgen
data_DyY2Ga2Co9B4
_symmetry_space_group_name_H-M   'P 1'
_cell_length_a   5.13536400
_cell_length_b   5.13536478
_cell_length_c   9.58375000
_cell_angle_alpha   90.00000000
_cell_angle_beta   90.00000000
_cell_angle_gamma   120.00000789
_symmetry_Int_Tables_number   1
_chemical_formula_structural   DyY2Ga2Co9B4
_chemical_formula_sum   'Dy1 Y2 Ga2 Co9 B4'
_cell_volume   218.88127185
_cell_formula_units_Z   1
loop_
 _symmetry_equiv_pos_site_id
 _symmetry_equiv_pos_as_xyz
  1  'x, y, z'
loop_
 _atom_site_type_symbol
 _atom_site_label
 _atom_site_symmetry_multiplicity
 _atom_site_fract_x
 _atom_site_fract_y
 _atom_site_fract_z
 _atom_site_occupancy
  Dy  Dy0  1  0.000000  0.000000  0.340266  1
  Y  Y1  1  0.000000  0.000000  0.659274  1
  Y  Y2  1  0.000000  0.000000  0.000138  1
  Ga  Ga3  1  0.333333  0.666667  0.000048  1
  Ga  Ga4  1  0.666667  0.333333  0.000048  1
  Co  Co5  1  0.500000  0.500000  0.499907  1
  Co  Co6  1  0.000000  0.500000  0.499907  1
  Co  Co7  1  0.500000  0.000000  0.207584  1
  Co  Co8  1  0.500000  0.500000  0.207584  1
  Co  Co9  1  0.000000  0.500000  0.207584  1
  Co  Co10  1  0.500000  0.000000  0.792568  1
  Co  Co11  1  0.500000  0.500000  0.792568  1
  Co  Co12  1  0.000000  0.500000  0.792568  1
  Co  Co13  1  0.500000  0.000000  0.499907  1
  B  B14  1  0.333333  0.666667  0.650552  1
  B  B15  1  0.666667  0.333333  0.650552  1
  B  B16  1  0.666667  0.333333  0.349472  1
  B  B17  1  0.333333  0.666667  0.349472  1
