# generated using pymatgen
data_TiPd7Pt
_symmetry_space_group_name_H-M   'P 1'
_cell_length_a   6.23784524
_cell_length_b   6.23784466
_cell_length_c   6.24293690
_cell_angle_alpha   95.69620448
_cell_angle_beta   95.69619927
_cell_angle_gamma   143.25733043
_symmetry_Int_Tables_number   1
_chemical_formula_structural   TiPd7Pt
_chemical_formula_sum   'Ti1 Pd7 Pt1'
_cell_volume   137.92445569
_cell_formula_units_Z   1
loop_
 _symmetry_equiv_pos_site_id
 _symmetry_equiv_pos_as_xyz
  1  'x, y, z'
loop_
 _atom_site_type_symbol
 _atom_site_label
 _atom_site_symmetry_multiplicity
 _atom_site_fract_x
 _atom_site_fract_y
 _atom_site_fract_z
 _atom_site_occupancy
  Ti  Ti0  1  0.002910  0.002910  0.005821  1
  Pd  Pd1  1  0.335733  0.663138  0.998871  1
  Pd  Pd2  1  0.663138  0.335733  0.998871  1
  Pd  Pd3  1  0.337042  0.337042  0.674084  1
  Pd  Pd4  1  0.671593  0.999236  0.670829  1
  Pd  Pd5  1  0.999236  0.671593  0.670829  1
  Pd  Pd6  1  0.000208  0.328793  0.329002  1
  Pd  Pd7  1  0.328793  0.000208  0.329002  1
  Pt  Pt8  1  0.661346  0.661346  0.322692  1
