# generated using pymatgen
data_Cs3Na2ZrBi3
_symmetry_space_group_name_H-M   'P 1'
_cell_length_a   12.06012351
_cell_length_b   12.06012405
_cell_length_c   17.97099000
_cell_angle_alpha   90.00000000
_cell_angle_beta   90.00000000
_cell_angle_gamma   142.97545593
_symmetry_Int_Tables_number   1
_chemical_formula_structural   Cs3Na2ZrBi3
_chemical_formula_sum   'Cs12 Na8 Zr4 Bi12'
_cell_volume   1573.92970600
_cell_formula_units_Z   4
loop_
 _symmetry_equiv_pos_site_id
 _symmetry_equiv_pos_as_xyz
  1  'x, y, z'
loop_
 _atom_site_type_symbol
 _atom_site_label
 _atom_site_symmetry_multiplicity
 _atom_site_fract_x
 _atom_site_fract_y
 _atom_site_fract_z
 _atom_site_occupancy
  Cs  Cs0  1  0.605299  0.943956  0.825919  1
  Cs  Cs1  1  0.277977  0.277977  0.318539  1
  Cs  Cs2  1  0.222023  0.222023  0.818539  1
  Cs  Cs3  1  0.722023  0.722023  0.681461  1
  Cs  Cs4  1  0.443956  0.105299  0.674081  1
  Cs  Cs5  1  0.894701  0.556044  0.325919  1
  Cs  Cs6  1  0.056044  0.394701  0.174081  1
  Cs  Cs7  1  0.394701  0.056044  0.174081  1
  Cs  Cs8  1  0.556044  0.894701  0.325919  1
  Cs  Cs9  1  0.105299  0.443956  0.674081  1
  Cs  Cs10  1  0.943956  0.605299  0.825919  1
  Cs  Cs11  1  0.777977  0.777977  0.181461  1
  Na  Na12  1  0.081075  0.918925  0.000000  1
  Na  Na13  1  0.581075  0.418925  0.500000  1
  Na  Na14  1  0.918925  0.081075  0.000000  1
  Na  Na15  1  0.753747  0.246253  0.000000  1
  Na  Na16  1  0.746253  0.253747  0.500000  1
  Na  Na17  1  0.246253  0.753747  0.000000  1
  Na  Na18  1  0.253747  0.746253  0.500000  1
  Na  Na19  1  0.418925  0.581075  0.500000  1
  Zr  Zr20  1  0.085964  0.914036  0.500000  1
  Zr  Zr21  1  0.414036  0.585964  0.000000  1
  Zr  Zr22  1  0.914036  0.085964  0.500000  1
  Zr  Zr23  1  0.585964  0.414036  0.000000  1
  Bi  Bi24  1  0.061657  0.377332  0.404193  1
  Bi  Bi25  1  0.877332  0.561657  0.095807  1
  Bi  Bi26  1  0.438343  0.122668  0.904193  1
  Bi  Bi27  1  0.622668  0.938343  0.595807  1
  Bi  Bi28  1  0.938343  0.622668  0.595807  1
  Bi  Bi29  1  0.122668  0.438343  0.904193  1
  Bi  Bi30  1  0.561657  0.877332  0.095807  1
  Bi  Bi31  1  0.377332  0.061657  0.404193  1
  Bi  Bi32  1  0.205419  0.205419  0.588893  1
  Bi  Bi33  1  0.705419  0.705419  0.911107  1
  Bi  Bi34  1  0.294581  0.294581  0.088893  1
  Bi  Bi35  1  0.794581  0.794581  0.411107  1
