# generated using pymatgen
data_Ca(Sb3Ru)4
_symmetry_space_group_name_H-M   'P 1'
_cell_length_a   8.14395217
_cell_length_b   8.14395191
_cell_length_c   8.14395200
_cell_angle_alpha   109.47121589
_cell_angle_beta   109.47121523
_cell_angle_gamma   109.47122671
_symmetry_Int_Tables_number   1
_chemical_formula_structural   Ca(Sb3Ru)4
_chemical_formula_sum   'Ca1 Sb12 Ru4'
_cell_volume   415.79929754
_cell_formula_units_Z   1
loop_
 _symmetry_equiv_pos_site_id
 _symmetry_equiv_pos_as_xyz
  1  'x, y, z'
loop_
 _atom_site_type_symbol
 _atom_site_label
 _atom_site_symmetry_multiplicity
 _atom_site_fract_x
 _atom_site_fract_y
 _atom_site_fract_z
 _atom_site_occupancy
  Ca  Ca0  1  0.000000  0.000000  0.000000  1
  Sb  Sb1  1  0.339775  0.181967  0.842192  1
  Sb  Sb2  1  0.157808  0.339775  0.497584  1
  Sb  Sb3  1  0.660225  0.818033  0.157808  1
  Sb  Sb4  1  0.339775  0.497584  0.157808  1
  Sb  Sb5  1  0.660225  0.502416  0.842192  1
  Sb  Sb6  1  0.502416  0.842192  0.660225  1
  Sb  Sb7  1  0.842192  0.660225  0.502416  1
  Sb  Sb8  1  0.842192  0.339775  0.181967  1
  Sb  Sb9  1  0.181967  0.842192  0.339775  1
  Sb  Sb10  1  0.497584  0.157808  0.339775  1
  Sb  Sb11  1  0.818033  0.157808  0.660225  1
  Sb  Sb12  1  0.157808  0.660225  0.818033  1
  Ru  Ru13  1  0.000000  0.000000  0.500000  1
  Ru  Ru14  1  0.500000  0.500000  0.500000  1
  Ru  Ru15  1  0.000000  0.500000  0.000000  1
  Ru  Ru16  1  0.500000  0.000000  0.000000  1
