# generated using pymatgen
data_YbNp(B4Os)2
_symmetry_space_group_name_H-M   'P 1'
_cell_length_a   3.54405200
_cell_length_b   5.97937012
_cell_length_c   11.53436517
_cell_angle_alpha   90.07025368
_cell_angle_beta   90.00000000
_cell_angle_gamma   90.00000000
_symmetry_Int_Tables_number   1
_chemical_formula_structural   YbNp(B4Os)2
_chemical_formula_sum   'Yb2 Np2 B16 Os4'
_cell_volume   244.42683978
_cell_formula_units_Z   2
loop_
 _symmetry_equiv_pos_site_id
 _symmetry_equiv_pos_as_xyz
  1  'x, y, z'
loop_
 _atom_site_type_symbol
 _atom_site_label
 _atom_site_symmetry_multiplicity
 _atom_site_fract_x
 _atom_site_fract_y
 _atom_site_fract_z
 _atom_site_occupancy
  Yb  Yb0  1  0.000000  0.627422  0.851963  1
  Yb  Yb1  1  0.000000  0.372578  0.148037  1
  Np  Np2  1  0.000000  0.127432  0.652243  1
  Np  Np3  1  0.000000  0.872568  0.347757  1
  B  B4  1  0.500000  0.472928  0.692181  1
  B  B5  1  0.500000  0.527072  0.307819  1
  B  B6  1  0.500000  0.974837  0.808602  1
  B  B7  1  0.500000  0.025163  0.191398  1
  B  B8  1  0.500000  0.288303  0.814433  1
  B  B9  1  0.500000  0.711697  0.185567  1
  B  B10  1  0.500000  0.787901  0.686945  1
  B  B11  1  0.500000  0.212099  0.313055  1
  B  B12  1  0.500000  0.363083  0.969625  1
  B  B13  1  0.500000  0.636917  0.030375  1
  B  B14  1  0.500000  0.865904  0.531123  1
  B  B15  1  0.500000  0.134096  0.468877  1
  B  B16  1  0.500000  0.387059  0.547573  1
  B  B17  1  0.500000  0.612941  0.452427  1
  B  B18  1  0.500000  0.885843  0.953976  1
  B  B19  1  0.500000  0.114157  0.046024  1
  Os  Os20  1  0.000000  0.137179  0.906675  1
  Os  Os21  1  0.000000  0.862821  0.093325  1
  Os  Os22  1  0.000000  0.641500  0.592299  1
  Os  Os23  1  0.000000  0.358500  0.407701  1
