# generated using pymatgen
data_Er16ZnIn6Au
_symmetry_space_group_name_H-M   'P 1'
_cell_length_a   10.55990500
_cell_length_b   10.55990439
_cell_length_c   6.77113900
_cell_angle_alpha   90.00000000
_cell_angle_beta   90.00000000
_cell_angle_gamma   120.00000504
_symmetry_Int_Tables_number   1
_chemical_formula_structural   Er16ZnIn6Au
_chemical_formula_sum   'Er16 Zn1 In6 Au1'
_cell_volume   653.90150388
_cell_formula_units_Z   1
loop_
 _symmetry_equiv_pos_site_id
 _symmetry_equiv_pos_as_xyz
  1  'x, y, z'
loop_
 _atom_site_type_symbol
 _atom_site_label
 _atom_site_symmetry_multiplicity
 _atom_site_fract_x
 _atom_site_fract_y
 _atom_site_fract_z
 _atom_site_occupancy
  Er  Er0  1  0.521917  0.043833  0.518475  1
  Er  Er1  1  0.956167  0.478083  0.518475  1
  Er  Er2  1  0.521917  0.478083  0.518475  1
  Er  Er3  1  0.477942  0.955886  0.017973  1
  Er  Er4  1  0.044114  0.522058  0.017973  1
  Er  Er5  1  0.477942  0.522058  0.017973  1
  Er  Er6  1  0.172710  0.345421  0.732695  1
  Er  Er7  1  0.654579  0.827290  0.732695  1
  Er  Er8  1  0.172710  0.827290  0.732695  1
  Er  Er9  1  0.826705  0.653409  0.232642  1
  Er  Er10  1  0.346591  0.173295  0.232642  1
  Er  Er11  1  0.826705  0.173295  0.232642  1
  Er  Er12  1  0.666667  0.333333  0.874341  1
  Er  Er13  1  0.333333  0.666667  0.371067  1
  Er  Er14  1  0.000000  0.000000  0.499032  1
  Er  Er15  1  0.000000  0.000000  0.997657  1
  Zn  Zn16  1  0.333333  0.666667  0.801799  1
  In  In17  1  0.835876  0.671752  0.750688  1
  In  In18  1  0.328248  0.164124  0.750688  1
  In  In19  1  0.835876  0.164124  0.750688  1
  In  In20  1  0.164483  0.328964  0.250297  1
  In  In21  1  0.671036  0.835517  0.250297  1
  In  In22  1  0.164483  0.835517  0.250297  1
  Au  Au23  1  0.666667  0.333333  0.291995  1
