# generated using pymatgen
data_As2Pt5
_symmetry_space_group_name_H-M   'P 1'
_cell_length_a   5.58872300
_cell_length_b   6.26385157
_cell_length_c   7.71510700
_cell_angle_alpha   98.43761177
_cell_angle_beta   90.00000000
_cell_angle_gamma   116.49432883
_symmetry_Int_Tables_number   1
_chemical_formula_structural   As2Pt5
_chemical_formula_sum   'As4 Pt10'
_cell_volume   238.44698877
_cell_formula_units_Z   2
loop_
 _symmetry_equiv_pos_site_id
 _symmetry_equiv_pos_as_xyz
  1  'x, y, z'
loop_
 _atom_site_type_symbol
 _atom_site_label
 _atom_site_symmetry_multiplicity
 _atom_site_fract_x
 _atom_site_fract_y
 _atom_site_fract_z
 _atom_site_occupancy
  As  As0  1  0.245325  0.678915  0.224103  1
  As  As1  1  0.566408  0.321084  0.275898  1
  As  As2  1  0.433591  0.678915  0.724103  1
  As  As3  1  0.754676  0.321084  0.775897  1
  Pt  Pt4  1  0.621773  0.763246  0.033525  1
  Pt  Pt5  1  0.912637  0.273233  0.085878  1
  Pt  Pt6  1  0.096176  0.000000  0.250000  1
  Pt  Pt7  1  0.639403  0.726767  0.414122  1
  Pt  Pt8  1  0.858526  0.236755  0.466475  1
  Pt  Pt9  1  0.141473  0.763245  0.533526  1
  Pt  Pt10  1  0.360596  0.273234  0.585878  1
  Pt  Pt11  1  0.903824  0.000001  0.750000  1
  Pt  Pt12  1  0.087364  0.726768  0.914122  1
  Pt  Pt13  1  0.378229  0.236755  0.966474  1
