# generated using pymatgen
data_TcSn16Pd7
_symmetry_space_group_name_H-M   'P 1'
_cell_length_a   6.52498126
_cell_length_b   6.51928201
_cell_length_c   13.39135133
_cell_angle_alpha   104.14801667
_cell_angle_beta   104.16053702
_cell_angle_gamma   89.76157838
_symmetry_Int_Tables_number   1
_chemical_formula_structural   TcSn16Pd7
_chemical_formula_sum   'Tc1 Sn16 Pd7'
_cell_volume   534.64254214
_cell_formula_units_Z   1
loop_
 _symmetry_equiv_pos_site_id
 _symmetry_equiv_pos_as_xyz
  1  'x, y, z'
loop_
 _atom_site_type_symbol
 _atom_site_label
 _atom_site_symmetry_multiplicity
 _atom_site_fract_x
 _atom_site_fract_y
 _atom_site_fract_z
 _atom_site_occupancy
  Tc  Tc0  1  0.056315  0.056315  0.112631  1
  Sn  Sn1  1  0.336512  0.153781  0.002519  1
  Sn  Sn2  1  0.850054  0.336312  0.002705  1
  Sn  Sn3  1  0.152652  0.666393  0.002705  1
  Sn  Sn4  1  0.666007  0.848738  0.002519  1
  Sn  Sn5  1  0.873905  0.366523  0.248653  1
  Sn  Sn6  1  0.366908  0.376224  0.247097  1
  Sn  Sn7  1  0.880190  0.870874  0.247097  1
  Sn  Sn8  1  0.374749  0.882130  0.248653  1
  Sn  Sn9  1  0.090656  0.089429  0.499653  1
  Sn  Sn10  1  0.408998  0.410225  0.499653  1
  Sn  Sn11  1  0.909190  0.587797  0.497664  1
  Sn  Sn12  1  0.588475  0.909868  0.497664  1
  Sn  Sn13  1  0.125257  0.126731  0.751114  1
  Sn  Sn14  1  0.621283  0.128620  0.750254  1
  Sn  Sn15  1  0.128971  0.621634  0.750254  1
  Sn  Sn16  1  0.625857  0.624383  0.751114  1
  Pd  Pd17  1  0.559530  0.559530  0.119062  1
  Pd  Pd18  1  0.691591  0.191592  0.383183  1
  Pd  Pd19  1  0.191932  0.691931  0.383863  1
  Pd  Pd20  1  0.809099  0.309100  0.618201  1
  Pd  Pd21  1  0.309562  0.809561  0.619125  1
  Pd  Pd22  1  0.444216  0.444216  0.888432  1
  Pd  Pd23  1  0.938092  0.938092  0.876186  1
