# generated using pymatgen
data_CaDy2CdSn2(SbO7)2
_symmetry_space_group_name_H-M   'P 1'
_cell_length_a   7.42252300
_cell_length_b   7.42252300
_cell_length_c   10.45478900
_cell_angle_alpha   90.00000000
_cell_angle_beta   90.00000000
_cell_angle_gamma   90.00000000
_symmetry_Int_Tables_number   1
_chemical_formula_structural   CaDy2CdSn2(SbO7)2
_chemical_formula_sum   'Ca2 Dy4 Cd2 Sn4 Sb4 O28'
_cell_volume   575.99455275
_cell_formula_units_Z   2
loop_
 _symmetry_equiv_pos_site_id
 _symmetry_equiv_pos_as_xyz
  1  'x, y, z'
loop_
 _atom_site_type_symbol
 _atom_site_label
 _atom_site_symmetry_multiplicity
 _atom_site_fract_x
 _atom_site_fract_y
 _atom_site_fract_z
 _atom_site_occupancy
  Ca  Ca0  1  0.499478  0.744122  0.998886  1
  Ca  Ca1  1  0.255875  0.500525  0.251109  1
  Dy  Dy2  1  0.001362  0.745788  0.999827  1
  Dy  Dy3  1  0.001126  0.254744  0.500378  1
  Dy  Dy4  1  0.254211  0.998639  0.250174  1
  Dy  Dy5  1  0.745260  0.998876  0.749621  1
  Cd  Cd6  1  0.499189  0.256828  0.501065  1
  Cd  Cd7  1  0.743184  0.500811  0.748935  1
  Sn  Sn8  1  0.756364  0.999810  0.249785  1
  Sn  Sn9  1  0.000275  0.756905  0.499729  1
  Sn  Sn10  1  0.243103  0.999726  0.750270  1
  Sn  Sn11  1  0.000193  0.243623  0.000210  1
  Sb  Sb12  1  0.244646  0.500036  0.750454  1
  Sb  Sb13  1  0.499963  0.755351  0.499549  1
  Sb  Sb14  1  0.499766  0.243879  0.000456  1
  Sb  Sb15  1  0.756120  0.500234  0.249544  1
  O  O16  1  0.244929  0.755070  0.124992  1
  O  O17  1  0.542865  0.949821  0.371025  1
  O  O18  1  0.759381  0.742897  0.167527  1
  O  O19  1  0.746643  0.253360  0.625000  1
  O  O20  1  0.968763  0.968600  0.374681  1
  O  O21  1  0.031387  0.031236  0.875312  1
  O  O22  1  0.050176  0.457128  0.878977  1
  O  O23  1  0.030351  0.969648  0.625002  1
  O  O24  1  0.257101  0.240606  0.082460  1
  O  O25  1  0.235877  0.256576  0.672636  1
  O  O26  1  0.256899  0.758894  0.418816  1
  O  O27  1  0.456409  0.949518  0.628579  1
  O  O28  1  0.456490  0.045833  0.873860  1
  O  O29  1  0.443537  0.446223  0.877422  1
  O  O30  1  0.553769  0.556461  0.372576  1
  O  O31  1  0.542862  0.045807  0.126601  1
  O  O32  1  0.553945  0.446050  0.125003  1
  O  O33  1  0.743423  0.764130  0.577354  1
  O  O34  1  0.763993  0.257026  0.328703  1
  O  O35  1  0.754488  0.748880  0.869671  1
  O  O36  1  0.742973  0.235999  0.921307  1
  O  O37  1  0.954172  0.543517  0.376136  1
  O  O38  1  0.967753  0.032257  0.125007  1
  O  O39  1  0.954206  0.457130  0.123409  1
  O  O40  1  0.050490  0.543597  0.621420  1
  O  O41  1  0.241120  0.743097  0.831198  1
  O  O42  1  0.251115  0.245515  0.380333  1
  O  O43  1  0.444766  0.555229  0.625000  1
