# generated using pymatgen
data_TaS27
_symmetry_space_group_name_H-M   'P 1'
_cell_length_a   15.64657673
_cell_length_b   15.85764781
_cell_length_c   15.80098427
_cell_angle_alpha   119.13218574
_cell_angle_beta   119.18719205
_cell_angle_gamma   119.24240553
_symmetry_Int_Tables_number   1
_chemical_formula_structural   TaS27
_chemical_formula_sum   'Ta1 S27'
_cell_volume   916.05574941
_cell_formula_units_Z   1
loop_
 _symmetry_equiv_pos_site_id
 _symmetry_equiv_pos_as_xyz
  1  'x, y, z'
loop_
 _atom_site_type_symbol
 _atom_site_label
 _atom_site_symmetry_multiplicity
 _atom_site_fract_x
 _atom_site_fract_y
 _atom_site_fract_z
 _atom_site_occupancy
  Ta  Ta0  1  0.842743  0.872281  0.875473  1
  S  S1  1  0.764921  0.480185  0.481209  1
  S  S2  1  0.527827  0.525197  0.812502  1
  S  S3  1  0.516509  0.801309  0.514062  1
  S  S4  1  0.209519  0.333346  0.599331  1
  S  S5  1  0.377779  0.966735  0.377241  1
  S  S6  1  0.374403  0.373894  0.963627  1
  S  S7  1  0.994849  0.404438  0.404091  1
  S  S8  1  0.101579  0.707891  0.225601  1
  S  S9  1  0.243306  0.120265  0.724120  1
  S  S10  1  0.738485  0.257293  0.132765  1
  S  S11  1  0.735404  0.130707  0.252959  1
  S  S12  1  0.246233  0.728505  0.121795  1
  S  S13  1  0.101993  0.226667  0.707226  1
  S  S14  1  0.344618  0.869354  0.519330  1
  S  S15  1  0.552173  0.374741  0.900590  1
  S  S16  1  0.884606  0.534614  0.360490  1
  S  S17  1  0.881542  0.356498  0.531463  1
  S  S18  1  0.550412  0.899166  0.372837  1
  S  S19  1  0.349290  0.523521  0.873891  1
  S  S20  1  0.200110  0.591593  0.323557  1
  S  S21  1  0.354533  0.228986  0.619398  1
  S  S22  1  0.577011  0.311401  0.187398  1
  S  S23  1  0.575381  0.185491  0.309470  1
  S  S24  1  0.345728  0.612639  0.219404  1
  S  S25  1  0.280683  0.381877  0.385775  1
  S  S26  1  0.912065  0.910183  0.791338  1
  S  S27  1  0.941594  0.816516  0.938353  1
