# generated using pymatgen
data_YbSi2(NO)2
_symmetry_space_group_name_H-M   'P 1'
_cell_length_a   6.91845798
_cell_length_b   7.03215918
_cell_length_c   7.18452184
_cell_angle_alpha   88.80234972
_cell_angle_beta   85.25763508
_cell_angle_gamma   75.39942818
_symmetry_Int_Tables_number   1
_chemical_formula_structural   YbSi2(NO)2
_chemical_formula_sum   'Yb4 Si8 N8 O8'
_cell_volume   337.09340088
_cell_formula_units_Z   4
loop_
 _symmetry_equiv_pos_site_id
 _symmetry_equiv_pos_as_xyz
  1  'x, y, z'
loop_
 _atom_site_type_symbol
 _atom_site_label
 _atom_site_symmetry_multiplicity
 _atom_site_fract_x
 _atom_site_fract_y
 _atom_site_fract_z
 _atom_site_occupancy
  Yb  Yb0  1  0.616217  0.220730  0.807593  1
  Yb  Yb1  1  0.164522  0.117334  0.072264  1
  Yb  Yb2  1  0.143137  0.108871  0.560626  1
  Yb  Yb3  1  0.642044  0.228407  0.319006  1
  Si  Si4  1  0.780213  0.562595  0.997712  1
  Si  Si5  1  0.368450  0.555913  0.079650  1
  Si  Si6  1  0.470574  0.784477  0.742729  1
  Si  Si7  1  0.282865  0.551121  0.495506  1
  Si  Si8  1  0.551577  0.786502  0.330146  1
  Si  Si9  1  0.056630  0.779062  0.829795  1
  Si  Si10  1  0.977731  0.775939  0.249619  1
  Si  Si11  1  0.856269  0.559228  0.580352  1
  N  N12  1  0.437450  0.595288  0.301460  1
  N  N13  1  0.545587  0.604066  0.910850  1
  N  N14  1  0.645376  0.749733  0.550531  1
  N  N15  1  0.148854  0.732205  0.051447  1
  N  N16  1  0.046221  0.589869  0.415949  1
  N  N17  1  0.929259  0.601672  0.800725  1
  N  N18  1  0.759000  0.745499  0.167283  1
  N  N19  1  0.258599  0.736920  0.659570  1
  O  O20  1  0.375433  0.329196  0.567852  1
  O  O21  1  0.819147  0.339976  0.566310  1
  O  O22  1  0.402832  0.004043  0.315858  1
  O  O23  1  0.946195  0.011030  0.817776  1
  O  O24  1  0.835567  0.338861  0.075993  1
  O  O25  1  0.961279  0.998135  0.322843  1
  O  O26  1  0.400864  0.008998  0.817721  1
  O  O27  1  0.380232  0.323787  0.066047  1
