# generated using pymatgen
data_Sm2Gd4Zn4Pt13
_symmetry_space_group_name_H-M   'P 1'
_cell_length_a   8.17284004
_cell_length_b   8.17258785
_cell_length_c   8.17258900
_cell_angle_alpha   109.50197177
_cell_angle_beta   109.45521955
_cell_angle_gamma   109.45522444
_symmetry_Int_Tables_number   1
_chemical_formula_structural   Sm2Gd4Zn4Pt13
_chemical_formula_sum   'Sm2 Gd4 Zn4 Pt13'
_cell_volume   420.22024475
_cell_formula_units_Z   1
loop_
 _symmetry_equiv_pos_site_id
 _symmetry_equiv_pos_as_xyz
  1  'x, y, z'
loop_
 _atom_site_type_symbol
 _atom_site_label
 _atom_site_symmetry_multiplicity
 _atom_site_fract_x
 _atom_site_fract_y
 _atom_site_fract_z
 _atom_site_occupancy
  Sm  Sm0  1  0.701389  0.701283  0.000106  1
  Sm  Sm1  1  0.298611  0.999894  0.298717  1
  Gd  Gd2  1  0.000000  0.298404  0.298247  1
  Gd  Gd3  1  0.299658  0.299662  0.999996  1
  Gd  Gd4  1  0.700342  0.000004  0.700338  1
  Gd  Gd5  1  0.000000  0.701753  0.701596  1
  Zn  Zn6  1  0.000000  0.999870  0.500205  1
  Zn  Zn7  1  0.000000  0.499795  0.000130  1
  Zn  Zn8  1  0.500000  0.999735  0.000265  1
  Zn  Zn9  1  0.500000  0.499735  0.500265  1
  Pt  Pt10  1  0.330294  0.330840  0.661491  1
  Pt  Pt11  1  0.669706  0.000546  0.331199  1
  Pt  Pt12  1  0.000000  0.666435  0.333565  1
  Pt  Pt13  1  0.669749  0.329399  0.999499  1
  Pt  Pt14  1  0.330251  0.659649  0.329750  1
  Pt  Pt15  1  0.000000  0.332554  0.667446  1
  Pt  Pt16  1  0.330294  0.668801  0.999454  1
  Pt  Pt17  1  0.330251  0.000501  0.670601  1
  Pt  Pt18  1  0.666000  0.333497  0.332503  1
  Pt  Pt19  1  0.669749  0.670250  0.340351  1
  Pt  Pt20  1  0.669706  0.338509  0.669160  1
  Pt  Pt21  1  0.334000  0.667497  0.666503  1
  Pt  Pt22  1  0.000000  0.001388  0.998612  1
