# generated using pymatgen
data_Er10Tm2Tc3Pt
_symmetry_space_group_name_H-M   'P 1'
_cell_length_a   6.24764782
_cell_length_b   7.34623713
_cell_length_c   9.06073707
_cell_angle_alpha   90.01268749
_cell_angle_beta   90.12038902
_cell_angle_gamma   89.97137961
_symmetry_Int_Tables_number   1
_chemical_formula_structural   Er10Tm2Tc3Pt
_chemical_formula_sum   'Er10 Tm2 Tc3 Pt1'
_cell_volume   415.85697264
_cell_formula_units_Z   1
loop_
 _symmetry_equiv_pos_site_id
 _symmetry_equiv_pos_as_xyz
  1  'x, y, z'
loop_
 _atom_site_type_symbol
 _atom_site_label
 _atom_site_symmetry_multiplicity
 _atom_site_fract_x
 _atom_site_fract_y
 _atom_site_fract_z
 _atom_site_occupancy
  Er  Er0  1  0.330851  0.675864  0.066845  1
  Er  Er1  1  0.163287  0.177290  0.436205  1
  Er  Er2  1  0.665484  0.318517  0.558449  1
  Er  Er3  1  0.839247  0.828252  0.940726  1
  Er  Er4  1  0.665653  0.318264  0.941505  1
  Er  Er5  1  0.838976  0.828031  0.559221  1
  Er  Er6  1  0.874488  0.542362  0.250012  1
  Er  Er7  1  0.621183  0.037348  0.249982  1
  Er  Er8  1  0.127806  0.455692  0.750016  1
  Er  Er9  1  0.372637  0.964796  0.750025  1
  Tm  Tm10  1  0.331165  0.675803  0.433426  1
  Tm  Tm11  1  0.163146  0.177185  0.063536  1
  Tc  Tc12  1  0.038258  0.885049  0.250034  1
  Tc  Tc13  1  0.464010  0.386185  0.249974  1
  Tc  Tc14  1  0.958725  0.115234  0.750295  1
  Pt  Pt15  1  0.545081  0.614129  0.749748  1
