# generated using pymatgen
data_Ba4HoU3O12
_symmetry_space_group_name_H-M   'P 1'
_cell_length_a   6.22115402
_cell_length_b   6.27277949
_cell_length_c   8.78534986
_cell_angle_alpha   89.78655958
_cell_angle_beta   89.93920865
_cell_angle_gamma   89.97279109
_symmetry_Int_Tables_number   1
_chemical_formula_structural   Ba4HoU3O12
_chemical_formula_sum   'Ba4 Ho1 U3 O12'
_cell_volume   342.83624438
_cell_formula_units_Z   1
loop_
 _symmetry_equiv_pos_site_id
 _symmetry_equiv_pos_as_xyz
  1  'x, y, z'
loop_
 _atom_site_type_symbol
 _atom_site_label
 _atom_site_symmetry_multiplicity
 _atom_site_fract_x
 _atom_site_fract_y
 _atom_site_fract_z
 _atom_site_occupancy
  Ba  Ba0  1  0.013215  0.995427  0.756024  1
  Ba  Ba1  1  0.485070  0.491393  0.243262  1
  Ba  Ba2  1  0.514930  0.508607  0.756738  1
  Ba  Ba3  1  0.986786  0.004573  0.243976  1
  Ho  Ho4  1  0.000000  0.500000  0.000000  1
  U  U5  1  0.000000  0.500000  0.500000  1
  U  U6  1  0.500000  0.000000  0.500000  1
  U  U7  1  0.500000  0.000000  0.000000  1
  O  O8  1  0.238710  0.229342  0.037091  1
  O  O9  1  0.509674  0.925767  0.251874  1
  O  O10  1  0.730779  0.265470  0.458636  1
  O  O11  1  0.728972  0.260848  0.036075  1
  O  O12  1  0.766485  0.770286  0.541004  1
  O  O13  1  0.009903  0.568444  0.256947  1
  O  O14  1  0.233515  0.229714  0.458996  1
  O  O15  1  0.271028  0.739152  0.963925  1
  O  O16  1  0.269221  0.734530  0.541364  1
  O  O17  1  0.490326  0.074233  0.748126  1
  O  O18  1  0.761290  0.770658  0.962909  1
  O  O19  1  0.990097  0.431556  0.743053  1
