# generated using pymatgen
data_Mg(Ti4Sn3)3
_symmetry_space_group_name_H-M   'P 1'
_cell_length_a   9.29591300
_cell_length_b   9.29591342
_cell_length_c   5.71597000
_cell_angle_alpha   90.00000000
_cell_angle_beta   90.00000000
_cell_angle_gamma   120.00000208
_symmetry_Int_Tables_number   1
_chemical_formula_structural   Mg(Ti4Sn3)3
_chemical_formula_sum   'Mg1 Ti12 Sn9'
_cell_volume   427.76444481
_cell_formula_units_Z   1
loop_
 _symmetry_equiv_pos_site_id
 _symmetry_equiv_pos_as_xyz
  1  'x, y, z'
loop_
 _atom_site_type_symbol
 _atom_site_label
 _atom_site_symmetry_multiplicity
 _atom_site_fract_x
 _atom_site_fract_y
 _atom_site_fract_z
 _atom_site_occupancy
  Mg  Mg0  1  0.000000  0.000000  0.500000  1
  Ti  Ti1  1  0.842110  0.684221  0.758277  1
  Ti  Ti2  1  0.157890  0.842110  0.241723  1
  Ti  Ti3  1  0.684221  0.842110  0.241723  1
  Ti  Ti4  1  0.315779  0.157890  0.758277  1
  Ti  Ti5  1  0.842110  0.157890  0.758277  1
  Ti  Ti6  1  0.157890  0.315779  0.241723  1
  Ti  Ti7  1  0.500000  0.000000  0.500000  1
  Ti  Ti8  1  0.500000  0.500000  0.000000  1
  Ti  Ti9  1  0.000000  0.500000  0.000000  1
  Ti  Ti10  1  0.000000  0.500000  0.500000  1
  Ti  Ti11  1  0.500000  0.000000  0.000000  1
  Ti  Ti12  1  0.500000  0.500000  0.500000  1
  Sn  Sn13  1  0.198940  0.397879  0.744415  1
  Sn  Sn14  1  0.801060  0.198940  0.255585  1
  Sn  Sn15  1  0.397879  0.198940  0.255585  1
  Sn  Sn16  1  0.602121  0.801060  0.744415  1
  Sn  Sn17  1  0.198940  0.801060  0.744415  1
  Sn  Sn18  1  0.801060  0.602121  0.255585  1
  Sn  Sn19  1  0.666667  0.333333  0.751153  1
  Sn  Sn20  1  0.333333  0.666667  0.248847  1
  Sn  Sn21  1  0.000000  0.000000  0.000000  1
