# generated using pymatgen
data_Tb4Ge2As4Ir7
_symmetry_space_group_name_H-M   'P 1'
_cell_length_a   7.30436580
_cell_length_b   7.30436655
_cell_length_c   7.31825175
_cell_angle_alpha   109.22928089
_cell_angle_beta   109.22927876
_cell_angle_gamma   109.87988397
_symmetry_Int_Tables_number   1
_chemical_formula_structural   Tb4Ge2As4Ir7
_chemical_formula_sum   'Tb4 Ge2 As4 Ir7'
_cell_volume   300.84236729
_cell_formula_units_Z   1
loop_
 _symmetry_equiv_pos_site_id
 _symmetry_equiv_pos_as_xyz
  1  'x, y, z'
loop_
 _atom_site_type_symbol
 _atom_site_label
 _atom_site_symmetry_multiplicity
 _atom_site_fract_x
 _atom_site_fract_y
 _atom_site_fract_z
 _atom_site_occupancy
  Tb  Tb0  1  0.000424  0.000424  0.499965  1
  Tb  Tb1  1  0.000465  0.500465  0.000929  1
  Tb  Tb2  1  0.500465  0.000465  0.000929  1
  Tb  Tb3  1  0.499541  0.499541  0.499965  1
  Ge  Ge4  1  0.681298  0.998325  0.679623  1
  Ge  Ge5  1  0.998325  0.681298  0.679623  1
  As  As6  1  0.680534  0.680534  0.997648  1
  As  As7  1  0.323745  0.998949  0.322694  1
  As  As8  1  0.998949  0.323745  0.322694  1
  As  As9  1  0.317114  0.317114  0.997648  1
  Ir  Ir10  1  0.751822  0.251822  0.503645  1
  Ir  Ir11  1  0.749055  0.501747  0.250803  1
  Ir  Ir12  1  0.502118  0.250332  0.752450  1
  Ir  Ir13  1  0.250332  0.502118  0.752450  1
  Ir  Ir14  1  0.251822  0.751822  0.503645  1
  Ir  Ir15  1  0.501747  0.749055  0.250803  1
  Ir  Ir16  1  0.992244  0.992244  0.984488  1
