# generated using pymatgen
data_Tb4HoEr3(SiBr6)2
_symmetry_space_group_name_H-M   'P 1'
_cell_length_a   4.04633100
_cell_length_b   13.21784941
_cell_length_c   13.98288943
_cell_angle_alpha   90.02851620
_cell_angle_beta   90.00000000
_cell_angle_gamma   90.00000000
_symmetry_Int_Tables_number   1
_chemical_formula_structural   Tb4HoEr3(SiBr6)2
_chemical_formula_sum   'Tb4 Ho1 Er3 Si2 Br12'
_cell_volume   747.85788279
_cell_formula_units_Z   1
loop_
 _symmetry_equiv_pos_site_id
 _symmetry_equiv_pos_as_xyz
  1  'x, y, z'
loop_
 _atom_site_type_symbol
 _atom_site_label
 _atom_site_symmetry_multiplicity
 _atom_site_fract_x
 _atom_site_fract_y
 _atom_site_fract_z
 _atom_site_occupancy
  Tb  Tb0  1  0.000000  0.118866  0.579075  1
  Tb  Tb1  1  0.000000  0.881151  0.420906  1
  Tb  Tb2  1  0.000000  0.618842  0.920934  1
  Tb  Tb3  1  0.000000  0.381202  0.079049  1
  Ho  Ho4  1  0.500000  0.117628  0.341698  1
  Er  Er5  1  0.500000  0.882410  0.658211  1
  Er  Er6  1  0.500000  0.617526  0.158183  1
  Er  Er7  1  0.500000  0.382510  0.841868  1
  Si  Si8  1  0.500000  0.999836  0.500241  1
  Si  Si9  1  0.500000  0.500020  0.000036  1
  Br  Br10  1  0.500000  0.242289  0.164351  1
  Br  Br11  1  0.500000  0.757951  0.835285  1
  Br  Br12  1  0.500000  0.742018  0.335271  1
  Br  Br13  1  0.500000  0.257956  0.664772  1
  Br  Br14  1  0.000000  0.255044  0.409472  1
  Br  Br15  1  0.000000  0.745499  0.590953  1
  Br  Br16  1  0.000000  0.754461  0.091041  1
  Br  Br17  1  0.000000  0.245493  0.908971  1
  Br  Br18  1  0.000000  0.003661  0.242551  1
  Br  Br19  1  0.000000  0.995645  0.757116  1
  Br  Br20  1  0.000000  0.504420  0.257144  1
  Br  Br21  1  0.000000  0.495573  0.742870  1
