# generated using pymatgen
data_Tb2YIn3GePt2
_symmetry_space_group_name_H-M   'P 1'
_cell_length_a   7.51126101
_cell_length_b   7.51055930
_cell_length_c   4.14218000
_cell_angle_alpha   90.00000000
_cell_angle_beta   90.00000000
_cell_angle_gamma   119.99633320
_symmetry_Int_Tables_number   1
_chemical_formula_structural   Tb2YIn3GePt2
_chemical_formula_sum   'Tb2 Y1 In3 Ge1 Pt2'
_cell_volume   202.37682488
_cell_formula_units_Z   1
loop_
 _symmetry_equiv_pos_site_id
 _symmetry_equiv_pos_as_xyz
  1  'x, y, z'
loop_
 _atom_site_type_symbol
 _atom_site_label
 _atom_site_symmetry_multiplicity
 _atom_site_fract_x
 _atom_site_fract_y
 _atom_site_fract_z
 _atom_site_occupancy
  Tb  Tb0  1  0.403981  0.992190  0.500000  1
  Tb  Tb1  1  0.007842  0.411826  0.500000  1
  Y  Y2  1  0.588264  0.595986  0.500000  1
  In  In3  1  0.743001  0.991133  0.000000  1
  In  In4  1  0.248222  0.257015  0.000000  1
  In  In5  1  0.008762  0.751808  0.000000  1
  Ge  Ge6  1  0.666624  0.333367  0.000000  1
  Pt  Pt7  1  0.000008  0.000002  0.500000  1
  Pt  Pt8  1  0.333293  0.666674  0.000000  1
