# generated using pymatgen
data_PrGd2Dy3Ta2O14
_symmetry_space_group_name_H-M   'P 1'
_cell_length_a   6.43314702
_cell_length_b   6.57887736
_cell_length_c   7.66169015
_cell_angle_alpha   106.58993720
_cell_angle_beta   89.75566534
_cell_angle_gamma   97.47946927
_symmetry_Int_Tables_number   1
_chemical_formula_structural   PrGd2Dy3Ta2O14
_chemical_formula_sum   'Pr1 Gd2 Dy3 Ta2 O14'
_cell_volume   307.93767388
_cell_formula_units_Z   1
loop_
 _symmetry_equiv_pos_site_id
 _symmetry_equiv_pos_as_xyz
  1  'x, y, z'
loop_
 _atom_site_type_symbol
 _atom_site_label
 _atom_site_symmetry_multiplicity
 _atom_site_fract_x
 _atom_site_fract_y
 _atom_site_fract_z
 _atom_site_occupancy
  Pr  Pr0  1  0.740912  0.464599  0.117282  1
  Gd  Gd1  1  0.263852  0.548374  0.397485  1
  Gd  Gd2  1  0.262325  0.537275  0.881428  1
  Dy  Dy3  1  0.733053  0.449776  0.607355  1
  Dy  Dy4  1  0.547219  0.992290  0.749912  1
  Dy  Dy5  1  0.452000  0.006797  0.250468  1
  Ta  Ta6  1  0.002498  0.999546  0.998093  1
  Ta  Ta7  1  0.000122  0.002495  0.501649  1
  O  O8  1  0.709126  0.064766  0.479914  1
  O  O9  1  0.925978  0.677262  0.929766  1
  O  O10  1  0.709829  0.062967  0.052446  1
  O  O11  1  0.925052  0.674022  0.410784  1
  O  O12  1  0.915305  0.977438  0.743548  1
  O  O13  1  0.554275  0.342898  0.827163  1
  O  O14  1  0.534130  0.356876  0.346762  1
  O  O15  1  0.466229  0.643056  0.660753  1
  O  O16  1  0.435175  0.655577  0.166536  1
  O  O17  1  0.081027  0.025367  0.256694  1
  O  O18  1  0.072638  0.328768  0.598579  1
  O  O19  1  0.294408  0.934433  0.950038  1
  O  O20  1  0.083472  0.317209  0.052737  1
  O  O21  1  0.291375  0.938209  0.520605  1
