# generated using pymatgen
data_LiPr9Nd7Cd3Pt4
_symmetry_space_group_name_H-M   'P 1'
_cell_length_a   10.05516637
_cell_length_b   10.06146959
_cell_length_c   10.06389843
_cell_angle_alpha   60.18261670
_cell_angle_beta   60.20224778
_cell_angle_gamma   60.25829370
_symmetry_Int_Tables_number   1
_chemical_formula_structural   LiPr9Nd7Cd3Pt4
_chemical_formula_sum   'Li1 Pr9 Nd7 Cd3 Pt4'
_cell_volume   723.44332036
_cell_formula_units_Z   1
loop_
 _symmetry_equiv_pos_site_id
 _symmetry_equiv_pos_as_xyz
  1  'x, y, z'
loop_
 _atom_site_type_symbol
 _atom_site_label
 _atom_site_symmetry_multiplicity
 _atom_site_fract_x
 _atom_site_fract_y
 _atom_site_fract_z
 _atom_site_occupancy
  Li  Li0  1  0.570744  0.571039  0.571158  1
  Pr  Pr1  1  0.811514  0.187902  0.811286  1
  Pr  Pr2  1  0.192844  0.192362  0.810350  1
  Pr  Pr3  1  0.811662  0.811588  0.187686  1
  Pr  Pr4  1  0.938017  0.563920  0.563329  1
  Pr  Pr5  1  0.561316  0.936894  0.937176  1
  Pr  Pr6  1  0.563488  0.937937  0.563395  1
  Pr  Pr7  1  0.936852  0.561488  0.936977  1
  Pr  Pr8  1  0.563227  0.563728  0.938036  1
  Pr  Pr9  1  0.937092  0.936912  0.561191  1
  Nd  Nd10  1  0.349842  0.349831  0.349564  1
  Nd  Nd11  1  0.349555  0.350182  0.950355  1
  Nd  Nd12  1  0.349810  0.949374  0.350384  1
  Nd  Nd13  1  0.950222  0.349831  0.349741  1
  Nd  Nd14  1  0.810165  0.192631  0.192860  1
  Nd  Nd15  1  0.187725  0.811526  0.811430  1
  Nd  Nd16  1  0.192835  0.810094  0.192549  1
  Cd  Cd17  1  0.581599  0.581580  0.257376  1
  Cd  Cd18  1  0.581946  0.257498  0.581370  1
  Cd  Cd19  1  0.257378  0.582152  0.581596  1
  Pt  Pt20  1  0.143445  0.143876  0.145416  1
  Pt  Pt21  1  0.144466  0.142742  0.569402  1
  Pt  Pt22  1  0.144839  0.570328  0.142995  1
  Pt  Pt23  1  0.569415  0.144582  0.144378  1
