# generated using pymatgen
data_Li5Pr8Zn3Rh8
_symmetry_space_group_name_H-M   'P 1'
_cell_length_a   4.08796100
_cell_length_b   7.34151769
_cell_length_c   16.59567554
_cell_angle_alpha   89.83373637
_cell_angle_beta   90.00000000
_cell_angle_gamma   90.00000000
_symmetry_Int_Tables_number   1
_chemical_formula_structural   Li5Pr8Zn3Rh8
_chemical_formula_sum   'Li5 Pr8 Zn3 Rh8'
_cell_volume   498.06462914
_cell_formula_units_Z   1
loop_
 _symmetry_equiv_pos_site_id
 _symmetry_equiv_pos_as_xyz
  1  'x, y, z'
loop_
 _atom_site_type_symbol
 _atom_site_label
 _atom_site_symmetry_multiplicity
 _atom_site_fract_x
 _atom_site_fract_y
 _atom_site_fract_z
 _atom_site_occupancy
  Li  Li0  1  0.250000  0.992509  0.438258  1
  Li  Li1  1  0.750000  0.508097  0.939268  1
  Li  Li2  1  0.750000  0.008180  0.561881  1
  Li  Li3  1  0.250000  0.631813  0.351876  1
  Li  Li4  1  0.750000  0.368023  0.648142  1
  Pr  Pr5  1  0.750000  0.453275  0.215925  1
  Pr  Pr6  1  0.750000  0.957259  0.281838  1
  Pr  Pr7  1  0.750000  0.830588  0.060963  1
  Pr  Pr8  1  0.250000  0.043862  0.718637  1
  Pr  Pr9  1  0.250000  0.165472  0.939892  1
  Pr  Pr10  1  0.250000  0.547342  0.783257  1
  Pr  Pr11  1  0.750000  0.337538  0.439591  1
  Pr  Pr12  1  0.250000  0.664108  0.560687  1
  Zn  Zn13  1  0.750000  0.871260  0.850884  1
  Zn  Zn14  1  0.250000  0.496289  0.058810  1
  Zn  Zn15  1  0.250000  0.127032  0.149329  1
  Rh  Rh16  1  0.250000  0.253976  0.560943  1
  Rh  Rh17  1  0.750000  0.256176  0.065811  1
  Rh  Rh18  1  0.250000  0.243594  0.310863  1
  Rh  Rh19  1  0.750000  0.244163  0.815752  1
  Rh  Rh20  1  0.250000  0.748446  0.935592  1
  Rh  Rh21  1  0.750000  0.754019  0.689221  1
  Rh  Rh22  1  0.750000  0.744837  0.438812  1
  Rh  Rh23  1  0.250000  0.752142  0.183772  1
