# generated using pymatgen
data_Yb4Zn2FeOs5
_symmetry_space_group_name_H-M   'P 1'
_cell_length_a   5.29743280
_cell_length_b   5.28915161
_cell_length_c   8.71118500
_cell_angle_alpha   90.00000000
_cell_angle_beta   90.00000000
_cell_angle_gamma   119.94822160
_symmetry_Int_Tables_number   1
_chemical_formula_structural   Yb4Zn2FeOs5
_chemical_formula_sum   'Yb4 Zn2 Fe1 Os5'
_cell_volume   211.48798480
_cell_formula_units_Z   1
loop_
 _symmetry_equiv_pos_site_id
 _symmetry_equiv_pos_as_xyz
  1  'x, y, z'
loop_
 _atom_site_type_symbol
 _atom_site_label
 _atom_site_symmetry_multiplicity
 _atom_site_fract_x
 _atom_site_fract_y
 _atom_site_fract_z
 _atom_site_occupancy
  Yb  Yb0  1  0.659590  0.329794  0.556158  1
  Yb  Yb1  1  0.324536  0.662270  0.435113  1
  Yb  Yb2  1  0.324536  0.662270  0.064887  1
  Yb  Yb3  1  0.659590  0.329794  0.943842  1
  Zn  Zn4  1  0.200229  0.352026  0.750000  1
  Zn  Zn5  1  0.200234  0.848202  0.750000  1
  Fe  Fe6  1  0.335881  0.167942  0.250000  1
  Os  Os7  1  0.967012  0.983507  0.499479  1
  Os  Os8  1  0.967012  0.983507  0.000521  1
  Os  Os9  1  0.701549  0.850776  0.750000  1
  Os  Os10  1  0.829915  0.656867  0.250000  1
  Os  Os11  1  0.829916  0.173046  0.250000  1
