# generated using pymatgen
data_Gd7Dy(Si3Pd)4
_symmetry_space_group_name_H-M   'P 1'
_cell_length_a   8.02782500
_cell_length_b   8.02776140
_cell_length_c   8.27980500
_cell_angle_alpha   90.00000000
_cell_angle_beta   90.00000000
_cell_angle_gamma   120.00038981
_symmetry_Int_Tables_number   1
_chemical_formula_structural   Gd7Dy(Si3Pd)4
_chemical_formula_sum   'Gd7 Dy1 Si12 Pd4'
_cell_volume   462.10576560
_cell_formula_units_Z   1
loop_
 _symmetry_equiv_pos_site_id
 _symmetry_equiv_pos_as_xyz
  1  'x, y, z'
loop_
 _atom_site_type_symbol
 _atom_site_label
 _atom_site_symmetry_multiplicity
 _atom_site_fract_x
 _atom_site_fract_y
 _atom_site_fract_z
 _atom_site_occupancy
  Gd  Gd0  1  0.500468  0.001126  0.250000  1
  Gd  Gd1  1  0.499632  0.999077  0.750000  1
  Gd  Gd2  1  0.998801  0.499388  0.250000  1
  Gd  Gd3  1  0.000932  0.500554  0.750000  1
  Gd  Gd4  1  0.500601  0.499343  0.250000  1
  Gd  Gd5  1  0.499691  0.500482  0.750000  1
  Gd  Gd6  1  0.999943  0.000053  0.250000  1
  Dy  Dy7  1  0.999993  0.999991  0.750000  1
  Si  Si8  1  0.165207  0.330419  0.998716  1
  Si  Si9  1  0.834805  0.669612  0.997468  1
  Si  Si10  1  0.669611  0.834820  0.998847  1
  Si  Si11  1  0.834805  0.669612  0.502532  1
  Si  Si12  1  0.330353  0.165166  0.997614  1
  Si  Si13  1  0.165207  0.330419  0.501284  1
  Si  Si14  1  0.165209  0.834816  0.998964  1
  Si  Si15  1  0.330353  0.165166  0.502386  1
  Si  Si16  1  0.834796  0.165170  0.997721  1
  Si  Si17  1  0.669611  0.834820  0.501153  1
  Si  Si18  1  0.834796  0.165170  0.502279  1
  Si  Si19  1  0.165209  0.834816  0.501036  1
  Pd  Pd20  1  0.333312  0.666675  0.002037  1
  Pd  Pd21  1  0.666675  0.333314  0.999837  1
  Pd  Pd22  1  0.666675  0.333314  0.500163  1
  Pd  Pd23  1  0.333312  0.666675  0.497963  1
