# generated using pymatgen
data_Y2HoCoSn3Rh2
_symmetry_space_group_name_H-M   'P 1'
_cell_length_a   7.50867700
_cell_length_b   7.47623812
_cell_length_c   3.84999000
_cell_angle_alpha   90.00000000
_cell_angle_beta   90.00000000
_cell_angle_gamma   120.14363035
_symmetry_Int_Tables_number   1
_chemical_formula_structural   Y2HoCoSn3Rh2
_chemical_formula_sum   'Y2 Ho1 Co1 Sn3 Rh2'
_cell_volume   186.89875100
_cell_formula_units_Z   1
loop_
 _symmetry_equiv_pos_site_id
 _symmetry_equiv_pos_as_xyz
  1  'x, y, z'
loop_
 _atom_site_type_symbol
 _atom_site_label
 _atom_site_symmetry_multiplicity
 _atom_site_fract_x
 _atom_site_fract_y
 _atom_site_fract_z
 _atom_site_occupancy
  Y  Y0  1  0.000057  0.405542  0.000000  1
  Y  Y1  1  0.594514  0.594458  0.000000  1
  Ho  Ho2  1  0.405977  0.000000  0.000000  1
  Co  Co3  1  0.001100  0.000000  0.000000  1
  Sn  Sn4  1  0.250943  0.250664  0.500000  1
  Sn  Sn5  1  0.000279  0.749336  0.500000  1
  Sn  Sn6  1  0.749101  0.000000  0.500000  1
  Rh  Rh7  1  0.664157  0.330283  0.500000  1
  Rh  Rh8  1  0.333873  0.669717  0.500000  1
