# generated using pymatgen
data_Y2Ho2AlOs7
_symmetry_space_group_name_H-M   'P 1'
_cell_length_a   5.35891800
_cell_length_b   5.35891703
_cell_length_c   8.70113300
_cell_angle_alpha   90.00000000
_cell_angle_beta   90.00000000
_cell_angle_gamma   120.00000601
_symmetry_Int_Tables_number   1
_chemical_formula_structural   Y2Ho2AlOs7
_chemical_formula_sum   'Y2 Ho2 Al1 Os7'
_cell_volume   216.40164455
_cell_formula_units_Z   1
loop_
 _symmetry_equiv_pos_site_id
 _symmetry_equiv_pos_as_xyz
  1  'x, y, z'
loop_
 _atom_site_type_symbol
 _atom_site_label
 _atom_site_symmetry_multiplicity
 _atom_site_fract_x
 _atom_site_fract_y
 _atom_site_fract_z
 _atom_site_occupancy
  Y  Y0  1  0.333333  0.666667  0.429023  1
  Y  Y1  1  0.666667  0.333333  0.570977  1
  Ho  Ho2  1  0.666667  0.333333  0.935785  1
  Ho  Ho3  1  0.333333  0.666667  0.064215  1
  Al  Al4  1  0.000000  0.000000  0.500000  1
  Os  Os5  1  0.000000  0.000000  0.000000  1
  Os  Os6  1  0.828623  0.171377  0.249871  1
  Os  Os7  1  0.828623  0.657247  0.249871  1
  Os  Os8  1  0.342753  0.171377  0.249871  1
  Os  Os9  1  0.171377  0.828623  0.750129  1
  Os  Os10  1  0.171377  0.342753  0.750129  1
  Os  Os11  1  0.657247  0.828623  0.750129  1
