# generated using pymatgen
data_V2Pb4BrClO8
_symmetry_space_group_name_H-M   'P 1'
_cell_length_a   6.74188700
_cell_length_b   7.66481200
_cell_length_c   11.84491000
_cell_angle_alpha   90.00000000
_cell_angle_beta   90.00000000
_cell_angle_gamma   90.00000000
_symmetry_Int_Tables_number   1
_chemical_formula_structural   V2Pb4BrClO8
_chemical_formula_sum   'V4 Pb8 Br2 Cl2 O16'
_cell_volume   612.08923485
_cell_formula_units_Z   2
loop_
 _symmetry_equiv_pos_site_id
 _symmetry_equiv_pos_as_xyz
  1  'x, y, z'
loop_
 _atom_site_type_symbol
 _atom_site_label
 _atom_site_symmetry_multiplicity
 _atom_site_fract_x
 _atom_site_fract_y
 _atom_site_fract_z
 _atom_site_occupancy
  V  V0  1  0.127508  0.251222  0.998358  1
  V  V1  1  0.127508  0.251222  0.501642  1
  V  V2  1  0.872492  0.751222  0.501642  1
  V  V3  1  0.872492  0.751222  0.998358  1
  Pb  Pb4  1  0.856600  0.521158  0.750000  1
  Pb  Pb5  1  0.373360  0.748673  0.503353  1
  Pb  Pb6  1  0.129154  0.480021  0.250000  1
  Pb  Pb7  1  0.373360  0.748673  0.996647  1
  Pb  Pb8  1  0.143400  0.021158  0.750000  1
  Pb  Pb9  1  0.870846  0.980021  0.250000  1
  Pb  Pb10  1  0.626640  0.248673  0.503353  1
  Pb  Pb11  1  0.626640  0.248673  0.996647  1
  Br  Br12  1  0.472591  0.178857  0.250000  1
  Br  Br13  1  0.527409  0.678857  0.250000  1
  Cl  Cl14  1  0.508077  0.809077  0.750000  1
  Cl  Cl15  1  0.491923  0.309077  0.750000  1
  O  O16  1  0.283325  0.075291  0.969090  1
  O  O17  1  0.281619  0.428208  0.025155  1
  O  O18  1  0.028616  0.776165  0.619209  1
  O  O19  1  0.971628  0.225884  0.116590  1
  O  O20  1  0.718381  0.928208  0.025155  1
  O  O21  1  0.028372  0.725884  0.116590  1
  O  O22  1  0.716675  0.575291  0.530910  1
  O  O23  1  0.971384  0.276165  0.880791  1
  O  O24  1  0.971384  0.276165  0.619209  1
  O  O25  1  0.716675  0.575291  0.969090  1
  O  O26  1  0.028616  0.776165  0.880791  1
  O  O27  1  0.028372  0.725884  0.383410  1
  O  O28  1  0.971628  0.225884  0.383410  1
  O  O29  1  0.283325  0.075291  0.530910  1
  O  O30  1  0.718381  0.928208  0.474845  1
  O  O31  1  0.281619  0.428208  0.474845  1
