# generated using pymatgen
data_Na2AlPbAu2
_symmetry_space_group_name_H-M   'P 1'
_cell_length_a   4.32831900
_cell_length_b   7.79442972
_cell_length_c   8.39924746
_cell_angle_alpha   89.12752868
_cell_angle_beta   90.00000000
_cell_angle_gamma   90.00000000
_symmetry_Int_Tables_number   1
_chemical_formula_structural   Na2AlPbAu2
_chemical_formula_sum   'Na4 Al2 Pb2 Au4'
_cell_volume   283.33069689
_cell_formula_units_Z   2
loop_
 _symmetry_equiv_pos_site_id
 _symmetry_equiv_pos_as_xyz
  1  'x, y, z'
loop_
 _atom_site_type_symbol
 _atom_site_label
 _atom_site_symmetry_multiplicity
 _atom_site_fract_x
 _atom_site_fract_y
 _atom_site_fract_z
 _atom_site_occupancy
  Na  Na0  1  0.250000  0.018079  0.341067  1
  Na  Na1  1  0.250000  0.515966  0.176629  1
  Na  Na2  1  0.750000  0.981921  0.658933  1
  Na  Na3  1  0.750000  0.484034  0.823371  1
  Al  Al4  1  0.250000  0.634538  0.559418  1
  Al  Al5  1  0.750000  0.365462  0.440582  1
  Pb  Pb6  1  0.750000  0.849988  0.071391  1
  Pb  Pb7  1  0.250000  0.150012  0.928609  1
  Au  Au8  1  0.250000  0.764012  0.836270  1
  Au  Au9  1  0.750000  0.235988  0.163730  1
  Au  Au10  1  0.750000  0.697571  0.399679  1
  Au  Au11  1  0.250000  0.302429  0.600321  1
