# generated using pymatgen
data_Na4HfUBr12
_symmetry_space_group_name_H-M   'P 1'
_cell_length_a   7.36110100
_cell_length_b   7.36109985
_cell_length_c   13.82561000
_cell_angle_alpha   90.00000000
_cell_angle_beta   90.00000000
_cell_angle_gamma   119.99999170
_symmetry_Int_Tables_number   1
_chemical_formula_structural   Na4HfUBr12
_chemical_formula_sum   'Na4 Hf1 U1 Br12'
_cell_volume   648.78448426
_cell_formula_units_Z   1
loop_
 _symmetry_equiv_pos_site_id
 _symmetry_equiv_pos_as_xyz
  1  'x, y, z'
loop_
 _atom_site_type_symbol
 _atom_site_label
 _atom_site_symmetry_multiplicity
 _atom_site_fract_x
 _atom_site_fract_y
 _atom_site_fract_z
 _atom_site_occupancy
  Na  Na0  1  0.000000  0.000000  0.750000  1
  Na  Na1  1  0.666667  0.333333  0.750000  1
  Na  Na2  1  0.333333  0.666667  0.250000  1
  Na  Na3  1  0.000000  0.000000  0.250000  1
  Hf  Hf4  1  0.333333  0.666667  0.750000  1
  U  U5  1  0.666667  0.333333  0.250000  1
  Br  Br6  1  0.042794  0.375986  0.638724  1
  Br  Br7  1  0.333193  0.957206  0.638724  1
  Br  Br8  1  0.624014  0.666807  0.638724  1
  Br  Br9  1  0.624014  0.957206  0.861276  1
  Br  Br10  1  0.333193  0.375986  0.861276  1
  Br  Br11  1  0.042794  0.666807  0.861276  1
  Br  Br12  1  0.976253  0.333055  0.132440  1
  Br  Br13  1  0.356801  0.023747  0.132440  1
  Br  Br14  1  0.666945  0.643199  0.132440  1
  Br  Br15  1  0.666945  0.023747  0.367560  1
  Br  Br16  1  0.356801  0.333055  0.367560  1
  Br  Br17  1  0.976253  0.643199  0.367560  1
