# generated using pymatgen
data_Dy5Lu(AlC3)2
_symmetry_space_group_name_H-M   'P 1'
_cell_length_a   3.55442000
_cell_length_b   7.02800753
_cell_length_c   9.96134380
_cell_angle_alpha   89.73785042
_cell_angle_beta   90.00000000
_cell_angle_gamma   90.00000000
_symmetry_Int_Tables_number   1
_chemical_formula_structural   Dy5Lu(AlC3)2
_chemical_formula_sum   'Dy5 Lu1 Al2 C6'
_cell_volume   248.83664964
_cell_formula_units_Z   1
loop_
 _symmetry_equiv_pos_site_id
 _symmetry_equiv_pos_as_xyz
  1  'x, y, z'
loop_
 _atom_site_type_symbol
 _atom_site_label
 _atom_site_symmetry_multiplicity
 _atom_site_fract_x
 _atom_site_fract_y
 _atom_site_fract_z
 _atom_site_occupancy
  Dy  Dy0  1  0.500000  0.510627  0.198397  1
  Dy  Dy1  1  0.500000  0.489784  0.800157  1
  Dy  Dy2  1  0.500000  0.991869  0.201709  1
  Dy  Dy3  1  0.000000  0.749131  0.459068  1
  Dy  Dy4  1  0.000000  0.249133  0.541204  1
  Lu  Lu5  1  0.500000  0.015097  0.798580  1
  Al  Al6  1  0.000000  0.759619  0.003254  1
  Al  Al7  1  0.000000  0.242325  0.993707  1
  C  C8  1  0.500000  0.508321  0.565848  1
  C  C9  1  0.500000  0.490153  0.433164  1
  C  C10  1  0.500000  0.989383  0.569775  1
  C  C11  1  0.500000  0.007204  0.437113  1
  C  C12  1  0.000000  0.751357  0.206987  1
  C  C13  1  0.000000  0.245998  0.791039  1
