# generated using pymatgen
data_Tb2Dy3Mn2P12Ir17
_symmetry_space_group_name_H-M   'P 1'
_cell_length_a   12.64219100
_cell_length_b   12.72982410
_cell_length_c   3.97275500
_cell_angle_alpha   90.00000000
_cell_angle_beta   90.00000000
_cell_angle_gamma   119.77253404
_symmetry_Int_Tables_number   1
_chemical_formula_structural   Tb2Dy3Mn2P12Ir17
_chemical_formula_sum   'Tb2 Dy3 Mn2 P12 Ir17'
_cell_volume   554.95536418
_cell_formula_units_Z   1
loop_
 _symmetry_equiv_pos_site_id
 _symmetry_equiv_pos_as_xyz
  1  'x, y, z'
loop_
 _atom_site_type_symbol
 _atom_site_label
 _atom_site_symmetry_multiplicity
 _atom_site_fract_x
 _atom_site_fract_y
 _atom_site_fract_z
 _atom_site_occupancy
  Tb  Tb0  1  0.999983  0.811350  0.000000  1
  Tb  Tb1  1  0.188633  0.188650  0.000000  1
  Dy  Dy2  1  0.332529  0.663754  0.500000  1
  Dy  Dy3  1  0.668775  0.336246  0.500000  1
  Dy  Dy4  1  0.813515  0.000000  0.000000  1
  Mn  Mn5  1  0.999734  0.457876  0.500000  1
  Mn  Mn6  1  0.541858  0.542124  0.500000  1
  P  P7  1  0.999819  0.634957  0.500000  1
  P  P8  1  0.364862  0.365043  0.500000  1
  P  P9  1  0.643494  0.000000  0.500000  1
  P  P10  1  0.515602  0.683967  0.000000  1
  P  P11  1  0.309172  0.824737  0.000000  1
  P  P12  1  0.166790  0.481223  0.000000  1
  P  P13  1  0.484436  0.175263  0.000000  1
  P  P14  1  0.685566  0.518777  0.000000  1
  P  P15  1  0.831635  0.316033  0.000000  1
  P  P16  1  0.999739  0.178040  0.500000  1
  P  P17  1  0.821700  0.821960  0.500000  1
  P  P18  1  0.179146  0.000000  0.500000  1
  Ir  Ir19  1  0.505907  0.866139  0.000000  1
  Ir  Ir20  1  0.129471  0.638372  0.000000  1
  Ir  Ir21  1  0.358533  0.491712  0.000000  1
  Ir  Ir22  1  0.491100  0.361628  0.000000  1
  Ir  Ir23  1  0.866822  0.508288  0.000000  1
  Ir  Ir24  1  0.639769  0.133861  0.000000  1
  Ir  Ir25  1  0.462363  0.000000  0.500000  1
  Ir  Ir26  1  0.998101  0.282703  0.000000  1
  Ir  Ir27  1  0.715398  0.717297  0.000000  1
  Ir  Ir28  1  0.287194  0.000000  0.000000  1
  Ir  Ir29  1  0.622132  0.804025  0.500000  1
  Ir  Ir30  1  0.198472  0.821563  0.500000  1
  Ir  Ir31  1  0.178064  0.373659  0.500000  1
  Ir  Ir32  1  0.376909  0.178437  0.500000  1
  Ir  Ir33  1  0.804405  0.626341  0.500000  1
  Ir  Ir34  1  0.818106  0.195975  0.500000  1
  Ir  Ir35  1  0.000264  0.000000  0.500000  1
