# generated using pymatgen
data_Li6HfSb5Rh12
_symmetry_space_group_name_H-M   'P 1'
_cell_length_a   4.37259000
_cell_length_b   6.17326200
_cell_length_c   13.18976100
_cell_angle_alpha   90.00000000
_cell_angle_beta   90.00005227
_cell_angle_gamma   90.00000000
_symmetry_Int_Tables_number   1
_chemical_formula_structural   Li6HfSb5Rh12
_chemical_formula_sum   'Li6 Hf1 Sb5 Rh12'
_cell_volume   356.03311389
_cell_formula_units_Z   1
loop_
 _symmetry_equiv_pos_site_id
 _symmetry_equiv_pos_as_xyz
  1  'x, y, z'
loop_
 _atom_site_type_symbol
 _atom_site_label
 _atom_site_symmetry_multiplicity
 _atom_site_fract_x
 _atom_site_fract_y
 _atom_site_fract_z
 _atom_site_occupancy
  Li  Li0  1  0.000000  0.500000  0.000000  1
  Li  Li1  1  0.499895  0.000000  0.166389  1
  Li  Li2  1  0.999862  0.500000  0.333379  1
  Li  Li3  1  0.499999  0.000000  0.500000  1
  Li  Li4  1  0.000138  0.500000  0.666621  1
  Li  Li5  1  0.500105  0.000000  0.833611  1
  Hf  Hf6  1  0.000000  0.000000  0.000000  1
  Sb  Sb7  1  0.499895  0.500000  0.166092  1
  Sb  Sb8  1  0.999908  0.000000  0.332528  1
  Sb  Sb9  1  0.499999  0.500000  0.500000  1
  Sb  Sb10  1  0.000092  0.000000  0.667472  1
  Sb  Sb11  1  0.500105  0.500000  0.833908  1
  Rh  Rh12  1  0.499999  0.253899  0.000000  1
  Rh  Rh13  1  0.499999  0.746100  0.000000  1
  Rh  Rh14  1  0.999907  0.249933  0.168109  1
  Rh  Rh15  1  0.999907  0.750066  0.168109  1
  Rh  Rh16  1  0.499911  0.250200  0.334147  1
  Rh  Rh17  1  0.499911  0.749801  0.334147  1
  Rh  Rh18  1  0.000000  0.249206  0.500000  1
  Rh  Rh19  1  0.000000  0.750794  0.500000  1
  Rh  Rh20  1  0.500089  0.250200  0.665854  1
  Rh  Rh21  1  0.500089  0.749801  0.665854  1
  Rh  Rh22  1  0.000093  0.249933  0.831891  1
  Rh  Rh23  1  0.000093  0.750066  0.831891  1
