# generated using pymatgen
data_Dy3Y5Hg4
_symmetry_space_group_name_H-M   'P 1'
_cell_length_a   5.10287100
_cell_length_b   7.10124412
_cell_length_c   9.26134593
_cell_angle_alpha   89.90922790
_cell_angle_beta   90.00000000
_cell_angle_gamma   90.00000000
_symmetry_Int_Tables_number   1
_chemical_formula_structural   Dy3Y5Hg4
_chemical_formula_sum   'Dy3 Y5 Hg4'
_cell_volume   335.60049594
_cell_formula_units_Z   1
loop_
 _symmetry_equiv_pos_site_id
 _symmetry_equiv_pos_as_xyz
  1  'x, y, z'
loop_
 _atom_site_type_symbol
 _atom_site_label
 _atom_site_symmetry_multiplicity
 _atom_site_fract_x
 _atom_site_fract_y
 _atom_site_fract_z
 _atom_site_occupancy
  Dy  Dy0  1  0.250000  0.830510  0.924507  1
  Dy  Dy1  1  0.250000  0.330699  0.575469  1
  Dy  Dy2  1  0.750000  0.169397  0.075965  1
  Y  Y3  1  0.750000  0.670050  0.424206  1
  Y  Y4  1  0.250000  0.983725  0.306516  1
  Y  Y5  1  0.250000  0.483018  0.192800  1
  Y  Y6  1  0.750000  0.016981  0.694246  1
  Y  Y7  1  0.750000  0.516474  0.806367  1
  Hg  Hg8  1  0.250000  0.259548  0.898286  1
  Hg  Hg9  1  0.250000  0.759659  0.602462  1
  Hg  Hg10  1  0.750000  0.740281  0.100751  1
  Hg  Hg11  1  0.750000  0.239656  0.398423  1
