# generated using pymatgen
data_Tm6MnZn22Se
_symmetry_space_group_name_H-M   'P 1'
_cell_length_a   8.99303682
_cell_length_b   8.99303723
_cell_length_c   8.99303800
_cell_angle_alpha   59.99999718
_cell_angle_beta   59.99999565
_cell_angle_gamma   59.99999863
_symmetry_Int_Tables_number   1
_chemical_formula_structural   Tm6MnZn22Se
_chemical_formula_sum   'Tm6 Mn1 Zn22 Se1'
_cell_volume   514.28536469
_cell_formula_units_Z   1
loop_
 _symmetry_equiv_pos_site_id
 _symmetry_equiv_pos_as_xyz
  1  'x, y, z'
loop_
 _atom_site_type_symbol
 _atom_site_label
 _atom_site_symmetry_multiplicity
 _atom_site_fract_x
 _atom_site_fract_y
 _atom_site_fract_z
 _atom_site_occupancy
  Tm  Tm0  1  0.716228  0.283772  0.283772  1
  Tm  Tm1  1  0.716228  0.283772  0.716228  1
  Tm  Tm2  1  0.716228  0.716228  0.283772  1
  Tm  Tm3  1  0.283772  0.716228  0.716228  1
  Tm  Tm4  1  0.283772  0.716228  0.283772  1
  Tm  Tm5  1  0.283772  0.283772  0.716228  1
  Mn  Mn6  1  0.000000  0.000000  0.000000  1
  Zn  Zn7  1  0.636536  0.121155  0.121155  1
  Zn  Zn8  1  0.121155  0.636536  0.121155  1
  Zn  Zn9  1  0.121155  0.121155  0.636536  1
  Zn  Zn10  1  0.121155  0.121155  0.121155  1
  Zn  Zn11  1  0.363464  0.878845  0.878845  1
  Zn  Zn12  1  0.878845  0.363464  0.878845  1
  Zn  Zn13  1  0.878845  0.878845  0.363464  1
  Zn  Zn14  1  0.878845  0.878845  0.878845  1
  Zn  Zn15  1  0.500000  0.000000  0.000000  1
  Zn  Zn16  1  0.500000  0.000000  0.500000  1
  Zn  Zn17  1  0.500000  0.500000  0.000000  1
  Zn  Zn18  1  0.000000  0.500000  0.500000  1
  Zn  Zn19  1  0.000000  0.500000  0.000000  1
  Zn  Zn20  1  0.000000  0.000000  0.500000  1
  Zn  Zn21  1  0.011576  0.329474  0.329474  1
  Zn  Zn22  1  0.329474  0.011576  0.329474  1
  Zn  Zn23  1  0.329474  0.329474  0.011576  1
  Zn  Zn24  1  0.329474  0.329474  0.329474  1
  Zn  Zn25  1  0.988424  0.670526  0.670526  1
  Zn  Zn26  1  0.670526  0.988424  0.670526  1
  Zn  Zn27  1  0.670526  0.670526  0.988424  1
  Zn  Zn28  1  0.670526  0.670526  0.670526  1
  Se  Se29  1  0.500000  0.500000  0.500000  1
