# generated using pymatgen
data_HoLu2Pa(InNi2)2
_symmetry_space_group_name_H-M   'P 1'
_cell_length_a   7.35766586
_cell_length_b   7.38272448
_cell_length_c   3.54308800
_cell_angle_alpha   90.00000000
_cell_angle_beta   90.00000000
_cell_angle_gamma   92.38224807
_symmetry_Int_Tables_number   1
_chemical_formula_structural   HoLu2Pa(InNi2)2
_chemical_formula_sum   'Ho1 Lu2 Pa1 In2 Ni4'
_cell_volume   192.29286153
_cell_formula_units_Z   1
loop_
 _symmetry_equiv_pos_site_id
 _symmetry_equiv_pos_as_xyz
  1  'x, y, z'
loop_
 _atom_site_type_symbol
 _atom_site_label
 _atom_site_symmetry_multiplicity
 _atom_site_fract_x
 _atom_site_fract_y
 _atom_site_fract_z
 _atom_site_occupancy
  Ho  Ho0  1  0.830676  0.674578  0.500000  1
  Lu  Lu1  1  0.324476  0.824817  0.500000  1
  Lu  Lu2  1  0.174042  0.330384  0.500000  1
  Pa  Pa3  1  0.669723  0.170579  0.500000  1
  In  In4  1  0.496197  0.507129  0.000000  1
  In  In5  1  0.009514  0.999207  0.000000  1
  Ni  Ni6  1  0.115101  0.611250  0.000000  1
  Ni  Ni7  1  0.862602  0.359549  0.000000  1
  Ni  Ni8  1  0.627101  0.893051  0.000000  1
  Ni  Ni9  1  0.390569  0.129456  0.000000  1
