# generated using pymatgen
data_ErTmVCoB8
_symmetry_space_group_name_H-M   'P 1'
_cell_length_a   3.39191400
_cell_length_b   5.93073732
_cell_length_c   11.46335516
_cell_angle_alpha   89.94054828
_cell_angle_beta   90.00000000
_cell_angle_gamma   90.00000000
_symmetry_Int_Tables_number   1
_chemical_formula_structural   ErTmVCoB8
_chemical_formula_sum   'Er2 Tm2 V2 Co2 B16'
_cell_volume   230.60304386
_cell_formula_units_Z   2
loop_
 _symmetry_equiv_pos_site_id
 _symmetry_equiv_pos_as_xyz
  1  'x, y, z'
loop_
 _atom_site_type_symbol
 _atom_site_label
 _atom_site_symmetry_multiplicity
 _atom_site_fract_x
 _atom_site_fract_y
 _atom_site_fract_z
 _atom_site_occupancy
  Er  Er0  1  0.500000  0.628370  0.648071  1
  Er  Er1  1  0.500000  0.371630  0.351929  1
  Tm  Tm2  1  0.500000  0.124719  0.847436  1
  Tm  Tm3  1  0.500000  0.875281  0.152564  1
  V  V4  1  0.500000  0.627444  0.914180  1
  V  V5  1  0.500000  0.372556  0.085820  1
  Co  Co6  1  0.500000  0.135432  0.587588  1
  Co  Co7  1  0.500000  0.864568  0.412412  1
  B  B8  1  0.000000  0.281502  0.682904  1
  B  B9  1  0.000000  0.718498  0.317096  1
  B  B10  1  0.000000  0.788213  0.811459  1
  B  B11  1  0.000000  0.211787  0.188541  1
  B  B12  1  0.000000  0.361269  0.531133  1
  B  B13  1  0.000000  0.638731  0.468867  1
  B  B14  1  0.000000  0.866388  0.966930  1
  B  B15  1  0.000000  0.133612  0.033070  1
  B  B16  1  0.000000  0.020818  0.310206  1
  B  B17  1  0.000000  0.979182  0.689794  1
  B  B18  1  0.000000  0.526339  0.194969  1
  B  B19  1  0.000000  0.473661  0.805031  1
  B  B20  1  0.000000  0.111450  0.453913  1
  B  B21  1  0.000000  0.888550  0.546087  1
  B  B22  1  0.000000  0.615459  0.047431  1
  B  B23  1  0.000000  0.384541  0.952569  1
