# generated using pymatgen
data_Tb4GdLuU4O20
_symmetry_space_group_name_H-M   'P 1'
_cell_length_a   6.64863520
_cell_length_b   7.52006026
_cell_length_c   8.43013586
_cell_angle_alpha   100.99346787
_cell_angle_beta   97.71084889
_cell_angle_gamma   107.26052623
_symmetry_Int_Tables_number   1
_chemical_formula_structural   Tb4GdLuU4O20
_chemical_formula_sum   'Tb4 Gd1 Lu1 U4 O20'
_cell_volume   386.85605908
_cell_formula_units_Z   1
loop_
 _symmetry_equiv_pos_site_id
 _symmetry_equiv_pos_as_xyz
  1  'x, y, z'
loop_
 _atom_site_type_symbol
 _atom_site_label
 _atom_site_symmetry_multiplicity
 _atom_site_fract_x
 _atom_site_fract_y
 _atom_site_fract_z
 _atom_site_occupancy
  Tb  Tb0  1  0.614887  0.704951  0.699155  1
  Tb  Tb1  1  0.385113  0.295049  0.300845  1
  Tb  Tb2  1  0.197219  0.897485  0.891431  1
  Tb  Tb3  1  0.802781  0.102515  0.108569  1
  Gd  Gd4  1  0.000000  0.500000  0.500000  1
  Lu  Lu5  1  0.000000  0.000000  0.500000  1
  U  U6  1  0.401997  0.805266  0.302215  1
  U  U7  1  0.198772  0.399199  0.898984  1
  U  U8  1  0.801228  0.600801  0.101016  1
  U  U9  1  0.598003  0.194734  0.697785  1
  O  O10  1  0.439575  0.532763  0.136494  1
  O  O11  1  0.554795  0.987129  0.840606  1
  O  O12  1  0.266788  0.143323  0.741884  1
  O  O13  1  0.361581  0.594948  0.441403  1
  O  O14  1  0.053043  0.733082  0.333259  1
  O  O15  1  0.445205  0.012871  0.159394  1
  O  O16  1  0.151271  0.183781  0.032509  1
  O  O17  1  0.560425  0.467237  0.863506  1
  O  O18  1  0.855665  0.336430  0.949932  1
  O  O19  1  0.257260  0.607349  0.760910  1
  O  O20  1  0.953958  0.778635  0.649446  1
  O  O21  1  0.350554  0.060638  0.453960  1
  O  O22  1  0.649446  0.939362  0.546040  1
  O  O23  1  0.046042  0.221365  0.350554  1
  O  O24  1  0.742740  0.392651  0.239090  1
  O  O25  1  0.144335  0.663570  0.050068  1
  O  O26  1  0.848729  0.816219  0.967491  1
  O  O27  1  0.946957  0.266918  0.666741  1
  O  O28  1  0.638419  0.405052  0.558597  1
  O  O29  1  0.733212  0.856677  0.258116  1
