# generated using pymatgen
data_Sc10ZnSn6Hg
_symmetry_space_group_name_H-M   'P 1'
_cell_length_a   8.70251700
_cell_length_b   8.70251606
_cell_length_c   6.18572800
_cell_angle_alpha   90.00000000
_cell_angle_beta   90.00000000
_cell_angle_gamma   119.99999978
_symmetry_Int_Tables_number   1
_chemical_formula_structural   Sc10ZnSn6Hg
_chemical_formula_sum   'Sc10 Zn1 Sn6 Hg1'
_cell_volume   405.70575243
_cell_formula_units_Z   1
loop_
 _symmetry_equiv_pos_site_id
 _symmetry_equiv_pos_as_xyz
  1  'x, y, z'
loop_
 _atom_site_type_symbol
 _atom_site_label
 _atom_site_symmetry_multiplicity
 _atom_site_fract_x
 _atom_site_fract_y
 _atom_site_fract_z
 _atom_site_occupancy
  Sc  Sc0  1  0.666667  0.333333  0.000000  1
  Sc  Sc1  1  0.333333  0.666667  0.000000  1
  Sc  Sc2  1  0.333333  0.666667  0.500000  1
  Sc  Sc3  1  0.666667  0.333333  0.500000  1
  Sc  Sc4  1  0.724360  0.724360  0.739421  1
  Sc  Sc5  1  0.275640  0.000000  0.739421  1
  Sc  Sc6  1  0.000000  0.275640  0.739421  1
  Sc  Sc7  1  0.275640  0.275640  0.260579  1
  Sc  Sc8  1  0.724360  0.000000  0.260579  1
  Sc  Sc9  1  0.000000  0.724360  0.260579  1
  Zn  Zn10  1  0.000000  0.000000  0.500000  1
  Sn  Sn11  1  0.381291  0.381291  0.752786  1
  Sn  Sn12  1  0.618709  0.000000  0.752786  1
  Sn  Sn13  1  0.000000  0.618709  0.752786  1
  Sn  Sn14  1  0.618709  0.618709  0.247214  1
  Sn  Sn15  1  0.381291  0.000000  0.247214  1
  Sn  Sn16  1  0.000000  0.381291  0.247214  1
  Hg  Hg17  1  0.000000  0.000000  0.000000  1
