# generated using pymatgen
data_TbYb2Ni19B10
_symmetry_space_group_name_H-M   'P 1'
_cell_length_a   7.85656233
_cell_length_b   7.85656213
_cell_length_c   5.73011862
_cell_angle_alpha   88.86572097
_cell_angle_beta   88.86572240
_cell_angle_gamma   67.31239773
_symmetry_Int_Tables_number   1
_chemical_formula_structural   TbYb2Ni19B10
_chemical_formula_sum   'Tb1 Yb2 Ni19 B10'
_cell_volume   326.23419195
_cell_formula_units_Z   1
loop_
 _symmetry_equiv_pos_site_id
 _symmetry_equiv_pos_as_xyz
  1  'x, y, z'
loop_
 _atom_site_type_symbol
 _atom_site_label
 _atom_site_symmetry_multiplicity
 _atom_site_fract_x
 _atom_site_fract_y
 _atom_site_fract_z
 _atom_site_occupancy
  Tb  Tb0  1  0.624174  0.624174  0.610656  1
  Yb  Yb1  1  0.373676  0.373676  0.390467  1
  Yb  Yb2  1  0.999878  0.999878  0.000035  1
  Ni  Ni3  1  0.622310  0.622310  0.124833  1
  Ni  Ni4  1  0.377622  0.377622  0.875117  1
  Ni  Ni5  1  0.836928  0.836928  0.703003  1
  Ni  Ni6  1  0.164178  0.164178  0.294877  1
  Ni  Ni7  1  0.818673  0.818673  0.268357  1
  Ni  Ni8  1  0.181259  0.181259  0.730208  1
  Ni  Ni9  1  0.000598  0.000598  0.499901  1
  Ni  Ni10  1  0.621988  0.123710  0.076617  1
  Ni  Ni11  1  0.375689  0.878454  0.926147  1
  Ni  Ni12  1  0.878454  0.375689  0.926147  1
  Ni  Ni13  1  0.123710  0.621988  0.076617  1
  Ni  Ni14  1  0.286944  0.771193  0.300108  1
  Ni  Ni15  1  0.713059  0.227112  0.700224  1
  Ni  Ni16  1  0.227112  0.713059  0.700224  1
  Ni  Ni17  1  0.771193  0.286944  0.300108  1
  Ni  Ni18  1  0.482794  0.954695  0.302145  1
  Ni  Ni19  1  0.517112  0.046049  0.698176  1
  Ni  Ni20  1  0.046049  0.517112  0.698176  1
  Ni  Ni21  1  0.954695  0.482794  0.302145  1
  B  B22  1  0.701069  0.064357  0.430355  1
  B  B23  1  0.298913  0.936505  0.568749  1
  B  B24  1  0.936505  0.298913  0.568749  1
  B  B25  1  0.064357  0.701069  0.430355  1
  B  B26  1  0.349748  0.142004  0.024999  1
  B  B27  1  0.650615  0.859115  0.973688  1
  B  B28  1  0.859115  0.650615  0.973688  1
  B  B29  1  0.142004  0.349748  0.024999  1
  B  B30  1  0.616060  0.383519  0.000065  1
  B  B31  1  0.383519  0.616060  0.000065  1
