# generated using pymatgen
data_Ac3Th(CuSn)4
_symmetry_space_group_name_H-M   'P 1'
_cell_length_a   4.61260900
_cell_length_b   4.61260962
_cell_length_c   17.23677500
_cell_angle_alpha   90.00000000
_cell_angle_beta   90.00000000
_cell_angle_gamma   120.00000272
_symmetry_Int_Tables_number   1
_chemical_formula_structural   Ac3Th(CuSn)4
_chemical_formula_sum   'Ac3 Th1 Cu4 Sn4'
_cell_volume   317.59962061
_cell_formula_units_Z   1
loop_
 _symmetry_equiv_pos_site_id
 _symmetry_equiv_pos_as_xyz
  1  'x, y, z'
loop_
 _atom_site_type_symbol
 _atom_site_label
 _atom_site_symmetry_multiplicity
 _atom_site_fract_x
 _atom_site_fract_y
 _atom_site_fract_z
 _atom_site_occupancy
  Ac  Ac0  1  0.000000  0.000000  0.750000  1
  Ac  Ac1  1  0.000000  0.000000  0.493374  1
  Ac  Ac2  1  0.000000  0.000000  0.006626  1
  Th  Th3  1  0.000000  0.000000  0.250000  1
  Cu  Cu4  1  0.666667  0.333333  0.884036  1
  Cu  Cu5  1  0.666667  0.333333  0.615964  1
  Cu  Cu6  1  0.333333  0.666667  0.167971  1
  Cu  Cu7  1  0.333333  0.666667  0.332029  1
  Sn  Sn8  1  0.666667  0.333333  0.129094  1
  Sn  Sn9  1  0.666667  0.333333  0.370906  1
  Sn  Sn10  1  0.333333  0.666667  0.878810  1
  Sn  Sn11  1  0.333333  0.666667  0.621190  1
