# generated using pymatgen
data_Dy16Cd4CuOs3
_symmetry_space_group_name_H-M   'P 1'
_cell_length_a   9.53754404
_cell_length_b   9.75412947
_cell_length_c   9.75412900
_cell_angle_alpha   59.99999819
_cell_angle_beta   59.24591294
_cell_angle_gamma   59.24590588
_symmetry_Int_Tables_number   1
_chemical_formula_structural   Dy16Cd4CuOs3
_chemical_formula_sum   'Dy16 Cd4 Cu1 Os3'
_cell_volume   634.23943224
_cell_formula_units_Z   1
loop_
 _symmetry_equiv_pos_site_id
 _symmetry_equiv_pos_as_xyz
  1  'x, y, z'
loop_
 _atom_site_type_symbol
 _atom_site_label
 _atom_site_symmetry_multiplicity
 _atom_site_fract_x
 _atom_site_fract_y
 _atom_site_fract_z
 _atom_site_occupancy
  Dy  Dy0  1  0.349788  0.351308  0.351308  1
  Dy  Dy1  1  0.349788  0.351308  0.947596  1
  Dy  Dy2  1  0.349788  0.947596  0.351308  1
  Dy  Dy3  1  0.972264  0.342579  0.342579  1
  Dy  Dy4  1  0.815853  0.189945  0.189945  1
  Dy  Dy5  1  0.184153  0.811352  0.811352  1
  Dy  Dy6  1  0.184153  0.811352  0.193144  1
  Dy  Dy7  1  0.815853  0.189945  0.804256  1
  Dy  Dy8  1  0.184153  0.193144  0.811352  1
  Dy  Dy9  1  0.815853  0.804256  0.189945  1
  Dy  Dy10  1  0.932572  0.564443  0.564443  1
  Dy  Dy11  1  0.549179  0.940457  0.940457  1
  Dy  Dy12  1  0.549179  0.940457  0.569907  1
  Dy  Dy13  1  0.932572  0.564442  0.938542  1
  Dy  Dy14  1  0.549179  0.569907  0.940457  1
  Dy  Dy15  1  0.932572  0.938542  0.564442  1
  Cd  Cd16  1  0.581601  0.578815  0.578815  1
  Cd  Cd17  1  0.581601  0.578815  0.260770  1
  Cd  Cd18  1  0.581601  0.260770  0.578815  1
  Cd  Cd19  1  0.254339  0.581887  0.581887  1
  Cu  Cu20  1  0.572309  0.142564  0.142564  1
  Os  Os21  1  0.153885  0.135329  0.135329  1
  Os  Os22  1  0.153885  0.135329  0.575457  1
  Os  Os23  1  0.153885  0.575457  0.135329  1
