# generated using pymatgen
data_Yb3PrCdRu
_symmetry_space_group_name_H-M   'P 1'
_cell_length_a   9.92267334
_cell_length_b   9.92267360
_cell_length_c   9.92267400
_cell_angle_alpha   59.99999868
_cell_angle_beta   59.99999781
_cell_angle_gamma   59.99999941
_symmetry_Int_Tables_number   1
_chemical_formula_structural   Yb3PrCdRu
_chemical_formula_sum   'Yb12 Pr4 Cd4 Ru4'
_cell_volume   690.82987834
_cell_formula_units_Z   4
loop_
 _symmetry_equiv_pos_site_id
 _symmetry_equiv_pos_as_xyz
  1  'x, y, z'
loop_
 _atom_site_type_symbol
 _atom_site_label
 _atom_site_symmetry_multiplicity
 _atom_site_fract_x
 _atom_site_fract_y
 _atom_site_fract_z
 _atom_site_occupancy
  Yb  Yb0  1  0.949566  0.550434  0.550434  1
  Yb  Yb1  1  0.550434  0.949566  0.949566  1
  Yb  Yb2  1  0.550434  0.949566  0.550434  1
  Yb  Yb3  1  0.949566  0.550434  0.949566  1
  Yb  Yb4  1  0.550434  0.550434  0.949566  1
  Yb  Yb5  1  0.949566  0.949566  0.550434  1
  Yb  Yb6  1  0.808124  0.191876  0.191876  1
  Yb  Yb7  1  0.191876  0.808124  0.808124  1
  Yb  Yb8  1  0.191876  0.808124  0.191876  1
  Yb  Yb9  1  0.808124  0.191876  0.808124  1
  Yb  Yb10  1  0.191876  0.191876  0.808124  1
  Yb  Yb11  1  0.808124  0.808124  0.191876  1
  Pr  Pr12  1  0.343094  0.343094  0.343094  1
  Pr  Pr13  1  0.343094  0.343094  0.970717  1
  Pr  Pr14  1  0.343094  0.970717  0.343094  1
  Pr  Pr15  1  0.970717  0.343094  0.343094  1
  Cd  Cd16  1  0.580342  0.580342  0.580342  1
  Cd  Cd17  1  0.580342  0.580342  0.258973  1
  Cd  Cd18  1  0.580342  0.258973  0.580342  1
  Cd  Cd19  1  0.258973  0.580342  0.580342  1
  Ru  Ru20  1  0.136467  0.136467  0.136467  1
  Ru  Ru21  1  0.136467  0.136467  0.590597  1
  Ru  Ru22  1  0.136467  0.590597  0.136467  1
  Ru  Ru23  1  0.590597  0.136467  0.136467  1
