# generated using pymatgen
data_Dy5In4PdPt
_symmetry_space_group_name_H-M   'P 1'
_cell_length_a   3.63760800
_cell_length_b   8.17595570
_cell_length_c   18.30641500
_cell_angle_alpha   90.10097600
_cell_angle_beta   90.00000000
_cell_angle_gamma   90.00000000
_symmetry_Int_Tables_number   1
_chemical_formula_structural   Dy5In4PdPt
_chemical_formula_sum   'Dy10 In8 Pd2 Pt2'
_cell_volume   544.44881237
_cell_formula_units_Z   2
loop_
 _symmetry_equiv_pos_site_id
 _symmetry_equiv_pos_as_xyz
  1  'x, y, z'
loop_
 _atom_site_type_symbol
 _atom_site_label
 _atom_site_symmetry_multiplicity
 _atom_site_fract_x
 _atom_site_fract_y
 _atom_site_fract_z
 _atom_site_occupancy
  Dy  Dy0  1  0.000000  0.118403  0.416043  1
  Dy  Dy1  1  0.000000  0.881597  0.583957  1
  Dy  Dy2  1  0.000000  0.382466  0.915380  1
  Dy  Dy3  1  0.000000  0.617534  0.084620  1
  Dy  Dy4  1  0.000000  0.246154  0.219052  1
  Dy  Dy5  1  0.000000  0.753846  0.780948  1
  Dy  Dy6  1  0.000000  0.261774  0.720152  1
  Dy  Dy7  1  0.000000  0.738226  0.279848  1
  Dy  Dy8  1  0.000000  0.000000  0.000000  1
  Dy  Dy9  1  0.000000  0.500000  0.500000  1
  In  In10  1  0.500000  0.421289  0.351114  1
  In  In11  1  0.500000  0.578711  0.648886  1
  In  In12  1  0.500000  0.075665  0.850070  1
  In  In13  1  0.500000  0.924335  0.149930  1
  In  In14  1  0.500000  0.292142  0.066674  1
  In  In15  1  0.500000  0.707858  0.933326  1
  In  In16  1  0.500000  0.206669  0.567518  1
  In  In17  1  0.500000  0.793331  0.432482  1
  Pd  Pd18  1  0.500000  0.024449  0.303663  1
  Pd  Pd19  1  0.500000  0.975551  0.696337  1
  Pt  Pt20  1  0.500000  0.475174  0.803613  1
  Pt  Pt21  1  0.500000  0.524826  0.196387  1
