# generated using pymatgen
data_Lu12Ga2Ni3Rh
_symmetry_space_group_name_H-M   'P 1'
_cell_length_a   8.14499720
_cell_length_b   8.14499669
_cell_length_c   8.14499628
_cell_angle_alpha   112.45410476
_cell_angle_beta   109.83742195
_cell_angle_gamma   106.18289055
_symmetry_Int_Tables_number   1
_chemical_formula_structural   Lu12Ga2Ni3Rh
_chemical_formula_sum   'Lu12 Ga2 Ni3 Rh1'
_cell_volume   414.70905158
_cell_formula_units_Z   1
loop_
 _symmetry_equiv_pos_site_id
 _symmetry_equiv_pos_as_xyz
  1  'x, y, z'
loop_
 _atom_site_type_symbol
 _atom_site_label
 _atom_site_symmetry_multiplicity
 _atom_site_fract_x
 _atom_site_fract_y
 _atom_site_fract_z
 _atom_site_occupancy
  Lu  Lu0  1  0.439930  0.246152  0.193777  1
  Lu  Lu1  1  0.568929  0.764272  0.804656  1
  Lu  Lu2  1  0.040384  0.235728  0.804656  1
  Lu  Lu3  1  0.947625  0.753848  0.193777  1
  Lu  Lu4  1  0.180891  0.283861  0.464752  1
  Lu  Lu5  1  0.822064  0.720250  0.542314  1
  Lu  Lu6  1  0.180891  0.716139  0.897029  1
  Lu  Lu7  1  0.822064  0.279750  0.101813  1
  Lu  Lu8  1  0.326365  0.633373  0.307357  1
  Lu  Lu9  1  0.673985  0.366627  0.692993  1
  Lu  Lu10  1  0.326365  0.019008  0.692993  1
  Lu  Lu11  1  0.673985  0.980992  0.307357  1
  Ga  Ga12  1  0.497845  0.500000  0.997845  1
  Ga  Ga13  1  0.008169  0.000000  0.008169  1
  Ni  Ni14  1  0.655253  0.000000  0.655253  1
  Ni  Ni15  1  0.123415  0.622793  0.500623  1
  Ni  Ni16  1  0.877830  0.377207  0.500623  1
  Rh  Rh17  1  0.334011  0.000000  0.334011  1
