# generated using pymatgen
data_MgZr6Sc(Co4P3)4
_symmetry_space_group_name_H-M   'P 1'
_cell_length_a   12.02217363
_cell_length_b   12.06975855
_cell_length_c   3.65038600
_cell_angle_alpha   90.00000000
_cell_angle_beta   90.00000000
_cell_angle_gamma   119.93247249
_symmetry_Int_Tables_number   1
_chemical_formula_structural   MgZr6Sc(Co4P3)4
_chemical_formula_sum   'Mg1 Zr6 Sc1 Co16 P12'
_cell_volume   459.03533219
_cell_formula_units_Z   1
loop_
 _symmetry_equiv_pos_site_id
 _symmetry_equiv_pos_as_xyz
  1  'x, y, z'
loop_
 _atom_site_type_symbol
 _atom_site_label
 _atom_site_symmetry_multiplicity
 _atom_site_fract_x
 _atom_site_fract_y
 _atom_site_fract_z
 _atom_site_occupancy
  Mg  Mg0  1  0.555733  0.999495  0.000000  1
  Zr  Zr1  1  0.000882  0.555740  0.000000  1
  Zr  Zr2  1  0.667042  0.333464  0.000000  1
  Zr  Zr3  1  0.333512  0.665076  0.000000  1
  Zr  Zr4  1  0.820539  0.820735  0.500000  1
  Zr  Zr5  1  0.181427  0.000926  0.500000  1
  Zr  Zr6  1  0.000592  0.176950  0.500000  1
  Sc  Sc7  1  0.443618  0.442324  0.000000  1
  Co  Co8  1  0.194542  0.372618  0.000000  1
  Co  Co9  1  0.178896  0.807965  0.000000  1
  Co  Co10  1  0.821538  0.629184  0.000000  1
  Co  Co11  1  0.801678  0.176579  0.000000  1
  Co  Co12  1  0.372367  0.193641  0.000000  1
  Co  Co13  1  0.126895  0.480086  0.500000  1
  Co  Co14  1  0.356344  0.873480  0.500000  1
  Co  Co15  1  0.521549  0.647571  0.500000  1
  Co  Co16  1  0.645177  0.519110  0.500000  1
  Co  Co17  1  0.873713  0.352017  0.500000  1
  Co  Co18  1  0.481649  0.126972  0.500000  1
  Co  Co19  1  0.999817  0.000439  0.000000  1
  Co  Co20  1  0.718101  0.000327  0.500000  1
  Co  Co21  1  0.999402  0.721997  0.500000  1
  Co  Co22  1  0.625572  0.823060  0.000000  1
  Co  Co23  1  0.278994  0.279870  0.500000  1
  P  P24  1  0.649289  0.652343  0.000000  1
  P  P25  1  0.354359  0.001105  0.000000  1
  P  P26  1  0.997925  0.343284  0.000000  1
  P  P27  1  0.481892  0.309556  0.500000  1
  P  P28  1  0.686941  0.170549  0.500000  1
  P  P29  1  0.825734  0.517377  0.500000  1
  P  P30  1  0.517333  0.829171  0.500000  1
  P  P31  1  0.175177  0.693037  0.500000  1
  P  P32  1  0.822855  0.999514  0.000000  1
  P  P33  1  0.000601  0.825926  0.000000  1
  P  P34  1  0.311811  0.483078  0.500000  1
  P  P35  1  0.176506  0.175437  0.000000  1
