# generated using pymatgen
data_Lu5Co(P2Ru3)6
_symmetry_space_group_name_H-M   'P 1'
_cell_length_a   12.44524500
_cell_length_b   12.44524497
_cell_length_c   3.95426700
_cell_angle_alpha   90.00000000
_cell_angle_beta   90.00000000
_cell_angle_gamma   120.00000274
_symmetry_Int_Tables_number   1
_chemical_formula_structural   Lu5Co(P2Ru3)6
_chemical_formula_sum   'Lu5 Co1 P12 Ru18'
_cell_volume   530.39999371
_cell_formula_units_Z   1
loop_
 _symmetry_equiv_pos_site_id
 _symmetry_equiv_pos_as_xyz
  1  'x, y, z'
loop_
 _atom_site_type_symbol
 _atom_site_label
 _atom_site_symmetry_multiplicity
 _atom_site_fract_x
 _atom_site_fract_y
 _atom_site_fract_z
 _atom_site_occupancy
  Lu  Lu0  1  0.666667  0.333333  0.000000  1
  Lu  Lu1  1  0.333333  0.666667  0.000000  1
  Lu  Lu2  1  0.182337  0.182337  0.500000  1
  Lu  Lu3  1  0.817663  0.000000  0.500000  1
  Lu  Lu4  1  0.000000  0.817663  0.500000  1
  Co  Co5  1  0.000000  0.000000  0.000000  1
  P  P6  1  0.372061  0.372061  0.000000  1
  P  P7  1  0.627939  0.000000  0.000000  1
  P  P8  1  0.000000  0.627939  0.000000  1
  P  P9  1  0.830377  0.307149  0.500000  1
  P  P10  1  0.692851  0.523228  0.500000  1
  P  P11  1  0.476772  0.169623  0.500000  1
  P  P12  1  0.307149  0.830377  0.500000  1
  P  P13  1  0.523228  0.692851  0.500000  1
  P  P14  1  0.169623  0.476772  0.500000  1
  P  P15  1  0.824361  0.824361  0.000000  1
  P  P16  1  0.175639  0.000000  0.000000  1
  P  P17  1  0.000000  0.175639  0.000000  1
  Ru  Ru18  1  0.815665  0.189909  0.000000  1
  Ru  Ru19  1  0.810091  0.625755  0.000000  1
  Ru  Ru20  1  0.374245  0.184335  0.000000  1
  Ru  Ru21  1  0.189909  0.815665  0.000000  1
  Ru  Ru22  1  0.625755  0.810091  0.000000  1
  Ru  Ru23  1  0.184335  0.374245  0.000000  1
  Ru  Ru24  1  0.556019  0.556019  0.000000  1
  Ru  Ru25  1  0.443981  0.000000  0.000000  1
  Ru  Ru26  1  0.000000  0.443981  0.000000  1
  Ru  Ru27  1  0.635147  0.127173  0.500000  1
  Ru  Ru28  1  0.872827  0.507975  0.500000  1
  Ru  Ru29  1  0.492025  0.364853  0.500000  1
  Ru  Ru30  1  0.127173  0.635147  0.500000  1
  Ru  Ru31  1  0.507975  0.872827  0.500000  1
  Ru  Ru32  1  0.364853  0.492025  0.500000  1
  Ru  Ru33  1  0.722051  0.722051  0.500000  1
  Ru  Ru34  1  0.277949  0.000000  0.500000  1
  Ru  Ru35  1  0.000000  0.277949  0.500000  1
