# generated using pymatgen
data_Ca8P5Cl
_symmetry_space_group_name_H-M   'P 1'
_cell_length_a   7.59884639
_cell_length_b   7.59884593
_cell_length_c   7.59884612
_cell_angle_alpha   109.44062412
_cell_angle_beta   109.44062077
_cell_angle_gamma   109.53243421
_symmetry_Int_Tables_number   1
_chemical_formula_structural   Ca8P5Cl
_chemical_formula_sum   'Ca8 P5 Cl1'
_cell_volume   337.76970308
_cell_formula_units_Z   1
loop_
 _symmetry_equiv_pos_site_id
 _symmetry_equiv_pos_as_xyz
  1  'x, y, z'
loop_
 _atom_site_type_symbol
 _atom_site_label
 _atom_site_symmetry_multiplicity
 _atom_site_fract_x
 _atom_site_fract_y
 _atom_site_fract_z
 _atom_site_occupancy
  Ca  Ca0  1  0.736729  0.361578  0.240520  1
  Ca  Ca1  1  0.981677  0.737379  0.100282  1
  Ca  Ca2  1  0.637098  0.881395  0.899718  1
  Ca  Ca3  1  0.121057  0.496209  0.759480  1
  Ca  Ca4  1  0.638422  0.878943  0.375152  1
  Ca  Ca5  1  0.503791  0.263271  0.624848  1
  Ca  Ca6  1  0.262621  0.362902  0.244297  1
  Ca  Ca7  1  0.118605  0.018323  0.755703  1
  P  P8  1  0.746091  0.632331  0.618354  1
  P  P9  1  0.367669  0.986023  0.113760  1
  P  P10  1  0.013977  0.127737  0.381646  1
  P  P11  1  0.500000  0.500000  0.000000  1
  P  P12  1  0.872263  0.253909  0.886240  1
  Cl  Cl13  1  0.250000  0.750000  0.500000  1
