# generated using pymatgen
data_Er10In8Ru3Rh
_symmetry_space_group_name_H-M   'P 1'
_cell_length_a   3.58930300
_cell_length_b   7.96203280
_cell_length_c   18.21149417
_cell_angle_alpha   90.11040276
_cell_angle_beta   90.00000000
_cell_angle_gamma   90.00000000
_symmetry_Int_Tables_number   1
_chemical_formula_structural   Er10In8Ru3Rh
_chemical_formula_sum   'Er10 In8 Ru3 Rh1'
_cell_volume   520.44981322
_cell_formula_units_Z   1
loop_
 _symmetry_equiv_pos_site_id
 _symmetry_equiv_pos_as_xyz
  1  'x, y, z'
loop_
 _atom_site_type_symbol
 _atom_site_label
 _atom_site_symmetry_multiplicity
 _atom_site_fract_x
 _atom_site_fract_y
 _atom_site_fract_z
 _atom_site_occupancy
  Er  Er0  1  0.000000  0.115461  0.411910  1
  Er  Er1  1  0.000000  0.883655  0.588800  1
  Er  Er2  1  0.000000  0.384746  0.911531  1
  Er  Er3  1  0.000000  0.616279  0.088576  1
  Er  Er4  1  0.000000  0.248790  0.220965  1
  Er  Er5  1  0.000000  0.754817  0.778394  1
  Er  Er6  1  0.000000  0.254714  0.721255  1
  Er  Er7  1  0.000000  0.741328  0.277952  1
  Er  Er8  1  0.000000  0.000383  0.000407  1
  Er  Er9  1  0.000000  0.499869  0.499370  1
  In  In10  1  0.500000  0.429661  0.350429  1
  In  In11  1  0.500000  0.569521  0.649235  1
  In  In12  1  0.500000  0.070633  0.850736  1
  In  In13  1  0.500000  0.929601  0.149392  1
  In  In14  1  0.500000  0.292499  0.068273  1
  In  In15  1  0.500000  0.708322  0.931835  1
  In  In16  1  0.500000  0.206495  0.567386  1
  In  In17  1  0.500000  0.791714  0.432366  1
  Ru  Ru18  1  0.500000  0.979242  0.696835  1
  Ru  Ru19  1  0.500000  0.479367  0.803540  1
  Ru  Ru20  1  0.500000  0.521377  0.196666  1
  Rh  Rh21  1  0.500000  0.021528  0.304148  1
