# generated using pymatgen
data_Ba2Tl3P6HO22
_symmetry_space_group_name_H-M   'P 1'
_cell_length_a   5.13796007
_cell_length_b   8.45636112
_cell_length_c   11.74188717
_cell_angle_alpha   89.71736084
_cell_angle_beta   88.69655778
_cell_angle_gamma   87.33481347
_symmetry_Int_Tables_number   1
_chemical_formula_structural   Ba2Tl3P6HO22
_chemical_formula_sum   'Ba2 Tl3 P6 H1 O22'
_cell_volume   509.47920583
_cell_formula_units_Z   1
loop_
 _symmetry_equiv_pos_site_id
 _symmetry_equiv_pos_as_xyz
  1  'x, y, z'
loop_
 _atom_site_type_symbol
 _atom_site_label
 _atom_site_symmetry_multiplicity
 _atom_site_fract_x
 _atom_site_fract_y
 _atom_site_fract_z
 _atom_site_occupancy
  Ba  Ba0  1  0.720608  0.006784  0.171971  1
  Ba  Ba1  1  0.279392  0.993216  0.828029  1
  Tl  Tl2  1  0.000000  0.000000  0.500000  1
  Tl  Tl3  1  0.746500  0.490610  0.206271  1
  Tl  Tl4  1  0.253500  0.509390  0.793729  1
  P  P5  1  0.197051  0.714743  0.050591  1
  P  P6  1  0.802949  0.285257  0.949409  1
  P  P7  1  0.250613  0.292481  0.343094  1
  P  P8  1  0.749387  0.707519  0.656906  1
  P  P9  1  0.523130  0.761338  0.424155  1
  P  P10  1  0.476870  0.238662  0.575845  1
  H  H11  1  0.500000  0.500000  0.000000  1
  O  O12  1  0.945908  0.700029  0.125450  1
  O  O13  1  0.054092  0.299971  0.874550  1
  O  O14  1  0.402085  0.575346  0.077961  1
  O  O15  1  0.597915  0.424654  0.922039  1
  O  O16  1  0.296688  0.881572  0.069628  1
  O  O17  1  0.703312  0.118428  0.930372  1
  O  O18  1  0.135671  0.700982  0.920902  1
  O  O19  1  0.864329  0.299018  0.079098  1
  O  O20  1  0.127438  0.129496  0.334181  1
  O  O21  1  0.872562  0.870504  0.665819  1
  O  O22  1  0.073256  0.435504  0.316366  1
  O  O23  1  0.926744  0.564496  0.683634  1
  O  O24  1  0.680945  0.674105  0.525296  1
  O  O25  1  0.319055  0.325895  0.474704  1
  O  O26  1  0.506746  0.283885  0.271034  1
  O  O27  1  0.493254  0.716115  0.728966  1
  O  O28  1  0.663797  0.915298  0.395333  1
  O  O29  1  0.336203  0.084702  0.604667  1
  O  O30  1  0.240092  0.787015  0.464776  1
  O  O31  1  0.759908  0.212985  0.535224  1
  O  O32  1  0.531598  0.653217  0.321033  1
  O  O33  1  0.468402  0.346783  0.678967  1
