# generated using pymatgen
data_La4Pr2IrBr10
_symmetry_space_group_name_H-M   'P 1'
_cell_length_a   7.81670982
_cell_length_b   9.75648248
_cell_length_c   9.64876501
_cell_angle_alpha   108.37044202
_cell_angle_beta   96.52357759
_cell_angle_gamma   106.35394271
_symmetry_Int_Tables_number   1
_chemical_formula_structural   La4Pr2IrBr10
_chemical_formula_sum   'La4 Pr2 Ir1 Br10'
_cell_volume   653.34204055
_cell_formula_units_Z   1
loop_
 _symmetry_equiv_pos_site_id
 _symmetry_equiv_pos_as_xyz
  1  'x, y, z'
loop_
 _atom_site_type_symbol
 _atom_site_label
 _atom_site_symmetry_multiplicity
 _atom_site_fract_x
 _atom_site_fract_y
 _atom_site_fract_z
 _atom_site_occupancy
  La  La0  1  0.633383  0.861575  0.812888  1
  La  La1  1  0.366617  0.138425  0.187112  1
  La  La2  1  0.129336  0.050336  0.760124  1
  La  La3  1  0.870664  0.949664  0.239876  1
  Pr  Pr4  1  0.971489  0.305431  0.100577  1
  Pr  Pr5  1  0.028511  0.694569  0.899423  1
  Ir  Ir6  1  0.000000  0.000000  0.000000  1
  Br  Br7  1  0.552001  0.176264  0.920580  1
  Br  Br8  1  0.447999  0.823736  0.079420  1
  Br  Br9  1  0.754129  0.918198  0.543426  1
  Br  Br10  1  0.245871  0.081802  0.456574  1
  Br  Br11  1  0.085037  0.367780  0.833216  1
  Br  Br12  1  0.914963  0.632220  0.166784  1
  Br  Br13  1  0.209940  0.745726  0.652099  1
  Br  Br14  1  0.790060  0.254274  0.347901  1
  Br  Br15  1  0.648364  0.547647  0.728572  1
  Br  Br16  1  0.351636  0.452353  0.271428  1
