# generated using pymatgen
data_Li4PrSb2
_symmetry_space_group_name_H-M   'P 1'
_cell_length_a   8.69313338
_cell_length_b   8.69313401
_cell_length_c   8.69313400
_cell_angle_alpha   30.12629016
_cell_angle_beta   30.12629609
_cell_angle_gamma   30.12629157
_symmetry_Int_Tables_number   1
_chemical_formula_structural   Li4PrSb2
_chemical_formula_sum   'Li4 Pr1 Sb2'
_cell_volume   146.61726158
_cell_formula_units_Z   1
loop_
 _symmetry_equiv_pos_site_id
 _symmetry_equiv_pos_as_xyz
  1  'x, y, z'
loop_
 _atom_site_type_symbol
 _atom_site_label
 _atom_site_symmetry_multiplicity
 _atom_site_fract_x
 _atom_site_fract_y
 _atom_site_fract_z
 _atom_site_occupancy
  Li  Li0  1  0.138838  0.138838  0.138838  1
  Li  Li1  1  0.429916  0.429916  0.429916  1
  Li  Li2  1  0.570084  0.570084  0.570084  1
  Li  Li3  1  0.861162  0.861162  0.861162  1
  Pr  Pr4  1  0.000000  0.000000  0.000000  1
  Sb  Sb5  1  0.251896  0.251896  0.251896  1
  Sb  Sb6  1  0.748104  0.748104  0.748104  1
