# generated using pymatgen
data_YHo11Os3Rh
_symmetry_space_group_name_H-M   'P 1'
_cell_length_a   6.34356886
_cell_length_b   7.33561182
_cell_length_c   9.04093900
_cell_angle_alpha   90.00000000
_cell_angle_beta   90.00000000
_cell_angle_gamma   90.10014025
_symmetry_Int_Tables_number   1
_chemical_formula_structural   YHo11Os3Rh
_chemical_formula_sum   'Y1 Ho11 Os3 Rh1'
_cell_volume   420.71004011
_cell_formula_units_Z   1
loop_
 _symmetry_equiv_pos_site_id
 _symmetry_equiv_pos_as_xyz
  1  'x, y, z'
loop_
 _atom_site_type_symbol
 _atom_site_label
 _atom_site_symmetry_multiplicity
 _atom_site_fract_x
 _atom_site_fract_y
 _atom_site_fract_z
 _atom_site_occupancy
  Y  Y0  1  0.870698  0.537422  0.250000  1
  Ho  Ho1  1  0.334335  0.673323  0.061201  1
  Ho  Ho2  1  0.169842  0.177409  0.438656  1
  Ho  Ho3  1  0.669439  0.323881  0.563817  1
  Ho  Ho4  1  0.826847  0.824161  0.933408  1
  Ho  Ho5  1  0.669439  0.323881  0.936183  1
  Ho  Ho6  1  0.826847  0.824161  0.566592  1
  Ho  Ho7  1  0.334335  0.673323  0.438799  1
  Ho  Ho8  1  0.169842  0.177409  0.061344  1
  Ho  Ho9  1  0.630159  0.040314  0.250000  1
  Ho  Ho10  1  0.129217  0.461556  0.750000  1
  Ho  Ho11  1  0.369125  0.961510  0.750000  1
  Os  Os12  1  0.458276  0.382782  0.250000  1
  Os  Os13  1  0.962337  0.115495  0.750000  1
  Os  Os14  1  0.537417  0.616852  0.750000  1
  Rh  Rh15  1  0.041845  0.886523  0.250000  1
