# generated using pymatgen
data_Tm4Ga4Ir3Rh
_symmetry_space_group_name_H-M   'P 1'
_cell_length_a   4.28966400
_cell_length_b   6.75664420
_cell_length_c   7.76659222
_cell_angle_alpha   89.96739727
_cell_angle_beta   90.00000000
_cell_angle_gamma   90.00000000
_symmetry_Int_Tables_number   1
_chemical_formula_structural   Tm4Ga4Ir3Rh
_chemical_formula_sum   'Tm4 Ga4 Ir3 Rh1'
_cell_volume   225.10480186
_cell_formula_units_Z   1
loop_
 _symmetry_equiv_pos_site_id
 _symmetry_equiv_pos_as_xyz
  1  'x, y, z'
loop_
 _atom_site_type_symbol
 _atom_site_label
 _atom_site_symmetry_multiplicity
 _atom_site_fract_x
 _atom_site_fract_y
 _atom_site_fract_z
 _atom_site_occupancy
  Tm  Tm0  1  0.250000  0.974280  0.312450  1
  Tm  Tm1  1  0.250000  0.475938  0.188776  1
  Tm  Tm2  1  0.750000  0.023906  0.686522  1
  Tm  Tm3  1  0.750000  0.527609  0.812534  1
  Ga  Ga4  1  0.250000  0.344841  0.568033  1
  Ga  Ga5  1  0.250000  0.846829  0.931502  1
  Ga  Ga6  1  0.750000  0.653482  0.431364  1
  Ga  Ga7  1  0.750000  0.154587  0.067088  1
  Ir  Ir8  1  0.250000  0.731950  0.613163  1
  Ir  Ir9  1  0.750000  0.766832  0.112021  1
  Ir  Ir10  1  0.750000  0.265636  0.387404  1
  Rh  Rh11  1  0.250000  0.234111  0.889144  1
