# generated using pymatgen
data_Dy6ThNi16
_symmetry_space_group_name_H-M   'P 1'
_cell_length_a   8.71365557
_cell_length_b   8.71365577
_cell_length_c   8.73673983
_cell_angle_alpha   131.71496139
_cell_angle_beta   131.71496443
_cell_angle_gamma   70.69018758
_symmetry_Int_Tables_number   1
_chemical_formula_structural   Dy6ThNi16
_chemical_formula_sum   'Dy6 Th1 Ni16'
_cell_volume   362.07155461
_cell_formula_units_Z   1
loop_
 _symmetry_equiv_pos_site_id
 _symmetry_equiv_pos_as_xyz
  1  'x, y, z'
loop_
 _atom_site_type_symbol
 _atom_site_label
 _atom_site_symmetry_multiplicity
 _atom_site_fract_x
 _atom_site_fract_y
 _atom_site_fract_z
 _atom_site_occupancy
  Dy  Dy0  1  0.696734  0.696734  0.598385  1
  Dy  Dy1  1  0.903535  0.301523  0.998166  1
  Dy  Dy2  1  0.746854  0.251742  0.501289  1
  Dy  Dy3  1  0.503480  0.503480  0.004879  1
  Dy  Dy4  1  0.301523  0.903535  0.998166  1
  Dy  Dy5  1  0.251742  0.746854  0.501289  1
  Th  Th6  1  0.093861  0.093861  0.389969  1
  Ni  Ni7  1  0.433053  0.192659  0.000817  1
  Ni  Ni8  1  0.681532  0.934056  0.482994  1
  Ni  Ni9  1  0.934056  0.681532  0.482994  1
  Ni  Ni10  1  0.192659  0.433053  0.000817  1
  Ni  Ni11  1  0.319287  0.800944  0.252840  1
  Ni  Ni12  1  0.940593  0.665006  0.000233  1
  Ni  Ni13  1  0.806578  0.806578  0.240089  1
  Ni  Ni14  1  0.066905  0.550182  0.750091  1
  Ni  Ni15  1  0.059470  0.059470  0.722798  1
  Ni  Ni16  1  0.665006  0.940593  0.000233  1
  Ni  Ni17  1  0.566984  0.566984  0.759200  1
  Ni  Ni18  1  0.800944  0.319287  0.252840  1
  Ni  Ni19  1  0.550182  0.066905  0.750091  1
  Ni  Ni20  1  0.199456  0.451050  0.518420  1
  Ni  Ni21  1  0.334515  0.334515  0.274982  1
  Ni  Ni22  1  0.451050  0.199456  0.518420  1
