# generated using pymatgen
data_Nd2Lu8Bi5Sb
_symmetry_space_group_name_H-M   'P 1'
_cell_length_a   8.23990700
_cell_length_b   9.42799100
_cell_length_c   12.03560700
_cell_angle_alpha   90.00000000
_cell_angle_beta   90.00000000
_cell_angle_gamma   90.00000000
_symmetry_Int_Tables_number   1
_chemical_formula_structural   Nd2Lu8Bi5Sb
_chemical_formula_sum   'Nd4 Lu16 Bi10 Sb2'
_cell_volume   934.99538562
_cell_formula_units_Z   2
loop_
 _symmetry_equiv_pos_site_id
 _symmetry_equiv_pos_as_xyz
  1  'x, y, z'
loop_
 _atom_site_type_symbol
 _atom_site_label
 _atom_site_symmetry_multiplicity
 _atom_site_fract_x
 _atom_site_fract_y
 _atom_site_fract_z
 _atom_site_occupancy
  Nd  Nd0  1  0.330277  0.750000  0.279309  1
  Nd  Nd1  1  0.169723  0.750000  0.779309  1
  Nd  Nd2  1  0.669552  0.250000  0.721973  1
  Nd  Nd3  1  0.830448  0.250000  0.221973  1
  Lu  Lu4  1  0.684796  0.930964  0.438175  1
  Lu  Lu5  1  0.815204  0.569036  0.938175  1
  Lu  Lu6  1  0.313378  0.437540  0.562552  1
  Lu  Lu7  1  0.186622  0.062460  0.062552  1
  Lu  Lu8  1  0.313378  0.062460  0.562552  1
  Lu  Lu9  1  0.186622  0.437540  0.062552  1
  Lu  Lu10  1  0.684796  0.569036  0.438175  1
  Lu  Lu11  1  0.815204  0.930964  0.938175  1
  Lu  Lu12  1  0.024084  0.750000  0.497257  1
  Lu  Lu13  1  0.475916  0.750000  0.997257  1
  Lu  Lu14  1  0.980695  0.250000  0.503776  1
  Lu  Lu15  1  0.519305  0.250000  0.003776  1
  Lu  Lu16  1  0.833594  0.750000  0.210520  1
  Lu  Lu17  1  0.666406  0.750000  0.710520  1
  Lu  Lu18  1  0.170869  0.250000  0.786809  1
  Lu  Lu19  1  0.329131  0.250000  0.286809  1
  Bi  Bi20  1  0.900464  0.250000  0.960196  1
  Bi  Bi21  1  0.599536  0.250000  0.460196  1
  Bi  Bi22  1  0.563794  0.993833  0.171503  1
  Bi  Bi23  1  0.936206  0.506167  0.671504  1
  Bi  Bi24  1  0.436693  0.494173  0.828699  1
  Bi  Bi25  1  0.063307  0.005827  0.328700  1
  Bi  Bi26  1  0.436693  0.005827  0.828699  1
  Bi  Bi27  1  0.063307  0.494173  0.328700  1
  Bi  Bi28  1  0.563794  0.506167  0.171503  1
  Bi  Bi29  1  0.936206  0.993833  0.671504  1
  Sb  Sb30  1  0.099291  0.750000  0.038302  1
  Sb  Sb31  1  0.400709  0.750000  0.538302  1
