# generated using pymatgen
data_Sm8Ho12Sn15Sb
_symmetry_space_group_name_H-M   'P 1'
_cell_length_a   8.09342974
_cell_length_b   8.21876586
_cell_length_c   15.49801834
_cell_angle_alpha   90.03016030
_cell_angle_beta   90.26253248
_cell_angle_gamma   90.04267608
_symmetry_Int_Tables_number   1
_chemical_formula_structural   Sm8Ho12Sn15Sb
_chemical_formula_sum   'Sm8 Ho12 Sn15 Sb1'
_cell_volume   1030.88599316
_cell_formula_units_Z   1
loop_
 _symmetry_equiv_pos_site_id
 _symmetry_equiv_pos_as_xyz
  1  'x, y, z'
loop_
 _atom_site_type_symbol
 _atom_site_label
 _atom_site_symmetry_multiplicity
 _atom_site_fract_x
 _atom_site_fract_y
 _atom_site_fract_z
 _atom_site_occupancy
  Sm  Sm0  1  0.520133  0.322033  0.901940  1
  Sm  Sm1  1  0.018268  0.179051  0.597460  1
  Sm  Sm2  1  0.481679  0.678735  0.402241  1
  Sm  Sm3  1  0.978295  0.821069  0.098468  1
  Sm  Sm4  1  0.480918  0.678198  0.097685  1
  Sm  Sm5  1  0.981601  0.820950  0.402258  1
  Sm  Sm6  1  0.518468  0.320896  0.597529  1
  Sm  Sm7  1  0.018849  0.179226  0.901654  1
  Ho  Ho8  1  0.366822  0.836361  0.878432  1
  Ho  Ho9  1  0.865485  0.663738  0.622550  1
  Ho  Ho10  1  0.634406  0.163682  0.377118  1
  Ho  Ho11  1  0.133081  0.336974  0.122448  1
  Ho  Ho12  1  0.634744  0.163787  0.121711  1
  Ho  Ho13  1  0.134970  0.336282  0.377161  1
  Ho  Ho14  1  0.365350  0.836262  0.622406  1
  Ho  Ho15  1  0.865853  0.663773  0.877622  1
  Ho  Ho16  1  0.197275  0.502603  0.749737  1
  Ho  Ho17  1  0.697144  0.997017  0.750575  1
  Ho  Ho18  1  0.802718  0.497281  0.250458  1
  Ho  Ho19  1  0.302911  0.002404  0.250942  1
  Sn  Sn20  1  0.796881  0.461621  0.458019  1
  Sn  Sn21  1  0.703198  0.961363  0.541899  1
  Sn  Sn22  1  0.204180  0.537853  0.958208  1
  Sn  Sn23  1  0.708034  0.962481  0.957766  1
  Sn  Sn24  1  0.202903  0.538339  0.541785  1
  Sn  Sn25  1  0.297384  0.038006  0.457957  1
  Sn  Sn26  1  0.796097  0.462376  0.042340  1
  Sn  Sn27  1  0.563581  0.622494  0.750057  1
  Sn  Sn28  1  0.064526  0.877968  0.750456  1
  Sn  Sn29  1  0.436060  0.377588  0.249307  1
  Sn  Sn30  1  0.935782  0.121963  0.249477  1
  Sn  Sn31  1  0.327634  0.144600  0.749844  1
  Sn  Sn32  1  0.827627  0.355383  0.749780  1
  Sn  Sn33  1  0.671911  0.855647  0.249958  1
  Sn  Sn34  1  0.172250  0.644552  0.249761  1
  Sb  Sb35  1  0.292982  0.037445  0.042992  1
