# generated using pymatgen
data_Y7Ho2Th3Co4
_symmetry_space_group_name_H-M   'P 1'
_cell_length_a   6.33150380
_cell_length_b   6.93606483
_cell_length_c   9.60834326
_cell_angle_alpha   89.98156026
_cell_angle_beta   89.94389072
_cell_angle_gamma   88.79736045
_symmetry_Int_Tables_number   1
_chemical_formula_structural   Y7Ho2Th3Co4
_chemical_formula_sum   'Y7 Ho2 Th3 Co4'
_cell_volume   421.86414872
_cell_formula_units_Z   1
loop_
 _symmetry_equiv_pos_site_id
 _symmetry_equiv_pos_as_xyz
  1  'x, y, z'
loop_
 _atom_site_type_symbol
 _atom_site_label
 _atom_site_symmetry_multiplicity
 _atom_site_fract_x
 _atom_site_fract_y
 _atom_site_fract_z
 _atom_site_occupancy
  Y  Y0  1  0.673773  0.171583  0.068979  1
  Y  Y1  1  0.827987  0.671315  0.430907  1
  Y  Y2  1  0.323033  0.829389  0.931279  1
  Y  Y3  1  0.176378  0.328982  0.571521  1
  Y  Y4  1  0.672549  0.171629  0.431726  1
  Y  Y5  1  0.175187  0.329122  0.928810  1
  Y  Y6  1  0.645138  0.456332  0.750655  1
  Ho  Ho7  1  0.322708  0.829702  0.570041  1
  Ho  Ho8  1  0.828036  0.670655  0.070519  1
  Th  Th9  1  0.344274  0.555356  0.250108  1
  Th  Th10  1  0.158354  0.053176  0.250495  1
  Th  Th11  1  0.841367  0.946826  0.750189  1
  Co  Co12  1  0.972565  0.371746  0.248340  1
  Co  Co13  1  0.469901  0.108946  0.747916  1
  Co  Co14  1  0.531232  0.869589  0.249222  1
  Co  Co15  1  0.037515  0.635651  0.749294  1
