# generated using pymatgen
data_Sc8Al14AsRh7
_symmetry_space_group_name_H-M   'P 1'
_cell_length_a   8.88494930
_cell_length_b   8.88498549
_cell_length_c   8.88494932
_cell_angle_alpha   120.08410764
_cell_angle_beta   119.99000077
_cell_angle_gamma   89.93574406
_symmetry_Int_Tables_number   1
_chemical_formula_structural   Sc8Al14AsRh7
_chemical_formula_sum   'Sc8 Al14 As1 Rh7'
_cell_volume   495.68762180
_cell_formula_units_Z   1
loop_
 _symmetry_equiv_pos_site_id
 _symmetry_equiv_pos_as_xyz
  1  'x, y, z'
loop_
 _atom_site_type_symbol
 _atom_site_label
 _atom_site_symmetry_multiplicity
 _atom_site_fract_x
 _atom_site_fract_y
 _atom_site_fract_z
 _atom_site_occupancy
  Sc  Sc0  1  0.797696  0.291166  0.078889  1
  Sc  Sc1  1  0.212275  0.291166  0.493470  1
  Sc  Sc2  1  0.204771  0.704794  0.500023  1
  Sc  Sc3  1  0.212263  0.718790  0.921088  1
  Sc  Sc4  1  0.797703  0.718790  0.506527  1
  Sc  Sc5  1  0.783267  0.283274  0.500007  1
  Sc  Sc6  1  0.380133  0.120103  0.739970  1
  Sc  Sc7  1  0.380143  0.640197  0.260052  1
  Al  Al8  1  0.163594  0.332341  0.168746  1
  Al  Al9  1  0.163600  0.994881  0.831280  1
  Al  Al10  1  0.158868  0.335796  0.823070  1
  Al  Al11  1  0.512725  0.335796  0.176928  1
  Al  Al12  1  0.834825  0.663249  0.828425  1
  Al  Al13  1  0.834819  0.006396  0.171577  1
  Al  Al14  1  0.832541  0.665092  0.167429  1
  Al  Al15  1  0.497662  0.665092  0.832551  1
  Al  Al16  1  0.380744  0.121446  0.259340  1
  Al  Al17  1  0.862107  0.121446  0.740701  1
  Al  Al18  1  0.621311  0.877709  0.256398  1
  Al  Al19  1  0.621308  0.364935  0.743628  1
  Al  Al20  1  0.622111  0.878542  0.743503  1
  Al  Al21  1  0.135038  0.878542  0.256431  1
  As  As22  1  0.994073  0.494077  0.500003  1
  Rh  Rh23  1  0.994864  0.999471  0.499300  1
  Rh  Rh24  1  0.500171  0.999471  0.004607  1
  Rh  Rh25  1  0.499899  0.499921  0.000022  1
  Rh  Rh26  1  0.500194  0.495530  0.500662  1
  Rh  Rh27  1  0.994868  0.495530  0.995336  1
  Rh  Rh28  1  0.000278  0.000287  0.000010  1
  Rh  Rh29  1  0.506140  0.006169  0.500028  1
