# generated using pymatgen
data_ErLu3Ga18(PtRh2)2
_symmetry_space_group_name_H-M   'P 1'
_cell_length_a   7.58378401
_cell_length_b   7.58346174
_cell_length_c   9.43643900
_cell_angle_alpha   90.00000000
_cell_angle_beta   90.00000000
_cell_angle_gamma   119.88696616
_symmetry_Int_Tables_number   1
_chemical_formula_structural   ErLu3Ga18(PtRh2)2
_chemical_formula_sum   'Er1 Lu3 Ga18 Pt2 Rh4'
_cell_volume   470.52831277
_cell_formula_units_Z   1
loop_
 _symmetry_equiv_pos_site_id
 _symmetry_equiv_pos_as_xyz
  1  'x, y, z'
loop_
 _atom_site_type_symbol
 _atom_site_label
 _atom_site_symmetry_multiplicity
 _atom_site_fract_x
 _atom_site_fract_y
 _atom_site_fract_z
 _atom_site_occupancy
  Er  Er0  1  0.996699  0.673418  0.250000  1
  Lu  Lu1  1  0.003222  0.326500  0.750000  1
  Lu  Lu2  1  0.673411  0.996705  0.250000  1
  Lu  Lu3  1  0.326527  0.003251  0.750000  1
  Ga  Ga4  1  0.336235  0.550524  0.250000  1
  Ga  Ga5  1  0.663840  0.449422  0.750000  1
  Ga  Ga6  1  0.550388  0.336021  0.250000  1
  Ga  Ga7  1  0.449429  0.663842  0.750000  1
  Ga  Ga8  1  0.997608  0.339043  0.082317  1
  Ga  Ga9  1  0.002393  0.660761  0.917526  1
  Ga  Ga10  1  0.002393  0.660761  0.582474  1
  Ga  Ga11  1  0.339484  0.997831  0.417678  1
  Ga  Ga12  1  0.997608  0.339043  0.417683  1
  Ga  Ga13  1  0.660771  0.002395  0.582344  1
  Ga  Ga14  1  0.660771  0.002395  0.917656  1
  Ga  Ga15  1  0.339484  0.997831  0.082322  1
  Ga  Ga16  1  0.336099  0.336096  0.570423  1
  Ga  Ga17  1  0.663715  0.663917  0.429640  1
  Ga  Ga18  1  0.663715  0.663917  0.070360  1
  Ga  Ga19  1  0.336099  0.336096  0.929577  1
  Ga  Ga20  1  0.135925  0.136006  0.250000  1
  Ga  Ga21  1  0.864121  0.864132  0.750000  1
  Pt  Pt22  1  0.000011  0.000085  0.999891  1
  Pt  Pt23  1  0.000011  0.000085  0.500109  1
  Rh  Rh24  1  0.671175  0.328736  0.999894  1
  Rh  Rh25  1  0.328844  0.671227  0.999897  1
  Rh  Rh26  1  0.328844  0.671227  0.500103  1
  Rh  Rh27  1  0.671175  0.328736  0.500106  1
