# generated using pymatgen
data_Lu5Al2AgC4
_symmetry_space_group_name_H-M   'P 1'
_cell_length_a   10.64675200
_cell_length_b   10.64675200
_cell_length_c   3.41987600
_cell_angle_alpha   90.00000000
_cell_angle_beta   90.00000000
_cell_angle_gamma   90.00000000
_symmetry_Int_Tables_number   1
_chemical_formula_structural   Lu5Al2AgC4
_chemical_formula_sum   'Lu10 Al4 Ag2 C8'
_cell_volume   387.65432646
_cell_formula_units_Z   2
loop_
 _symmetry_equiv_pos_site_id
 _symmetry_equiv_pos_as_xyz
  1  'x, y, z'
loop_
 _atom_site_type_symbol
 _atom_site_label
 _atom_site_symmetry_multiplicity
 _atom_site_fract_x
 _atom_site_fract_y
 _atom_site_fract_z
 _atom_site_occupancy
  Lu  Lu0  1  0.548929  0.731559  0.500000  1
  Lu  Lu1  1  0.451071  0.268441  0.500000  1
  Lu  Lu2  1  0.048929  0.768441  0.500000  1
  Lu  Lu3  1  0.951071  0.231559  0.500000  1
  Lu  Lu4  1  0.268441  0.548929  0.500000  1
  Lu  Lu5  1  0.731559  0.451071  0.500000  1
  Lu  Lu6  1  0.231559  0.048929  0.500000  1
  Lu  Lu7  1  0.768441  0.951071  0.500000  1
  Lu  Lu8  1  0.500000  0.000000  0.000000  1
  Lu  Lu9  1  0.000000  0.500000  0.000000  1
  Al  Al10  1  0.703044  0.203044  0.000000  1
  Al  Al11  1  0.296956  0.796956  0.000000  1
  Al  Al12  1  0.203044  0.296956  0.000000  1
  Al  Al13  1  0.796956  0.703044  0.000000  1
  Ag  Ag14  1  0.500000  0.500000  0.000000  1
  Ag  Ag15  1  0.000000  0.000000  0.000000  1
  C  C16  1  0.628131  0.128131  0.500000  1
  C  C17  1  0.371869  0.871869  0.500000  1
  C  C18  1  0.128131  0.371869  0.500000  1
  C  C19  1  0.871869  0.628131  0.500000  1
  C  C20  1  0.160572  0.660572  0.000000  1
  C  C21  1  0.839428  0.339428  0.000000  1
  C  C22  1  0.660572  0.839428  0.000000  1
  C  C23  1  0.339428  0.160572  0.000000  1
