# generated using pymatgen
data_Hf6Zr2Co11Si16Ni
_symmetry_space_group_name_H-M   'P 1'
_cell_length_a   5.20796263
_cell_length_b   6.76084747
_cell_length_c   13.70123583
_cell_angle_alpha   89.87311024
_cell_angle_beta   89.86964309
_cell_angle_gamma   90.00156878
_symmetry_Int_Tables_number   1
_chemical_formula_structural   Hf6Zr2Co11Si16Ni
_chemical_formula_sum   'Hf6 Zr2 Co11 Si16 Ni1'
_cell_volume   482.42138289
_cell_formula_units_Z   1
loop_
 _symmetry_equiv_pos_site_id
 _symmetry_equiv_pos_as_xyz
  1  'x, y, z'
loop_
 _atom_site_type_symbol
 _atom_site_label
 _atom_site_symmetry_multiplicity
 _atom_site_fract_x
 _atom_site_fract_y
 _atom_site_fract_z
 _atom_site_occupancy
  Hf  Hf0  1  0.269263  0.099811  0.645697  1
  Hf  Hf1  1  0.769177  0.398756  0.645949  1
  Hf  Hf2  1  0.230316  0.601604  0.354566  1
  Hf  Hf3  1  0.731587  0.898931  0.354640  1
  Hf  Hf4  1  0.267345  0.896268  0.852144  1
  Hf  Hf5  1  0.768061  0.600165  0.852344  1
  Zr  Zr6  1  0.232794  0.401189  0.147136  1
  Zr  Zr7  1  0.732155  0.101885  0.147049  1
  Co  Co8  1  0.506968  0.224108  0.481821  1
  Co  Co9  1  0.775402  0.999673  0.749444  1
  Co  Co10  1  0.492512  0.224829  0.980088  1
  Co  Co11  1  0.723698  0.503133  0.251815  1
  Co  Co12  1  0.494362  0.775637  0.518482  1
  Co  Co13  1  0.006346  0.276282  0.481727  1
  Co  Co14  1  0.003570  0.732597  0.017722  1
  Co  Co15  1  0.226194  0.997951  0.252649  1
  Co  Co16  1  0.276642  0.499145  0.750245  1
  Co  Co17  1  0.504162  0.773277  0.018325  1
  Co  Co18  1  0.994552  0.723538  0.518759  1
  Si  Si19  1  0.223764  0.018023  0.070647  1
  Si  Si20  1  0.717183  0.519156  0.432327  1
  Si  Si21  1  0.783771  0.019013  0.567860  1
  Si  Si22  1  0.481051  0.754739  0.188092  1
  Si  Si23  1  0.020395  0.252688  0.810495  1
  Si  Si24  1  0.518572  0.244956  0.811989  1
  Si  Si25  1  0.217332  0.981179  0.432819  1
  Si  Si26  1  0.281870  0.521791  0.932143  1
  Si  Si27  1  0.980207  0.747257  0.187914  1
  Si  Si28  1  0.719223  0.483878  0.068319  1
  Si  Si29  1  0.283525  0.480271  0.568255  1
  Si  Si30  1  0.480864  0.246799  0.313345  1
  Si  Si31  1  0.020047  0.744950  0.687421  1
  Si  Si32  1  0.774203  0.977473  0.928894  1
  Si  Si33  1  0.520269  0.753021  0.687140  1
  Si  Si34  1  0.980489  0.254566  0.313265  1
  Ni  Ni35  1  0.992129  0.271462  0.978476  1
