# generated using pymatgen
data_YbDy(Al3Ni)3
_symmetry_space_group_name_H-M   'P 1'
_cell_length_a   7.43566900
_cell_length_b   7.43206708
_cell_length_c   9.27656800
_cell_angle_alpha   90.00000000
_cell_angle_beta   90.00000000
_cell_angle_gamma   119.43130663
_symmetry_Int_Tables_number   1
_chemical_formula_structural   YbDy(Al3Ni)3
_chemical_formula_sum   'Yb2 Dy2 Al18 Ni6'
_cell_volume   446.48611366
_cell_formula_units_Z   2
loop_
 _symmetry_equiv_pos_site_id
 _symmetry_equiv_pos_as_xyz
  1  'x, y, z'
loop_
 _atom_site_type_symbol
 _atom_site_label
 _atom_site_symmetry_multiplicity
 _atom_site_fract_x
 _atom_site_fract_y
 _atom_site_fract_z
 _atom_site_occupancy
  Yb  Yb0  1  0.992832  0.669940  0.250000  1
  Yb  Yb1  1  0.007168  0.330060  0.750000  1
  Dy  Dy2  1  0.671724  0.994775  0.250000  1
  Dy  Dy3  1  0.328276  0.005225  0.750000  1
  Al  Al4  1  0.125021  0.126564  0.250000  1
  Al  Al5  1  0.874979  0.873436  0.750000  1
  Al  Al6  1  0.331753  0.331629  0.547794  1
  Al  Al7  1  0.668247  0.668371  0.047794  1
  Al  Al8  1  0.331753  0.331629  0.952206  1
  Al  Al9  1  0.668247  0.668371  0.452206  1
  Al  Al10  1  0.342924  0.554988  0.250000  1
  Al  Al11  1  0.657076  0.445012  0.750000  1
  Al  Al12  1  0.551164  0.338302  0.250000  1
  Al  Al13  1  0.448836  0.661698  0.750000  1
  Al  Al14  1  0.998701  0.335730  0.072414  1
  Al  Al15  1  0.001299  0.664270  0.572414  1
  Al  Al16  1  0.334201  0.996526  0.426551  1
  Al  Al17  1  0.665799  0.003474  0.926551  1
  Al  Al18  1  0.001299  0.664270  0.927586  1
  Al  Al19  1  0.998701  0.335730  0.427586  1
  Al  Al20  1  0.665799  0.003474  0.573449  1
  Al  Al21  1  0.334201  0.996526  0.073449  1
  Ni  Ni22  1  0.000000  0.000000  0.000000  1
  Ni  Ni23  1  0.000000  0.000000  0.500000  1
  Ni  Ni24  1  0.670885  0.329225  0.000538  1
  Ni  Ni25  1  0.329115  0.670775  0.500538  1
  Ni  Ni26  1  0.329115  0.670775  0.999462  1
  Ni  Ni27  1  0.670885  0.329225  0.499462  1
