# generated using pymatgen
data_CaLa4Er5Sn8
_symmetry_space_group_name_H-M   'P 1'
_cell_length_a   8.07007300
_cell_length_b   8.37282900
_cell_length_c   15.79620200
_cell_angle_alpha   90.00000000
_cell_angle_beta   90.00000000
_cell_angle_gamma   90.00000000
_symmetry_Int_Tables_number   1
_chemical_formula_structural   CaLa4Er5Sn8
_chemical_formula_sum   'Ca2 La8 Er10 Sn16'
_cell_volume   1067.33896334
_cell_formula_units_Z   2
loop_
 _symmetry_equiv_pos_site_id
 _symmetry_equiv_pos_as_xyz
  1  'x, y, z'
loop_
 _atom_site_type_symbol
 _atom_site_label
 _atom_site_symmetry_multiplicity
 _atom_site_fract_x
 _atom_site_fract_y
 _atom_site_fract_z
 _atom_site_occupancy
  Ca  Ca0  1  0.181823  0.499705  0.750000  1
  Ca  Ca1  1  0.681823  0.000295  0.750000  1
  La  La2  1  0.503716  0.320521  0.905609  1
  La  La3  1  0.003716  0.179479  0.594391  1
  La  La4  1  0.493617  0.675757  0.402121  1
  La  La5  1  0.993617  0.824243  0.097879  1
  La  La6  1  0.493617  0.675757  0.097879  1
  La  La7  1  0.993617  0.824243  0.402121  1
  La  La8  1  0.503716  0.320521  0.594391  1
  La  La9  1  0.003716  0.179479  0.905609  1
  Er  Er10  1  0.348807  0.831227  0.878016  1
  Er  Er11  1  0.848807  0.668773  0.621984  1
  Er  Er12  1  0.654139  0.167672  0.374481  1
  Er  Er13  1  0.154139  0.332328  0.125519  1
  Er  Er14  1  0.654139  0.167672  0.125519  1
  Er  Er15  1  0.154139  0.332328  0.374481  1
  Er  Er16  1  0.348807  0.831227  0.621984  1
  Er  Er17  1  0.848807  0.668773  0.878016  1
  Er  Er18  1  0.819496  0.499507  0.250000  1
  Er  Er19  1  0.319496  0.000493  0.250000  1
  Sn  Sn20  1  0.317184  0.040559  0.041813  1
  Sn  Sn21  1  0.817184  0.459441  0.458187  1
  Sn  Sn22  1  0.682918  0.958635  0.537577  1
  Sn  Sn23  1  0.182918  0.541365  0.962423  1
  Sn  Sn24  1  0.682918  0.958635  0.962423  1
  Sn  Sn25  1  0.182918  0.541365  0.537577  1
  Sn  Sn26  1  0.317184  0.040559  0.458187  1
  Sn  Sn27  1  0.817184  0.459441  0.041813  1
  Sn  Sn28  1  0.550367  0.621900  0.750000  1
  Sn  Sn29  1  0.050367  0.878100  0.750000  1
  Sn  Sn30  1  0.455957  0.374814  0.250000  1
  Sn  Sn31  1  0.955957  0.125186  0.250000  1
  Sn  Sn32  1  0.306102  0.131712  0.750000  1
  Sn  Sn33  1  0.806102  0.368288  0.750000  1
  Sn  Sn34  1  0.685495  0.859343  0.250000  1
  Sn  Sn35  1  0.185495  0.640657  0.250000  1
