# generated using pymatgen
data_Yb2Al3Tc14C3
_symmetry_space_group_name_H-M   'P 1'
_cell_length_a   6.94301093
_cell_length_b   6.94301193
_cell_length_c   6.94301037
_cell_angle_alpha   82.29896824
_cell_angle_beta   82.29896494
_cell_angle_gamma   82.29896818
_symmetry_Int_Tables_number   1
_chemical_formula_structural   Yb2Al3Tc14C3
_chemical_formula_sum   'Yb2 Al3 Tc14 C3'
_cell_volume   326.37767911
_cell_formula_units_Z   1
loop_
 _symmetry_equiv_pos_site_id
 _symmetry_equiv_pos_as_xyz
  1  'x, y, z'
loop_
 _atom_site_type_symbol
 _atom_site_label
 _atom_site_symmetry_multiplicity
 _atom_site_fract_x
 _atom_site_fract_y
 _atom_site_fract_z
 _atom_site_occupancy
  Yb  Yb0  1  0.658942  0.658942  0.658942  1
  Yb  Yb1  1  0.341058  0.341058  0.341058  1
  Al  Al2  1  0.000000  0.000000  0.500000  1
  Al  Al3  1  0.500000  0.000000  0.000000  1
  Al  Al4  1  0.000000  0.500000  0.000000  1
  Tc  Tc5  1  0.721642  0.278358  0.000000  1
  Tc  Tc6  1  0.000000  0.721642  0.278358  1
  Tc  Tc7  1  0.278358  0.000000  0.721642  1
  Tc  Tc8  1  0.000000  0.278358  0.721642  1
  Tc  Tc9  1  0.721642  0.000000  0.278358  1
  Tc  Tc10  1  0.278358  0.721642  0.000000  1
  Tc  Tc11  1  0.351992  0.849992  0.351992  1
  Tc  Tc12  1  0.351992  0.351992  0.849992  1
  Tc  Tc13  1  0.849992  0.351992  0.351992  1
  Tc  Tc14  1  0.648008  0.150008  0.648008  1
  Tc  Tc15  1  0.648008  0.648008  0.150008  1
  Tc  Tc16  1  0.150008  0.648008  0.648008  1
  Tc  Tc17  1  0.904869  0.904869  0.904869  1
  Tc  Tc18  1  0.095131  0.095131  0.095131  1
  C  C19  1  0.500000  0.500000  0.000000  1
  C  C20  1  0.000000  0.500000  0.500000  1
  C  C21  1  0.500000  0.000000  0.500000  1
