# generated using pymatgen
data_CaLa8PrIr6
_symmetry_space_group_name_H-M   'P 1'
_cell_length_a   11.42918000
_cell_length_b   11.42918000
_cell_length_c   6.64855200
_cell_angle_alpha   90.00000000
_cell_angle_beta   90.00000000
_cell_angle_gamma   90.00000000
_symmetry_Int_Tables_number   1
_chemical_formula_structural   CaLa8PrIr6
_chemical_formula_sum   'Ca2 La16 Pr2 Ir12'
_cell_volume   868.47478722
_cell_formula_units_Z   2
loop_
 _symmetry_equiv_pos_site_id
 _symmetry_equiv_pos_as_xyz
  1  'x, y, z'
loop_
 _atom_site_type_symbol
 _atom_site_label
 _atom_site_symmetry_multiplicity
 _atom_site_fract_x
 _atom_site_fract_y
 _atom_site_fract_z
 _atom_site_occupancy
  Ca  Ca0  1  0.000000  0.000000  0.500000  1
  Ca  Ca1  1  0.000000  0.000000  0.000000  1
  La  La2  1  0.288273  0.090771  0.398444  1
  La  La3  1  0.288273  0.909229  0.898444  1
  La  La4  1  0.711727  0.090771  0.898444  1
  La  La5  1  0.711727  0.909229  0.398444  1
  La  La6  1  0.590567  0.791832  0.895783  1
  La  La7  1  0.590567  0.208168  0.395783  1
  La  La8  1  0.409433  0.791832  0.395783  1
  La  La9  1  0.409433  0.208168  0.895783  1
  La  La10  1  0.208168  0.409433  0.604217  1
  La  La11  1  0.208168  0.590567  0.104217  1
  La  La12  1  0.791832  0.409433  0.104217  1
  La  La13  1  0.791832  0.590567  0.604217  1
  La  La14  1  0.909229  0.711727  0.101556  1
  La  La15  1  0.909229  0.288273  0.601556  1
  La  La16  1  0.090771  0.711727  0.601556  1
  La  La17  1  0.090771  0.288273  0.101556  1
  Pr  Pr18  1  0.500000  0.500000  0.000000  1
  Pr  Pr19  1  0.500000  0.500000  0.500000  1
  Ir  Ir20  1  0.841873  0.158127  0.250000  1
  Ir  Ir21  1  0.841873  0.841873  0.750000  1
  Ir  Ir22  1  0.158127  0.158127  0.750000  1
  Ir  Ir23  1  0.158127  0.841873  0.250000  1
  Ir  Ir24  1  0.654077  0.345923  0.750000  1
  Ir  Ir25  1  0.654077  0.654077  0.250000  1
  Ir  Ir26  1  0.345923  0.345923  0.250000  1
  Ir  Ir27  1  0.345923  0.654077  0.750000  1
  Ir  Ir28  1  0.500000  0.000000  0.124759  1
  Ir  Ir29  1  0.500000  0.000000  0.624759  1
  Ir  Ir30  1  0.000000  0.500000  0.875241  1
  Ir  Ir31  1  0.000000  0.500000  0.375241  1
