# generated using pymatgen
data_Lu4MgPd
_symmetry_space_group_name_H-M   'P 1'
_cell_length_a   9.58029402
_cell_length_b   9.58029357
_cell_length_c   9.58029400
_cell_angle_alpha   59.99999851
_cell_angle_beta   60.00000006
_cell_angle_gamma   60.00000248
_symmetry_Int_Tables_number   1
_chemical_formula_structural   Lu4MgPd
_chemical_formula_sum   'Lu16 Mg4 Pd4'
_cell_volume   621.75816554
_cell_formula_units_Z   4
loop_
 _symmetry_equiv_pos_site_id
 _symmetry_equiv_pos_as_xyz
  1  'x, y, z'
loop_
 _atom_site_type_symbol
 _atom_site_label
 _atom_site_symmetry_multiplicity
 _atom_site_fract_x
 _atom_site_fract_y
 _atom_site_fract_z
 _atom_site_occupancy
  Lu  Lu0  1  0.599960  0.599960  0.599960  1
  Lu  Lu1  1  0.599960  0.599960  0.200120  1
  Lu  Lu2  1  0.599960  0.200120  0.599960  1
  Lu  Lu3  1  0.200120  0.599960  0.599960  1
  Lu  Lu4  1  0.060128  0.439872  0.439872  1
  Lu  Lu5  1  0.439872  0.060128  0.060128  1
  Lu  Lu6  1  0.439872  0.060128  0.439872  1
  Lu  Lu7  1  0.060128  0.439872  0.060128  1
  Lu  Lu8  1  0.439872  0.439872  0.060128  1
  Lu  Lu9  1  0.060128  0.060128  0.439872  1
  Lu  Lu10  1  0.183253  0.816747  0.816747  1
  Lu  Lu11  1  0.816747  0.183253  0.183253  1
  Lu  Lu12  1  0.816747  0.183253  0.816747  1
  Lu  Lu13  1  0.183253  0.816747  0.183253  1
  Lu  Lu14  1  0.816747  0.816747  0.183253  1
  Lu  Lu15  1  0.183253  0.183253  0.816747  1
  Mg  Mg16  1  0.829947  0.829947  0.829947  1
  Mg  Mg17  1  0.829947  0.829947  0.510157  1
  Mg  Mg18  1  0.829947  0.510157  0.829947  1
  Mg  Mg19  1  0.510157  0.829947  0.829947  1
  Pd  Pd20  1  0.392850  0.392850  0.392850  1
  Pd  Pd21  1  0.392850  0.392850  0.821450  1
  Pd  Pd22  1  0.392850  0.821450  0.392850  1
  Pd  Pd23  1  0.821450  0.392850  0.392850  1
