# generated using pymatgen
data_Sm4Y12MgHg3Pt4
_symmetry_space_group_name_H-M   'P 1'
_cell_length_a   9.75463298
_cell_length_b   9.76473181
_cell_length_c   9.76473200
_cell_angle_alpha   60.00000614
_cell_angle_beta   59.96575326
_cell_angle_gamma   59.96574728
_symmetry_Int_Tables_number   1
_chemical_formula_structural   Sm4Y12MgHg3Pt4
_chemical_formula_sum   'Sm4 Y12 Mg1 Hg3 Pt4'
_cell_volume   657.34230395
_cell_formula_units_Z   1
loop_
 _symmetry_equiv_pos_site_id
 _symmetry_equiv_pos_as_xyz
  1  'x, y, z'
loop_
 _atom_site_type_symbol
 _atom_site_label
 _atom_site_symmetry_multiplicity
 _atom_site_fract_x
 _atom_site_fract_y
 _atom_site_fract_z
 _atom_site_occupancy
  Sm  Sm0  1  0.604246  0.602294  0.602294  1
  Sm  Sm1  1  0.604246  0.602294  0.191166  1
  Sm  Sm2  1  0.604246  0.191166  0.602294  1
  Sm  Sm3  1  0.182358  0.605881  0.605881  1
  Y  Y4  1  0.059383  0.440087  0.440087  1
  Y  Y5  1  0.436250  0.062560  0.062560  1
  Y  Y6  1  0.436250  0.062560  0.438629  1
  Y  Y7  1  0.059383  0.440087  0.060444  1
  Y  Y8  1  0.436250  0.438629  0.062560  1
  Y  Y9  1  0.059383  0.060444  0.440087  1
  Y  Y10  1  0.183108  0.815764  0.815764  1
  Y  Y11  1  0.813862  0.185432  0.185432  1
  Y  Y12  1  0.813862  0.185432  0.815275  1
  Y  Y13  1  0.183108  0.815764  0.185364  1
  Y  Y14  1  0.813862  0.815275  0.185432  1
  Y  Y15  1  0.183108  0.185364  0.815764  1
  Mg  Mg16  1  0.530737  0.823087  0.823087  1
  Hg  Hg17  1  0.833810  0.839206  0.839206  1
  Hg  Hg18  1  0.833810  0.839206  0.487778  1
  Hg  Hg19  1  0.833810  0.487778  0.839206  1
  Pt  Pt20  1  0.390947  0.393704  0.393704  1
  Pt  Pt21  1  0.390947  0.393704  0.821646  1
  Pt  Pt22  1  0.390947  0.821646  0.393704  1
  Pt  Pt23  1  0.822089  0.392637  0.392637  1
