# generated using pymatgen
data_LaPr4(CoO6)2
_symmetry_space_group_name_H-M   'P 1'
_cell_length_a   7.02684112
_cell_length_b   7.02684070
_cell_length_c   7.64271460
_cell_angle_alpha   74.41705931
_cell_angle_beta   74.41706120
_cell_angle_gamma   49.83543527
_symmetry_Int_Tables_number   1
_chemical_formula_structural   LaPr4(CoO6)2
_chemical_formula_sum   'La1 Pr4 Co2 O12'
_cell_volume   275.44313689
_cell_formula_units_Z   1
loop_
 _symmetry_equiv_pos_site_id
 _symmetry_equiv_pos_as_xyz
  1  'x, y, z'
loop_
 _atom_site_type_symbol
 _atom_site_label
 _atom_site_symmetry_multiplicity
 _atom_site_fract_x
 _atom_site_fract_y
 _atom_site_fract_z
 _atom_site_occupancy
  La  La0  1  0.000000  0.000000  0.500000  1
  Pr  Pr1  1  0.309724  0.309724  0.352705  1
  Pr  Pr2  1  0.690276  0.690276  0.647295  1
  Pr  Pr3  1  0.693227  0.693227  0.161247  1
  Pr  Pr4  1  0.306773  0.306773  0.838753  1
  Co  Co5  1  0.757278  0.242722  0.000000  1
  Co  Co6  1  0.242722  0.757278  0.000000  1
  O  O7  1  0.094782  0.596555  0.579461  1
  O  O8  1  0.999103  0.999103  0.159708  1
  O  O9  1  0.403445  0.905218  0.420539  1
  O  O10  1  0.500673  0.500673  0.163251  1
  O  O11  1  0.102117  0.591663  0.074558  1
  O  O12  1  0.905218  0.403445  0.420539  1
  O  O13  1  0.000897  0.000897  0.840292  1
  O  O14  1  0.596555  0.094781  0.579461  1
  O  O15  1  0.499327  0.499327  0.836749  1
  O  O16  1  0.591663  0.102117  0.074558  1
  O  O17  1  0.408337  0.897883  0.925442  1
  O  O18  1  0.897883  0.408337  0.925442  1
