# generated using pymatgen
data_Dy2YNi2Ir7
_symmetry_space_group_name_H-M   'P 1'
_cell_length_a   5.27633858
_cell_length_b   5.27633887
_cell_length_c   8.96717300
_cell_angle_alpha   72.89023359
_cell_angle_beta   72.89023260
_cell_angle_gamma   60.00000517
_symmetry_Int_Tables_number   1
_chemical_formula_structural   Dy2YNi2Ir7
_chemical_formula_sum   'Dy2 Y1 Ni2 Ir7'
_cell_volume   203.34017256
_cell_formula_units_Z   1
loop_
 _symmetry_equiv_pos_site_id
 _symmetry_equiv_pos_as_xyz
  1  'x, y, z'
loop_
 _atom_site_type_symbol
 _atom_site_label
 _atom_site_symmetry_multiplicity
 _atom_site_fract_x
 _atom_site_fract_y
 _atom_site_fract_z
 _atom_site_occupancy
  Dy  Dy0  1  0.140334  0.140334  0.579000  1
  Dy  Dy1  1  0.859666  0.859666  0.421000  1
  Y  Y2  1  0.000000  0.000000  0.000000  1
  Ni  Ni3  1  0.333435  0.333435  0.999694  1
  Ni  Ni4  1  0.666565  0.666565  0.000306  1
  Ir  Ir5  1  0.078032  0.581174  0.759620  1
  Ir  Ir6  1  0.581174  0.581174  0.759620  1
  Ir  Ir7  1  0.581174  0.078032  0.759620  1
  Ir  Ir8  1  0.921968  0.418826  0.240380  1
  Ir  Ir9  1  0.418826  0.418826  0.240380  1
  Ir  Ir10  1  0.418826  0.921968  0.240380  1
  Ir  Ir11  1  0.500000  0.500000  0.500000  1
