# generated using pymatgen
data_Tm5Co16(MoP4)3
_symmetry_space_group_name_H-M   'P 1'
_cell_length_a   12.04574500
_cell_length_b   12.04574510
_cell_length_c   3.69289000
_cell_angle_alpha   90.00000000
_cell_angle_beta   90.00000000
_cell_angle_gamma   120.00000248
_symmetry_Int_Tables_number   1
_chemical_formula_structural   Tm5Co16(MoP4)3
_chemical_formula_sum   'Tm5 Co16 Mo3 P12'
_cell_volume   464.04951839
_cell_formula_units_Z   1
loop_
 _symmetry_equiv_pos_site_id
 _symmetry_equiv_pos_as_xyz
  1  'x, y, z'
loop_
 _atom_site_type_symbol
 _atom_site_label
 _atom_site_symmetry_multiplicity
 _atom_site_fract_x
 _atom_site_fract_y
 _atom_site_fract_z
 _atom_site_occupancy
  Tm  Tm0  1  0.666667  0.333333  0.000000  1
  Tm  Tm1  1  0.333333  0.666667  0.000000  1
  Tm  Tm2  1  0.814897  0.814897  0.500000  1
  Tm  Tm3  1  0.185103  0.000000  0.500000  1
  Tm  Tm4  1  0.000000  0.185103  0.500000  1
  Co  Co5  1  0.872384  0.354899  0.500000  1
  Co  Co6  1  0.645101  0.517485  0.500000  1
  Co  Co7  1  0.482515  0.127616  0.500000  1
  Co  Co8  1  0.354899  0.872384  0.500000  1
  Co  Co9  1  0.517485  0.645101  0.500000  1
  Co  Co10  1  0.127616  0.482515  0.500000  1
  Co  Co11  1  0.802790  0.177507  0.000000  1
  Co  Co12  1  0.822493  0.625282  0.000000  1
  Co  Co13  1  0.374718  0.197210  0.000000  1
  Co  Co14  1  0.177507  0.802790  0.000000  1
  Co  Co15  1  0.625282  0.822493  0.000000  1
  Co  Co16  1  0.197210  0.374718  0.000000  1
  Co  Co17  1  0.279773  0.279773  0.500000  1
  Co  Co18  1  0.720227  0.000000  0.500000  1
  Co  Co19  1  0.000000  0.720227  0.500000  1
  Co  Co20  1  0.000000  0.000000  0.000000  1
  Mo  Mo21  1  0.446434  0.446434  0.000000  1
  Mo  Mo22  1  0.553566  0.000000  0.000000  1
  Mo  Mo23  1  0.000000  0.553566  0.000000  1
  P  P24  1  0.686040  0.166255  0.500000  1
  P  P25  1  0.833745  0.519785  0.500000  1
  P  P26  1  0.480215  0.313960  0.500000  1
  P  P27  1  0.166255  0.686040  0.500000  1
  P  P28  1  0.519785  0.833745  0.500000  1
  P  P29  1  0.313960  0.480215  0.500000  1
  P  P30  1  0.177623  0.177623  0.000000  1
  P  P31  1  0.822377  0.000000  0.000000  1
  P  P32  1  0.000000  0.822377  0.000000  1
  P  P33  1  0.640021  0.640021  0.000000  1
  P  P34  1  0.359979  0.000000  0.000000  1
  P  P35  1  0.000000  0.359979  0.000000  1
