# generated using pymatgen
data_Sm6Zn4Pd3Pt10
_symmetry_space_group_name_H-M   'P 1'
_cell_length_a   8.34710053
_cell_length_b   8.34710130
_cell_length_c   8.34710101
_cell_angle_alpha   109.45827137
_cell_angle_beta   109.45826685
_cell_angle_gamma   109.45827780
_symmetry_Int_Tables_number   1
_chemical_formula_structural   Sm6Zn4Pd3Pt10
_chemical_formula_sum   'Sm6 Zn4 Pd3 Pt10'
_cell_volume   447.91245285
_cell_formula_units_Z   1
loop_
 _symmetry_equiv_pos_site_id
 _symmetry_equiv_pos_as_xyz
  1  'x, y, z'
loop_
 _atom_site_type_symbol
 _atom_site_label
 _atom_site_symmetry_multiplicity
 _atom_site_fract_x
 _atom_site_fract_y
 _atom_site_fract_z
 _atom_site_occupancy
  Sm  Sm0  1  0.699716  0.699716  0.001606  1
  Sm  Sm1  1  0.300302  0.999626  0.300302  1
  Sm  Sm2  1  0.999626  0.300302  0.300302  1
  Sm  Sm3  1  0.300302  0.300302  0.999626  1
  Sm  Sm4  1  0.699716  0.001606  0.699716  1
  Sm  Sm5  1  0.001606  0.699716  0.699716  1
  Zn  Zn6  1  0.999427  0.999427  0.499536  1
  Zn  Zn7  1  0.999427  0.499536  0.999427  1
  Zn  Zn8  1  0.499536  0.999427  0.999427  1
  Zn  Zn9  1  0.499790  0.499790  0.499790  1
  Pd  Pd10  1  0.668681  0.668681  0.337976  1
  Pd  Pd11  1  0.668681  0.337976  0.668681  1
  Pd  Pd12  1  0.337976  0.668681  0.668681  1
  Pt  Pt13  1  0.330937  0.330937  0.660445  1
  Pt  Pt14  1  0.670136  0.000807  0.331056  1
  Pt  Pt15  1  0.000807  0.670136  0.331056  1
  Pt  Pt16  1  0.670136  0.331056  0.000807  1
  Pt  Pt17  1  0.330937  0.660445  0.330937  1
  Pt  Pt18  1  0.000807  0.331056  0.670136  1
  Pt  Pt19  1  0.331056  0.670136  0.000807  1
  Pt  Pt20  1  0.331056  0.000807  0.670136  1
  Pt  Pt21  1  0.660445  0.330937  0.330937  1
  Pt  Pt22  1  0.998894  0.998894  0.998894  1
