# generated using pymatgen
data_Dy2Lu2Zn(Ga5Co)3
_symmetry_space_group_name_H-M   'P 1'
_cell_length_a   6.00012200
_cell_length_b   6.00012200
_cell_length_c   11.02847500
_cell_angle_alpha   90.00000000
_cell_angle_beta   90.00000000
_cell_angle_gamma   90.00000000
_symmetry_Int_Tables_number   1
_chemical_formula_structural   Dy2Lu2Zn(Ga5Co)3
_chemical_formula_sum   'Dy2 Lu2 Zn1 Ga15 Co3'
_cell_volume   397.04124585
_cell_formula_units_Z   1
loop_
 _symmetry_equiv_pos_site_id
 _symmetry_equiv_pos_as_xyz
  1  'x, y, z'
loop_
 _atom_site_type_symbol
 _atom_site_label
 _atom_site_symmetry_multiplicity
 _atom_site_fract_x
 _atom_site_fract_y
 _atom_site_fract_z
 _atom_site_occupancy
  Dy  Dy0  1  0.500000  0.000000  0.192981  1
  Dy  Dy1  1  0.000000  0.500000  0.192981  1
  Lu  Lu2  1  0.500000  0.000000  0.804717  1
  Lu  Lu3  1  0.000000  0.500000  0.804717  1
  Zn  Zn4  1  0.500000  0.500000  0.802563  1
  Ga  Ga5  1  0.252055  0.252055  0.619171  1
  Ga  Ga6  1  0.747945  0.747945  0.619171  1
  Ga  Ga7  1  0.747945  0.252055  0.619171  1
  Ga  Ga8  1  0.252055  0.747945  0.619171  1
  Ga  Ga9  1  0.750440  0.750440  0.385772  1
  Ga  Ga10  1  0.249560  0.249560  0.385772  1
  Ga  Ga11  1  0.249560  0.750440  0.385772  1
  Ga  Ga12  1  0.750440  0.249560  0.385772  1
  Ga  Ga13  1  0.280778  0.280778  0.995072  1
  Ga  Ga14  1  0.719222  0.719222  0.995072  1
  Ga  Ga15  1  0.719222  0.280778  0.995072  1
  Ga  Ga16  1  0.280778  0.719222  0.995072  1
  Ga  Ga17  1  0.500000  0.500000  0.193993  1
  Ga  Ga18  1  0.000000  0.000000  0.784995  1
  Ga  Ga19  1  0.000000  0.000000  0.218857  1
  Co  Co20  1  0.500000  0.000000  0.500555  1
  Co  Co21  1  0.000000  0.500000  0.500555  1
  Co  Co22  1  0.000000  0.000000  0.003025  1
