# generated using pymatgen
data_Ba4P2Se
_symmetry_space_group_name_H-M   'P 1'
_cell_length_a   8.47917242
_cell_length_b   8.47917242
_cell_length_c   8.47917200
_cell_angle_alpha   109.37561195
_cell_angle_beta   109.37560480
_cell_angle_gamma   109.66261032
_symmetry_Int_Tables_number   1
_chemical_formula_structural   Ba4P2Se
_chemical_formula_sum   'Ba8 P4 Se2'
_cell_volume   469.28305819
_cell_formula_units_Z   2
loop_
 _symmetry_equiv_pos_site_id
 _symmetry_equiv_pos_as_xyz
  1  'x, y, z'
loop_
 _atom_site_type_symbol
 _atom_site_label
 _atom_site_symmetry_multiplicity
 _atom_site_fract_x
 _atom_site_fract_y
 _atom_site_fract_z
 _atom_site_occupancy
  Ba  Ba0  1  0.370827  0.369986  0.361514  1
  Ba  Ba1  1  0.129173  0.490687  0.999159  1
  Ba  Ba2  1  0.991528  0.130014  0.500841  1
  Ba  Ba3  1  0.869986  0.870827  0.861514  1
  Ba  Ba4  1  0.508472  0.009313  0.138486  1
  Ba  Ba5  1  0.630014  0.491528  0.000841  1
  Ba  Ba6  1  0.509313  0.008472  0.638486  1
  Ba  Ba7  1  0.990687  0.629173  0.499159  1
  P  P8  1  0.876981  0.250000  0.126981  1
  P  P9  1  0.623019  0.750000  0.373019  1
  P  P10  1  0.250000  0.123019  0.873019  1
  P  P11  1  0.750000  0.376981  0.626981  1
  Se  Se12  1  0.125000  0.875000  0.250000  1
  Se  Se13  1  0.375000  0.625000  0.750000  1
