# generated using pymatgen
data_Gd5Zr5(Sn3O)2
_symmetry_space_group_name_H-M   'P 1'
_cell_length_a   8.70586300
_cell_length_b   8.72125523
_cell_length_c   6.00261200
_cell_angle_alpha   90.00000000
_cell_angle_beta   90.00000000
_cell_angle_gamma   119.94163061
_symmetry_Int_Tables_number   1
_chemical_formula_structural   Gd5Zr5(Sn3O)2
_chemical_formula_sum   'Gd5 Zr5 Sn6 O2'
_cell_volume   394.92703703
_cell_formula_units_Z   1
loop_
 _symmetry_equiv_pos_site_id
 _symmetry_equiv_pos_as_xyz
  1  'x, y, z'
loop_
 _atom_site_type_symbol
 _atom_site_label
 _atom_site_symmetry_multiplicity
 _atom_site_fract_x
 _atom_site_fract_y
 _atom_site_fract_z
 _atom_site_occupancy
  Gd  Gd0  1  0.999363  0.771232  0.750000  1
  Gd  Gd1  1  0.997910  0.227373  0.250000  1
  Gd  Gd2  1  0.228131  0.228768  0.750000  1
  Gd  Gd3  1  0.228985  0.000000  0.250000  1
  Gd  Gd4  1  0.770538  0.772627  0.250000  1
  Zr  Zr5  1  0.335394  0.667234  0.999522  1
  Zr  Zr6  1  0.335394  0.667234  0.500478  1
  Zr  Zr7  1  0.668160  0.332766  0.999522  1
  Zr  Zr8  1  0.668160  0.332766  0.500478  1
  Zr  Zr9  1  0.769862  0.000000  0.750000  1
  Sn  Sn10  1  0.000438  0.592837  0.250000  1
  Sn  Sn11  1  0.996754  0.400320  0.750000  1
  Sn  Sn12  1  0.407601  0.407163  0.250000  1
  Sn  Sn13  1  0.596433  0.599680  0.750000  1
  Sn  Sn14  1  0.412346  0.000000  0.750000  1
  Sn  Sn15  1  0.593197  0.000000  0.250000  1
  O  O16  1  0.995667  0.000000  0.994854  1
  O  O17  1  0.995667  0.000000  0.505146  1
