# generated using pymatgen
data_PrNdSi5Rh3
_symmetry_space_group_name_H-M   'P 1'
_cell_length_a   8.27362063
_cell_length_b   8.27280985
_cell_length_c   8.27280963
_cell_angle_alpha   138.43060462
_cell_angle_beta   105.58409232
_cell_angle_gamma   89.03568584
_symmetry_Int_Tables_number   1
_chemical_formula_structural   PrNdSi5Rh3
_chemical_formula_sum   'Pr2 Nd2 Si10 Rh6'
_cell_volume   346.55439883
_cell_formula_units_Z   2
loop_
 _symmetry_equiv_pos_site_id
 _symmetry_equiv_pos_as_xyz
  1  'x, y, z'
loop_
 _atom_site_type_symbol
 _atom_site_label
 _atom_site_symmetry_multiplicity
 _atom_site_fract_x
 _atom_site_fract_y
 _atom_site_fract_z
 _atom_site_occupancy
  Pr  Pr0  1  0.636155  0.869067  0.767089  1
  Pr  Pr1  1  0.363845  0.130933  0.232911  1
  Nd  Nd2  1  0.101754  0.368946  0.732808  1
  Nd  Nd3  1  0.898246  0.631054  0.267192  1
  Si  Si4  1  0.274417  0.024846  0.749757  1
  Si  Si5  1  0.725583  0.975154  0.250243  1
  Si  Si6  1  0.725583  0.475340  0.750428  1
  Si  Si7  1  0.274417  0.524660  0.249572  1
  Si  Si8  1  0.454418  0.607092  0.847325  1
  Si  Si9  1  0.545582  0.392908  0.152675  1
  Si  Si10  1  0.760456  0.107682  0.652774  1
  Si  Si11  1  0.239544  0.892318  0.347226  1
  Si  Si12  1  0.000000  0.749655  0.749655  1
  Si  Si13  1  0.000000  0.250345  0.250345  1
  Rh  Rh14  1  0.247345  0.637921  0.609425  1
  Rh  Rh15  1  0.752655  0.362079  0.390575  1
  Rh  Rh16  1  0.028389  0.138323  0.890066  1
  Rh  Rh17  1  0.971611  0.861677  0.109934  1
  Rh  Rh18  1  0.500000  0.749886  0.249886  1
  Rh  Rh19  1  0.500000  0.250114  0.750114  1
