# generated using pymatgen
data_La4Ga24PtRh
_symmetry_space_group_name_H-M   'P 1'
_cell_length_a   6.19057200
_cell_length_b   6.19057200
_cell_length_c   15.67370000
_cell_angle_alpha   90.00000000
_cell_angle_beta   90.00000000
_cell_angle_gamma   90.00000000
_symmetry_Int_Tables_number   1
_chemical_formula_structural   La4Ga24PtRh
_chemical_formula_sum   'La4 Ga24 Pt1 Rh1'
_cell_volume   600.66605281
_cell_formula_units_Z   1
loop_
 _symmetry_equiv_pos_site_id
 _symmetry_equiv_pos_as_xyz
  1  'x, y, z'
loop_
 _atom_site_type_symbol
 _atom_site_label
 _atom_site_symmetry_multiplicity
 _atom_site_fract_x
 _atom_site_fract_y
 _atom_site_fract_z
 _atom_site_occupancy
  La  La0  1  0.000000  0.500000  0.755096  1
  La  La1  1  0.000000  0.500000  0.244904  1
  La  La2  1  0.500000  0.000000  0.756683  1
  La  La3  1  0.500000  0.000000  0.243317  1
  Ga  Ga4  1  0.246818  0.253182  0.913188  1
  Ga  Ga5  1  0.753182  0.746818  0.913188  1
  Ga  Ga6  1  0.329833  0.829833  0.431324  1
  Ga  Ga7  1  0.170955  0.670955  0.568174  1
  Ga  Ga8  1  0.246881  0.746881  0.913349  1
  Ga  Ga9  1  0.829045  0.670955  0.431826  1
  Ga  Ga10  1  0.000000  0.000000  0.654969  1
  Ga  Ga11  1  0.670167  0.170167  0.431324  1
  Ga  Ga12  1  0.329833  0.170167  0.568676  1
  Ga  Ga13  1  0.000000  0.000000  0.814351  1
  Ga  Ga14  1  0.500000  0.500000  0.345031  1
  Ga  Ga15  1  0.829045  0.329045  0.568174  1
  Ga  Ga16  1  0.670167  0.829833  0.568676  1
  Ga  Ga17  1  0.000000  0.000000  0.185649  1
  Ga  Ga18  1  0.753119  0.746881  0.086651  1
  Ga  Ga19  1  0.500000  0.500000  0.654969  1
  Ga  Ga20  1  0.753119  0.253119  0.913349  1
  Ga  Ga21  1  0.246881  0.253119  0.086651  1
  Ga  Ga22  1  0.246818  0.746818  0.086812  1
  Ga  Ga23  1  0.500000  0.500000  0.185649  1
  Ga  Ga24  1  0.170955  0.329045  0.431826  1
  Ga  Ga25  1  0.500000  0.500000  0.814351  1
  Ga  Ga26  1  0.753182  0.253182  0.086812  1
  Ga  Ga27  1  0.000000  0.000000  0.345031  1
  Pt  Pt28  1  0.500000  0.000000  0.000000  1
  Rh  Rh29  1  0.000000  0.500000  0.000000  1
