# generated using pymatgen
data_Nd16SmHo3Sn16
_symmetry_space_group_name_H-M   'P 1'
_cell_length_a   8.25023801
_cell_length_b   8.40303501
_cell_length_c   15.93220400
_cell_angle_alpha   90.00000000
_cell_angle_beta   90.00000000
_cell_angle_gamma   89.99358003
_symmetry_Int_Tables_number   1
_chemical_formula_structural   Nd16SmHo3Sn16
_chemical_formula_sum   'Nd16 Sm1 Ho3 Sn16'
_cell_volume   1104.53251938
_cell_formula_units_Z   1
loop_
 _symmetry_equiv_pos_site_id
 _symmetry_equiv_pos_as_xyz
  1  'x, y, z'
loop_
 _atom_site_type_symbol
 _atom_site_label
 _atom_site_symmetry_multiplicity
 _atom_site_fract_x
 _atom_site_fract_y
 _atom_site_fract_z
 _atom_site_occupancy
  Nd  Nd0  1  0.017642  0.180802  0.401193  1
  Nd  Nd1  1  0.368429  0.837305  0.120611  1
  Nd  Nd2  1  0.131877  0.337144  0.620801  1
  Nd  Nd3  1  0.482269  0.680963  0.901159  1
  Nd  Nd4  1  0.867820  0.663160  0.120712  1
  Nd  Nd5  1  0.131877  0.337144  0.879199  1
  Nd  Nd6  1  0.482269  0.680963  0.598841  1
  Nd  Nd7  1  0.631795  0.162908  0.620681  1
  Nd  Nd8  1  0.867820  0.663160  0.379288  1
  Nd  Nd9  1  0.017642  0.180802  0.098807  1
  Nd  Nd10  1  0.982322  0.818995  0.901187  1
  Nd  Nd11  1  0.631795  0.162908  0.879319  1
  Nd  Nd12  1  0.517998  0.318852  0.098737  1
  Nd  Nd13  1  0.368429  0.837305  0.379389  1
  Nd  Nd14  1  0.982322  0.818995  0.598813  1
  Nd  Nd15  1  0.517998  0.318852  0.401263  1
  Sm  Sm16  1  0.198588  0.502048  0.250000  1
  Ho  Ho17  1  0.699429  0.997945  0.250000  1
  Ho  Ho18  1  0.300520  0.001940  0.750000  1
  Ho  Ho19  1  0.800522  0.497979  0.750000  1
  Sn  Sn20  1  0.791727  0.464713  0.543561  1
  Sn  Sn21  1  0.708252  0.964613  0.456480  1
  Sn  Sn22  1  0.675834  0.854295  0.750000  1
  Sn  Sn23  1  0.208256  0.535507  0.456954  1
  Sn  Sn24  1  0.291739  0.035359  0.956431  1
  Sn  Sn25  1  0.823879  0.354050  0.250000  1
  Sn  Sn26  1  0.791727  0.464713  0.956439  1
  Sn  Sn27  1  0.566209  0.616586  0.250000  1
  Sn  Sn28  1  0.208256  0.535507  0.043046  1
  Sn  Sn29  1  0.434968  0.383523  0.750000  1
  Sn  Sn30  1  0.175690  0.645803  0.750000  1
  Sn  Sn31  1  0.934940  0.116527  0.750000  1
  Sn  Sn32  1  0.291739  0.035359  0.543569  1
  Sn  Sn33  1  0.708252  0.964613  0.043520  1
  Sn  Sn34  1  0.324381  0.144586  0.250000  1
  Sn  Sn35  1  0.064787  0.884079  0.250000  1
