# generated using pymatgen
data_Tb8AlPdPt23
_symmetry_space_group_name_H-M   'P 1'
_cell_length_a   8.37976900
_cell_length_b   8.37976900
_cell_length_c   8.38635200
_cell_angle_alpha   90.00000000
_cell_angle_beta   90.00000000
_cell_angle_gamma   90.00000000
_symmetry_Int_Tables_number   1
_chemical_formula_structural   Tb8AlPdPt23
_chemical_formula_sum   'Tb8 Al1 Pd1 Pt23'
_cell_volume   588.89406957
_cell_formula_units_Z   1
loop_
 _symmetry_equiv_pos_site_id
 _symmetry_equiv_pos_as_xyz
  1  'x, y, z'
loop_
 _atom_site_type_symbol
 _atom_site_label
 _atom_site_symmetry_multiplicity
 _atom_site_fract_x
 _atom_site_fract_y
 _atom_site_fract_z
 _atom_site_occupancy
  Tb  Tb0  1  0.250862  0.250862  0.251170  1
  Tb  Tb1  1  0.748673  0.748673  0.748897  1
  Tb  Tb2  1  0.749138  0.749138  0.251170  1
  Tb  Tb3  1  0.748673  0.251327  0.748897  1
  Tb  Tb4  1  0.251327  0.251327  0.748897  1
  Tb  Tb5  1  0.250862  0.749138  0.251170  1
  Tb  Tb6  1  0.251327  0.748673  0.748897  1
  Tb  Tb7  1  0.749138  0.250862  0.251170  1
  Al  Al8  1  0.000000  0.000000  0.000454  1
  Pd  Pd9  1  0.500000  0.500000  0.745696  1
  Pt  Pt10  1  0.262149  0.500000  0.000469  1
  Pt  Pt11  1  0.737851  0.500000  0.000469  1
  Pt  Pt12  1  0.000000  0.262013  0.500243  1
  Pt  Pt13  1  0.500000  0.262149  0.000469  1
  Pt  Pt14  1  0.000000  0.737987  0.500243  1
  Pt  Pt15  1  0.500000  0.737851  0.000469  1
  Pt  Pt16  1  0.500000  0.000000  0.261409  1
  Pt  Pt17  1  0.262013  0.000000  0.500243  1
  Pt  Pt18  1  0.500000  0.000000  0.737859  1
  Pt  Pt19  1  0.737987  0.000000  0.500243  1
  Pt  Pt20  1  0.000000  0.500000  0.261409  1
  Pt  Pt21  1  0.000000  0.500000  0.737859  1
  Pt  Pt22  1  0.254221  0.500000  0.499586  1
  Pt  Pt23  1  0.745779  0.500000  0.499586  1
  Pt  Pt24  1  0.500000  0.254221  0.499586  1
  Pt  Pt25  1  0.500000  0.745779  0.499586  1
  Pt  Pt26  1  0.500000  0.500000  0.254062  1
  Pt  Pt27  1  0.293530  0.000000  0.999658  1
  Pt  Pt28  1  0.706470  0.000000  0.999658  1
  Pt  Pt29  1  0.000000  0.293530  0.999658  1
  Pt  Pt30  1  0.000000  0.706470  0.999658  1
  Pt  Pt31  1  0.000000  0.000000  0.293738  1
  Pt  Pt32  1  0.000000  0.000000  0.707422  1
