# generated using pymatgen
data_Y7S8
_symmetry_space_group_name_H-M   'P 1'
_cell_length_a   7.82241262
_cell_length_b   7.81951200
_cell_length_c   7.82244202
_cell_angle_alpha   119.98464532
_cell_angle_beta   90.04087836
_cell_angle_gamma   119.98629047
_symmetry_Int_Tables_number   1
_chemical_formula_structural   Y7S8
_chemical_formula_sum   'Y7 S8'
_cell_volume   338.36347152
_cell_formula_units_Z   1
loop_
 _symmetry_equiv_pos_site_id
 _symmetry_equiv_pos_as_xyz
  1  'x, y, z'
loop_
 _atom_site_type_symbol
 _atom_site_label
 _atom_site_symmetry_multiplicity
 _atom_site_fract_x
 _atom_site_fract_y
 _atom_site_fract_z
 _atom_site_occupancy
  Y  Y0  1  0.249806  0.000027  0.249808  1
  Y  Y1  1  0.249802  0.499568  0.249782  1
  Y  Y2  1  0.750198  0.999986  0.249800  1
  Y  Y3  1  0.249990  0.500021  0.750019  1
  Y  Y4  1  0.249796  0.000000  0.750195  1
  Y  Y5  1  0.750199  0.999980  0.750184  1
  Y  Y6  1  0.750210  0.500394  0.750195  1
  S  S7  1  0.000012  0.999997  0.999990  1
  S  S8  1  0.499992  0.000009  0.500012  1
  S  S9  1  0.000161  0.000360  0.500170  1
  S  S10  1  0.000155  0.499978  0.500166  1
  S  S11  1  0.499814  0.500007  0.500197  1
  S  S12  1  0.000190  0.500003  0.999811  1
  S  S13  1  0.499842  0.500030  0.999840  1
  S  S14  1  0.499835  0.999646  0.999838  1
