# generated using pymatgen
data_Y5Er(Tm2Sb3)2
_symmetry_space_group_name_H-M   'P 1'
_cell_length_a   6.25319400
_cell_length_b   8.95867117
_cell_length_c   8.95373361
_cell_angle_alpha   120.01824933
_cell_angle_beta   90.00024994
_cell_angle_gamma   89.99949599
_symmetry_Int_Tables_number   1
_chemical_formula_structural   Y5Er(Tm2Sb3)2
_chemical_formula_sum   'Y5 Er1 Tm4 Sb6'
_cell_volume   434.31057735
_cell_formula_units_Z   1
loop_
 _symmetry_equiv_pos_site_id
 _symmetry_equiv_pos_as_xyz
  1  'x, y, z'
loop_
 _atom_site_type_symbol
 _atom_site_label
 _atom_site_symmetry_multiplicity
 _atom_site_fract_x
 _atom_site_fract_y
 _atom_site_fract_z
 _atom_site_occupancy
  Y  Y0  1  0.749995  0.752446  0.752414  1
  Y  Y1  1  0.749995  0.000032  0.247586  1
  Y  Y2  1  0.250006  0.752124  0.000000  1
  Y  Y3  1  0.250001  0.247701  0.247534  1
  Y  Y4  1  0.250001  0.000167  0.752466  1
  Er  Er5  1  0.749982  0.247697  0.000000  1
  Tm  Tm6  1  0.500008  0.333307  0.666657  1
  Tm  Tm7  1  0.500008  0.666651  0.333343  1
  Tm  Tm8  1  0.000001  0.666641  0.333345  1
  Tm  Tm9  1  0.000001  0.333296  0.666655  1
  Sb  Sb10  1  0.749988  0.609996  0.000000  1
  Sb  Sb11  1  0.750008  0.389709  0.389352  1
  Sb  Sb12  1  0.750008  0.000357  0.610648  1
  Sb  Sb13  1  0.249987  0.389675  0.000000  1
  Sb  Sb14  1  0.250008  0.610230  0.610262  1
  Sb  Sb15  1  0.250008  0.999969  0.389738  1
