# generated using pymatgen
data_Hf6Nb4Al12Os7
_symmetry_space_group_name_H-M   'P 1'
_cell_length_a   8.83201358
_cell_length_b   8.83201386
_cell_length_c   8.83201300
_cell_angle_alpha   59.99999947
_cell_angle_beta   59.99999841
_cell_angle_gamma   59.99999784
_symmetry_Int_Tables_number   1
_chemical_formula_structural   Hf6Nb4Al12Os7
_chemical_formula_sum   'Hf6 Nb4 Al12 Os7'
_cell_volume   487.15162714
_cell_formula_units_Z   1
loop_
 _symmetry_equiv_pos_site_id
 _symmetry_equiv_pos_as_xyz
  1  'x, y, z'
loop_
 _atom_site_type_symbol
 _atom_site_label
 _atom_site_symmetry_multiplicity
 _atom_site_fract_x
 _atom_site_fract_y
 _atom_site_fract_z
 _atom_site_occupancy
  Hf  Hf0  1  0.699692  0.699692  0.300308  1
  Hf  Hf1  1  0.300308  0.699692  0.300308  1
  Hf  Hf2  1  0.699692  0.300308  0.300308  1
  Hf  Hf3  1  0.300308  0.300308  0.699692  1
  Hf  Hf4  1  0.699692  0.300308  0.699692  1
  Hf  Hf5  1  0.300308  0.699692  0.699692  1
  Nb  Nb6  1  0.879030  0.879030  0.362911  1
  Nb  Nb7  1  0.879030  0.362911  0.879030  1
  Nb  Nb8  1  0.362911  0.879030  0.879030  1
  Nb  Nb9  1  0.879030  0.879030  0.879030  1
  Al  Al10  1  0.120987  0.120987  0.637038  1
  Al  Al11  1  0.120987  0.637038  0.120987  1
  Al  Al12  1  0.637038  0.120987  0.120987  1
  Al  Al13  1  0.120987  0.120987  0.120987  1
  Al  Al14  1  0.659602  0.659602  0.021194  1
  Al  Al15  1  0.659602  0.021194  0.659602  1
  Al  Al16  1  0.021194  0.659602  0.659602  1
  Al  Al17  1  0.659602  0.659602  0.659602  1
  Al  Al18  1  0.334721  0.334721  0.995838  1
  Al  Al19  1  0.334721  0.995838  0.334721  1
  Al  Al20  1  0.995838  0.334721  0.334721  1
  Al  Al21  1  0.334721  0.334721  0.334721  1
  Os  Os22  1  0.000000  0.000000  0.000000  1
  Os  Os23  1  0.998402  0.998402  0.501598  1
  Os  Os24  1  0.501598  0.998402  0.501598  1
  Os  Os25  1  0.998402  0.501598  0.501598  1
  Os  Os26  1  0.501598  0.501598  0.998402  1
  Os  Os27  1  0.998402  0.501598  0.998402  1
  Os  Os28  1  0.501598  0.998402  0.998402  1
