# generated using pymatgen
data_Sr8Cd3Si12Ni
_symmetry_space_group_name_H-M   'P 1'
_cell_length_a   11.93213962
_cell_length_b   10.29925283
_cell_length_c   8.44760188
_cell_angle_alpha   78.70398286
_cell_angle_beta   57.78957249
_cell_angle_gamma   44.51844848
_symmetry_Int_Tables_number   1
_chemical_formula_structural   Sr8Cd3Si12Ni
_chemical_formula_sum   'Sr8 Cd3 Si12 Ni1'
_cell_volume   585.42334796
_cell_formula_units_Z   1
loop_
 _symmetry_equiv_pos_site_id
 _symmetry_equiv_pos_as_xyz
  1  'x, y, z'
loop_
 _atom_site_type_symbol
 _atom_site_label
 _atom_site_symmetry_multiplicity
 _atom_site_fract_x
 _atom_site_fract_y
 _atom_site_fract_z
 _atom_site_occupancy
  Sr  Sr0  1  0.133971  0.121196  0.862711  1
  Sr  Sr1  1  0.863652  0.881814  0.132685  1
  Sr  Sr2  1  0.135914  0.123570  0.372576  1
  Sr  Sr3  1  0.373590  0.366837  0.135083  1
  Sr  Sr4  1  0.618652  0.633485  0.377516  1
  Sr  Sr5  1  0.378271  0.369774  0.617200  1
  Sr  Sr6  1  0.629949  0.628415  0.870483  1
  Sr  Sr7  1  0.868652  0.871520  0.631238  1
  Cd  Cd8  1  0.083181  0.417264  0.081741  1
  Cd  Cd9  1  0.832401  0.167479  0.831491  1
  Cd  Cd10  1  0.165693  0.832963  0.168235  1
  Si  Si11  1  0.908015  0.595817  0.435643  1
  Si  Si12  1  0.094168  0.400317  0.580705  1
  Si  Si13  1  0.432805  0.060815  0.910230  1
  Si  Si14  1  0.579940  0.924256  0.094613  1
  Si  Si15  1  0.339015  0.655420  0.818674  1
  Si  Si16  1  0.659251  0.343239  0.182229  1
  Si  Si17  1  0.824776  0.184501  0.334784  1
  Si  Si18  1  0.179810  0.821271  0.659691  1
  Si  Si19  1  0.907258  0.593447  0.907550  1
  Si  Si20  1  0.576930  0.924238  0.575697  1
  Si  Si21  1  0.339620  0.659035  0.338869  1
  Si  Si22  1  0.657901  0.339711  0.661769  1
  Ni  Ni23  1  0.416587  0.083619  0.418584  1
