# generated using pymatgen
data_Ti10Sn5Ge2Sb
_symmetry_space_group_name_H-M   'P 1'
_cell_length_a   8.26823800
_cell_length_b   8.25753401
_cell_length_c   5.56396200
_cell_angle_alpha   90.00000000
_cell_angle_beta   90.00000000
_cell_angle_gamma   120.04289754
_symmetry_Int_Tables_number   1
_chemical_formula_structural   Ti10Sn5Ge2Sb
_chemical_formula_sum   'Ti10 Sn5 Ge2 Sb1'
_cell_volume   328.84423684
_cell_formula_units_Z   1
loop_
 _symmetry_equiv_pos_site_id
 _symmetry_equiv_pos_as_xyz
  1  'x, y, z'
loop_
 _atom_site_type_symbol
 _atom_site_label
 _atom_site_symmetry_multiplicity
 _atom_site_fract_x
 _atom_site_fract_y
 _atom_site_fract_z
 _atom_site_occupancy
  Ti  Ti0  1  0.265320  0.000000  0.750000  1
  Ti  Ti1  1  0.733362  0.000000  0.250000  1
  Ti  Ti2  1  0.998076  0.261865  0.750000  1
  Ti  Ti3  1  0.000025  0.734351  0.250000  1
  Ti  Ti4  1  0.736211  0.738135  0.750000  1
  Ti  Ti5  1  0.265674  0.265649  0.250000  1
  Ti  Ti6  1  0.334544  0.668193  0.499256  1
  Ti  Ti7  1  0.666353  0.331807  0.499256  1
  Ti  Ti8  1  0.666353  0.331807  0.000744  1
  Ti  Ti9  1  0.334544  0.668193  0.000744  1
  Sn  Sn10  1  0.389777  0.000000  0.250000  1
  Sn  Sn11  1  0.999805  0.607132  0.750000  1
  Sn  Sn12  1  0.000873  0.392353  0.250000  1
  Sn  Sn13  1  0.392672  0.392868  0.750000  1
  Sn  Sn14  1  0.608520  0.607647  0.250000  1
  Ge  Ge15  1  0.001252  0.000000  0.498416  1
  Ge  Ge16  1  0.001252  0.000000  0.001584  1
  Sb  Sb17  1  0.605389  0.000000  0.750000  1
