# generated using pymatgen
data_Tm2Fe11ReP7
_symmetry_space_group_name_H-M   'P 1'
_cell_length_a   8.95536900
_cell_length_b   8.95542624
_cell_length_c   3.61909000
_cell_angle_alpha   90.00000000
_cell_angle_beta   90.00000000
_cell_angle_gamma   120.04089076
_symmetry_Int_Tables_number   1
_chemical_formula_structural   Tm2Fe11ReP7
_chemical_formula_sum   'Tm2 Fe11 Re1 P7'
_cell_volume   251.25844414
_cell_formula_units_Z   1
loop_
 _symmetry_equiv_pos_site_id
 _symmetry_equiv_pos_as_xyz
  1  'x, y, z'
loop_
 _atom_site_type_symbol
 _atom_site_label
 _atom_site_symmetry_multiplicity
 _atom_site_fract_x
 _atom_site_fract_y
 _atom_site_fract_z
 _atom_site_occupancy
  Tm  Tm0  1  0.668366  0.334471  0.000000  1
  Tm  Tm1  1  0.330630  0.666996  0.500000  1
  Fe  Fe2  1  0.426957  0.056231  0.500000  1
  Fe  Fe3  1  0.943063  0.368475  0.500000  1
  Fe  Fe4  1  0.624542  0.569499  0.500000  1
  Fe  Fe5  1  0.158130  0.276681  0.500000  1
  Fe  Fe6  1  0.724442  0.883588  0.500000  1
  Fe  Fe7  1  0.121246  0.847489  0.500000  1
  Fe  Fe8  1  0.384555  0.432042  0.000000  1
  Fe  Fe9  1  0.566375  0.952674  0.000000  1
  Fe  Fe10  1  0.052000  0.615154  0.000000  1
  Fe  Fe11  1  0.217040  0.095004  0.000000  1
  Fe  Fe12  1  0.904488  0.119002  0.000000  1
  Re  Re13  1  0.882303  0.784525  0.000000  1
  P  P14  1  0.111556  0.401836  0.000000  1
  P  P15  1  0.590339  0.711810  0.000000  1
  P  P16  1  0.290560  0.886144  0.000000  1
  P  P17  1  0.001906  0.005017  0.500000  1
  P  P18  1  0.410926  0.292846  0.500000  1
  P  P19  1  0.701658  0.115193  0.500000  1
  P  P20  1  0.888918  0.585323  0.500000  1
