# generated using pymatgen
data_Lu8Sc9Si16Mo3
_symmetry_space_group_name_H-M   'P 1'
_cell_length_a   6.89919301
_cell_length_b   7.18827618
_cell_length_c   13.61976600
_cell_angle_alpha   90.00000000
_cell_angle_beta   90.00000000
_cell_angle_gamma   90.14814629
_symmetry_Int_Tables_number   1
_chemical_formula_structural   Lu8Sc9Si16Mo3
_chemical_formula_sum   'Lu8 Sc9 Si16 Mo3'
_cell_volume   675.44694879
_cell_formula_units_Z   1
loop_
 _symmetry_equiv_pos_site_id
 _symmetry_equiv_pos_as_xyz
  1  'x, y, z'
loop_
 _atom_site_type_symbol
 _atom_site_label
 _atom_site_symmetry_multiplicity
 _atom_site_fract_x
 _atom_site_fract_y
 _atom_site_fract_z
 _atom_site_occupancy
  Lu  Lu0  1  0.011375  0.176556  0.097085  1
  Lu  Lu1  1  0.989320  0.819763  0.904721  1
  Lu  Lu2  1  0.484354  0.676590  0.905862  1
  Lu  Lu3  1  0.989320  0.819763  0.595279  1
  Lu  Lu4  1  0.512454  0.321675  0.099369  1
  Lu  Lu5  1  0.011375  0.176556  0.402915  1
  Lu  Lu6  1  0.512454  0.321675  0.400631  1
  Lu  Lu7  1  0.484354  0.676590  0.594138  1
  Sc  Sc8  1  0.652099  0.995313  0.750000  1
  Sc  Sc9  1  0.325163  0.175301  0.624921  1
  Sc  Sc10  1  0.675460  0.825459  0.371838  1
  Sc  Sc11  1  0.175076  0.671794  0.372918  1
  Sc  Sc12  1  0.675460  0.825459  0.128162  1
  Sc  Sc13  1  0.824576  0.331708  0.626223  1
  Sc  Sc14  1  0.325163  0.175301  0.875079  1
  Sc  Sc15  1  0.824576  0.331708  0.873777  1
  Sc  Sc16  1  0.175076  0.671794  0.127082  1
  Si  Si17  1  0.027366  0.119050  0.750000  1
  Si  Si18  1  0.980728  0.893810  0.250000  1
  Si  Si19  1  0.478761  0.604133  0.250000  1
  Si  Si20  1  0.515078  0.399685  0.750000  1
  Si  Si21  1  0.277481  0.857049  0.750000  1
  Si  Si22  1  0.716574  0.136792  0.250000  1
  Si  Si23  1  0.214081  0.360224  0.250000  1
  Si  Si24  1  0.787581  0.634941  0.750000  1
  Si  Si25  1  0.154549  0.467677  0.543944  1
  Si  Si26  1  0.844961  0.530038  0.452776  1
  Si  Si27  1  0.345287  0.968346  0.452057  1
  Si  Si28  1  0.844961  0.530038  0.047224  1
  Si  Si29  1  0.659075  0.035780  0.536739  1
  Si  Si30  1  0.154549  0.467677  0.956056  1
  Si  Si31  1  0.659075  0.035780  0.963261  1
  Si  Si32  1  0.345287  0.968346  0.047943  1
  Mo  Mo33  1  0.147397  0.500010  0.750000  1
  Mo  Mo34  1  0.850625  0.496869  0.250000  1
  Mo  Mo35  1  0.348930  0.000749  0.250000  1
