# generated using pymatgen
data_V12Zn8CN3
_symmetry_space_group_name_H-M   'P 1'
_cell_length_a   6.59137641
_cell_length_b   6.59137641
_cell_length_c   6.59137641
_cell_angle_alpha   90.05304695
_cell_angle_beta   89.94695305
_cell_angle_gamma   89.94695305
_symmetry_Int_Tables_number   1
_chemical_formula_structural   V12Zn8CN3
_chemical_formula_sum   'V12 Zn8 C1 N3'
_cell_volume   286.37017305
_cell_formula_units_Z   1
loop_
 _symmetry_equiv_pos_site_id
 _symmetry_equiv_pos_as_xyz
  1  'x, y, z'
loop_
 _atom_site_type_symbol
 _atom_site_label
 _atom_site_symmetry_multiplicity
 _atom_site_fract_x
 _atom_site_fract_y
 _atom_site_fract_z
 _atom_site_occupancy
  V  V0  1  0.786452  0.961547  0.373208  1
  V  V1  1  0.711547  0.036452  0.876792  1
  V  V2  1  0.213365  0.463365  0.125000  1
  V  V3  1  0.287302  0.537302  0.625000  1
  V  V4  1  0.963548  0.376792  0.788453  1
  V  V5  1  0.038453  0.873208  0.713548  1
  V  V6  1  0.462698  0.125000  0.212698  1
  V  V7  1  0.536635  0.625000  0.286635  1
  V  V8  1  0.375000  0.786635  0.963365  1
  V  V9  1  0.875000  0.712698  0.037302  1
  V  V10  1  0.126792  0.213548  0.461547  1
  V  V11  1  0.623208  0.288453  0.536452  1
  Zn  Zn12  1  0.177065  0.822935  0.322935  1
  Zn  Zn13  1  0.322457  0.177095  0.822612  1
  Zn  Zn14  1  0.822905  0.322612  0.177543  1
  Zn  Zn15  1  0.677388  0.677543  0.677095  1
  Zn  Zn16  1  0.572935  0.427065  0.927065  1
  Zn  Zn17  1  0.427543  0.927388  0.572905  1
  Zn  Zn18  1  0.927095  0.572457  0.427388  1
  Zn  Zn19  1  0.072612  0.072905  0.072457  1
  C  C20  1  0.875000  0.125000  0.625000  1
  N  N21  1  0.624350  0.874350  0.125000  1
  N  N22  1  0.125650  0.625000  0.875650  1
  N  N23  1  0.375000  0.375650  0.374350  1
