# generated using pymatgen
data_Yb2U2As6Ru7
_symmetry_space_group_name_H-M   'P 1'
_cell_length_a   7.22860309
_cell_length_b   7.22860236
_cell_length_c   7.15678469
_cell_angle_alpha   109.15937502
_cell_angle_beta   109.15937053
_cell_angle_gamma   110.49512464
_symmetry_Int_Tables_number   1
_chemical_formula_structural   Yb2U2As6Ru7
_chemical_formula_sum   'Yb2 U2 As6 Ru7'
_cell_volume   286.40587773
_cell_formula_units_Z   1
loop_
 _symmetry_equiv_pos_site_id
 _symmetry_equiv_pos_as_xyz
  1  'x, y, z'
loop_
 _atom_site_type_symbol
 _atom_site_label
 _atom_site_symmetry_multiplicity
 _atom_site_fract_x
 _atom_site_fract_y
 _atom_site_fract_z
 _atom_site_occupancy
  Yb  Yb0  1  0.000000  0.000000  0.500000  1
  Yb  Yb1  1  0.500000  0.500000  0.500000  1
  U  U2  1  0.500000  0.000000  0.000000  1
  U  U3  1  0.000000  0.500000  0.000000  1
  As  As4  1  0.312182  0.006012  0.318194  1
  As  As5  1  0.006012  0.312182  0.318194  1
  As  As6  1  0.993988  0.687818  0.681806  1
  As  As7  1  0.312383  0.312383  0.000000  1
  As  As8  1  0.687617  0.687617  0.000000  1
  As  As9  1  0.687818  0.993988  0.681806  1
  Ru  Ru10  1  0.750585  0.490327  0.240912  1
  Ru  Ru11  1  0.490327  0.750585  0.240912  1
  Ru  Ru12  1  0.509673  0.249415  0.759088  1
  Ru  Ru13  1  0.750000  0.250000  0.500000  1
  Ru  Ru14  1  0.250000  0.750000  0.500000  1
  Ru  Ru15  1  0.249415  0.509673  0.759088  1
  Ru  Ru16  1  0.000000  0.000000  0.000000  1
