# generated using pymatgen
data_Nb6Re5Si6Os
_symmetry_space_group_name_H-M   'P 1'
_cell_length_a   7.56901545
_cell_length_b   7.55355641
_cell_length_c   7.55355577
_cell_angle_alpha   127.66181104
_cell_angle_beta   123.59792424
_cell_angle_gamma   80.49373197
_symmetry_Int_Tables_number   1
_chemical_formula_structural   Nb6Re5Si6Os
_chemical_formula_sum   'Nb6 Re5 Si6 Os1'
_cell_volume   274.79075246
_cell_formula_units_Z   1
loop_
 _symmetry_equiv_pos_site_id
 _symmetry_equiv_pos_as_xyz
  1  'x, y, z'
loop_
 _atom_site_type_symbol
 _atom_site_label
 _atom_site_symmetry_multiplicity
 _atom_site_fract_x
 _atom_site_fract_y
 _atom_site_fract_z
 _atom_site_occupancy
  Nb  Nb0  1  0.555285  0.093712  0.044670  1
  Nb  Nb1  1  0.444715  0.489385  0.538426  1
  Nb  Nb2  1  0.970787  0.501201  0.039683  1
  Nb  Nb3  1  0.029213  0.068895  0.530415  1
  Nb  Nb4  1  0.755098  0.912276  0.661469  1
  Nb  Nb5  1  0.244902  0.906371  0.157178  1
  Re  Re6  1  0.000000  0.246746  0.246746  1
  Re  Re7  1  0.161981  0.747937  0.658355  1
  Re  Re8  1  0.838019  0.496374  0.585956  1
  Re  Re9  1  0.592092  0.747010  0.088476  1
  Re  Re10  1  0.407908  0.496384  0.154918  1
  Si  Si11  1  0.776362  0.528977  0.251717  1
  Si  Si12  1  0.223638  0.475355  0.752615  1
  Si  Si13  1  0.336893  0.832577  0.501787  1
  Si  Si14  1  0.663107  0.164894  0.495684  1
  Si  Si15  1  0.829114  0.825712  0.989993  1
  Si  Si16  1  0.170886  0.160880  0.996598  1
  Os  Os17  1  0.500000  0.247514  0.747514  1
