# generated using pymatgen
data_Rb2TiZnSe4
_symmetry_space_group_name_H-M   'P 1'
_cell_length_a   7.38113952
_cell_length_b   7.38113865
_cell_length_c   5.69695700
_cell_angle_alpha   78.91747623
_cell_angle_beta   78.91746965
_cell_angle_gamma   116.57745909
_symmetry_Int_Tables_number   1
_chemical_formula_structural   Rb2TiZnSe4
_chemical_formula_sum   'Rb2 Ti1 Zn1 Se4'
_cell_volume   258.35323193
_cell_formula_units_Z   1
loop_
 _symmetry_equiv_pos_site_id
 _symmetry_equiv_pos_as_xyz
  1  'x, y, z'
loop_
 _atom_site_type_symbol
 _atom_site_label
 _atom_site_symmetry_multiplicity
 _atom_site_fract_x
 _atom_site_fract_y
 _atom_site_fract_z
 _atom_site_occupancy
  Rb  Rb0  1  0.140810  0.859190  0.250000  1
  Rb  Rb1  1  0.859033  0.140967  0.750000  1
  Ti  Ti2  1  0.498776  0.501224  0.750000  1
  Zn  Zn3  1  0.502011  0.497989  0.250000  1
  Se  Se4  1  0.195489  0.417225  0.090486  1
  Se  Se5  1  0.582775  0.804511  0.409514  1
  Se  Se6  1  0.805434  0.584327  0.889900  1
  Se  Se7  1  0.415673  0.194566  0.610100  1
