# generated using pymatgen
data_Y3Sc3MnBi2
_symmetry_space_group_name_H-M   'P 1'
_cell_length_a   7.96217300
_cell_length_b   7.96217354
_cell_length_c   4.27400100
_cell_angle_alpha   90.00000000
_cell_angle_beta   90.00000000
_cell_angle_gamma   119.99999360
_symmetry_Int_Tables_number   1
_chemical_formula_structural   Y3Sc3MnBi2
_chemical_formula_sum   'Y3 Sc3 Mn1 Bi2'
_cell_volume   234.65430584
_cell_formula_units_Z   1
loop_
 _symmetry_equiv_pos_site_id
 _symmetry_equiv_pos_as_xyz
  1  'x, y, z'
loop_
 _atom_site_type_symbol
 _atom_site_label
 _atom_site_symmetry_multiplicity
 _atom_site_fract_x
 _atom_site_fract_y
 _atom_site_fract_z
 _atom_site_occupancy
  Y  Y0  1  0.608983  0.000000  0.000000  1
  Y  Y1  1  0.000000  0.608983  0.000000  1
  Y  Y2  1  0.391017  0.391017  0.000000  1
  Sc  Sc3  1  0.222568  0.000000  0.500000  1
  Sc  Sc4  1  0.000000  0.222568  0.500000  1
  Sc  Sc5  1  0.777432  0.777432  0.500000  1
  Mn  Mn6  1  0.000000  0.000000  0.000000  1
  Bi  Bi7  1  0.333333  0.666667  0.500000  1
  Bi  Bi8  1  0.666667  0.333333  0.500000  1
