# generated using pymatgen
data_Li2Pr8Tm9ScSi16
_symmetry_space_group_name_H-M   'P 1'
_cell_length_a   7.32098525
_cell_length_b   7.76782501
_cell_length_c   14.68588300
_cell_angle_alpha   90.00000000
_cell_angle_beta   90.00000000
_cell_angle_gamma   90.04230637
_symmetry_Int_Tables_number   1
_chemical_formula_structural   Li2Pr8Tm9ScSi16
_chemical_formula_sum   'Li2 Pr8 Tm9 Sc1 Si16'
_cell_volume   835.15851035
_cell_formula_units_Z   1
loop_
 _symmetry_equiv_pos_site_id
 _symmetry_equiv_pos_as_xyz
  1  'x, y, z'
loop_
 _atom_site_type_symbol
 _atom_site_label
 _atom_site_symmetry_multiplicity
 _atom_site_fract_x
 _atom_site_fract_y
 _atom_site_fract_z
 _atom_site_occupancy
  Li  Li0  1  0.846016  0.491674  0.250000  1
  Li  Li1  1  0.153795  0.507704  0.750000  1
  Pr  Pr2  1  0.015881  0.184797  0.398375  1
  Pr  Pr3  1  0.524072  0.323593  0.398868  1
  Pr  Pr4  1  0.475172  0.675396  0.900156  1
  Pr  Pr5  1  0.475172  0.675396  0.599844  1
  Pr  Pr6  1  0.984669  0.814680  0.600218  1
  Pr  Pr7  1  0.984669  0.814680  0.899782  1
  Pr  Pr8  1  0.524072  0.323593  0.101132  1
  Pr  Pr9  1  0.015881  0.184797  0.101625  1
  Tm  Tm10  1  0.321665  0.185108  0.624149  1
  Tm  Tm11  1  0.677551  0.815795  0.374266  1
  Tm  Tm12  1  0.654198  0.993268  0.750000  1
  Tm  Tm13  1  0.170660  0.676593  0.373079  1
  Tm  Tm14  1  0.830110  0.324522  0.874305  1
  Tm  Tm15  1  0.830110  0.324522  0.625695  1
  Tm  Tm16  1  0.321665  0.185108  0.875851  1
  Tm  Tm17  1  0.170660  0.676593  0.126921  1
  Tm  Tm18  1  0.677551  0.815795  0.125734  1
  Sc  Sc19  1  0.346298  0.006215  0.250000  1
  Si  Si20  1  0.279101  0.890040  0.750000  1
  Si  Si21  1  0.467142  0.611731  0.250000  1
  Si  Si22  1  0.028084  0.102611  0.750000  1
  Si  Si23  1  0.532774  0.388017  0.750000  1
  Si  Si24  1  0.150151  0.463075  0.532415  1
  Si  Si25  1  0.977104  0.901751  0.250000  1
  Si  Si26  1  0.714983  0.108617  0.250000  1
  Si  Si27  1  0.849437  0.536879  0.034085  1
  Si  Si28  1  0.350576  0.968966  0.040139  1
  Si  Si29  1  0.150151  0.463075  0.967585  1
  Si  Si30  1  0.649442  0.031452  0.537783  1
  Si  Si31  1  0.350576  0.968966  0.459861  1
  Si  Si32  1  0.849437  0.536879  0.465915  1
  Si  Si33  1  0.772969  0.619607  0.750000  1
  Si  Si34  1  0.228764  0.377054  0.250000  1
  Si  Si35  1  0.649442  0.031452  0.962217  1
