# generated using pymatgen
data_TiCd6IO12
_symmetry_space_group_name_H-M   'P 1'
_cell_length_a   5.71506491
_cell_length_b   5.54640917
_cell_length_c   9.85076806
_cell_angle_alpha   56.22129248
_cell_angle_beta   90.35791063
_cell_angle_gamma   90.24805925
_symmetry_Int_Tables_number   1
_chemical_formula_structural   TiCd6IO12
_chemical_formula_sum   'Ti1 Cd6 I1 O12'
_cell_volume   259.53466318
_cell_formula_units_Z   1
loop_
 _symmetry_equiv_pos_site_id
 _symmetry_equiv_pos_as_xyz
  1  'x, y, z'
loop_
 _atom_site_type_symbol
 _atom_site_label
 _atom_site_symmetry_multiplicity
 _atom_site_fract_x
 _atom_site_fract_y
 _atom_site_fract_z
 _atom_site_occupancy
  Ti  Ti0  1  0.000000  0.000000  0.000000  1
  Cd  Cd1  1  0.958300  0.277549  0.223512  1
  Cd  Cd2  1  0.442654  0.784737  0.236900  1
  Cd  Cd3  1  0.041700  0.722451  0.776488  1
  Cd  Cd4  1  0.557346  0.215263  0.763100  1
  Cd  Cd5  1  0.000000  0.500000  0.500000  1
  Cd  Cd6  1  0.500000  0.500000  0.000000  1
  I  I7  1  0.500000  0.000000  0.500000  1
  O  O8  1  0.282556  0.895628  0.925538  1
  O  O9  1  0.776548  0.063991  0.587384  1
  O  O10  1  0.717444  0.104372  0.074462  1
  O  O11  1  0.223452  0.936009  0.412616  1
  O  O12  1  0.184444  0.249247  0.043886  1
  O  O13  1  0.668548  0.778483  0.439090  1
  O  O14  1  0.815556  0.750753  0.956114  1
  O  O15  1  0.331452  0.221517  0.560910  1
  O  O16  1  0.424168  0.655978  0.710714  1
  O  O17  1  0.936101  0.335271  0.768698  1
  O  O18  1  0.575832  0.344022  0.289286  1
  O  O19  1  0.063899  0.664729  0.231302  1
