# generated using pymatgen
data_La7Nd9(CdPd)4
_symmetry_space_group_name_H-M   'P 1'
_cell_length_a   10.09864465
_cell_length_b   10.09897330
_cell_length_c   10.11278515
_cell_angle_alpha   59.95259869
_cell_angle_beta   60.05093006
_cell_angle_gamma   60.09157840
_symmetry_Int_Tables_number   1
_chemical_formula_structural   La7Nd9(CdPd)4
_chemical_formula_sum   'La7 Nd9 Cd4 Pd4'
_cell_volume   729.80482900
_cell_formula_units_Z   1
loop_
 _symmetry_equiv_pos_site_id
 _symmetry_equiv_pos_as_xyz
  1  'x, y, z'
loop_
 _atom_site_type_symbol
 _atom_site_label
 _atom_site_symmetry_multiplicity
 _atom_site_fract_x
 _atom_site_fract_y
 _atom_site_fract_z
 _atom_site_occupancy
  La  La0  1  0.350833  0.350918  0.351771  1
  La  La1  1  0.351972  0.351128  0.944764  1
  La  La2  1  0.351771  0.946479  0.350833  1
  La  La3  1  0.944764  0.352137  0.351972  1
  La  La4  1  0.807543  0.192823  0.192026  1
  La  La5  1  0.192026  0.807609  0.807543  1
  La  La6  1  0.192637  0.807363  0.192637  1
  Nd  Nd7  1  0.807278  0.192722  0.807278  1
  Nd  Nd8  1  0.192475  0.193594  0.806896  1
  Nd  Nd9  1  0.806896  0.807035  0.192475  1
  Nd  Nd10  1  0.934625  0.565703  0.565926  1
  Nd  Nd11  1  0.565926  0.933747  0.934625  1
  Nd  Nd12  1  0.565753  0.934247  0.565753  1
  Nd  Nd13  1  0.934155  0.565845  0.934155  1
  Nd  Nd14  1  0.565835  0.565704  0.934696  1
  Nd  Nd15  1  0.934696  0.933766  0.565835  1
  Cd  Cd16  1  0.581099  0.580279  0.580229  1
  Cd  Cd17  1  0.580813  0.580918  0.258267  1
  Cd  Cd18  1  0.580229  0.258394  0.581099  1
  Cd  Cd19  1  0.258267  0.580004  0.580813  1
  Pd  Pd20  1  0.143337  0.143197  0.143397  1
  Pd  Pd21  1  0.143288  0.143088  0.570389  1
  Pd  Pd22  1  0.143397  0.570068  0.143337  1
  Pd  Pd23  1  0.570389  0.143233  0.143288  1
