# generated using pymatgen
data_Nd2Si4Ni17Ir
_symmetry_space_group_name_H-M   'P 1'
_cell_length_a   7.65179512
_cell_length_b   7.65179524
_cell_length_c   7.65179450
_cell_angle_alpha   99.57454594
_cell_angle_beta   99.57455012
_cell_angle_gamma   131.86196691
_symmetry_Int_Tables_number   1
_chemical_formula_structural   Nd2Si4Ni17Ir
_chemical_formula_sum   'Nd2 Si4 Ni17 Ir1'
_cell_volume   304.64927012
_cell_formula_units_Z   1
loop_
 _symmetry_equiv_pos_site_id
 _symmetry_equiv_pos_as_xyz
  1  'x, y, z'
loop_
 _atom_site_type_symbol
 _atom_site_label
 _atom_site_symmetry_multiplicity
 _atom_site_fract_x
 _atom_site_fract_y
 _atom_site_fract_z
 _atom_site_occupancy
  Nd  Nd0  1  0.500001  0.500001  0.000000  1
  Nd  Nd1  1  0.249999  0.749999  0.500000  1
  Si  Si2  1  0.376230  0.125469  0.250760  1
  Si  Si3  1  0.874530  0.125292  0.250762  1
  Si  Si4  1  0.874530  0.623768  0.749238  1
  Si  Si5  1  0.874708  0.125469  0.749240  1
  Ni  Ni6  1  0.063488  0.395548  0.081288  1
  Ni  Ni7  1  0.017800  0.685739  0.081288  1
  Ni  Ni8  1  0.732878  0.311924  0.172403  1
  Ni  Ni9  1  0.439524  0.860477  0.172403  1
  Ni  Ni10  1  0.017800  0.936511  0.332060  1
  Ni  Ni11  1  0.314260  0.395548  0.332060  1
  Ni  Ni12  1  0.732878  0.560476  0.420954  1
  Ni  Ni13  1  0.688076  0.860477  0.420954  1
  Ni  Ni14  1  0.749999  0.249999  0.500000  1
  Ni  Ni15  1  0.439523  0.267121  0.579046  1
  Ni  Ni16  1  0.139522  0.311923  0.579046  1
  Ni  Ni17  1  0.063488  0.982199  0.667940  1
  Ni  Ni18  1  0.604451  0.685739  0.667940  1
  Ni  Ni19  1  0.688075  0.267121  0.827597  1
  Ni  Ni20  1  0.139522  0.560475  0.827597  1
  Ni  Ni21  1  0.604451  0.936511  0.918712  1
  Ni  Ni22  1  0.314260  0.982199  0.918712  1
  Ir  Ir23  1  0.000000  0.000000  0.000000  1
