# generated using pymatgen
data_Ca3Si4H
_symmetry_space_group_name_H-M   'P 1'
_cell_length_a   4.10930681
_cell_length_b   4.11190932
_cell_length_c   9.98336690
_cell_angle_alpha   65.75127715
_cell_angle_beta   90.00027193
_cell_angle_gamma   89.98608898
_symmetry_Int_Tables_number   1
_chemical_formula_structural   Ca3Si4H
_chemical_formula_sum   'Ca3 Si4 H1'
_cell_volume   153.80660393
_cell_formula_units_Z   1
loop_
 _symmetry_equiv_pos_site_id
 _symmetry_equiv_pos_as_xyz
  1  'x, y, z'
loop_
 _atom_site_type_symbol
 _atom_site_label
 _atom_site_symmetry_multiplicity
 _atom_site_fract_x
 _atom_site_fract_y
 _atom_site_fract_z
 _atom_site_occupancy
  Ca  Ca0  1  0.159765  0.190619  0.977939  1
  Ca  Ca1  1  0.659499  0.933109  0.738645  1
  Ca  Ca2  1  0.158966  0.317044  0.357638  1
  Si  Si3  1  0.659630  0.582196  0.087640  1
  Si  Si4  1  0.659122  0.690343  0.485977  1
  Si  Si5  1  0.159328  0.545520  0.628351  1
  Si  Si6  1  0.658731  0.941253  0.230086  1
  H  H7  1  0.660367  0.307494  0.859327  1
