# generated using pymatgen
data_Sr3LaScCrO8
_symmetry_space_group_name_H-M   'P 1'
_cell_length_a   5.57383827
_cell_length_b   12.69809111
_cell_length_c   5.61400241
_cell_angle_alpha   90.01683047
_cell_angle_beta   89.95950797
_cell_angle_gamma   90.06489821
_symmetry_Int_Tables_number   1
_chemical_formula_structural   Sr3LaScCrO8
_chemical_formula_sum   'Sr6 La2 Sc2 Cr2 O16'
_cell_volume   397.34247361
_cell_formula_units_Z   2
loop_
 _symmetry_equiv_pos_site_id
 _symmetry_equiv_pos_as_xyz
  1  'x, y, z'
loop_
 _atom_site_type_symbol
 _atom_site_label
 _atom_site_symmetry_multiplicity
 _atom_site_fract_x
 _atom_site_fract_y
 _atom_site_fract_z
 _atom_site_occupancy
  Sr  Sr0  1  0.500029  0.143426  0.000032  1
  Sr  Sr1  1  0.499918  0.645820  0.499967  1
  Sr  Sr2  1  0.000114  0.142305  0.500029  1
  Sr  Sr3  1  0.999974  0.646664  0.999974  1
  Sr  Sr4  1  0.000069  0.352867  0.999950  1
  Sr  Sr5  1  0.999884  0.854437  0.500018  1
  La  La6  1  0.499978  0.356604  0.500066  1
  La  La7  1  0.500035  0.860004  0.999896  1
  Sc  Sc8  1  0.500003  0.000583  0.500062  1
  Sc  Sc9  1  0.499931  0.501502  0.000036  1
  Cr  Cr10  1  0.999563  0.501343  0.499985  1
  Cr  Cr11  1  0.999966  0.002033  0.000014  1
  O  O12  1  0.000410  0.336840  0.500185  1
  O  O13  1  0.999796  0.841777  0.999925  1
  O  O14  1  0.500188  0.334112  0.999621  1
  O  O15  1  0.499873  0.834666  0.500115  1
  O  O16  1  0.500051  0.175950  0.499914  1
  O  O17  1  0.499793  0.676135  0.000188  1
  O  O18  1  0.000153  0.154112  0.999955  1
  O  O19  1  0.999184  0.658670  0.499738  1
  O  O20  1  0.243560  0.497385  0.738125  1
  O  O21  1  0.245426  0.997485  0.239488  1
  O  O22  1  0.756913  0.497714  0.261398  1
  O  O23  1  0.754573  0.997577  0.760598  1
  O  O24  1  0.757371  0.497687  0.738466  1
  O  O25  1  0.755048  0.997429  0.239225  1
  O  O26  1  0.243198  0.497369  0.262181  1
  O  O27  1  0.245000  0.997512  0.760850  1
