# generated using pymatgen
data_NaSmCl4
_symmetry_space_group_name_H-M   'P 1'
_cell_length_a   6.82083541
_cell_length_b   6.87910629
_cell_length_c   7.13852484
_cell_angle_alpha   89.34257459
_cell_angle_beta   87.75274780
_cell_angle_gamma   78.05955721
_symmetry_Int_Tables_number   1
_chemical_formula_structural   NaSmCl4
_chemical_formula_sum   'Na2 Sm2 Cl8'
_cell_volume   327.44733894
_cell_formula_units_Z   2
loop_
 _symmetry_equiv_pos_site_id
 _symmetry_equiv_pos_as_xyz
  1  'x, y, z'
loop_
 _atom_site_type_symbol
 _atom_site_label
 _atom_site_symmetry_multiplicity
 _atom_site_fract_x
 _atom_site_fract_y
 _atom_site_fract_z
 _atom_site_occupancy
  Na  Na0  1  0.766855  0.805319  0.465780  1
  Na  Na1  1  0.233145  0.194681  0.534220  1
  Sm  Sm2  1  0.789632  0.299989  0.054106  1
  Sm  Sm3  1  0.210368  0.700011  0.945894  1
  Cl  Cl4  1  0.607446  0.203436  0.366303  1
  Cl  Cl5  1  0.956593  0.497097  0.755767  1
  Cl  Cl6  1  0.564836  0.686133  0.120652  1
  Cl  Cl7  1  0.392554  0.796564  0.633697  1
  Cl  Cl8  1  0.435164  0.313867  0.879348  1
  Cl  Cl9  1  0.905897  0.998051  0.791277  1
  Cl  Cl10  1  0.094103  0.001949  0.208723  1
  Cl  Cl11  1  0.043407  0.502903  0.244233  1
