# generated using pymatgen
data_CaLa(RhO3)2
_symmetry_space_group_name_H-M   'P 1'
_cell_length_a   5.44205100
_cell_length_b   5.76570500
_cell_length_c   7.83387200
_cell_angle_alpha   90.00000000
_cell_angle_beta   90.00000000
_cell_angle_gamma   90.00000000
_symmetry_Int_Tables_number   1
_chemical_formula_structural   CaLa(RhO3)2
_chemical_formula_sum   'Ca2 La2 Rh4 O12'
_cell_volume   245.80544373
_cell_formula_units_Z   2
loop_
 _symmetry_equiv_pos_site_id
 _symmetry_equiv_pos_as_xyz
  1  'x, y, z'
loop_
 _atom_site_type_symbol
 _atom_site_label
 _atom_site_symmetry_multiplicity
 _atom_site_fract_x
 _atom_site_fract_y
 _atom_site_fract_z
 _atom_site_occupancy
  Ca  Ca0  1  0.479762  0.568039  0.750000  1
  Ca  Ca1  1  0.979762  0.931961  0.250000  1
  La  La2  1  0.018100  0.061817  0.750000  1
  La  La3  1  0.518100  0.438183  0.250000  1
  Rh  Rh4  1  0.499894  0.999186  0.499255  1
  Rh  Rh5  1  0.999894  0.500814  0.500745  1
  Rh  Rh6  1  0.999894  0.500814  0.999255  1
  Rh  Rh7  1  0.499894  0.999186  0.000745  1
  O  O8  1  0.811082  0.194801  0.447940  1
  O  O9  1  0.311082  0.305199  0.552060  1
  O  O10  1  0.694963  0.702184  0.052309  1
  O  O11  1  0.194963  0.797816  0.947691  1
  O  O12  1  0.194963  0.797816  0.552309  1
  O  O13  1  0.694963  0.702184  0.447691  1
  O  O14  1  0.311082  0.305199  0.947940  1
  O  O15  1  0.811082  0.194801  0.052060  1
  O  O16  1  0.391268  0.033305  0.250000  1
  O  O17  1  0.891268  0.466695  0.750000  1
  O  O18  1  0.098992  0.541049  0.250000  1
  O  O19  1  0.598992  0.958951  0.750000  1
