# generated using pymatgen
data_PrEuCo9P6Ru
_symmetry_space_group_name_H-M   'P 1'
_cell_length_a   3.69644300
_cell_length_b   10.44771400
_cell_length_c   11.86534300
_cell_angle_alpha   90.00000000
_cell_angle_beta   90.00000000
_cell_angle_gamma   90.00000000
_symmetry_Int_Tables_number   1
_chemical_formula_structural   PrEuCo9P6Ru
_chemical_formula_sum   'Pr2 Eu2 Co18 P12 Ru2'
_cell_volume   458.23218162
_cell_formula_units_Z   2
loop_
 _symmetry_equiv_pos_site_id
 _symmetry_equiv_pos_as_xyz
  1  'x, y, z'
loop_
 _atom_site_type_symbol
 _atom_site_label
 _atom_site_symmetry_multiplicity
 _atom_site_fract_x
 _atom_site_fract_y
 _atom_site_fract_z
 _atom_site_occupancy
  Pr  Pr0  1  0.250000  0.583919  0.702117  1
  Pr  Pr1  1  0.250000  0.916081  0.202117  1
  Eu  Eu2  1  0.750000  0.413333  0.296003  1
  Eu  Eu3  1  0.750000  0.086667  0.796003  1
  Co  Co4  1  0.750000  0.286493  0.009122  1
  Co  Co5  1  0.750000  0.213507  0.509122  1
  Co  Co6  1  0.250000  0.405652  0.489829  1
  Co  Co7  1  0.250000  0.094348  0.989829  1
  Co  Co8  1  0.750000  0.592370  0.507643  1
  Co  Co9  1  0.750000  0.907630  0.007643  1
  Co  Co10  1  0.250000  0.219305  0.175381  1
  Co  Co11  1  0.250000  0.280695  0.675381  1
  Co  Co12  1  0.750000  0.779686  0.824275  1
  Co  Co13  1  0.750000  0.720314  0.324275  1
  Co  Co14  1  0.250000  0.885710  0.700462  1
  Co  Co15  1  0.250000  0.614290  0.200462  1
  Co  Co16  1  0.750000  0.117197  0.302522  1
  Co  Co17  1  0.750000  0.382803  0.802522  1
  Co  Co18  1  0.250000  0.463317  0.934044  1
  Co  Co19  1  0.250000  0.036683  0.434044  1
  Co  Co20  1  0.750000  0.530500  0.068132  1
  Co  Co21  1  0.750000  0.969500  0.568132  1
  P  P22  1  0.250000  0.416453  0.111825  1
  P  P23  1  0.250000  0.083547  0.611825  1
  P  P24  1  0.750000  0.578730  0.890396  1
  P  P25  1  0.750000  0.921270  0.390396  1
  P  P26  1  0.250000  0.272344  0.868596  1
  P  P27  1  0.250000  0.227656  0.368596  1
  P  P28  1  0.750000  0.721937  0.132719  1
  P  P29  1  0.750000  0.778063  0.632719  1
  P  P30  1  0.250000  0.596622  0.390960  1
  P  P31  1  0.250000  0.903378  0.890960  1
  P  P32  1  0.750000  0.393074  0.606294  1
  P  P33  1  0.750000  0.106926  0.106294  1
  Ru  Ru34  1  0.250000  0.713159  0.989679  1
  Ru  Ru35  1  0.250000  0.786841  0.489679  1
