# generated using pymatgen
data_AcBe13
_symmetry_space_group_name_H-M   'P 1'
_cell_length_a   7.44187989
_cell_length_b   7.44188093
_cell_length_c   7.44188100
_cell_angle_alpha   59.99999524
_cell_angle_beta   59.99999949
_cell_angle_gamma   59.99999729
_symmetry_Int_Tables_number   1
_chemical_formula_structural   AcBe13
_chemical_formula_sum   'Ac2 Be26'
_cell_volume   291.42920411
_cell_formula_units_Z   2
loop_
 _symmetry_equiv_pos_site_id
 _symmetry_equiv_pos_as_xyz
  1  'x, y, z'
loop_
 _atom_site_type_symbol
 _atom_site_label
 _atom_site_symmetry_multiplicity
 _atom_site_fract_x
 _atom_site_fract_y
 _atom_site_fract_z
 _atom_site_occupancy
  Ac  Ac0  1  0.250000  0.250000  0.250000  1
  Ac  Ac1  1  0.750000  0.750000  0.750000  1
  Be  Be2  1  0.500000  0.500000  0.500000  1
  Be  Be3  1  0.000000  0.000000  0.000000  1
  Be  Be4  1  0.784151  0.564222  0.215849  1
  Be  Be5  1  0.215849  0.435778  0.784151  1
  Be  Be6  1  0.564222  0.784151  0.435778  1
  Be  Be7  1  0.435778  0.215849  0.564222  1
  Be  Be8  1  0.284151  0.935778  0.715849  1
  Be  Be9  1  0.715849  0.064222  0.284151  1
  Be  Be10  1  0.935778  0.284151  0.064222  1
  Be  Be11  1  0.064222  0.715849  0.935778  1
  Be  Be12  1  0.215849  0.784151  0.564222  1
  Be  Be13  1  0.784151  0.215849  0.435778  1
  Be  Be14  1  0.435778  0.564222  0.784151  1
  Be  Be15  1  0.564222  0.435778  0.215849  1
  Be  Be16  1  0.715849  0.284151  0.935778  1
  Be  Be17  1  0.284151  0.715849  0.064222  1
  Be  Be18  1  0.064222  0.935778  0.284151  1
  Be  Be19  1  0.935778  0.064222  0.715849  1
  Be  Be20  1  0.564222  0.215849  0.784151  1
  Be  Be21  1  0.435778  0.784151  0.215849  1
  Be  Be22  1  0.784151  0.435778  0.564222  1
  Be  Be23  1  0.215849  0.564222  0.435778  1
  Be  Be24  1  0.935778  0.715849  0.284151  1
  Be  Be25  1  0.064222  0.284151  0.715849  1
  Be  Be26  1  0.284151  0.064222  0.935778  1
  Be  Be27  1  0.715849  0.935778  0.064222  1
