# generated using pymatgen
data_Tb5Cd2(HgPt)2
_symmetry_space_group_name_H-M   'P 1'
_cell_length_a   3.68274100
_cell_length_b   7.98494300
_cell_length_c   18.36872000
_cell_angle_alpha   90.00000000
_cell_angle_beta   90.00000000
_cell_angle_gamma   90.00000000
_symmetry_Int_Tables_number   1
_chemical_formula_structural   Tb5Cd2(HgPt)2
_chemical_formula_sum   'Tb10 Cd4 Hg4 Pt4'
_cell_volume   540.15934163
_cell_formula_units_Z   2
loop_
 _symmetry_equiv_pos_site_id
 _symmetry_equiv_pos_as_xyz
  1  'x, y, z'
loop_
 _atom_site_type_symbol
 _atom_site_label
 _atom_site_symmetry_multiplicity
 _atom_site_fract_x
 _atom_site_fract_y
 _atom_site_fract_z
 _atom_site_occupancy
  Tb  Tb0  1  0.000000  0.109633  0.413915  1
  Tb  Tb1  1  0.000000  0.890367  0.586085  1
  Tb  Tb2  1  0.000000  0.390367  0.913915  1
  Tb  Tb3  1  0.000000  0.609633  0.086085  1
  Tb  Tb4  1  0.000000  0.240142  0.216602  1
  Tb  Tb5  1  0.000000  0.759858  0.783398  1
  Tb  Tb6  1  0.000000  0.259858  0.716602  1
  Tb  Tb7  1  0.000000  0.740142  0.283398  1
  Tb  Tb8  1  0.000000  0.000000  0.000000  1
  Tb  Tb9  1  0.000000  0.500000  0.500000  1
  Cd  Cd10  1  0.500000  0.423019  0.352343  1
  Cd  Cd11  1  0.500000  0.576981  0.647657  1
  Cd  Cd12  1  0.500000  0.076981  0.852343  1
  Cd  Cd13  1  0.500000  0.923019  0.147657  1
  Hg  Hg14  1  0.500000  0.283735  0.063245  1
  Hg  Hg15  1  0.500000  0.716265  0.936755  1
  Hg  Hg16  1  0.500000  0.216265  0.563245  1
  Hg  Hg17  1  0.500000  0.783735  0.436755  1
  Pt  Pt18  1  0.500000  0.028586  0.302029  1
  Pt  Pt19  1  0.500000  0.971414  0.697971  1
  Pt  Pt20  1  0.500000  0.471414  0.802029  1
  Pt  Pt21  1  0.500000  0.528586  0.197971  1
