# generated using pymatgen
data_Rb2SrPuO6
_symmetry_space_group_name_H-M   'P 1'
_cell_length_a   6.33915092
_cell_length_b   6.33915029
_cell_length_c   6.33915100
_cell_angle_alpha   60.00000150
_cell_angle_beta   60.00000480
_cell_angle_gamma   89.99999510
_symmetry_Int_Tables_number   1
_chemical_formula_structural   Rb2SrPuO6
_chemical_formula_sum   'Rb2 Sr1 Pu1 O6'
_cell_volume   180.12678536
_cell_formula_units_Z   1
loop_
 _symmetry_equiv_pos_site_id
 _symmetry_equiv_pos_as_xyz
  1  'x, y, z'
loop_
 _atom_site_type_symbol
 _atom_site_label
 _atom_site_symmetry_multiplicity
 _atom_site_fract_x
 _atom_site_fract_y
 _atom_site_fract_z
 _atom_site_occupancy
  Rb  Rb0  1  0.250002  0.750001  0.500000  1
  Rb  Rb1  1  0.750000  0.249999  0.500002  1
  Sr  Sr2  1  0.500000  0.500000  0.000000  1
  Pu  Pu3  1  0.000000  0.000000  0.000000  1
  O  O4  1  0.778711  0.221289  0.000000  1
  O  O5  1  0.221291  0.221291  0.000000  1
  O  O6  1  0.221291  0.778710  0.000000  1
  O  O7  1  0.778710  0.778710  0.000000  1
  O  O8  1  0.778711  0.778711  0.442579  1
  O  O9  1  0.221291  0.221291  0.557419  1
