# generated using pymatgen
data_CaSiAs3(RuRh2)2
_symmetry_space_group_name_H-M   'P 1'
_cell_length_a   7.18170924
_cell_length_b   7.18170933
_cell_length_c   3.81592100
_cell_angle_alpha   90.00000000
_cell_angle_beta   90.00000000
_cell_angle_gamma   119.57135960
_symmetry_Int_Tables_number   1
_chemical_formula_structural   CaSiAs3(RuRh2)2
_chemical_formula_sum   'Ca1 Si1 As3 Ru2 Rh4'
_cell_volume   171.17696565
_cell_formula_units_Z   1
loop_
 _symmetry_equiv_pos_site_id
 _symmetry_equiv_pos_as_xyz
  1  'x, y, z'
loop_
 _atom_site_type_symbol
 _atom_site_label
 _atom_site_symmetry_multiplicity
 _atom_site_fract_x
 _atom_site_fract_y
 _atom_site_fract_z
 _atom_site_occupancy
  Ca  Ca0  1  0.999774  0.000226  0.000000  1
  Si  Si1  1  0.332517  0.667483  0.000000  1
  As  As2  1  0.807483  0.192517  0.500000  1
  As  As3  1  0.384147  0.188914  0.500000  1
  As  As4  1  0.811086  0.615853  0.500000  1
  Ru  Ru5  1  0.531631  0.067754  0.000000  1
  Ru  Ru6  1  0.932246  0.468369  0.000000  1
  Rh  Rh7  1  0.203978  0.796022  0.500000  1
  Rh  Rh8  1  0.202360  0.403797  0.500000  1
  Rh  Rh9  1  0.531907  0.468093  0.000000  1
  Rh  Rh10  1  0.596203  0.797640  0.500000  1
