# generated using pymatgen
data_Ta3Tc2B3Rh
_symmetry_space_group_name_H-M   'P 1'
_cell_length_a   3.21404200
_cell_length_b   9.01271100
_cell_length_c   15.53091500
_cell_angle_alpha   90.00000000
_cell_angle_beta   90.00000000
_cell_angle_gamma   90.00000000
_symmetry_Int_Tables_number   1
_chemical_formula_structural   Ta3Tc2B3Rh
_chemical_formula_sum   'Ta12 Tc8 B12 Rh4'
_cell_volume   449.88761313
_cell_formula_units_Z   4
loop_
 _symmetry_equiv_pos_site_id
 _symmetry_equiv_pos_as_xyz
  1  'x, y, z'
loop_
 _atom_site_type_symbol
 _atom_site_label
 _atom_site_symmetry_multiplicity
 _atom_site_fract_x
 _atom_site_fract_y
 _atom_site_fract_z
 _atom_site_occupancy
  Ta  Ta0  1  0.000000  0.803600  0.493240  1
  Ta  Ta1  1  0.000000  0.196400  0.506760  1
  Ta  Ta2  1  0.000000  0.303600  0.006760  1
  Ta  Ta3  1  0.000000  0.696400  0.993240  1
  Ta  Ta4  1  0.000000  0.515731  0.594951  1
  Ta  Ta5  1  0.000000  0.484269  0.405049  1
  Ta  Ta6  1  0.000000  0.015731  0.905049  1
  Ta  Ta7  1  0.000000  0.984269  0.094951  1
  Ta  Ta8  1  0.000000  0.681418  0.204517  1
  Ta  Ta9  1  0.000000  0.318582  0.795483  1
  Ta  Ta10  1  0.000000  0.181418  0.295483  1
  Ta  Ta11  1  0.000000  0.818582  0.704517  1
  Tc  Tc12  1  0.500000  0.717534  0.356018  1
  Tc  Tc13  1  0.500000  0.282466  0.643982  1
  Tc  Tc14  1  0.500000  0.217534  0.143982  1
  Tc  Tc15  1  0.500000  0.782466  0.856018  1
  Tc  Tc16  1  0.500000  0.519241  0.096633  1
  Tc  Tc17  1  0.500000  0.480759  0.903367  1
  Tc  Tc18  1  0.500000  0.019241  0.403367  1
  Tc  Tc19  1  0.500000  0.980759  0.596633  1
  B  B20  1  0.500000  0.603987  0.495202  1
  B  B21  1  0.500000  0.396013  0.504798  1
  B  B22  1  0.500000  0.103987  0.004798  1
  B  B23  1  0.500000  0.896013  0.995202  1
  B  B24  1  0.000000  0.611554  0.832960  1
  B  B25  1  0.000000  0.388446  0.167040  1
  B  B26  1  0.000000  0.111554  0.667040  1
  B  B27  1  0.000000  0.888446  0.332960  1
  B  B28  1  0.500000  0.715304  0.600045  1
  B  B29  1  0.500000  0.284696  0.399955  1
  B  B30  1  0.500000  0.215304  0.899955  1
  B  B31  1  0.500000  0.784696  0.100045  1
  Rh  Rh32  1  0.500000  0.568181  0.732581  1
  Rh  Rh33  1  0.500000  0.431819  0.267419  1
  Rh  Rh34  1  0.500000  0.068181  0.767419  1
  Rh  Rh35  1  0.500000  0.931819  0.232581  1
