# generated using pymatgen
data_Pm2ZrIr3
_symmetry_space_group_name_H-M   'P 1'
_cell_length_a   5.39429630
_cell_length_b   5.39429551
_cell_length_c   5.39429567
_cell_angle_alpha   65.00454193
_cell_angle_beta   65.00455004
_cell_angle_gamma   65.00453237
_symmetry_Int_Tables_number   1
_chemical_formula_structural   Pm2ZrIr3
_chemical_formula_sum   'Pm2 Zr1 Ir3'
_cell_volume   123.12052757
_cell_formula_units_Z   1
loop_
 _symmetry_equiv_pos_site_id
 _symmetry_equiv_pos_as_xyz
  1  'x, y, z'
loop_
 _atom_site_type_symbol
 _atom_site_label
 _atom_site_symmetry_multiplicity
 _atom_site_fract_x
 _atom_site_fract_y
 _atom_site_fract_z
 _atom_site_occupancy
  Pm  Pm0  1  0.750147  0.750147  0.750147  1
  Pm  Pm1  1  0.499853  0.499853  0.499853  1
  Zr  Zr2  1  0.125000  0.125000  0.125000  1
  Ir  Ir3  1  0.625000  0.125000  0.125000  1
  Ir  Ir4  1  0.125000  0.625000  0.125000  1
  Ir  Ir5  1  0.125000  0.125000  0.625000  1
