# generated using pymatgen
data_YHo6Sn23Ru6
_symmetry_space_group_name_H-M   'P 1'
_cell_length_a   9.85088700
_cell_length_b   9.85088591
_cell_length_c   10.08388800
_cell_angle_alpha   90.00000000
_cell_angle_beta   90.00000000
_cell_angle_gamma   119.99999358
_symmetry_Int_Tables_number   1
_chemical_formula_structural   YHo6Sn23Ru6
_chemical_formula_sum   'Y1 Ho6 Sn23 Ru6'
_cell_volume   847.44066431
_cell_formula_units_Z   1
loop_
 _symmetry_equiv_pos_site_id
 _symmetry_equiv_pos_as_xyz
  1  'x, y, z'
loop_
 _atom_site_type_symbol
 _atom_site_label
 _atom_site_symmetry_multiplicity
 _atom_site_fract_x
 _atom_site_fract_y
 _atom_site_fract_z
 _atom_site_occupancy
  Y  Y0  1  0.000000  0.000000  0.000000  1
  Ho  Ho1  1  0.515514  0.484486  0.696903  1
  Ho  Ho2  1  0.515514  0.031028  0.696903  1
  Ho  Ho3  1  0.968972  0.484486  0.696903  1
  Ho  Ho4  1  0.031028  0.515514  0.303097  1
  Ho  Ho5  1  0.484486  0.968972  0.303097  1
  Ho  Ho6  1  0.484486  0.515514  0.303097  1
  Sn  Sn7  1  0.666667  0.333333  0.178120  1
  Sn  Sn8  1  0.666667  0.333333  0.872026  1
  Sn  Sn9  1  0.333333  0.666667  0.127974  1
  Sn  Sn10  1  0.349118  0.349118  0.000000  1
  Sn  Sn11  1  0.000000  0.650882  0.000000  1
  Sn  Sn12  1  0.650882  0.000000  0.000000  1
  Sn  Sn13  1  0.650882  0.650882  0.000000  1
  Sn  Sn14  1  0.333333  0.666667  0.821880  1
  Sn  Sn15  1  0.439533  0.219767  0.462376  1
  Sn  Sn16  1  0.219767  0.780233  0.537624  1
  Sn  Sn17  1  0.219767  0.439533  0.537624  1
  Sn  Sn18  1  0.560467  0.780233  0.537624  1
  Sn  Sn19  1  0.118450  0.881550  0.273687  1
  Sn  Sn20  1  0.780233  0.560467  0.462376  1
  Sn  Sn21  1  0.780233  0.219767  0.462376  1
  Sn  Sn22  1  0.349118  0.000000  0.000000  1
  Sn  Sn23  1  0.118450  0.236899  0.273687  1
  Sn  Sn24  1  0.763101  0.881550  0.273687  1
  Sn  Sn25  1  0.236899  0.118450  0.726313  1
  Sn  Sn26  1  0.881550  0.763101  0.726313  1
  Sn  Sn27  1  0.881550  0.118450  0.726313  1
  Sn  Sn28  1  0.000000  0.000000  0.500000  1
  Sn  Sn29  1  0.000000  0.349118  0.000000  1
  Ru  Ru30  1  0.170040  0.829960  0.797751  1
  Ru  Ru31  1  0.170040  0.340079  0.797751  1
  Ru  Ru32  1  0.659921  0.829960  0.797751  1
  Ru  Ru33  1  0.340079  0.170040  0.202249  1
  Ru  Ru34  1  0.829960  0.659921  0.202249  1
  Ru  Ru35  1  0.829960  0.170040  0.202249  1
