# generated using pymatgen
data_Ce6ThBiF30
_symmetry_space_group_name_H-M   'P 1'
_cell_length_a   8.77484634
_cell_length_b   8.77484668
_cell_length_c   8.74955410
_cell_angle_alpha   79.60661550
_cell_angle_beta   79.60660988
_cell_angle_gamma   100.38132502
_symmetry_Int_Tables_number   1
_chemical_formula_structural   Ce6ThBiF30
_chemical_formula_sum   'Ce6 Th1 Bi1 F30'
_cell_volume   635.81724109
_cell_formula_units_Z   1
loop_
 _symmetry_equiv_pos_site_id
 _symmetry_equiv_pos_as_xyz
  1  'x, y, z'
loop_
 _atom_site_type_symbol
 _atom_site_label
 _atom_site_symmetry_multiplicity
 _atom_site_fract_x
 _atom_site_fract_y
 _atom_site_fract_z
 _atom_site_occupancy
  Ce  Ce0  1  0.751170  0.248830  0.250000  1
  Ce  Ce1  1  0.248915  0.751085  0.750000  1
  Ce  Ce2  1  0.747905  0.676696  0.678499  1
  Ce  Ce3  1  0.323304  0.252095  0.821501  1
  Ce  Ce4  1  0.250855  0.322156  0.324502  1
  Ce  Ce5  1  0.677844  0.749145  0.175498  1
  Th  Th6  1  0.177652  0.822348  0.250000  1
  Bi  Bi7  1  0.821399  0.178601  0.750000  1
  F  F8  1  0.463367  0.536633  0.250000  1
  F  F9  1  0.748163  0.956634  0.970655  1
  F  F10  1  0.043366  0.251837  0.529345  1
  F  F11  1  0.249351  0.036709  0.035548  1
  F  F12  1  0.963291  0.750649  0.464452  1
  F  F13  1  0.532455  0.467545  0.750000  1
  F  F14  1  0.224950  0.495944  0.776578  1
  F  F15  1  0.224003  0.722780  0.010622  1
  F  F16  1  0.993240  0.724105  0.777426  1
  F  F17  1  0.723816  0.991723  0.277516  1
  F  F18  1  0.724883  0.224178  0.505435  1
  F  F19  1  0.492904  0.224099  0.278051  1
  F  F20  1  0.775902  0.507096  0.221949  1
  F  F21  1  0.775822  0.275117  0.994565  1
  F  F22  1  0.008277  0.276184  0.222484  1
  F  F23  1  0.275895  0.006760  0.722574  1
  F  F24  1  0.277220  0.775997  0.489378  1
  F  F25  1  0.504056  0.775050  0.723422  1
  F  F26  1  0.545478  0.158126  0.816216  1
  F  F27  1  0.187225  0.054048  0.346355  1
  F  F28  1  0.656415  0.685738  0.443812  1
  F  F29  1  0.683817  0.652244  0.947792  1
  F  F30  1  0.061711  0.189523  0.844472  1
  F  F31  1  0.155024  0.549995  0.315759  1
  F  F32  1  0.450005  0.844976  0.184241  1
  F  F33  1  0.810477  0.938289  0.655528  1
  F  F34  1  0.347756  0.316183  0.552208  1
  F  F35  1  0.314262  0.343585  0.056188  1
  F  F36  1  0.945952  0.812775  0.153645  1
  F  F37  1  0.841874  0.454522  0.683784  1
