# generated using pymatgen
data_Gd4InHgAu4
_symmetry_space_group_name_H-M   'P 1'
_cell_length_a   8.00893500
_cell_length_b   8.00893500
_cell_length_c   7.49349800
_cell_angle_alpha   90.00000000
_cell_angle_beta   90.00000000
_cell_angle_gamma   90.00000000
_symmetry_Int_Tables_number   1
_chemical_formula_structural   Gd4InHgAu4
_chemical_formula_sum   'Gd8 In2 Hg2 Au8'
_cell_volume   480.65574071
_cell_formula_units_Z   2
loop_
 _symmetry_equiv_pos_site_id
 _symmetry_equiv_pos_as_xyz
  1  'x, y, z'
loop_
 _atom_site_type_symbol
 _atom_site_label
 _atom_site_symmetry_multiplicity
 _atom_site_fract_x
 _atom_site_fract_y
 _atom_site_fract_z
 _atom_site_occupancy
  Gd  Gd0  1  0.169658  0.164787  0.000000  1
  Gd  Gd1  1  0.830342  0.835213  0.000000  1
  Gd  Gd2  1  0.664787  0.330342  0.500000  1
  Gd  Gd3  1  0.335213  0.669658  0.500000  1
  Gd  Gd4  1  0.672902  0.318001  0.000000  1
  Gd  Gd5  1  0.327098  0.681999  0.000000  1
  Gd  Gd6  1  0.818001  0.827098  0.500000  1
  Gd  Gd7  1  0.181999  0.172902  0.500000  1
  In  In8  1  0.000000  0.500000  0.250000  1
  In  In9  1  0.000000  0.500000  0.750000  1
  Hg  Hg10  1  0.500000  0.000000  0.250000  1
  Hg  Hg11  1  0.500000  0.000000  0.750000  1
  Au  Au12  1  0.368515  0.376376  0.239613  1
  Au  Au13  1  0.631485  0.623624  0.760387  1
  Au  Au14  1  0.631485  0.623624  0.239613  1
  Au  Au15  1  0.876376  0.131485  0.739613  1
  Au  Au16  1  0.876376  0.131485  0.260387  1
  Au  Au17  1  0.368515  0.376376  0.760387  1
  Au  Au18  1  0.123624  0.868515  0.260387  1
  Au  Au19  1  0.123624  0.868515  0.739613  1
