# generated using pymatgen
data_Dy2Hf3Si7Pt9
_symmetry_space_group_name_H-M   'P 1'
_cell_length_a   10.03364000
_cell_length_b   10.03363989
_cell_length_c   4.00875700
_cell_angle_alpha   90.00000000
_cell_angle_beta   90.00000000
_cell_angle_gamma   120.00000038
_symmetry_Int_Tables_number   1
_chemical_formula_structural   Dy2Hf3Si7Pt9
_chemical_formula_sum   'Dy2 Hf3 Si7 Pt9'
_cell_volume   349.50821330
_cell_formula_units_Z   1
loop_
 _symmetry_equiv_pos_site_id
 _symmetry_equiv_pos_as_xyz
  1  'x, y, z'
loop_
 _atom_site_type_symbol
 _atom_site_label
 _atom_site_symmetry_multiplicity
 _atom_site_fract_x
 _atom_site_fract_y
 _atom_site_fract_z
 _atom_site_occupancy
  Dy  Dy0  1  0.000000  0.000000  0.000000  1
  Dy  Dy1  1  0.333333  0.666667  0.500000  1
  Hf  Hf2  1  0.892423  0.456153  0.500000  1
  Hf  Hf3  1  0.563731  0.107577  0.500000  1
  Hf  Hf4  1  0.543847  0.436269  0.500000  1
  Si  Si5  1  0.246518  0.196534  0.500000  1
  Si  Si6  1  0.803466  0.049986  0.500000  1
  Si  Si7  1  0.950014  0.753482  0.500000  1
  Si  Si8  1  0.558197  0.647733  0.000000  1
  Si  Si9  1  0.352267  0.910463  0.000000  1
  Si  Si10  1  0.089537  0.441803  0.000000  1
  Si  Si11  1  0.666667  0.333333  0.000000  1
  Pt  Pt12  1  0.219073  0.937194  0.500000  1
  Pt  Pt13  1  0.062806  0.281880  0.500000  1
  Pt  Pt14  1  0.718120  0.780927  0.500000  1
  Pt  Pt15  1  0.315272  0.414041  0.000000  1
  Pt  Pt16  1  0.585959  0.901232  0.000000  1
  Pt  Pt17  1  0.098768  0.684728  0.000000  1
  Pt  Pt18  1  0.387803  0.175572  0.000000  1
  Pt  Pt19  1  0.824428  0.212230  0.000000  1
  Pt  Pt20  1  0.787770  0.612197  0.000000  1
