# generated using pymatgen
data_DyLuHf2CN3
_symmetry_space_group_name_H-M   'P 1'
_cell_length_a   11.06791269
_cell_length_b   11.06791240
_cell_length_c   11.06791372
_cell_angle_alpha   17.23283873
_cell_angle_beta   17.23284391
_cell_angle_gamma   17.23284291
_symmetry_Int_Tables_number   1
_chemical_formula_structural   DyLuHf2CN3
_chemical_formula_sum   'Dy1 Lu1 Hf2 C1 N3'
_cell_volume   103.82980681
_cell_formula_units_Z   1
loop_
 _symmetry_equiv_pos_site_id
 _symmetry_equiv_pos_as_xyz
  1  'x, y, z'
loop_
 _atom_site_type_symbol
 _atom_site_label
 _atom_site_symmetry_multiplicity
 _atom_site_fract_x
 _atom_site_fract_y
 _atom_site_fract_z
 _atom_site_occupancy
  Dy  Dy0  1  0.124280  0.124280  0.124280  1
  Lu  Lu1  1  0.876561  0.876561  0.876561  1
  Hf  Hf2  1  0.372699  0.372699  0.372699  1
  Hf  Hf3  1  0.626460  0.626460  0.626460  1
  C  C4  1  0.999354  0.999354  0.999354  1
  N  N5  1  0.252941  0.252941  0.252941  1
  N  N6  1  0.501998  0.501998  0.501998  1
  N  N7  1  0.745706  0.745706  0.745706  1
