# generated using pymatgen
data_Tm3Pa(Nb3Ge4)2
_symmetry_space_group_name_H-M   'P 1'
_cell_length_a   7.00788900
_cell_length_b   7.15729618
_cell_length_c   13.54870275
_cell_angle_alpha   90.10016672
_cell_angle_beta   90.00000000
_cell_angle_gamma   90.00000000
_symmetry_Int_Tables_number   1
_chemical_formula_structural   Tm3Pa(Nb3Ge4)2
_chemical_formula_sum   'Tm6 Pa2 Nb12 Ge16'
_cell_volume   679.56852287
_cell_formula_units_Z   2
loop_
 _symmetry_equiv_pos_site_id
 _symmetry_equiv_pos_as_xyz
  1  'x, y, z'
loop_
 _atom_site_type_symbol
 _atom_site_label
 _atom_site_symmetry_multiplicity
 _atom_site_fract_x
 _atom_site_fract_y
 _atom_site_fract_z
 _atom_site_occupancy
  Tm  Tm0  1  0.492473  0.324783  0.093426  1
  Tm  Tm1  1  0.992473  0.175217  0.406574  1
  Tm  Tm2  1  0.503675  0.673997  0.595177  1
  Tm  Tm3  1  0.003675  0.826003  0.904823  1
  Tm  Tm4  1  0.504057  0.674780  0.903977  1
  Tm  Tm5  1  0.004057  0.825220  0.596023  1
  Pa  Pa6  1  0.495369  0.326678  0.407959  1
  Pa  Pa7  1  0.995369  0.173322  0.092041  1
  Nb  Nb8  1  0.665297  0.010623  0.749347  1
  Nb  Nb9  1  0.165297  0.489377  0.750653  1
  Nb  Nb10  1  0.334395  0.993864  0.251551  1
  Nb  Nb11  1  0.834395  0.506136  0.248449  1
  Nb  Nb12  1  0.838055  0.330646  0.625966  1
  Nb  Nb13  1  0.338055  0.169354  0.874034  1
  Nb  Nb14  1  0.157429  0.669531  0.126447  1
  Nb  Nb15  1  0.657429  0.830469  0.373553  1
  Nb  Nb16  1  0.165822  0.664756  0.374657  1
  Nb  Nb17  1  0.665822  0.835244  0.125343  1
  Nb  Nb18  1  0.841920  0.328658  0.875163  1
  Nb  Nb19  1  0.341920  0.171342  0.624837  1
  Ge  Ge20  1  0.805330  0.640682  0.749879  1
  Ge  Ge21  1  0.305330  0.859318  0.750121  1
  Ge  Ge22  1  0.194098  0.360234  0.250775  1
  Ge  Ge23  1  0.694098  0.139766  0.249225  1
  Ge  Ge24  1  0.539382  0.378608  0.750629  1
  Ge  Ge25  1  0.039382  0.121392  0.749371  1
  Ge  Ge26  1  0.461940  0.623587  0.247607  1
  Ge  Ge27  1  0.961940  0.876413  0.252393  1
  Ge  Ge28  1  0.676790  0.036570  0.543046  1
  Ge  Ge29  1  0.176790  0.463430  0.956954  1
  Ge  Ge30  1  0.328778  0.957439  0.041692  1
  Ge  Ge31  1  0.828778  0.542561  0.458308  1
  Ge  Ge32  1  0.320448  0.958714  0.458634  1
  Ge  Ge33  1  0.820448  0.541286  0.041366  1
  Ge  Ge34  1  0.674742  0.038939  0.956043  1
  Ge  Ge35  1  0.174742  0.461061  0.543957  1
