# generated using pymatgen
data_Hf2Nb(MoP)3
_symmetry_space_group_name_H-M   'P 1'
_cell_length_a   6.87928011
_cell_length_b   6.92190289
_cell_length_c   3.39550200
_cell_angle_alpha   90.00000000
_cell_angle_beta   90.00000000
_cell_angle_gamma   120.20516653
_symmetry_Int_Tables_number   1
_chemical_formula_structural   Hf2Nb(MoP)3
_chemical_formula_sum   'Hf2 Nb1 Mo3 P3'
_cell_volume   139.73382328
_cell_formula_units_Z   1
loop_
 _symmetry_equiv_pos_site_id
 _symmetry_equiv_pos_as_xyz
  1  'x, y, z'
loop_
 _atom_site_type_symbol
 _atom_site_label
 _atom_site_symmetry_multiplicity
 _atom_site_fract_x
 _atom_site_fract_y
 _atom_site_fract_z
 _atom_site_occupancy
  Hf  Hf0  1  0.402164  0.404439  0.500000  1
  Hf  Hf1  1  0.597836  0.002275  0.500000  1
  Nb  Nb2  1  0.000000  0.596088  0.500000  1
  Mo  Mo3  1  0.251605  0.996077  0.000000  1
  Mo  Mo4  1  0.748395  0.744472  0.000000  1
  Mo  Mo5  1  0.000000  0.255027  0.000000  1
  P  P6  1  0.668837  0.335578  0.000000  1
  P  P7  1  0.331163  0.666743  0.000000  1
  P  P8  1  0.000000  0.999301  0.500000  1
