# generated using pymatgen
data_Pr4Pd3RhPb2
_symmetry_space_group_name_H-M   'P 1'
_cell_length_a   8.03859865
_cell_length_b   8.03859865
_cell_length_c   3.85210600
_cell_angle_alpha   90.00000000
_cell_angle_beta   90.00000000
_cell_angle_gamma   90.10918033
_symmetry_Int_Tables_number   1
_chemical_formula_structural   Pr4Pd3RhPb2
_chemical_formula_sum   'Pr4 Pd3 Rh1 Pb2'
_cell_volume   248.91904853
_cell_formula_units_Z   1
loop_
 _symmetry_equiv_pos_site_id
 _symmetry_equiv_pos_as_xyz
  1  'x, y, z'
loop_
 _atom_site_type_symbol
 _atom_site_label
 _atom_site_symmetry_multiplicity
 _atom_site_fract_x
 _atom_site_fract_y
 _atom_site_fract_z
 _atom_site_occupancy
  Pr  Pr0  1  0.325962  0.825962  0.500000  1
  Pr  Pr1  1  0.682969  0.182969  0.500000  1
  Pr  Pr2  1  0.823977  0.665591  0.500000  1
  Pr  Pr3  1  0.165591  0.323977  0.500000  1
  Pd  Pd4  1  0.623406  0.876740  0.000000  1
  Pd  Pd5  1  0.376740  0.123406  0.000000  1
  Pd  Pd6  1  0.124960  0.624960  0.000000  1
  Rh  Rh7  1  0.875165  0.375165  0.000000  1
  Pb  Pb8  1  0.501702  0.499529  0.000000  1
  Pb  Pb9  1  0.999529  0.001702  0.000000  1
