# generated using pymatgen
data_Ba7Mn7F34
_symmetry_space_group_name_H-M   'P 1'
_cell_length_a   10.39911547
_cell_length_b   10.39911619
_cell_length_c   7.92941400
_cell_angle_alpha   79.71572424
_cell_angle_beta   79.71572352
_cell_angle_gamma   67.51103689
_symmetry_Int_Tables_number   1
_chemical_formula_structural   Ba7Mn7F34
_chemical_formula_sum   'Ba7 Mn7 F34'
_cell_volume   773.80767743
_cell_formula_units_Z   1
loop_
 _symmetry_equiv_pos_site_id
 _symmetry_equiv_pos_as_xyz
  1  'x, y, z'
loop_
 _atom_site_type_symbol
 _atom_site_label
 _atom_site_symmetry_multiplicity
 _atom_site_fract_x
 _atom_site_fract_y
 _atom_site_fract_z
 _atom_site_occupancy
  Ba  Ba0  1  0.443114  0.838169  0.199477  1
  Ba  Ba1  1  0.556886  0.161831  0.800523  1
  Ba  Ba2  1  0.161831  0.556886  0.800523  1
  Ba  Ba3  1  0.838169  0.443114  0.199477  1
  Ba  Ba4  1  0.000000  0.000000  0.500000  1
  Ba  Ba5  1  0.734035  0.734035  0.645876  1
  Ba  Ba6  1  0.265965  0.265965  0.354124  1
  Mn  Mn7  1  0.648080  0.129240  0.304463  1
  Mn  Mn8  1  0.351920  0.870760  0.695537  1
  Mn  Mn9  1  0.870760  0.351920  0.695537  1
  Mn  Mn10  1  0.129240  0.648080  0.304463  1
  Mn  Mn11  1  0.831028  0.831028  0.042300  1
  Mn  Mn12  1  0.168972  0.168972  0.957700  1
  Mn  Mn13  1  0.500000  0.500000  0.000000  1
  F  F14  1  0.209823  0.781327  0.306101  1
  F  F15  1  0.790177  0.218673  0.693899  1
  F  F16  1  0.218673  0.790177  0.693899  1
  F  F17  1  0.781327  0.209823  0.306101  1
  F  F18  1  0.737735  0.992503  0.519831  1
  F  F19  1  0.262265  0.007497  0.480169  1
  F  F20  1  0.007497  0.262265  0.480169  1
  F  F21  1  0.992503  0.737735  0.519831  1
  F  F22  1  0.900031  0.900031  0.828706  1
  F  F23  1  0.099969  0.099969  0.171294  1
  F  F24  1  0.352461  0.114756  0.050569  1
  F  F25  1  0.647539  0.885244  0.949431  1
  F  F26  1  0.885244  0.647539  0.949431  1
  F  F27  1  0.114756  0.352461  0.050569  1
  F  F28  1  0.771494  0.021844  0.122599  1
  F  F29  1  0.228506  0.978156  0.877401  1
  F  F30  1  0.978156  0.228506  0.877401  1
  F  F31  1  0.021844  0.771494  0.122599  1
  F  F32  1  0.755459  0.755459  0.250398  1
  F  F33  1  0.244541  0.244541  0.749602  1
  F  F34  1  0.511051  0.241157  0.469588  1
  F  F35  1  0.488949  0.758843  0.530412  1
  F  F36  1  0.758843  0.488949  0.530412  1
  F  F37  1  0.241157  0.511051  0.469588  1
  F  F38  1  0.543243  0.280406  0.107485  1
  F  F39  1  0.456757  0.719594  0.892515  1
  F  F40  1  0.719594  0.456757  0.892515  1
  F  F41  1  0.280406  0.543243  0.107485  1
  F  F42  1  0.568285  0.568285  0.192894  1
  F  F43  1  0.431715  0.431715  0.807106  1
  F  F44  1  0.524453  0.038259  0.304000  1
  F  F45  1  0.475547  0.961741  0.696000  1
  F  F46  1  0.961741  0.475547  0.696000  1
  F  F47  1  0.038259  0.524453  0.304000  1
