# generated using pymatgen
data_TbNd2Y3Ta2O14
_symmetry_space_group_name_H-M   'P 1'
_cell_length_a   6.51689405
_cell_length_b   6.52098318
_cell_length_c   7.62209700
_cell_angle_alpha   90.00000000
_cell_angle_beta   90.00000000
_cell_angle_gamma   109.43007357
_symmetry_Int_Tables_number   1
_chemical_formula_structural   TbNd2Y3Ta2O14
_chemical_formula_sum   'Tb1 Nd2 Y3 Ta2 O14'
_cell_volume   305.46544875
_cell_formula_units_Z   1
loop_
 _symmetry_equiv_pos_site_id
 _symmetry_equiv_pos_as_xyz
  1  'x, y, z'
loop_
 _atom_site_type_symbol
 _atom_site_label
 _atom_site_symmetry_multiplicity
 _atom_site_fract_x
 _atom_site_fract_y
 _atom_site_fract_z
 _atom_site_occupancy
  Tb  Tb0  1  0.533796  0.000441  0.750000  1
  Nd  Nd1  1  0.499946  0.499918  0.500016  1
  Nd  Nd2  1  0.499946  0.499918  0.999984  1
  Y  Y3  1  0.000505  0.533126  0.250000  1
  Y  Y4  1  0.466836  0.999514  0.250000  1
  Y  Y5  1  0.999577  0.466998  0.750000  1
  Ta  Ta6  1  0.999945  0.999985  0.499898  1
  Ta  Ta7  1  0.999945  0.999985  0.000102  1
  O  O8  1  0.680536  0.930717  0.468149  1
  O  O9  1  0.930783  0.680649  0.531644  1
  O  O10  1  0.680536  0.930717  0.031851  1
  O  O11  1  0.930783  0.680649  0.968356  1
  O  O12  1  0.319539  0.069387  0.531549  1
  O  O13  1  0.069193  0.319394  0.468331  1
  O  O14  1  0.319539  0.069387  0.968451  1
  O  O15  1  0.069193  0.319394  0.031669  1
  O  O16  1  0.937164  0.062713  0.750000  1
  O  O17  1  0.062753  0.937274  0.250000  1
  O  O18  1  0.364117  0.634218  0.750000  1
  O  O19  1  0.635276  0.364637  0.250000  1
  O  O20  1  0.642481  0.358465  0.750000  1
  O  O21  1  0.357612  0.642511  0.250000  1
