# generated using pymatgen
data_Tb4Al16Ga2PdRh5
_symmetry_space_group_name_H-M   'P 1'
_cell_length_a   7.55339590
_cell_length_b   7.55339607
_cell_length_c   9.51444223
_cell_angle_alpha   89.99286716
_cell_angle_beta   89.99286960
_cell_angle_gamma   119.16785305
_symmetry_Int_Tables_number   1
_chemical_formula_structural   Tb4Al16Ga2PdRh5
_chemical_formula_sum   'Tb4 Al16 Ga2 Pd1 Rh5'
_cell_volume   474.00115162
_cell_formula_units_Z   1
loop_
 _symmetry_equiv_pos_site_id
 _symmetry_equiv_pos_as_xyz
  1  'x, y, z'
loop_
 _atom_site_type_symbol
 _atom_site_label
 _atom_site_symmetry_multiplicity
 _atom_site_fract_x
 _atom_site_fract_y
 _atom_site_fract_z
 _atom_site_occupancy
  Tb  Tb0  1  0.994427  0.675457  0.250654  1
  Tb  Tb1  1  0.005573  0.324543  0.749346  1
  Tb  Tb2  1  0.675457  0.994427  0.250654  1
  Tb  Tb3  1  0.324543  0.005573  0.749346  1
  Al  Al4  1  0.002410  0.340507  0.076442  1
  Al  Al5  1  0.997590  0.659493  0.923558  1
  Al  Al6  1  0.998521  0.663567  0.574133  1
  Al  Al7  1  0.336433  0.001479  0.425867  1
  Al  Al8  1  0.001479  0.336433  0.425867  1
  Al  Al9  1  0.663567  0.998521  0.574133  1
  Al  Al10  1  0.659493  0.997590  0.923558  1
  Al  Al11  1  0.340507  0.002410  0.076442  1
  Al  Al12  1  0.334326  0.334326  0.551982  1
  Al  Al13  1  0.665674  0.665674  0.448018  1
  Al  Al14  1  0.662170  0.662170  0.054516  1
  Al  Al15  1  0.337830  0.337830  0.945484  1
  Al  Al16  1  0.337589  0.551160  0.250530  1
  Al  Al17  1  0.662411  0.448840  0.749470  1
  Al  Al18  1  0.551160  0.337589  0.250530  1
  Al  Al19  1  0.448840  0.662411  0.749470  1
  Ga  Ga20  1  0.135208  0.135208  0.252208  1
  Ga  Ga21  1  0.864792  0.864792  0.747792  1
  Pd  Pd22  1  0.000000  0.000000  0.000000  1
  Rh  Rh23  1  0.671599  0.328401  0.000000  1
  Rh  Rh24  1  0.328401  0.671599  0.000000  1
  Rh  Rh25  1  0.328603  0.671397  0.500000  1
  Rh  Rh26  1  0.671397  0.328603  0.500000  1
  Rh  Rh27  1  0.000000  0.000000  0.500000  1
