# generated using pymatgen
data_Er7ScRe11Si16Ir
_symmetry_space_group_name_H-M   'P 1'
_cell_length_a   6.73473344
_cell_length_b   6.72742112
_cell_length_c   12.75156005
_cell_angle_alpha   90.18861453
_cell_angle_beta   89.84032826
_cell_angle_gamma   90.42379712
_symmetry_Int_Tables_number   1
_chemical_formula_structural   Er7ScRe11Si16Ir
_chemical_formula_sum   'Er7 Sc1 Re11 Si16 Ir1'
_cell_volume   577.71874002
_cell_formula_units_Z   1
loop_
 _symmetry_equiv_pos_site_id
 _symmetry_equiv_pos_as_xyz
  1  'x, y, z'
loop_
 _atom_site_type_symbol
 _atom_site_label
 _atom_site_symmetry_multiplicity
 _atom_site_fract_x
 _atom_site_fract_y
 _atom_site_fract_z
 _atom_site_occupancy
  Er  Er0  1  0.005971  0.662261  0.030552  1
  Er  Er1  1  0.993221  0.335571  0.531993  1
  Er  Er2  1  0.336049  0.992876  0.467881  1
  Er  Er3  1  0.162386  0.490902  0.782727  1
  Er  Er4  1  0.837811  0.507605  0.278890  1
  Er  Er5  1  0.491313  0.162540  0.218244  1
  Er  Er6  1  0.507764  0.837700  0.721084  1
  Sc  Sc7  1  0.655260  0.010101  0.968730  1
  Re  Re8  1  0.164845  0.835876  0.248883  1
  Re  Re9  1  0.336221  0.332327  0.999451  1
  Re  Re10  1  0.022529  0.808446  0.631388  1
  Re  Re11  1  0.978159  0.190653  0.131998  1
  Re  Re12  1  0.807901  0.022695  0.368824  1
  Re  Re13  1  0.313467  0.483418  0.382119  1
  Re  Re14  1  0.686408  0.519050  0.881482  1
  Re  Re15  1  0.485122  0.314290  0.618907  1
  Re  Re16  1  0.520025  0.689336  0.116635  1
  Re  Re17  1  0.193695  0.978430  0.866673  1
  Re  Re18  1  0.834990  0.163602  0.753423  1
  Si  Si19  1  0.021054  0.728633  0.438496  1
  Si  Si20  1  0.611544  0.304361  0.434052  1
  Si  Si21  1  0.387749  0.697645  0.933978  1
  Si  Si22  1  0.196356  0.113848  0.682444  1
  Si  Si23  1  0.304109  0.611588  0.566382  1
  Si  Si24  1  0.694348  0.382290  0.064842  1
  Si  Si25  1  0.803857  0.887471  0.181076  1
  Si  Si26  1  0.113356  0.195758  0.317161  1
  Si  Si27  1  0.977922  0.264828  0.939850  1
  Si  Si28  1  0.728509  0.021135  0.561546  1
  Si  Si29  1  0.226628  0.480622  0.188424  1
  Si  Si30  1  0.775993  0.518201  0.692034  1
  Si  Si31  1  0.481157  0.223324  0.813305  1
  Si  Si32  1  0.517217  0.773751  0.307422  1
  Si  Si33  1  0.273844  0.981240  0.059450  1
  Si  Si34  1  0.884041  0.808266  0.819812  1
  Ir  Ir35  1  0.669180  0.669362  0.499842  1
