# generated using pymatgen
data_HoEr7Lu2(In2Pt)4
_symmetry_space_group_name_H-M   'P 1'
_cell_length_a   3.62031100
_cell_length_b   8.07762709
_cell_length_c   18.09502601
_cell_angle_alpha   90.00619841
_cell_angle_beta   90.00000000
_cell_angle_gamma   90.00000000
_symmetry_Int_Tables_number   1
_chemical_formula_structural   HoEr7Lu2(In2Pt)4
_chemical_formula_sum   'Ho1 Er7 Lu2 In8 Pt4'
_cell_volume   529.16229178
_cell_formula_units_Z   1
loop_
 _symmetry_equiv_pos_site_id
 _symmetry_equiv_pos_as_xyz
  1  'x, y, z'
loop_
 _atom_site_type_symbol
 _atom_site_label
 _atom_site_symmetry_multiplicity
 _atom_site_fract_x
 _atom_site_fract_y
 _atom_site_fract_z
 _atom_site_occupancy
  Ho  Ho0  1  0.000000  0.500000  0.500000  1
  Er  Er1  1  0.000000  0.383229  0.914505  1
  Er  Er2  1  0.000000  0.616771  0.085495  1
  Er  Er3  1  0.000000  0.243194  0.220834  1
  Er  Er4  1  0.000000  0.756806  0.779166  1
  Er  Er5  1  0.000000  0.256657  0.720174  1
  Er  Er6  1  0.000000  0.743343  0.279826  1
  Er  Er7  1  0.000000  0.000000  0.000000  1
  Lu  Lu8  1  0.000000  0.116375  0.413824  1
  Lu  Lu9  1  0.000000  0.883625  0.586176  1
  In  In10  1  0.500000  0.421517  0.351716  1
  In  In11  1  0.500000  0.578483  0.648284  1
  In  In12  1  0.500000  0.076446  0.851026  1
  In  In13  1  0.500000  0.923554  0.148974  1
  In  In14  1  0.500000  0.291960  0.066621  1
  In  In15  1  0.500000  0.708040  0.933379  1
  In  In16  1  0.500000  0.205105  0.565526  1
  In  In17  1  0.500000  0.794895  0.434474  1
  Pt  Pt18  1  0.500000  0.025678  0.304773  1
  Pt  Pt19  1  0.500000  0.974322  0.695227  1
  Pt  Pt20  1  0.500000  0.474952  0.803362  1
  Pt  Pt21  1  0.500000  0.525048  0.196638  1
