# generated using pymatgen
data_Np2GaNi3
_symmetry_space_group_name_H-M   'P 1'
_cell_length_a   5.23495800
_cell_length_b   5.23495710
_cell_length_c   7.74135500
_cell_angle_alpha   90.00000000
_cell_angle_beta   90.00000000
_cell_angle_gamma   120.00001832
_symmetry_Int_Tables_number   1
_chemical_formula_structural   Np2GaNi3
_chemical_formula_sum   'Np4 Ga2 Ni6'
_cell_volume   183.72737238
_cell_formula_units_Z   2
loop_
 _symmetry_equiv_pos_site_id
 _symmetry_equiv_pos_as_xyz
  1  'x, y, z'
loop_
 _atom_site_type_symbol
 _atom_site_label
 _atom_site_symmetry_multiplicity
 _atom_site_fract_x
 _atom_site_fract_y
 _atom_site_fract_z
 _atom_site_occupancy
  Np  Np0  1  0.333333  0.666667  0.422147  1
  Np  Np1  1  0.666667  0.333333  0.577853  1
  Np  Np2  1  0.666667  0.333333  0.922147  1
  Np  Np3  1  0.333333  0.666667  0.077853  1
  Ga  Ga4  1  0.000000  0.000000  0.500000  1
  Ga  Ga5  1  0.000000  0.000000  0.000000  1
  Ni  Ni6  1  0.827031  0.172969  0.250000  1
  Ni  Ni7  1  0.827031  0.654062  0.250000  1
  Ni  Ni8  1  0.345938  0.172969  0.250000  1
  Ni  Ni9  1  0.172969  0.827031  0.750000  1
  Ni  Ni10  1  0.172969  0.345938  0.750000  1
  Ni  Ni11  1  0.654062  0.827031  0.750000  1
