# generated using pymatgen
data_TbCeY(SnIr)3
_symmetry_space_group_name_H-M   'P 1'
_cell_length_a   7.45511900
_cell_length_b   7.53151277
_cell_length_c   4.02971100
_cell_angle_alpha   90.00000000
_cell_angle_beta   90.00000000
_cell_angle_gamma   120.32270119
_symmetry_Int_Tables_number   1
_chemical_formula_structural   TbCeY(SnIr)3
_chemical_formula_sum   'Tb1 Ce1 Y1 Sn3 Ir3'
_cell_volume   195.30794356
_cell_formula_units_Z   1
loop_
 _symmetry_equiv_pos_site_id
 _symmetry_equiv_pos_as_xyz
  1  'x, y, z'
loop_
 _atom_site_type_symbol
 _atom_site_label
 _atom_site_symmetry_multiplicity
 _atom_site_fract_x
 _atom_site_fract_y
 _atom_site_fract_z
 _atom_site_occupancy
  Tb  Tb0  1  0.406314  0.406736  0.000000  1
  Ce  Ce1  1  0.999906  0.587268  0.000000  1
  Y  Y2  1  0.594273  0.000366  0.000000  1
  Sn  Sn3  1  0.999387  0.249050  0.500000  1
  Sn  Sn4  1  0.736808  0.744685  0.500000  1
  Sn  Sn5  1  0.263582  0.007025  0.500000  1
  Ir  Ir6  1  0.000516  0.995580  0.000000  1
  Ir  Ir7  1  0.680107  0.345625  0.500000  1
  Ir  Ir8  1  0.319108  0.663667  0.500000  1
