# generated using pymatgen
data_Tb7Nd(CdPt)2
_symmetry_space_group_name_H-M   'P 1'
_cell_length_a   9.77677324
_cell_length_b   9.77677395
_cell_length_c   9.75742600
_cell_angle_alpha   60.06544225
_cell_angle_beta   60.06543987
_cell_angle_gamma   59.86911600
_symmetry_Int_Tables_number   1
_chemical_formula_structural   Tb7Nd(CdPt)2
_chemical_formula_sum   'Tb14 Nd2 Cd4 Pt4'
_cell_volume   659.48964915
_cell_formula_units_Z   2
loop_
 _symmetry_equiv_pos_site_id
 _symmetry_equiv_pos_as_xyz
  1  'x, y, z'
loop_
 _atom_site_type_symbol
 _atom_site_label
 _atom_site_symmetry_multiplicity
 _atom_site_fract_x
 _atom_site_fract_y
 _atom_site_fract_z
 _atom_site_occupancy
  Tb  Tb0  1  0.351342  0.351342  0.351517  1
  Tb  Tb1  1  0.351342  0.351342  0.945799  1
  Tb  Tb2  1  0.351517  0.945799  0.351342  1
  Tb  Tb3  1  0.945799  0.351517  0.351342  1
  Tb  Tb4  1  0.809728  0.190272  0.190272  1
  Tb  Tb5  1  0.190272  0.809728  0.809728  1
  Tb  Tb6  1  0.190272  0.809728  0.190272  1
  Tb  Tb7  1  0.809728  0.190272  0.809728  1
  Tb  Tb8  1  0.190395  0.190395  0.809605  1
  Tb  Tb9  1  0.809605  0.809605  0.190395  1
  Tb  Tb10  1  0.937948  0.562052  0.562052  1
  Tb  Tb11  1  0.562052  0.937948  0.937948  1
  Tb  Tb12  1  0.562052  0.937948  0.562052  1
  Tb  Tb13  1  0.937948  0.562052  0.937948  1
  Nd  Nd14  1  0.566796  0.566796  0.933204  1
  Nd  Nd15  1  0.933204  0.933204  0.566796  1
  Cd  Cd16  1  0.582167  0.582167  0.578822  1
  Cd  Cd17  1  0.582167  0.582167  0.256845  1
  Cd  Cd18  1  0.578822  0.256845  0.582167  1
  Cd  Cd19  1  0.256845  0.578822  0.582167  1
  Pt  Pt20  1  0.144046  0.144046  0.141100  1
  Pt  Pt21  1  0.144046  0.144046  0.570808  1
  Pt  Pt22  1  0.141100  0.570808  0.144046  1
  Pt  Pt23  1  0.570808  0.141100  0.144046  1
