# generated using pymatgen
data_Tb2Er8(InBi)3
_symmetry_space_group_name_H-M   'P 1'
_cell_length_a   9.00473154
_cell_length_b   9.02039816
_cell_length_c   6.53895400
_cell_angle_alpha   90.00000000
_cell_angle_beta   90.00000000
_cell_angle_gamma   120.05756417
_symmetry_Int_Tables_number   1
_chemical_formula_structural   Tb2Er8(InBi)3
_chemical_formula_sum   'Tb2 Er8 In3 Bi3'
_cell_volume   459.70918849
_cell_formula_units_Z   1
loop_
 _symmetry_equiv_pos_site_id
 _symmetry_equiv_pos_as_xyz
  1  'x, y, z'
loop_
 _atom_site_type_symbol
 _atom_site_label
 _atom_site_symmetry_multiplicity
 _atom_site_fract_x
 _atom_site_fract_y
 _atom_site_fract_z
 _atom_site_occupancy
  Tb  Tb0  1  0.763396  0.763733  0.750000  1
  Tb  Tb1  1  0.236604  0.000337  0.750000  1
  Er  Er2  1  0.666645  0.333254  0.007194  1
  Er  Er3  1  0.333355  0.666610  0.007194  1
  Er  Er4  1  0.333355  0.666610  0.492806  1
  Er  Er5  1  0.666645  0.333254  0.492806  1
  Er  Er6  1  0.000000  0.236866  0.750000  1
  Er  Er7  1  0.238082  0.238360  0.250000  1
  Er  Er8  1  0.761918  0.000278  0.250000  1
  Er  Er9  1  0.000000  0.761203  0.250000  1
  In  In10  1  0.606815  0.606755  0.250000  1
  In  In11  1  0.393185  0.999939  0.250000  1
  In  In12  1  0.000000  0.393477  0.250000  1
  Bi  Bi13  1  0.396239  0.396997  0.750000  1
  Bi  Bi14  1  0.603761  0.000758  0.750000  1
  Bi  Bi15  1  0.000000  0.601569  0.750000  1
