# generated using pymatgen
data_Tb3Yb4Y3Ir4
_symmetry_space_group_name_H-M   'P 1'
_cell_length_a   6.55880911
_cell_length_b   7.29596305
_cell_length_c   8.54476690
_cell_angle_alpha   96.93407207
_cell_angle_beta   112.67703083
_cell_angle_gamma   90.16848092
_symmetry_Int_Tables_number   1
_chemical_formula_structural   Tb3Yb4Y3Ir4
_chemical_formula_sum   'Tb3 Yb4 Y3 Ir4'
_cell_volume   373.97447205
_cell_formula_units_Z   1
loop_
 _symmetry_equiv_pos_site_id
 _symmetry_equiv_pos_as_xyz
  1  'x, y, z'
loop_
 _atom_site_type_symbol
 _atom_site_label
 _atom_site_symmetry_multiplicity
 _atom_site_fract_x
 _atom_site_fract_y
 _atom_site_fract_z
 _atom_site_occupancy
  Tb  Tb0  1  0.788492  0.317550  0.439640  1
  Tb  Tb1  1  0.431395  0.750273  0.999975  1
  Tb  Tb2  1  0.568168  0.250019  0.999363  1
  Yb  Yb3  1  0.976282  0.919342  0.182886  1
  Yb  Yb4  1  0.792841  0.580842  0.817057  1
  Yb  Yb5  1  0.023721  0.080395  0.817098  1
  Yb  Yb6  1  0.206627  0.419585  0.183070  1
  Y  Y7  1  0.651149  0.817428  0.440217  1
  Y  Y8  1  0.211561  0.682706  0.560070  1
  Y  Y9  1  0.348597  0.182287  0.559868  1
  Ir  Ir10  1  0.816530  0.571571  0.226042  1
  Ir  Ir11  1  0.591351  0.927689  0.774599  1
  Ir  Ir12  1  0.183269  0.427444  0.774388  1
  Ir  Ir13  1  0.410015  0.072870  0.225727  1
