# generated using pymatgen
data_Dy3Al12Os3Pt
_symmetry_space_group_name_H-M   'P 1'
_cell_length_a   8.84683085
_cell_length_b   8.79927006
_cell_length_c   9.56041673
_cell_angle_alpha   90.00000096
_cell_angle_beta   90.13568415
_cell_angle_gamma   119.82231372
_symmetry_Int_Tables_number   1
_chemical_formula_structural   Dy3Al12Os3Pt
_chemical_formula_sum   'Dy6 Al24 Os6 Pt2'
_cell_volume   645.67656516
_cell_formula_units_Z   2
loop_
 _symmetry_equiv_pos_site_id
 _symmetry_equiv_pos_as_xyz
  1  'x, y, z'
loop_
 _atom_site_type_symbol
 _atom_site_label
 _atom_site_symmetry_multiplicity
 _atom_site_fract_x
 _atom_site_fract_y
 _atom_site_fract_z
 _atom_site_occupancy
  Dy  Dy0  1  0.190304  0.386692  0.252651  1
  Dy  Dy1  1  0.809696  0.613308  0.747349  1
  Dy  Dy2  1  0.615677  0.807839  0.252592  1
  Dy  Dy3  1  0.384323  0.192161  0.747408  1
  Dy  Dy4  1  0.190304  0.803613  0.252651  1
  Dy  Dy5  1  0.809696  0.196387  0.747349  1
  Al  Al6  1  0.328784  0.664392  0.026069  1
  Al  Al7  1  0.671216  0.335608  0.973931  1
  Al  Al8  1  0.666513  0.333256  0.523116  1
  Al  Al9  1  0.333487  0.666744  0.476884  1
  Al  Al10  1  0.164671  0.328096  0.575678  1
  Al  Al11  1  0.835329  0.671904  0.424322  1
  Al  Al12  1  0.672561  0.836281  0.574864  1
  Al  Al13  1  0.841363  0.674062  0.077966  1
  Al  Al14  1  0.327439  0.163719  0.425136  1
  Al  Al15  1  0.158637  0.325938  0.922034  1
  Al  Al16  1  0.164671  0.836576  0.575678  1
  Al  Al17  1  0.323732  0.161866  0.078682  1
  Al  Al18  1  0.835329  0.163424  0.424322  1
  Al  Al19  1  0.676268  0.838134  0.921318  1
  Al  Al20  1  0.841363  0.167300  0.077966  1
  Al  Al21  1  0.158637  0.832700  0.922034  1
  Al  Al22  1  0.562183  0.124877  0.251923  1
  Al  Al23  1  0.437817  0.875123  0.748077  1
  Al  Al24  1  0.876316  0.438158  0.249017  1
  Al  Al25  1  0.123684  0.561842  0.750983  1
  Al  Al26  1  0.562183  0.437306  0.251923  1
  Al  Al27  1  0.437817  0.562694  0.748077  1
  Al  Al28  1  0.997745  0.998873  0.250351  1
  Al  Al29  1  0.002255  0.001127  0.749649  1
  Os  Os30  1  0.000000  0.500000  0.000000  1
  Os  Os31  1  0.500000  0.000000  0.500000  1
  Os  Os32  1  0.000000  0.500000  0.500000  1
  Os  Os33  1  0.500000  0.500000  0.500000  1
  Os  Os34  1  0.000000  0.000000  0.000000  1
  Os  Os35  1  0.000000  0.000000  0.500000  1
  Pt  Pt36  1  0.500000  0.000000  0.000000  1
  Pt  Pt37  1  0.500000  0.500000  0.000000  1
