# generated using pymatgen
data_Ce2Dy14Mg3CdCo4
_symmetry_space_group_name_H-M   'P 1'
_cell_length_a   9.38679936
_cell_length_b   9.60416472
_cell_length_c   9.60416495
_cell_angle_alpha   58.65372157
_cell_angle_beta   61.02278063
_cell_angle_gamma   61.02277826
_symmetry_Int_Tables_number   1
_chemical_formula_structural   Ce2Dy14Mg3CdCo4
_chemical_formula_sum   'Ce2 Dy14 Mg3 Cd1 Co4'
_cell_volume   614.78505684
_cell_formula_units_Z   1
loop_
 _symmetry_equiv_pos_site_id
 _symmetry_equiv_pos_as_xyz
  1  'x, y, z'
loop_
 _atom_site_type_symbol
 _atom_site_label
 _atom_site_symmetry_multiplicity
 _atom_site_fract_x
 _atom_site_fract_y
 _atom_site_fract_z
 _atom_site_occupancy
  Ce  Ce0  1  0.818239  0.182806  0.182806  1
  Ce  Ce1  1  0.184280  0.816803  0.816803  1
  Dy  Dy2  1  0.186354  0.810860  0.188946  1
  Dy  Dy3  1  0.808816  0.189148  0.811016  1
  Dy  Dy4  1  0.186354  0.188946  0.810860  1
  Dy  Dy5  1  0.808816  0.811016  0.189148  1
  Dy  Dy6  1  0.922486  0.576478  0.576478  1
  Dy  Dy7  1  0.574466  0.923945  0.923945  1
  Dy  Dy8  1  0.556945  0.941382  0.558517  1
  Dy  Dy9  1  0.942416  0.558796  0.941260  1
  Dy  Dy10  1  0.556945  0.558517  0.941382  1
  Dy  Dy11  1  0.942416  0.941260  0.558796  1
  Dy  Dy12  1  0.331313  0.348242  0.348242  1
  Dy  Dy13  1  0.351623  0.332015  0.967343  1
  Dy  Dy14  1  0.351623  0.967343  0.332015  1
  Dy  Dy15  1  0.967935  0.351255  0.351255  1
  Mg  Mg16  1  0.577557  0.582531  0.263398  1
  Mg  Mg17  1  0.577557  0.263398  0.582531  1
  Mg  Mg18  1  0.265446  0.578158  0.578158  1
  Cd  Cd19  1  0.584551  0.578455  0.578455  1
  Co  Co20  1  0.092859  0.157236  0.157236  1
  Co  Co21  1  0.156412  0.092395  0.594117  1
  Co  Co22  1  0.156412  0.594117  0.092395  1
  Co  Co23  1  0.598178  0.154898  0.154898  1
