# generated using pymatgen
data_Y8Er2(GaSb)3
_symmetry_space_group_name_H-M   'P 1'
_cell_length_a   8.76801400
_cell_length_b   8.77173584
_cell_length_c   6.48917901
_cell_angle_alpha   89.99339000
_cell_angle_beta   90.00000000
_cell_angle_gamma   119.98598037
_symmetry_Int_Tables_number   1
_chemical_formula_structural   Y8Er2(GaSb)3
_chemical_formula_sum   'Y8 Er2 Ga3 Sb3'
_cell_volume   432.28333946
_cell_formula_units_Z   1
loop_
 _symmetry_equiv_pos_site_id
 _symmetry_equiv_pos_as_xyz
  1  'x, y, z'
loop_
 _atom_site_type_symbol
 _atom_site_label
 _atom_site_symmetry_multiplicity
 _atom_site_fract_x
 _atom_site_fract_y
 _atom_site_fract_z
 _atom_site_occupancy
  Y  Y0  1  0.660842  0.333414  0.002959  1
  Y  Y1  1  0.327427  0.666586  0.497041  1
  Y  Y2  1  0.235697  0.000000  0.250000  1
  Y  Y3  1  0.243417  0.232256  0.749970  1
  Y  Y4  1  0.011161  0.767744  0.750030  1
  Y  Y5  1  0.012194  0.249462  0.249963  1
  Y  Y6  1  0.762732  0.750538  0.250037  1
  Y  Y7  1  0.753413  0.000000  0.750000  1
  Er  Er8  1  0.327281  0.666582  0.002969  1
  Er  Er9  1  0.660699  0.333418  0.497031  1
  Ga  Ga10  1  0.998647  0.602505  0.249971  1
  Ga  Ga11  1  0.396142  0.397495  0.250029  1
  Ga  Ga12  1  0.398556  0.000000  0.750000  1
  Sb  Sb13  1  0.609056  0.000000  0.250000  1
  Sb  Sb14  1  0.604910  0.607083  0.749977  1
  Sb  Sb15  1  0.997827  0.392917  0.750023  1
