# generated using pymatgen
data_Pr17Ho3Si15S
_symmetry_space_group_name_H-M   'P 1'
_cell_length_a   7.88873261
_cell_length_b   7.85636933
_cell_length_c   15.22795200
_cell_angle_alpha   90.06723334
_cell_angle_beta   89.73463848
_cell_angle_gamma   90.30476659
_symmetry_Int_Tables_number   1
_chemical_formula_structural   Pr17Ho3Si15S
_chemical_formula_sum   'Pr17 Ho3 Si15 S1'
_cell_volume   943.75559184
_cell_formula_units_Z   1
loop_
 _symmetry_equiv_pos_site_id
 _symmetry_equiv_pos_as_xyz
  1  'x, y, z'
loop_
 _atom_site_type_symbol
 _atom_site_label
 _atom_site_symmetry_multiplicity
 _atom_site_fract_x
 _atom_site_fract_y
 _atom_site_fract_z
 _atom_site_occupancy
  Pr  Pr0  1  0.689022  0.689625  0.498621  1
  Pr  Pr1  1  0.381330  0.005532  0.442205  1
  Pr  Pr2  1  0.490944  0.872600  0.699115  1
  Pr  Pr3  1  0.511799  0.122441  0.195568  1
  Pr  Pr4  1  0.877651  0.484532  0.301301  1
  Pr  Pr5  1  0.124524  0.508984  0.802289  1
  Pr  Pr6  1  0.632132  0.983840  0.950206  1
  Pr  Pr7  1  0.002570  0.379215  0.550567  1
  Pr  Pr8  1  0.991046  0.623040  0.052884  1
  Pr  Pr9  1  0.141533  0.990596  0.870645  1
  Pr  Pr10  1  0.520610  0.628115  0.126033  1
  Pr  Pr11  1  0.465101  0.361834  0.633641  1
  Pr  Pr12  1  0.632690  0.524483  0.875543  1
  Pr  Pr13  1  0.370662  0.476384  0.372800  1
  Pr  Pr14  1  0.874562  0.021980  0.377854  1
  Pr  Pr15  1  0.981405  0.125703  0.122312  1
  Pr  Pr16  1  0.022830  0.876624  0.622881  1
  Ho  Ho17  1  0.313561  0.311062  0.999163  1
  Ho  Ho18  1  0.188519  0.808921  0.248697  1
  Ho  Ho19  1  0.802192  0.190891  0.752297  1
  Si  Si20  1  0.328581  0.693319  0.952951  1
  Si  Si21  1  0.662908  0.305063  0.457133  1
  Si  Si22  1  0.696924  0.331558  0.046993  1
  Si  Si23  1  0.305054  0.666738  0.547384  1
  Si  Si24  1  0.811046  0.828873  0.205059  1
  Si  Si25  1  0.171899  0.188067  0.292884  1
  Si  Si26  1  0.839264  0.809042  0.795285  1
  Si  Si27  1  0.286654  0.923523  0.060742  1
  Si  Si28  1  0.575531  0.785987  0.308144  1
  Si  Si29  1  0.455136  0.210937  0.825457  1
  Si  Si30  1  0.787198  0.576802  0.689206  1
  Si  Si31  1  0.212259  0.423664  0.186984  1
  Si  Si32  1  0.704340  0.078104  0.564987  1
  Si  Si33  1  0.928958  0.288698  0.937859  1
  Si  Si34  1  0.080347  0.712642  0.436947  1
  S  S35  1  0.139215  0.190580  0.697361  1
