# generated using pymatgen
data_TmHf3(AsRh5)2
_symmetry_space_group_name_H-M   'P 1'
_cell_length_a   4.06456800
_cell_length_b   5.63973639
_cell_length_c   10.97085169
_cell_angle_alpha   89.91959269
_cell_angle_beta   90.00000000
_cell_angle_gamma   90.00000000
_symmetry_Int_Tables_number   1
_chemical_formula_structural   TmHf3(AsRh5)2
_chemical_formula_sum   'Tm1 Hf3 As2 Rh10'
_cell_volume   251.48559579
_cell_formula_units_Z   1
loop_
 _symmetry_equiv_pos_site_id
 _symmetry_equiv_pos_as_xyz
  1  'x, y, z'
loop_
 _atom_site_type_symbol
 _atom_site_label
 _atom_site_symmetry_multiplicity
 _atom_site_fract_x
 _atom_site_fract_y
 _atom_site_fract_z
 _atom_site_occupancy
  Tm  Tm0  1  0.500000  0.322856  0.359492  1
  Hf  Hf1  1  0.500000  0.673518  0.642775  1
  Hf  Hf2  1  0.500000  0.172477  0.857784  1
  Hf  Hf3  1  0.500000  0.825871  0.143266  1
  As  As4  1  0.000000  0.998628  0.500646  1
  As  As5  1  0.000000  0.500678  0.999469  1
  Rh  Rh6  1  0.500000  0.312329  0.099671  1
  Rh  Rh7  1  0.500000  0.687216  0.894536  1
  Rh  Rh8  1  0.500000  0.816686  0.395118  1
  Rh  Rh9  1  0.500000  0.185212  0.610633  1
  Rh  Rh10  1  0.000000  0.929606  0.743525  1
  Rh  Rh11  1  0.000000  0.063174  0.251671  1
  Rh  Rh12  1  0.000000  0.430147  0.759091  1
  Rh  Rh13  1  0.000000  0.571674  0.238335  1
  Rh  Rh14  1  0.000000  0.510784  0.505400  1
  Rh  Rh15  1  0.000000  0.999144  0.998588  1
