# generated using pymatgen
data_Li2Ac2Pt5
_symmetry_space_group_name_H-M   'P 1'
_cell_length_a   13.34039710
_cell_length_b   13.34039713
_cell_length_c   13.34039773
_cell_angle_alpha   24.10690210
_cell_angle_beta   24.10690102
_cell_angle_gamma   24.10690437
_symmetry_Int_Tables_number   1
_chemical_formula_structural   Li2Ac2Pt5
_chemical_formula_sum   'Li4 Ac4 Pt10'
_cell_volume   348.05719642
_cell_formula_units_Z   2
loop_
 _symmetry_equiv_pos_site_id
 _symmetry_equiv_pos_as_xyz
  1  'x, y, z'
loop_
 _atom_site_type_symbol
 _atom_site_label
 _atom_site_symmetry_multiplicity
 _atom_site_fract_x
 _atom_site_fract_y
 _atom_site_fract_z
 _atom_site_occupancy
  Li  Li0  1  0.719651  0.719651  0.719651  1
  Li  Li1  1  0.280349  0.280349  0.280349  1
  Li  Li2  1  0.612684  0.612684  0.612684  1
  Li  Li3  1  0.387316  0.387316  0.387316  1
  Ac  Ac4  1  0.951274  0.951274  0.951274  1
  Ac  Ac5  1  0.048726  0.048726  0.048726  1
  Ac  Ac6  1  0.853554  0.853554  0.853554  1
  Ac  Ac7  1  0.146446  0.146446  0.146446  1
  Pt  Pt8  1  0.500000  0.500000  0.500000  1
  Pt  Pt9  1  0.500000  0.500000  0.000000  1
  Pt  Pt10  1  0.000000  0.500000  0.500000  1
  Pt  Pt11  1  0.500000  0.000000  0.500000  1
  Pt  Pt12  1  0.392441  0.896110  0.392441  1
  Pt  Pt13  1  0.392441  0.392441  0.896110  1
  Pt  Pt14  1  0.896110  0.392441  0.392441  1
  Pt  Pt15  1  0.607559  0.103890  0.607559  1
  Pt  Pt16  1  0.607559  0.607559  0.103890  1
  Pt  Pt17  1  0.103890  0.607559  0.607559  1
