# generated using pymatgen
data_Cd2(P2Pd7)3
_symmetry_space_group_name_H-M   'P 1'
_cell_length_a   8.60079032
_cell_length_b   8.60078971
_cell_length_c   8.60079000
_cell_angle_alpha   59.99999890
_cell_angle_beta   60.00000122
_cell_angle_gamma   59.99999405
_symmetry_Int_Tables_number   1
_chemical_formula_structural   Cd2(P2Pd7)3
_chemical_formula_sum   'Cd2 P6 Pd21'
_cell_volume   449.88344949
_cell_formula_units_Z   1
loop_
 _symmetry_equiv_pos_site_id
 _symmetry_equiv_pos_as_xyz
  1  'x, y, z'
loop_
 _atom_site_type_symbol
 _atom_site_label
 _atom_site_symmetry_multiplicity
 _atom_site_fract_x
 _atom_site_fract_y
 _atom_site_fract_z
 _atom_site_occupancy
  Cd  Cd0  1  0.250000  0.250000  0.250000  1
  Cd  Cd1  1  0.750000  0.750000  0.750000  1
  P  P2  1  0.735756  0.735756  0.264244  1
  P  P3  1  0.264244  0.264244  0.735756  1
  P  P4  1  0.264244  0.735756  0.735756  1
  P  P5  1  0.735756  0.264244  0.735756  1
  P  P6  1  0.264244  0.735756  0.264244  1
  P  P7  1  0.735756  0.264244  0.264244  1
  Pd  Pd8  1  0.000000  0.000000  0.000000  1
  Pd  Pd9  1  0.616405  0.616405  0.616405  1
  Pd  Pd10  1  0.383595  0.849212  0.383595  1
  Pd  Pd11  1  0.657320  0.342680  0.000000  1
  Pd  Pd12  1  0.000000  0.342680  0.657320  1
  Pd  Pd13  1  0.657320  0.000000  0.000000  1
  Pd  Pd14  1  0.616405  0.616405  0.150788  1
  Pd  Pd15  1  0.000000  0.000000  0.657320  1
  Pd  Pd16  1  0.000000  0.342680  0.000000  1
  Pd  Pd17  1  0.657320  0.000000  0.342680  1
  Pd  Pd18  1  0.342680  0.000000  0.000000  1
  Pd  Pd19  1  0.000000  0.657320  0.000000  1
  Pd  Pd20  1  0.342680  0.000000  0.657320  1
  Pd  Pd21  1  0.000000  0.657320  0.342680  1
  Pd  Pd22  1  0.342680  0.657320  0.000000  1
  Pd  Pd23  1  0.150788  0.616405  0.616405  1
  Pd  Pd24  1  0.383595  0.383595  0.383595  1
  Pd  Pd25  1  0.849212  0.383595  0.383595  1
  Pd  Pd26  1  0.383595  0.383595  0.849212  1
  Pd  Pd27  1  0.616405  0.150788  0.616405  1
  Pd  Pd28  1  0.000000  0.000000  0.342680  1
