# generated using pymatgen
data_Sc4Si2B4Ir7Ru3
_symmetry_space_group_name_H-M   'P 1'
_cell_length_a   9.37139743
_cell_length_b   9.38796643
_cell_length_c   2.99262900
_cell_angle_alpha   90.00000000
_cell_angle_beta   90.00000000
_cell_angle_gamma   89.96532204
_symmetry_Int_Tables_number   1
_chemical_formula_structural   Sc4Si2B4Ir7Ru3
_chemical_formula_sum   'Sc4 Si2 B4 Ir7 Ru3'
_cell_volume   263.28655665
_cell_formula_units_Z   1
loop_
 _symmetry_equiv_pos_site_id
 _symmetry_equiv_pos_as_xyz
  1  'x, y, z'
loop_
 _atom_site_type_symbol
 _atom_site_label
 _atom_site_symmetry_multiplicity
 _atom_site_fract_x
 _atom_site_fract_y
 _atom_site_fract_z
 _atom_site_occupancy
  Sc  Sc0  1  0.172901  0.672086  0.000000  1
  Sc  Sc1  1  0.672993  0.827496  0.000000  1
  Sc  Sc2  1  0.322371  0.173399  0.000000  1
  Sc  Sc3  1  0.831932  0.324824  0.000000  1
  Si  Si4  1  0.001551  0.005669  0.000000  1
  Si  Si5  1  0.499063  0.499535  0.000000  1
  B  B6  1  0.376742  0.877803  0.000000  1
  B  B7  1  0.878752  0.622758  0.000000  1
  B  B8  1  0.120669  0.372830  0.000000  1
  B  B9  1  0.622629  0.122152  0.000000  1
  Ir  Ir10  1  0.289555  0.430439  0.500000  1
  Ir  Ir11  1  0.710870  0.570833  0.500000  1
  Ir  Ir12  1  0.571388  0.289376  0.500000  1
  Ir  Ir13  1  0.430151  0.710931  0.500000  1
  Ir  Ir14  1  0.928859  0.790505  0.500000  1
  Ir  Ir15  1  0.787866  0.070031  0.500000  1
  Ir  Ir16  1  0.210822  0.926908  0.500000  1
  Ru  Ru17  1  0.000771  0.501268  0.500000  1
  Ru  Ru18  1  0.499022  0.000431  0.500000  1
  Ru  Ru19  1  0.071093  0.210724  0.500000  1
