# generated using pymatgen
data_TiBe6Nb2Si2Mo
_symmetry_space_group_name_H-M   'P 1'
_cell_length_a   4.59682400
_cell_length_b   4.59682419
_cell_length_c   7.67223600
_cell_angle_alpha   90.00000000
_cell_angle_beta   90.00000000
_cell_angle_gamma   120.00001304
_symmetry_Int_Tables_number   1
_chemical_formula_structural   TiBe6Nb2Si2Mo
_chemical_formula_sum   'Ti1 Be6 Nb2 Si2 Mo1'
_cell_volume   140.40038475
_cell_formula_units_Z   1
loop_
 _symmetry_equiv_pos_site_id
 _symmetry_equiv_pos_as_xyz
  1  'x, y, z'
loop_
 _atom_site_type_symbol
 _atom_site_label
 _atom_site_symmetry_multiplicity
 _atom_site_fract_x
 _atom_site_fract_y
 _atom_site_fract_z
 _atom_site_occupancy
  Ti  Ti0  1  0.333333  0.666667  0.437949  1
  Be  Be1  1  0.825328  0.174672  0.254285  1
  Be  Be2  1  0.825328  0.650655  0.254285  1
  Be  Be3  1  0.349345  0.174672  0.254285  1
  Be  Be4  1  0.174299  0.825701  0.745436  1
  Be  Be5  1  0.174299  0.348598  0.745436  1
  Be  Be6  1  0.651402  0.825701  0.745436  1
  Nb  Nb7  1  0.666667  0.333333  0.932418  1
  Nb  Nb8  1  0.333333  0.666667  0.064667  1
  Si  Si9  1  0.000000  0.000000  0.500267  1
  Si  Si10  1  0.000000  0.000000  0.001304  1
  Mo  Mo11  1  0.666667  0.333333  0.564230  1
