# generated using pymatgen
data_Rb4Li2HoGaSb4
_symmetry_space_group_name_H-M   'P 1'
_cell_length_a   9.82108208
_cell_length_b   9.82116136
_cell_length_c   9.82103549
_cell_angle_alpha   137.56925547
_cell_angle_beta   61.07561190
_cell_angle_gamma   138.20699826
_symmetry_Int_Tables_number   1
_chemical_formula_structural   Rb4Li2HoGaSb4
_chemical_formula_sum   'Rb4 Li2 Ho1 Ga1 Sb4'
_cell_volume   421.23945935
_cell_formula_units_Z   1
loop_
 _symmetry_equiv_pos_site_id
 _symmetry_equiv_pos_as_xyz
  1  'x, y, z'
loop_
 _atom_site_type_symbol
 _atom_site_label
 _atom_site_symmetry_multiplicity
 _atom_site_fract_x
 _atom_site_fract_y
 _atom_site_fract_z
 _atom_site_occupancy
  Rb  Rb0  1  0.820663  0.256445  0.087822  1
  Rb  Rb1  1  0.679355  0.767180  0.435792  1
  Rb  Rb2  1  0.331377  0.243554  0.564218  1
  Rb  Rb3  1  0.168614  0.732822  0.912178  1
  Li  Li4  1  0.749995  0.250002  0.499997  1
  Li  Li5  1  0.250000  0.749996  0.500001  1
  Ho  Ho6  1  0.250014  0.250004  0.000010  1
  Ga  Ga7  1  0.749984  0.750001  0.999983  1
  Sb  Sb8  1  0.420153  0.752755  0.144758  1
  Sb  Sb9  1  0.079829  0.224598  0.332613  1
  Sb  Sb10  1  0.892001  0.747241  0.667396  1
  Sb  Sb11  1  0.608014  0.275404  0.855234  1
