# generated using pymatgen
data_La3TbEr4(CdIr)2
_symmetry_space_group_name_H-M   'P 1'
_cell_length_a   9.78974395
_cell_length_b   9.78974414
_cell_length_c   9.79646300
_cell_angle_alpha   59.97729086
_cell_angle_beta   59.97729023
_cell_angle_gamma   59.93589979
_symmetry_Int_Tables_number   1
_chemical_formula_structural   La3TbEr4(CdIr)2
_chemical_formula_sum   'La6 Tb2 Er8 Cd4 Ir4'
_cell_volume   663.34144902
_cell_formula_units_Z   2
loop_
 _symmetry_equiv_pos_site_id
 _symmetry_equiv_pos_as_xyz
  1  'x, y, z'
loop_
 _atom_site_type_symbol
 _atom_site_label
 _atom_site_symmetry_multiplicity
 _atom_site_fract_x
 _atom_site_fract_y
 _atom_site_fract_z
 _atom_site_occupancy
  La  La0  1  0.192526  0.806846  0.807255  1
  La  La1  1  0.806846  0.192526  0.193373  1
  La  La2  1  0.806846  0.192526  0.807255  1
  La  La3  1  0.192526  0.806846  0.193373  1
  La  La4  1  0.807951  0.807951  0.192049  1
  La  La5  1  0.193672  0.193672  0.806328  1
  Tb  Tb6  1  0.597164  0.597164  0.596494  1
  Tb  Tb7  1  0.597164  0.597164  0.209177  1
  Er  Er8  1  0.596811  0.210855  0.596167  1
  Er  Er9  1  0.210855  0.596811  0.596167  1
  Er  Er10  1  0.063624  0.435547  0.436737  1
  Er  Er11  1  0.435547  0.063624  0.064092  1
  Er  Er12  1  0.435547  0.063624  0.436737  1
  Er  Er13  1  0.063624  0.435547  0.064092  1
  Er  Er14  1  0.435790  0.435790  0.064210  1
  Er  Er15  1  0.063634  0.063634  0.436366  1
  Cd  Cd16  1  0.828743  0.828743  0.827957  1
  Cd  Cd17  1  0.828743  0.828743  0.514556  1
  Cd  Cd18  1  0.828943  0.514124  0.828466  1
  Cd  Cd19  1  0.514124  0.828943  0.828466  1
  Ir  Ir20  1  0.390453  0.390453  0.391563  1
  Ir  Ir21  1  0.390453  0.390453  0.827531  1
  Ir  Ir22  1  0.389786  0.828627  0.390794  1
  Ir  Ir23  1  0.828627  0.389786  0.390794  1
