# generated using pymatgen
data_Yb2ScRuO6
_symmetry_space_group_name_H-M   'P 1'
_cell_length_a   5.64069900
_cell_length_b   5.40629826
_cell_length_c   9.42485205
_cell_angle_alpha   55.41340305
_cell_angle_beta   89.99984110
_cell_angle_gamma   89.99993861
_symmetry_Int_Tables_number   1
_chemical_formula_structural   Yb2ScRuO6
_chemical_formula_sum   'Yb4 Sc2 Ru2 O12'
_cell_volume   236.61884251
_cell_formula_units_Z   2
loop_
 _symmetry_equiv_pos_site_id
 _symmetry_equiv_pos_as_xyz
  1  'x, y, z'
loop_
 _atom_site_type_symbol
 _atom_site_label
 _atom_site_symmetry_multiplicity
 _atom_site_fract_x
 _atom_site_fract_y
 _atom_site_fract_z
 _atom_site_occupancy
  Yb  Yb0  1  0.563016  0.767813  0.750468  1
  Yb  Yb1  1  0.936984  0.767814  0.250469  1
  Yb  Yb2  1  0.436984  0.232187  0.249532  1
  Yb  Yb3  1  0.063016  0.232186  0.749531  1
  Sc  Sc4  1  0.500000  0.500000  0.500000  1
  Sc  Sc5  1  0.000000  0.500000  0.000000  1
  Ru  Ru6  1  0.000000  0.000000  0.500000  1
  Ru  Ru7  1  0.500000  0.000000  0.000000  1
  O  O8  1  0.804368  0.240359  0.552720  1
  O  O9  1  0.695634  0.240358  0.052721  1
  O  O10  1  0.195632  0.759641  0.447280  1
  O  O11  1  0.304366  0.759642  0.947279  1
  O  O12  1  0.790419  0.865055  0.943770  1
  O  O13  1  0.709582  0.865055  0.443770  1
  O  O14  1  0.209581  0.134945  0.056230  1
  O  O15  1  0.290418  0.134945  0.556230  1
  O  O16  1  0.965490  0.654427  0.741903  1
  O  O17  1  0.534510  0.654427  0.241904  1
  O  O18  1  0.034510  0.345573  0.258097  1
  O  O19  1  0.465490  0.345573  0.758096  1
