# generated using pymatgen
data_Ba6Ac2(TeO6)3
_symmetry_space_group_name_H-M   'P 1'
_cell_length_a   10.80248066
_cell_length_b   10.80248177
_cell_length_c   10.80248095
_cell_angle_alpha   147.08839590
_cell_angle_beta   131.80598943
_cell_angle_gamma   59.59425245
_symmetry_Int_Tables_number   1
_chemical_formula_structural   Ba6Ac2(TeO6)3
_chemical_formula_sum   'Ba6 Ac2 Te3 O18'
_cell_volume   506.07584595
_cell_formula_units_Z   1
loop_
 _symmetry_equiv_pos_site_id
 _symmetry_equiv_pos_as_xyz
  1  'x, y, z'
loop_
 _atom_site_type_symbol
 _atom_site_label
 _atom_site_symmetry_multiplicity
 _atom_site_fract_x
 _atom_site_fract_y
 _atom_site_fract_z
 _atom_site_occupancy
  Ba  Ba0  1  0.781379  0.500000  0.281379  1
  Ba  Ba1  1  0.365129  0.143086  0.222044  1
  Ba  Ba2  1  0.078958  0.856914  0.222044  1
  Ba  Ba3  1  0.218621  0.500000  0.718621  1
  Ba  Ba4  1  0.921042  0.143086  0.777956  1
  Ba  Ba5  1  0.634871  0.856914  0.777956  1
  Ac  Ac6  1  0.669238  0.669238  0.000000  1
  Ac  Ac7  1  0.330762  0.330762  0.000000  1
  Te  Te8  1  0.500000  0.000000  0.500000  1
  Te  Te9  1  0.163781  0.663781  0.500000  1
  Te  Te10  1  0.836219  0.336219  0.500000  1
  O  O11  1  0.719957  0.000000  0.719957  1
  O  O12  1  0.385097  0.660816  0.724281  1
  O  O13  1  0.063466  0.339184  0.724281  1
  O  O14  1  0.575532  0.850528  0.274995  1
  O  O15  1  0.235803  0.505288  0.269485  1
  O  O16  1  0.910204  0.186099  0.275895  1
  O  O17  1  0.424468  0.699464  0.274995  1
  O  O18  1  0.089796  0.365690  0.275895  1
  O  O19  1  0.764197  0.033683  0.269485  1
  O  O20  1  0.280043  0.000000  0.280043  1
  O  O21  1  0.936534  0.660816  0.275719  1
  O  O22  1  0.614903  0.339184  0.275719  1
  O  O23  1  0.424468  0.149472  0.725005  1
  O  O24  1  0.089796  0.813901  0.724105  1
  O  O25  1  0.764197  0.494712  0.730515  1
  O  O26  1  0.575532  0.300536  0.725005  1
  O  O27  1  0.235803  0.966317  0.730515  1
  O  O28  1  0.910204  0.634311  0.724105  1
