# generated using pymatgen
data_NdIn(BrO3)6
_symmetry_space_group_name_H-M   'P 1'
_cell_length_a   7.29036842
_cell_length_b   9.56339409
_cell_length_c   9.04446731
_cell_angle_alpha   57.35603278
_cell_angle_beta   89.05297898
_cell_angle_gamma   89.20254969
_symmetry_Int_Tables_number   1
_chemical_formula_structural   NdIn(BrO3)6
_chemical_formula_sum   'Nd1 In1 Br6 O18'
_cell_volume   530.89616448
_cell_formula_units_Z   1
loop_
 _symmetry_equiv_pos_site_id
 _symmetry_equiv_pos_as_xyz
  1  'x, y, z'
loop_
 _atom_site_type_symbol
 _atom_site_label
 _atom_site_symmetry_multiplicity
 _atom_site_fract_x
 _atom_site_fract_y
 _atom_site_fract_z
 _atom_site_occupancy
  Nd  Nd0  1  0.501073  0.316873  0.349185  1
  In  In1  1  0.953224  0.689315  0.644536  1
  Br  Br2  1  0.776682  0.702270  0.985324  1
  Br  Br3  1  0.770990  0.303808  0.735456  1
  Br  Br4  1  0.666743  0.964694  0.288292  1
  Br  Br5  1  0.242472  0.368902  0.939490  1
  Br  Br6  1  0.166060  0.661925  0.320322  1
  Br  Br7  1  0.262617  0.919120  0.726736  1
  O  O8  1  0.671210  0.513953  0.101214  1
  O  O9  1  0.690166  0.316875  0.553264  1
  O  O10  1  0.669192  0.102845  0.352594  1
  O  O11  1  0.112903  0.543747  0.888906  1
  O  O12  1  0.157764  0.591141  0.541890  1
  O  O13  1  0.125768  0.901859  0.584930  1
  O  O14  1  0.746382  0.755713  0.770616  1
  O  O15  1  0.749853  0.503948  0.684859  1
  O  O16  1  0.868619  0.855852  0.373968  1
  O  O17  1  0.308569  0.302628  0.145787  1
  O  O18  1  0.341582  0.547277  0.316234  1
  O  O19  1  0.320745  0.122553  0.595667  1
  O  O20  1  0.641536  0.836471  0.993937  1
  O  O21  1  0.613851  0.205266  0.889945  1
  O  O22  1  0.095486  0.231281  0.958771  1
  O  O23  1  0.126367  0.905782  0.881398  1
  O  O24  1  0.495243  0.839679  0.396499  1
  O  O25  1  0.979905  0.587226  0.288179  1
