# generated using pymatgen
data_Tm16MgIn3Ir3Rh
_symmetry_space_group_name_H-M   'P 1'
_cell_length_a   9.55324710
_cell_length_b   9.53258379
_cell_length_c   9.55324707
_cell_angle_alpha   59.95124279
_cell_angle_beta   60.02823518
_cell_angle_gamma   59.95123826
_symmetry_Int_Tables_number   1
_chemical_formula_structural   Tm16MgIn3Ir3Rh
_chemical_formula_sum   'Tm16 Mg1 In3 Ir3 Rh1'
_cell_volume   614.85065030
_cell_formula_units_Z   1
loop_
 _symmetry_equiv_pos_site_id
 _symmetry_equiv_pos_as_xyz
  1  'x, y, z'
loop_
 _atom_site_type_symbol
 _atom_site_label
 _atom_site_symmetry_multiplicity
 _atom_site_fract_x
 _atom_site_fract_y
 _atom_site_fract_z
 _atom_site_occupancy
  Tm  Tm0  1  0.059538  0.059662  0.439957  1
  Tm  Tm1  1  0.437060  0.062794  0.437060  1
  Tm  Tm2  1  0.060488  0.440005  0.060488  1
  Tm  Tm3  1  0.047511  0.650074  0.649770  1
  Tm  Tm4  1  0.435683  0.437218  0.063312  1
  Tm  Tm5  1  0.650078  0.047014  0.650078  1
  Tm  Tm6  1  0.188507  0.811783  0.188507  1
  Tm  Tm7  1  0.188283  0.188149  0.811805  1
  Tm  Tm8  1  0.808867  0.809338  0.191271  1
  Tm  Tm9  1  0.439957  0.059662  0.059538  1
  Tm  Tm10  1  0.811805  0.188149  0.188283  1
  Tm  Tm11  1  0.063312  0.437218  0.435683  1
  Tm  Tm12  1  0.809382  0.190792  0.809382  1
  Tm  Tm13  1  0.191271  0.809338  0.808867  1
  Tm  Tm14  1  0.649770  0.650074  0.047511  1
  Tm  Tm15  1  0.651636  0.652592  0.651636  1
  Mg  Mg16  1  0.422556  0.422736  0.422556  1
  In  In17  1  0.748719  0.417378  0.417803  1
  In  In18  1  0.417540  0.749078  0.417540  1
  In  In19  1  0.417803  0.417378  0.748719  1
  Ir  Ir20  1  0.859206  0.858863  0.424267  1
  Ir  Ir21  1  0.857779  0.857360  0.857779  1
  Ir  Ir22  1  0.424267  0.858863  0.859206  1
  Rh  Rh23  1  0.858986  0.424483  0.858986  1
