# generated using pymatgen
data_TbY3Tm16(CoSb2)4
_symmetry_space_group_name_H-M   'P 1'
_cell_length_a   7.78773695
_cell_length_b   8.73571600
_cell_length_c   12.07177746
_cell_angle_alpha   90.00000000
_cell_angle_beta   90.05654687
_cell_angle_gamma   90.00000000
_symmetry_Int_Tables_number   1
_chemical_formula_structural   TbY3Tm16(CoSb2)4
_chemical_formula_sum   'Tb1 Y3 Tm16 Co4 Sb8'
_cell_volume   821.26022512
_cell_formula_units_Z   1
loop_
 _symmetry_equiv_pos_site_id
 _symmetry_equiv_pos_as_xyz
  1  'x, y, z'
loop_
 _atom_site_type_symbol
 _atom_site_label
 _atom_site_symmetry_multiplicity
 _atom_site_fract_x
 _atom_site_fract_y
 _atom_site_fract_z
 _atom_site_occupancy
  Tb  Tb0  1  0.878200  0.750000  0.806515  1
  Y  Y1  1  0.622049  0.750000  0.306314  1
  Y  Y2  1  0.122062  0.250000  0.193740  1
  Y  Y3  1  0.377933  0.250000  0.693741  1
  Tm  Tm4  1  0.154621  0.750000  0.203155  1
  Tm  Tm5  1  0.654520  0.250000  0.296919  1
  Tm  Tm6  1  0.845378  0.250000  0.796819  1
  Tm  Tm7  1  0.345310  0.750000  0.703151  1
  Tm  Tm8  1  0.450061  0.750000  0.997737  1
  Tm  Tm9  1  0.950055  0.250000  0.502299  1
  Tm  Tm10  1  0.549719  0.250000  0.002190  1
  Tm  Tm11  1  0.049991  0.750000  0.497770  1
  Tm  Tm12  1  0.823081  0.963622  0.065011  1
  Tm  Tm13  1  0.323162  0.036438  0.435024  1
  Tm  Tm14  1  0.176949  0.463206  0.934979  1
  Tm  Tm15  1  0.676891  0.536656  0.565066  1
  Tm  Tm16  1  0.176949  0.036794  0.934979  1
  Tm  Tm17  1  0.676891  0.963344  0.565066  1
  Tm  Tm18  1  0.823081  0.536378  0.065011  1
  Tm  Tm19  1  0.323162  0.463562  0.435024  1
  Co  Co20  1  0.431502  0.750000  0.491410  1
  Co  Co21  1  0.931574  0.250000  0.008656  1
  Co  Co22  1  0.568501  0.250000  0.508566  1
  Co  Co23  1  0.068035  0.750000  0.990993  1
  Sb  Sb24  1  0.929819  0.991443  0.328210  1
  Sb  Sb25  1  0.429725  0.008528  0.171729  1
  Sb  Sb26  1  0.070497  0.491302  0.671693  1
  Sb  Sb27  1  0.570120  0.508469  0.828301  1
  Sb  Sb28  1  0.070497  0.008698  0.671693  1
  Sb  Sb29  1  0.570120  0.991531  0.828301  1
  Sb  Sb30  1  0.929819  0.508557  0.328210  1
  Sb  Sb31  1  0.429725  0.491472  0.171729  1
