# generated using pymatgen
data_NpU(BrN)2
_symmetry_space_group_name_H-M   'P 1'
_cell_length_a   3.83901300
_cell_length_b   3.83901300
_cell_length_c   9.03359700
_cell_angle_alpha   90.00000000
_cell_angle_beta   90.00000000
_cell_angle_gamma   90.00000000
_symmetry_Int_Tables_number   1
_chemical_formula_structural   NpU(BrN)2
_chemical_formula_sum   'Np1 U1 Br2 N2'
_cell_volume   133.13734061
_cell_formula_units_Z   1
loop_
 _symmetry_equiv_pos_site_id
 _symmetry_equiv_pos_as_xyz
  1  'x, y, z'
loop_
 _atom_site_type_symbol
 _atom_site_label
 _atom_site_symmetry_multiplicity
 _atom_site_fract_x
 _atom_site_fract_y
 _atom_site_fract_z
 _atom_site_occupancy
  Np  Np0  1  0.500000  0.000000  0.130466  1
  U  U1  1  0.000000  0.500000  0.875053  1
  Br  Br2  1  0.500000  0.000000  0.679025  1
  Br  Br3  1  0.000000  0.500000  0.322597  1
  N  N4  1  0.500000  0.500000  0.996430  1
  N  N5  1  0.000000  0.000000  0.996430  1
