# generated using pymatgen
data_YHo5Zr4(Sn3O)2
_symmetry_space_group_name_H-M   'P 1'
_cell_length_a   8.75180226
_cell_length_b   8.75548574
_cell_length_c   6.03521300
_cell_angle_alpha   90.00000000
_cell_angle_beta   90.00000000
_cell_angle_gamma   120.01392589
_symmetry_Int_Tables_number   1
_chemical_formula_structural   YHo5Zr4(Sn3O)2
_chemical_formula_sum   'Y1 Ho5 Zr4 Sn6 O2'
_cell_volume   400.44236288
_cell_formula_units_Z   1
loop_
 _symmetry_equiv_pos_site_id
 _symmetry_equiv_pos_as_xyz
  1  'x, y, z'
loop_
 _atom_site_type_symbol
 _atom_site_label
 _atom_site_symmetry_multiplicity
 _atom_site_fract_x
 _atom_site_fract_y
 _atom_site_fract_z
 _atom_site_occupancy
  Y  Y0  1  0.000000  0.771891  0.750000  1
  Ho  Ho1  1  0.000000  0.226671  0.250000  1
  Ho  Ho2  1  0.226679  0.226684  0.750000  1
  Ho  Ho3  1  0.226757  0.000186  0.250000  1
  Ho  Ho4  1  0.773243  0.773429  0.250000  1
  Ho  Ho5  1  0.773321  0.000005  0.750000  1
  Zr  Zr6  1  0.333427  0.666680  0.000041  1
  Zr  Zr7  1  0.333427  0.666680  0.499959  1
  Zr  Zr8  1  0.666573  0.333252  0.000041  1
  Zr  Zr9  1  0.666573  0.333252  0.499959  1
  Sn  Sn10  1  0.000000  0.594565  0.250000  1
  Sn  Sn11  1  0.000000  0.404782  0.750000  1
  Sn  Sn12  1  0.405257  0.405289  0.250000  1
  Sn  Sn13  1  0.594263  0.594496  0.750000  1
  Sn  Sn14  1  0.405737  0.000233  0.750000  1
  Sn  Sn15  1  0.594743  0.000032  0.250000  1
  O  O16  1  0.000000  0.000936  0.001003  1
  O  O17  1  0.000000  0.000936  0.498997  1
