# generated using pymatgen
data_Lu3GeAs2Rh3
_symmetry_space_group_name_H-M   'P 1'
_cell_length_a   6.93540400
_cell_length_b   6.93540396
_cell_length_c   3.86930400
_cell_angle_alpha   90.00000000
_cell_angle_beta   90.00000000
_cell_angle_gamma   120.00000020
_symmetry_Int_Tables_number   1
_chemical_formula_structural   Lu3GeAs2Rh3
_chemical_formula_sum   'Lu3 Ge1 As2 Rh3'
_cell_volume   161.17846286
_cell_formula_units_Z   1
loop_
 _symmetry_equiv_pos_site_id
 _symmetry_equiv_pos_as_xyz
  1  'x, y, z'
loop_
 _atom_site_type_symbol
 _atom_site_label
 _atom_site_symmetry_multiplicity
 _atom_site_fract_x
 _atom_site_fract_y
 _atom_site_fract_z
 _atom_site_occupancy
  Lu  Lu0  1  0.413513  0.413513  0.500000  1
  Lu  Lu1  1  0.586487  0.000000  0.500000  1
  Lu  Lu2  1  0.000000  0.586487  0.500000  1
  Ge  Ge3  1  0.000000  0.000000  0.500000  1
  As  As4  1  0.666667  0.333333  0.000000  1
  As  As5  1  0.333333  0.666667  0.000000  1
  Rh  Rh6  1  0.755910  0.755910  0.000000  1
  Rh  Rh7  1  0.244090  0.000000  0.000000  1
  Rh  Rh8  1  0.000000  0.244090  0.000000  1
