# generated using pymatgen
data_Sr4Li8Si3Ge
_symmetry_space_group_name_H-M   'P 1'
_cell_length_a   5.93747800
_cell_length_b   4.68587200
_cell_length_c   12.81843600
_cell_angle_alpha   90.00000000
_cell_angle_beta   89.99939206
_cell_angle_gamma   90.00000000
_symmetry_Int_Tables_number   1
_chemical_formula_structural   Sr4Li8Si3Ge
_chemical_formula_sum   'Sr4 Li8 Si3 Ge1'
_cell_volume   356.63788368
_cell_formula_units_Z   1
loop_
 _symmetry_equiv_pos_site_id
 _symmetry_equiv_pos_as_xyz
  1  'x, y, z'
loop_
 _atom_site_type_symbol
 _atom_site_label
 _atom_site_symmetry_multiplicity
 _atom_site_fract_x
 _atom_site_fract_y
 _atom_site_fract_z
 _atom_site_occupancy
  Sr  Sr0  1  0.750040  0.249999  0.039349  1
  Sr  Sr1  1  0.250042  0.749996  0.460018  1
  Sr  Sr2  1  0.749964  0.249989  0.540568  1
  Sr  Sr3  1  0.249974  0.750006  0.958666  1
  Li  Li4  1  0.472618  0.749954  0.202406  1
  Li  Li5  1  0.027572  0.750046  0.202446  1
  Li  Li6  1  0.530336  0.250022  0.298637  1
  Li  Li7  1  0.969883  0.249976  0.298680  1
  Li  Li8  1  0.029214  0.750044  0.701898  1
  Li  Li9  1  0.470575  0.749956  0.701938  1
  Li  Li10  1  0.970577  0.249980  0.797817  1
  Li  Li11  1  0.529197  0.250027  0.797864  1
  Si  Si12  1  0.750055  0.749996  0.361933  1
  Si  Si13  1  0.249955  0.249996  0.638578  1
  Si  Si14  1  0.749940  0.750000  0.861229  1
  Ge  Ge15  1  0.250059  0.250004  0.137976  1
