# generated using pymatgen
data_La5Pr3(MoO6)4
_symmetry_space_group_name_H-M   'P 1'
_cell_length_a   10.33915084
_cell_length_b   10.33915064
_cell_length_c   5.65884131
_cell_angle_alpha   75.29148783
_cell_angle_beta   75.29148276
_cell_angle_gamma   68.77700569
_symmetry_Int_Tables_number   1
_chemical_formula_structural   La5Pr3(MoO6)4
_chemical_formula_sum   'La5 Pr3 Mo4 O24'
_cell_volume   536.53899415
_cell_formula_units_Z   1
loop_
 _symmetry_equiv_pos_site_id
 _symmetry_equiv_pos_as_xyz
  1  'x, y, z'
loop_
 _atom_site_type_symbol
 _atom_site_label
 _atom_site_symmetry_multiplicity
 _atom_site_fract_x
 _atom_site_fract_y
 _atom_site_fract_z
 _atom_site_occupancy
  La  La0  1  0.888292  0.111708  0.250000  1
  La  La1  1  0.711701  0.943923  0.884056  1
  La  La2  1  0.288467  0.055569  0.116535  1
  La  La3  1  0.056077  0.288299  0.615944  1
  La  La4  1  0.944431  0.711533  0.383465  1
  Pr  Pr5  1  0.631259  0.368741  0.750000  1
  Pr  Pr6  1  0.368255  0.631745  0.250000  1
  Pr  Pr7  1  0.111393  0.888607  0.750000  1
  Mo  Mo8  1  0.507337  0.796841  0.559171  1
  Mo  Mo9  1  0.492562  0.203193  0.441029  1
  Mo  Mo10  1  0.203159  0.492663  0.940829  1
  Mo  Mo11  1  0.796807  0.507438  0.058971  1
  O  O12  1  0.684683  0.164806  0.585687  1
  O  O13  1  0.314446  0.835158  0.415694  1
  O  O14  1  0.835194  0.315317  0.914313  1
  O  O15  1  0.164842  0.685554  0.084306  1
  O  O16  1  0.385715  0.826357  0.857246  1
  O  O17  1  0.613927  0.173729  0.142433  1
  O  O18  1  0.173643  0.614285  0.642754  1
  O  O19  1  0.826271  0.386073  0.357567  1
  O  O20  1  0.672833  0.786906  0.635205  1
  O  O21  1  0.327087  0.213218  0.364823  1
  O  O22  1  0.213094  0.327167  0.864795  1
  O  O23  1  0.786782  0.672913  0.135177  1
  O  O24  1  0.474423  0.071886  0.729815  1
  O  O25  1  0.525398  0.928136  0.270335  1
  O  O26  1  0.928114  0.525577  0.770185  1
  O  O27  1  0.071864  0.474602  0.229665  1
  O  O28  1  0.544805  0.616462  0.519264  1
  O  O29  1  0.455174  0.383703  0.480380  1
  O  O30  1  0.383538  0.455195  0.980736  1
  O  O31  1  0.616297  0.544826  0.019620  1
  O  O32  1  0.892914  0.921868  0.076832  1
  O  O33  1  0.107908  0.076822  0.922341  1
  O  O34  1  0.078132  0.107086  0.423168  1
  O  O35  1  0.923178  0.892092  0.577659  1
