# generated using pymatgen
data_Pr16MgTl(AgIr2)2
_symmetry_space_group_name_H-M   'P 1'
_cell_length_a   10.00284870
_cell_length_b   10.04218727
_cell_length_c   10.04218668
_cell_angle_alpha   60.03575695
_cell_angle_beta   60.06373545
_cell_angle_gamma   60.06373471
_symmetry_Int_Tables_number   1
_chemical_formula_structural   Pr16MgTl(AgIr2)2
_chemical_formula_sum   'Pr16 Mg1 Tl1 Ag2 Ir4'
_cell_volume   714.16813062
_cell_formula_units_Z   1
loop_
 _symmetry_equiv_pos_site_id
 _symmetry_equiv_pos_as_xyz
  1  'x, y, z'
loop_
 _atom_site_type_symbol
 _atom_site_label
 _atom_site_symmetry_multiplicity
 _atom_site_fract_x
 _atom_site_fract_y
 _atom_site_fract_z
 _atom_site_occupancy
  Pr  Pr0  1  0.347455  0.346878  0.346878  1
  Pr  Pr1  1  0.347484  0.347784  0.956100  1
  Pr  Pr2  1  0.347484  0.956100  0.347784  1
  Pr  Pr3  1  0.948236  0.350064  0.350064  1
  Pr  Pr4  1  0.807739  0.190882  0.190882  1
  Pr  Pr5  1  0.191393  0.808492  0.808492  1
  Pr  Pr6  1  0.187373  0.811345  0.188518  1
  Pr  Pr7  1  0.805479  0.193840  0.806339  1
  Pr  Pr8  1  0.187373  0.188518  0.811345  1
  Pr  Pr9  1  0.805479  0.806339  0.193840  1
  Pr  Pr10  1  0.942847  0.561438  0.561438  1
  Pr  Pr11  1  0.559529  0.940600  0.940600  1
  Pr  Pr12  1  0.559318  0.945774  0.562277  1
  Pr  Pr13  1  0.939064  0.562115  0.939881  1
  Pr  Pr14  1  0.559318  0.562277  0.945774  1
  Pr  Pr15  1  0.939064  0.939881  0.562115  1
  Mg  Mg16  1  0.287945  0.567667  0.567667  1
  Tl  Tl17  1  0.582340  0.581622  0.581622  1
  Ag  Ag18  1  0.579415  0.583928  0.250887  1
  Ag  Ag19  1  0.579415  0.250887  0.583928  1
  Ir  Ir20  1  0.139222  0.142619  0.142619  1
  Ir  Ir21  1  0.141351  0.142962  0.575266  1
  Ir  Ir22  1  0.141351  0.575266  0.142962  1
  Ir  Ir23  1  0.574325  0.142723  0.142723  1
