# generated using pymatgen
data_ScSb23
_symmetry_space_group_name_H-M   'P 1'
_cell_length_a   4.26254000
_cell_length_b   10.45894034
_cell_length_c   17.26266372
_cell_angle_alpha   80.34614209
_cell_angle_beta   90.00000000
_cell_angle_gamma   90.00000000
_symmetry_Int_Tables_number   1
_chemical_formula_structural   ScSb23
_chemical_formula_sum   'Sc1 Sb23'
_cell_volume   758.69965689
_cell_formula_units_Z   1
loop_
 _symmetry_equiv_pos_site_id
 _symmetry_equiv_pos_as_xyz
  1  'x, y, z'
loop_
 _atom_site_type_symbol
 _atom_site_label
 _atom_site_symmetry_multiplicity
 _atom_site_fract_x
 _atom_site_fract_y
 _atom_site_fract_z
 _atom_site_occupancy
  Sc  Sc0  1  0.500000  0.534324  0.248452  1
  Sb  Sb1  1  0.500000  0.538542  0.709875  1
  Sb  Sb2  1  0.000000  0.104424  0.286156  1
  Sb  Sb3  1  0.000000  0.912333  0.720593  1
  Sb  Sb4  1  0.000000  0.771769  0.440854  1
  Sb  Sb5  1  0.000000  0.222656  0.487157  1
  Sb  Sb6  1  0.500000  0.228962  0.988649  1
  Sb  Sb7  1  0.500000  0.740351  0.037914  1
  Sb  Sb8  1  0.000000  0.504430  0.108777  1
  Sb  Sb9  1  0.000000  0.456891  0.911963  1
  Sb  Sb10  1  0.500000  0.025870  0.403628  1
  Sb  Sb11  1  0.500000  0.006432  0.610667  1
  Sb  Sb12  1  0.000000  0.733598  0.273563  1
  Sb  Sb13  1  0.000000  0.299963  0.777849  1
  Sb  Sb14  1  0.500000  0.314418  0.157554  1
  Sb  Sb15  1  0.500000  0.644285  0.858158  1
  Sb  Sb16  1  0.000000  0.900447  0.951745  1
  Sb  Sb17  1  0.000000  0.067931  0.067335  1
  Sb  Sb18  1  0.500000  0.357383  0.559340  1
  Sb  Sb19  1  0.500000  0.575122  0.424329  1
  Sb  Sb20  1  0.000000  0.700823  0.630078  1
  Sb  Sb21  1  0.000000  0.364082  0.327704  1
  Sb  Sb22  1  0.500000  0.117705  0.838800  1
  Sb  Sb23  1  0.500000  0.877258  0.178859  1
