# generated using pymatgen
data_Al6CuNi3
_symmetry_space_group_name_H-M   'P 1'
_cell_length_a   4.07032700
_cell_length_b   4.07032674
_cell_length_c   9.79169000
_cell_angle_alpha   90.00000000
_cell_angle_beta   90.00000000
_cell_angle_gamma   120.00001020
_symmetry_Int_Tables_number   1
_chemical_formula_structural   Al6CuNi3
_chemical_formula_sum   'Al6 Cu1 Ni3'
_cell_volume   140.49045428
_cell_formula_units_Z   1
loop_
 _symmetry_equiv_pos_site_id
 _symmetry_equiv_pos_as_xyz
  1  'x, y, z'
loop_
 _atom_site_type_symbol
 _atom_site_label
 _atom_site_symmetry_multiplicity
 _atom_site_fract_x
 _atom_site_fract_y
 _atom_site_fract_z
 _atom_site_occupancy
  Al  Al0  1  0.666667  0.333333  0.170403  1
  Al  Al1  1  0.666667  0.333333  0.679654  1
  Al  Al2  1  0.000000  0.000000  0.319148  1
  Al  Al3  1  0.000000  0.000000  0.823069  1
  Al  Al4  1  0.333333  0.666667  0.997491  1
  Al  Al5  1  0.333333  0.666667  0.517468  1
  Cu  Cu6  1  0.666667  0.333333  0.424771  1
  Ni  Ni7  1  0.666667  0.333333  0.925274  1
  Ni  Ni8  1  0.000000  0.000000  0.072114  1
  Ni  Ni9  1  0.000000  0.000000  0.570608  1
