# generated using pymatgen
data_Tb10Pr6Cd4PdRu3
_symmetry_space_group_name_H-M   'P 1'
_cell_length_a   9.73438372
_cell_length_b   9.84320443
_cell_length_c   9.84320400
_cell_angle_alpha   60.00000145
_cell_angle_beta   59.62950885
_cell_angle_gamma   59.62950594
_symmetry_Int_Tables_number   1
_chemical_formula_structural   Tb10Pr6Cd4PdRu3
_chemical_formula_sum   'Tb10 Pr6 Cd4 Pd1 Ru3'
_cell_volume   663.14969973
_cell_formula_units_Z   1
loop_
 _symmetry_equiv_pos_site_id
 _symmetry_equiv_pos_as_xyz
  1  'x, y, z'
loop_
 _atom_site_type_symbol
 _atom_site_label
 _atom_site_symmetry_multiplicity
 _atom_site_fract_x
 _atom_site_fract_y
 _atom_site_fract_z
 _atom_site_occupancy
  Tb  Tb0  1  0.341559  0.349810  0.349810  1
  Tb  Tb1  1  0.341559  0.349810  0.958822  1
  Tb  Tb2  1  0.341559  0.958822  0.349810  1
  Tb  Tb3  1  0.969039  0.343654  0.343654  1
  Tb  Tb4  1  0.818516  0.187808  0.187808  1
  Tb  Tb5  1  0.186011  0.813160  0.813160  1
  Tb  Tb6  1  0.186011  0.813160  0.187669  1
  Tb  Tb7  1  0.818516  0.187808  0.805869  1
  Tb  Tb8  1  0.186011  0.187669  0.813160  1
  Tb  Tb9  1  0.818516  0.805869  0.187808  1
  Pr  Pr10  1  0.936648  0.561401  0.561401  1
  Pr  Pr11  1  0.556563  0.940210  0.940210  1
  Pr  Pr12  1  0.556563  0.940210  0.563015  1
  Pr  Pr13  1  0.936648  0.561401  0.940552  1
  Pr  Pr14  1  0.556563  0.563015  0.940210  1
  Pr  Pr15  1  0.936648  0.940552  0.561401  1
  Cd  Cd16  1  0.579485  0.578347  0.578347  1
  Cd  Cd17  1  0.579485  0.578347  0.263820  1
  Cd  Cd18  1  0.579485  0.263820  0.578347  1
  Cd  Cd19  1  0.262467  0.579177  0.579177  1
  Pd  Pd20  1  0.576773  0.141076  0.141076  1
  Ru  Ru21  1  0.145125  0.137734  0.137734  1
  Ru  Ru22  1  0.145125  0.137734  0.579406  1
  Ru  Ru23  1  0.145125  0.579406  0.137734  1
