# generated using pymatgen
data_Dy4Lu2Al17Si7Os8
_symmetry_space_group_name_H-M   'P 1'
_cell_length_a   8.68085401
_cell_length_b   8.67182278
_cell_length_c   9.46344500
_cell_angle_alpha   90.00000000
_cell_angle_beta   90.00000000
_cell_angle_gamma   120.10160622
_symmetry_Int_Tables_number   1
_chemical_formula_structural   Dy4Lu2Al17Si7Os8
_chemical_formula_sum   'Dy4 Lu2 Al17 Si7 Os8'
_cell_volume   616.32129878
_cell_formula_units_Z   1
loop_
 _symmetry_equiv_pos_site_id
 _symmetry_equiv_pos_as_xyz
  1  'x, y, z'
loop_
 _atom_site_type_symbol
 _atom_site_label
 _atom_site_symmetry_multiplicity
 _atom_site_fract_x
 _atom_site_fract_y
 _atom_site_fract_z
 _atom_site_occupancy
  Dy  Dy0  1  0.807442  0.614609  0.750000  1
  Dy  Dy1  1  0.387453  0.190834  0.750000  1
  Dy  Dy2  1  0.195669  0.805495  0.250000  1
  Dy  Dy3  1  0.803085  0.191417  0.750000  1
  Lu  Lu4  1  0.194599  0.391604  0.250000  1
  Lu  Lu5  1  0.607461  0.805326  0.250000  1
  Al  Al6  1  0.164479  0.329750  0.577718  1
  Al  Al7  1  0.833954  0.671211  0.420661  1
  Al  Al8  1  0.671109  0.834814  0.577263  1
  Al  Al9  1  0.833954  0.671211  0.079339  1
  Al  Al10  1  0.329700  0.166422  0.421794  1
  Al  Al11  1  0.164479  0.329750  0.922282  1
  Al  Al12  1  0.163689  0.834112  0.576918  1
  Al  Al13  1  0.329700  0.166422  0.078206  1
  Al  Al14  1  0.835758  0.163982  0.420873  1
  Al  Al15  1  0.671109  0.834814  0.922737  1
  Al  Al16  1  0.835758  0.163982  0.079127  1
  Al  Al17  1  0.163689  0.834112  0.923082  1
  Al  Al18  1  0.126014  0.565450  0.750000  1
  Al  Al19  1  0.564046  0.435599  0.250000  1
  Al  Al20  1  0.438636  0.566309  0.750000  1
  Al  Al21  1  0.998518  0.000277  0.250000  1
  Al  Al22  1  0.999995  0.000957  0.750000  1
  Si  Si23  1  0.333817  0.664245  0.040520  1
  Si  Si24  1  0.666626  0.335633  0.960372  1
  Si  Si25  1  0.666626  0.335633  0.539628  1
  Si  Si26  1  0.333817  0.664245  0.459480  1
  Si  Si27  1  0.565536  0.124323  0.250000  1
  Si  Si28  1  0.436510  0.872829  0.750000  1
  Si  Si29  1  0.874705  0.433936  0.250000  1
  Os  Os30  1  0.501014  0.000280  0.001851  1
  Os  Os31  1  0.999142  0.499153  0.007397  1
  Os  Os32  1  0.501014  0.000280  0.498149  1
  Os  Os33  1  0.500344  0.500576  0.001571  1
  Os  Os34  1  0.999142  0.499153  0.492603  1
  Os  Os35  1  0.500344  0.500576  0.498429  1
  Os  Os36  1  0.000530  0.000336  0.000211  1
  Os  Os37  1  0.000530  0.000336  0.499789  1
