# generated using pymatgen
data_Y2Be2ReRu3C2
_symmetry_space_group_name_H-M   'P 1'
_cell_length_a   5.64474488
_cell_length_b   5.64474477
_cell_length_c   7.10603468
_cell_angle_alpha   90.23337996
_cell_angle_beta   89.76662129
_cell_angle_gamma   140.65559866
_symmetry_Int_Tables_number   1
_chemical_formula_structural   Y2Be2ReRu3C2
_chemical_formula_sum   'Y2 Be2 Re1 Ru3 C2'
_cell_volume   143.54487724
_cell_formula_units_Z   1
loop_
 _symmetry_equiv_pos_site_id
 _symmetry_equiv_pos_as_xyz
  1  'x, y, z'
loop_
 _atom_site_type_symbol
 _atom_site_label
 _atom_site_symmetry_multiplicity
 _atom_site_fract_x
 _atom_site_fract_y
 _atom_site_fract_z
 _atom_site_occupancy
  Y  Y0  1  0.542230  0.457770  0.250710  1
  Y  Y1  1  0.459042  0.540958  0.750479  1
  Be  Be2  1  0.265295  0.734705  0.236812  1
  Be  Be3  1  0.732155  0.267845  0.762679  1
  Re  Re4  1  0.822621  0.177379  0.442393  1
  Ru  Ru5  1  0.827203  0.172797  0.064944  1
  Ru  Ru6  1  0.171009  0.828991  0.936991  1
  Ru  Ru7  1  0.181449  0.818551  0.555090  1
  C  C8  1  0.999797  0.000203  0.999733  1
  C  C9  1  0.999198  0.000802  0.500168  1
