# generated using pymatgen
data_Mn18Cr2Fe(ReC3)2
_symmetry_space_group_name_H-M   'P 1'
_cell_length_a   7.38960247
_cell_length_b   7.39064585
_cell_length_c   7.38436907
_cell_angle_alpha   60.14623849
_cell_angle_beta   60.13312923
_cell_angle_gamma   59.91708132
_symmetry_Int_Tables_number   1
_chemical_formula_structural   Mn18Cr2Fe(ReC3)2
_chemical_formula_sum   'Mn18 Cr2 Fe1 Re2 C6'
_cell_volume   285.58903886
_cell_formula_units_Z   1
loop_
 _symmetry_equiv_pos_site_id
 _symmetry_equiv_pos_as_xyz
  1  'x, y, z'
loop_
 _atom_site_type_symbol
 _atom_site_label
 _atom_site_symmetry_multiplicity
 _atom_site_fract_x
 _atom_site_fract_y
 _atom_site_fract_z
 _atom_site_occupancy
  Mn  Mn0  1  0.615003  0.614960  0.151278  1
  Mn  Mn1  1  0.617071  0.151029  0.616004  1
  Mn  Mn2  1  0.151122  0.617022  0.616105  1
  Mn  Mn3  1  0.615278  0.615409  0.618240  1
  Mn  Mn4  1  0.383425  0.383541  0.849972  1
  Mn  Mn5  1  0.383123  0.849276  0.383256  1
  Mn  Mn6  1  0.849191  0.383141  0.383195  1
  Mn  Mn7  1  0.383623  0.383551  0.383272  1
  Mn  Mn8  1  0.000845  0.000863  0.336529  1
  Mn  Mn9  1  0.662169  0.999053  0.338493  1
  Mn  Mn10  1  0.998986  0.662166  0.338539  1
  Mn  Mn11  1  0.662559  0.337842  0.999131  1
  Mn  Mn12  1  0.000579  0.337602  0.999847  1
  Mn  Mn13  1  0.000499  0.338083  0.663126  1
  Mn  Mn14  1  0.337963  0.662595  0.998985  1
  Mn  Mn15  1  0.338112  0.000501  0.663136  1
  Mn  Mn16  1  0.337693  0.000588  0.999782  1
  Mn  Mn17  1  0.002049  0.001926  0.659213  1
  Cr  Cr18  1  0.998080  0.662267  0.001007  1
  Cr  Cr19  1  0.662151  0.998152  0.001085  1
  Fe  Fe20  1  0.000288  0.000216  0.999609  1
  Re  Re21  1  0.750706  0.750704  0.749367  1
  Re  Re22  1  0.249942  0.249918  0.251074  1
  C  C23  1  0.721245  0.721275  0.281111  1
  C  C24  1  0.274155  0.725452  0.274464  1
  C  C25  1  0.725449  0.274137  0.274418  1
  C  C26  1  0.275963  0.275880  0.724216  1
  C  C27  1  0.725775  0.276965  0.722791  1
  C  C28  1  0.276954  0.725887  0.722755  1
