# generated using pymatgen
data_Sc(BeAu)6
_symmetry_space_group_name_H-M   'P 1'
_cell_length_a   4.91097500
_cell_length_b   4.91097516
_cell_length_c   8.45306400
_cell_angle_alpha   90.00000000
_cell_angle_beta   90.00000000
_cell_angle_gamma   120.00000568
_symmetry_Int_Tables_number   1
_chemical_formula_structural   Sc(BeAu)6
_chemical_formula_sum   'Sc1 Be6 Au6'
_cell_volume   176.55508263
_cell_formula_units_Z   1
loop_
 _symmetry_equiv_pos_site_id
 _symmetry_equiv_pos_as_xyz
  1  'x, y, z'
loop_
 _atom_site_type_symbol
 _atom_site_label
 _atom_site_symmetry_multiplicity
 _atom_site_fract_x
 _atom_site_fract_y
 _atom_site_fract_z
 _atom_site_occupancy
  Sc  Sc0  1  0.000000  0.000000  0.000000  1
  Be  Be1  1  0.500000  0.000000  0.244806  1
  Be  Be2  1  0.500000  0.500000  0.244806  1
  Be  Be3  1  0.000000  0.500000  0.244806  1
  Be  Be4  1  0.500000  0.000000  0.755194  1
  Be  Be5  1  0.500000  0.500000  0.755194  1
  Be  Be6  1  0.000000  0.500000  0.755194  1
  Au  Au7  1  0.333333  0.666667  0.000000  1
  Au  Au8  1  0.666667  0.333333  0.000000  1
  Au  Au9  1  0.333333  0.666667  0.500000  1
  Au  Au10  1  0.666667  0.333333  0.500000  1
  Au  Au11  1  0.000000  0.000000  0.329343  1
  Au  Au12  1  0.000000  0.000000  0.670657  1
