# generated using pymatgen
data_La5Yb3PrIr6
_symmetry_space_group_name_H-M   'P 1'
_cell_length_a   7.63043671
_cell_length_b   7.64007959
_cell_length_c   7.63326040
_cell_angle_alpha   70.88966167
_cell_angle_beta   70.95263157
_cell_angle_gamma   70.98945463
_symmetry_Int_Tables_number   1
_chemical_formula_structural   La5Yb3PrIr6
_chemical_formula_sum   'La5 Yb3 Pr1 Ir6'
_cell_volume   385.33047536
_cell_formula_units_Z   1
loop_
 _symmetry_equiv_pos_site_id
 _symmetry_equiv_pos_as_xyz
  1  'x, y, z'
loop_
 _atom_site_type_symbol
 _atom_site_label
 _atom_site_symmetry_multiplicity
 _atom_site_fract_x
 _atom_site_fract_y
 _atom_site_fract_z
 _atom_site_occupancy
  La  La0  1  0.679136  0.144368  0.392448  1
  La  La1  1  0.391757  0.679994  0.144335  1
  La  La2  1  0.856991  0.607574  0.319513  1
  La  La3  1  0.318663  0.856588  0.608588  1
  La  La4  1  0.608467  0.318869  0.855697  1
  Yb  Yb5  1  0.000406  0.001042  0.999525  1
  Yb  Yb6  1  0.805256  0.803461  0.804642  1
  Yb  Yb7  1  0.195469  0.195871  0.195051  1
  Pr  Pr8  1  0.143862  0.394076  0.678234  1
  Ir  Ir9  1  0.950508  0.171941  0.582284  1
  Ir  Ir10  1  0.582221  0.951608  0.173813  1
  Ir  Ir11  1  0.173663  0.583563  0.953183  1
  Ir  Ir12  1  0.048858  0.825850  0.418052  1
  Ir  Ir13  1  0.418845  0.047962  0.825997  1
  Ir  Ir14  1  0.825898  0.417234  0.048636  1
