# generated using pymatgen
data_Yb3TmP3
_symmetry_space_group_name_H-M   'P 1'
_cell_length_a   7.31462507
_cell_length_b   7.45597270
_cell_length_c   7.45597230
_cell_angle_alpha   109.85205572
_cell_angle_beta   109.08763742
_cell_angle_gamma   109.08765009
_symmetry_Int_Tables_number   1
_chemical_formula_structural   Yb3TmP3
_chemical_formula_sum   'Yb6 Tm2 P6'
_cell_volume   314.49432565
_cell_formula_units_Z   2
loop_
 _symmetry_equiv_pos_site_id
 _symmetry_equiv_pos_as_xyz
  1  'x, y, z'
loop_
 _atom_site_type_symbol
 _atom_site_label
 _atom_site_symmetry_multiplicity
 _atom_site_fract_x
 _atom_site_fract_y
 _atom_site_fract_z
 _atom_site_occupancy
  Yb  Yb0  1  0.499450  0.995029  0.635788  1
  Yb  Yb1  1  0.363662  0.359241  0.364212  1
  Yb  Yb2  1  0.504421  0.004971  0.140759  1
  Yb  Yb3  1  0.004421  0.640759  0.504971  1
  Yb  Yb4  1  0.863662  0.864212  0.859241  1
  Yb  Yb5  1  0.999450  0.135788  0.495029  1
  Tm  Tm6  1  0.131107  0.500000  0.000000  1
  Tm  Tm7  1  0.631107  0.500000  0.000000  1
  P  P8  1  0.378024  0.621978  0.760735  1
  P  P9  1  0.878024  0.260735  0.121978  1
  P  P10  1  0.617289  0.739265  0.361243  1
  P  P11  1  0.117289  0.861243  0.239265  1
  P  P12  1  0.256046  0.138757  0.878022  1
  P  P13  1  0.756046  0.378022  0.638757  1
