# generated using pymatgen
data_Lu2Sc3Nb3(P3Ir4)4
_symmetry_space_group_name_H-M   'P 1'
_cell_length_a   12.70336600
_cell_length_b   12.70336629
_cell_length_c   3.94385200
_cell_angle_alpha   90.00000000
_cell_angle_beta   90.00000000
_cell_angle_gamma   119.99999925
_symmetry_Int_Tables_number   1
_chemical_formula_structural   Lu2Sc3Nb3(P3Ir4)4
_chemical_formula_sum   'Lu2 Sc3 Nb3 P12 Ir16'
_cell_volume   551.17419355
_cell_formula_units_Z   1
loop_
 _symmetry_equiv_pos_site_id
 _symmetry_equiv_pos_as_xyz
  1  'x, y, z'
loop_
 _atom_site_type_symbol
 _atom_site_label
 _atom_site_symmetry_multiplicity
 _atom_site_fract_x
 _atom_site_fract_y
 _atom_site_fract_z
 _atom_site_occupancy
  Lu  Lu0  1  0.333333  0.666667  0.000000  1
  Lu  Lu1  1  0.666667  0.333333  0.000000  1
  Sc  Sc2  1  0.815388  0.000000  0.500000  1
  Sc  Sc3  1  0.000000  0.815388  0.500000  1
  Sc  Sc4  1  0.184612  0.184612  0.500000  1
  Nb  Nb5  1  0.452779  0.000000  0.000000  1
  Nb  Nb6  1  0.000000  0.452779  0.000000  1
  Nb  Nb7  1  0.547221  0.547221  0.000000  1
  P  P8  1  0.174710  0.000000  0.000000  1
  P  P9  1  0.000000  0.174710  0.000000  1
  P  P10  1  0.825290  0.825290  0.000000  1
  P  P11  1  0.167469  0.482586  0.500000  1
  P  P12  1  0.517414  0.684882  0.500000  1
  P  P13  1  0.315118  0.832531  0.500000  1
  P  P14  1  0.684882  0.517414  0.500000  1
  P  P15  1  0.832531  0.315118  0.500000  1
  P  P16  1  0.482586  0.167469  0.500000  1
  P  P17  1  0.644984  0.000000  0.000000  1
  P  P18  1  0.000000  0.644984  0.000000  1
  P  P19  1  0.355016  0.355016  0.000000  1
  Ir  Ir20  1  0.355833  0.493646  0.500000  1
  Ir  Ir21  1  0.506354  0.862187  0.500000  1
  Ir  Ir22  1  0.137813  0.644167  0.500000  1
  Ir  Ir23  1  0.862187  0.506354  0.500000  1
  Ir  Ir24  1  0.644167  0.137813  0.500000  1
  Ir  Ir25  1  0.493646  0.355833  0.500000  1
  Ir  Ir26  1  0.178241  0.369229  0.000000  1
  Ir  Ir27  1  0.630771  0.809014  0.000000  1
  Ir  Ir28  1  0.190986  0.821759  0.000000  1
  Ir  Ir29  1  0.809014  0.630771  0.000000  1
  Ir  Ir30  1  0.821759  0.190986  0.000000  1
  Ir  Ir31  1  0.369229  0.178241  0.000000  1
  Ir  Ir32  1  0.280715  0.000000  0.500000  1
  Ir  Ir33  1  0.000000  0.280715  0.500000  1
  Ir  Ir34  1  0.719285  0.719285  0.500000  1
  Ir  Ir35  1  0.000000  0.000000  0.000000  1
