# generated using pymatgen
data_Ac4Ga5Br2
_symmetry_space_group_name_H-M   'P 1'
_cell_length_a   12.09567812
_cell_length_b   12.09567850
_cell_length_c   4.45179600
_cell_angle_alpha   90.00000000
_cell_angle_beta   90.00000000
_cell_angle_gamma   93.09117193
_symmetry_Int_Tables_number   1
_chemical_formula_structural   Ac4Ga5Br2
_chemical_formula_sum   'Ac8 Ga10 Br4'
_cell_volume   650.37426540
_cell_formula_units_Z   2
loop_
 _symmetry_equiv_pos_site_id
 _symmetry_equiv_pos_as_xyz
  1  'x, y, z'
loop_
 _atom_site_type_symbol
 _atom_site_label
 _atom_site_symmetry_multiplicity
 _atom_site_fract_x
 _atom_site_fract_y
 _atom_site_fract_z
 _atom_site_occupancy
  Ac  Ac0  1  0.673742  0.040025  0.500000  1
  Ac  Ac1  1  0.326258  0.959975  0.500000  1
  Ac  Ac2  1  0.040025  0.673742  0.500000  1
  Ac  Ac3  1  0.959975  0.326258  0.500000  1
  Ac  Ac4  1  0.728762  0.728762  0.000000  1
  Ac  Ac5  1  0.271238  0.271238  0.000000  1
  Ac  Ac6  1  0.369720  0.630280  0.000000  1
  Ac  Ac7  1  0.630280  0.369720  0.000000  1
  Ga  Ga8  1  0.579441  0.579441  0.500000  1
  Ga  Ga9  1  0.420559  0.420559  0.500000  1
  Ga  Ga10  1  0.536290  0.900011  0.000000  1
  Ga  Ga11  1  0.463710  0.099989  0.000000  1
  Ga  Ga12  1  0.900011  0.536290  0.000000  1
  Ga  Ga13  1  0.099989  0.463710  0.000000  1
  Ga  Ga14  1  0.514127  0.782518  0.500000  1
  Ga  Ga15  1  0.485873  0.217482  0.500000  1
  Ga  Ga16  1  0.217482  0.485873  0.500000  1
  Ga  Ga17  1  0.782518  0.514127  0.500000  1
  Br  Br18  1  0.122903  0.122903  0.500000  1
  Br  Br19  1  0.877097  0.877097  0.500000  1
  Br  Br20  1  0.825037  0.174963  0.000000  1
  Br  Br21  1  0.174963  0.825037  0.000000  1
