# generated using pymatgen
data_Dy3Y3Er4(In2Ni)4
_symmetry_space_group_name_H-M   'P 1'
_cell_length_a   3.57333000
_cell_length_b   8.04416900
_cell_length_c   17.91116200
_cell_angle_alpha   90.00089585
_cell_angle_beta   90.00000000
_cell_angle_gamma   90.00000000
_symmetry_Int_Tables_number   1
_chemical_formula_structural   Dy3Y3Er4(In2Ni)4
_chemical_formula_sum   'Dy3 Y3 Er4 In8 Ni4'
_cell_volume   514.84686646
_cell_formula_units_Z   1
loop_
 _symmetry_equiv_pos_site_id
 _symmetry_equiv_pos_as_xyz
  1  'x, y, z'
loop_
 _atom_site_type_symbol
 _atom_site_label
 _atom_site_symmetry_multiplicity
 _atom_site_fract_x
 _atom_site_fract_y
 _atom_site_fract_z
 _atom_site_occupancy
  Dy  Dy0  1  0.000000  0.744718  0.280643  1
  Dy  Dy1  1  0.000000  0.254927  0.719514  1
  Dy  Dy2  1  0.000000  0.754936  0.780327  1
  Y  Y3  1  0.000000  0.499952  0.500136  1
  Y  Y4  1  0.000000  0.000447  0.000041  1
  Y  Y5  1  0.000000  0.244407  0.219338  1
  Er  Er6  1  0.000000  0.618391  0.088630  1
  Er  Er7  1  0.000000  0.382404  0.911190  1
  Er  Er8  1  0.000000  0.882259  0.588810  1
  Er  Er9  1  0.000000  0.117456  0.411185  1
  In  In10  1  0.500000  0.701367  0.932681  1
  In  In11  1  0.500000  0.300198  0.066923  1
  In  In12  1  0.500000  0.798190  0.432982  1
  In  In13  1  0.500000  0.201805  0.567173  1
  In  In14  1  0.500000  0.575299  0.653183  1
  In  In15  1  0.500000  0.424897  0.347465  1
  In  In16  1  0.500000  0.922777  0.152925  1
  In  In17  1  0.500000  0.075850  0.846679  1
  Ni  Ni18  1  0.500000  0.528080  0.195989  1
  Ni  Ni19  1  0.500000  0.473661  0.803938  1
  Ni  Ni20  1  0.500000  0.975124  0.695771  1
  Ni  Ni21  1  0.500000  0.022857  0.304477  1
