# generated using pymatgen
data_Ce7Y(WC2)4
_symmetry_space_group_name_H-M   'P 1'
_cell_length_a   5.69403115
_cell_length_b   5.69403115
_cell_length_c   10.31868553
_cell_angle_alpha   90.41498692
_cell_angle_beta   90.41498692
_cell_angle_gamma   88.88720526
_symmetry_Int_Tables_number   1
_chemical_formula_structural   Ce7Y(WC2)4
_chemical_formula_sum   'Ce7 Y1 W4 C8'
_cell_volume   334.47201761
_cell_formula_units_Z   1
loop_
 _symmetry_equiv_pos_site_id
 _symmetry_equiv_pos_as_xyz
  1  'x, y, z'
loop_
 _atom_site_type_symbol
 _atom_site_label
 _atom_site_symmetry_multiplicity
 _atom_site_fract_x
 _atom_site_fract_y
 _atom_site_fract_z
 _atom_site_occupancy
  Ce  Ce0  1  0.317738  0.682324  0.845954  1
  Ce  Ce1  1  0.682324  0.317738  0.845954  1
  Ce  Ce2  1  0.688014  0.319683  0.154688  1
  Ce  Ce3  1  0.319683  0.688014  0.154688  1
  Ce  Ce4  1  0.186626  0.186626  0.658113  1
  Ce  Ce5  1  0.800991  0.800991  0.339806  1
  Ce  Ce6  1  0.813075  0.813075  0.654326  1
  Y  Y7  1  0.196144  0.196144  0.343356  1
  W  W8  1  0.315290  0.679276  0.498717  1
  W  W9  1  0.824756  0.824756  0.001741  1
  W  W10  1  0.179191  0.179191  0.001772  1
  W  W11  1  0.679276  0.315290  0.498717  1
  C  C12  1  0.004241  0.004241  0.151141  1
  C  C13  1  0.499285  0.499285  0.643813  1
  C  C14  1  0.493722  0.998781  0.497747  1
  C  C15  1  0.495911  0.495911  0.354192  1
  C  C16  1  0.000167  0.000167  0.854588  1
  C  C17  1  0.502126  0.002658  0.001471  1
  C  C18  1  0.002658  0.502126  0.001471  1
  C  C19  1  0.998781  0.493722  0.497747  1
