# generated using pymatgen
data_Sm3Dy3(RuI3)2
_symmetry_space_group_name_H-M   'P 1'
_cell_length_a   4.26559900
_cell_length_b   8.97380714
_cell_length_c   12.41563814
_cell_angle_alpha   86.25617771
_cell_angle_beta   90.00000000
_cell_angle_gamma   90.00000000
_symmetry_Int_Tables_number   1
_chemical_formula_structural   Sm3Dy3(RuI3)2
_chemical_formula_sum   'Sm3 Dy3 Ru2 I6'
_cell_volume   474.23981845
_cell_formula_units_Z   1
loop_
 _symmetry_equiv_pos_site_id
 _symmetry_equiv_pos_as_xyz
  1  'x, y, z'
loop_
 _atom_site_type_symbol
 _atom_site_label
 _atom_site_symmetry_multiplicity
 _atom_site_fract_x
 _atom_site_fract_y
 _atom_site_fract_z
 _atom_site_occupancy
  Sm  Sm0  1  0.250000  0.903676  0.318350  1
  Sm  Sm1  1  0.250000  0.268342  0.897005  1
  Sm  Sm2  1  0.750000  0.731087  0.101516  1
  Dy  Dy3  1  0.750000  0.126005  0.123188  1
  Dy  Dy4  1  0.250000  0.874384  0.875504  1
  Dy  Dy5  1  0.750000  0.096986  0.684936  1
  Ru  Ru6  1  0.750000  0.056285  0.905269  1
  Ru  Ru7  1  0.250000  0.943956  0.093334  1
  I  I8  1  0.250000  0.348136  0.636934  1
  I  I9  1  0.750000  0.645981  0.362618  1
  I  I10  1  0.750000  0.147364  0.392509  1
  I  I11  1  0.250000  0.858382  0.609433  1
  I  I12  1  0.250000  0.423262  0.134469  1
  I  I13  1  0.750000  0.576156  0.864936  1
