# generated using pymatgen
data_Sc12Mn2HgI16
_symmetry_space_group_name_H-M   'P 1'
_cell_length_a   9.06371229
_cell_length_b   11.99292007
_cell_length_c   12.68924100
_cell_angle_alpha   117.12755764
_cell_angle_beta   101.04345979
_cell_angle_gamma   100.52236225
_symmetry_Int_Tables_number   1
_chemical_formula_structural   Sc12Mn2HgI16
_chemical_formula_sum   'Sc12 Mn2 Hg1 I16'
_cell_volume   1145.87395792
_cell_formula_units_Z   1
loop_
 _symmetry_equiv_pos_site_id
 _symmetry_equiv_pos_as_xyz
  1  'x, y, z'
loop_
 _atom_site_type_symbol
 _atom_site_label
 _atom_site_symmetry_multiplicity
 _atom_site_fract_x
 _atom_site_fract_y
 _atom_site_fract_z
 _atom_site_occupancy
  Sc  Sc0  1  0.103635  0.264967  0.355576  1
  Sc  Sc1  1  0.896365  0.735033  0.644424  1
  Sc  Sc2  1  0.763390  0.536809  0.326589  1
  Sc  Sc3  1  0.236610  0.463191  0.673411  1
  Sc  Sc4  1  0.294552  0.735343  0.643688  1
  Sc  Sc5  1  0.705448  0.264657  0.356312  1
  Sc  Sc6  1  0.161687  0.536870  0.325978  1
  Sc  Sc7  1  0.838313  0.463130  0.674022  1
  Sc  Sc8  1  0.413906  0.371191  0.293654  1
  Sc  Sc9  1  0.586094  0.628809  0.706346  1
  Sc  Sc10  1  0.462199  0.323798  0.519133  1
  Sc  Sc11  1  0.537801  0.676202  0.480867  1
  Mn  Mn12  1  0.330352  0.500118  0.499739  1
  Mn  Mn13  1  0.669649  0.499882  0.500261  1
  Hg  Hg14  1  0.000000  0.500000  0.500000  1
  I  I15  1  0.393312  0.738512  0.882153  1
  I  I16  1  0.606688  0.261488  0.117847  1
  I  I17  1  0.186168  0.960580  0.779863  1
  I  I18  1  0.813832  0.039420  0.220137  1
  I  I19  1  0.336727  0.097116  0.252775  1
  I  I20  1  0.663273  0.902884  0.747225  1
  I  I21  1  0.563320  0.437072  0.798063  1
  I  I22  1  0.436680  0.562928  0.201937  1
  I  I23  1  0.306822  0.827607  0.463268  1
  I  I24  1  0.693178  0.172393  0.536732  1
  I  I25  1  0.166695  0.172777  0.535542  1
  I  I26  1  0.833305  0.827223  0.464458  1
  I  I27  1  0.926981  0.576058  0.162794  1
  I  I28  1  0.073019  0.423942  0.837206  1
  I  I29  1  0.925510  0.738163  0.882808  1
  I  I30  1  0.074490  0.261837  0.117192  1
