# generated using pymatgen
data_Sm5Dy3Sc12Si15Sb
_symmetry_space_group_name_H-M   'P 1'
_cell_length_a   7.20244331
_cell_length_b   7.44819474
_cell_length_c   14.11975406
_cell_angle_alpha   90.08966880
_cell_angle_beta   89.00985707
_cell_angle_gamma   90.22934374
_symmetry_Int_Tables_number   1
_chemical_formula_structural   Sm5Dy3Sc12Si15Sb
_chemical_formula_sum   'Sm5 Dy3 Sc12 Si15 Sb1'
_cell_volume   757.33701988
_cell_formula_units_Z   1
loop_
 _symmetry_equiv_pos_site_id
 _symmetry_equiv_pos_as_xyz
  1  'x, y, z'
loop_
 _atom_site_type_symbol
 _atom_site_label
 _atom_site_symmetry_multiplicity
 _atom_site_fract_x
 _atom_site_fract_y
 _atom_site_fract_z
 _atom_site_occupancy
  Sm  Sm0  1  0.011572  0.174697  0.097723  1
  Sm  Sm1  1  0.988738  0.826436  0.902765  1
  Sm  Sm2  1  0.488838  0.673497  0.903810  1
  Sm  Sm3  1  0.992000  0.828885  0.596708  1
  Sm  Sm4  1  0.511714  0.326416  0.098120  1
  Dy  Dy5  1  0.002867  0.172334  0.399551  1
  Dy  Dy6  1  0.509042  0.320378  0.399084  1
  Dy  Dy7  1  0.507100  0.682198  0.599719  1
  Sc  Sc8  1  0.163992  0.499906  0.753139  1
  Sc  Sc9  1  0.835744  0.499704  0.252678  1
  Sc  Sc10  1  0.336065  0.000439  0.251440  1
  Sc  Sc11  1  0.665315  0.000468  0.750308  1
  Sc  Sc12  1  0.345872  0.161123  0.630101  1
  Sc  Sc13  1  0.660688  0.826233  0.373149  1
  Sc  Sc14  1  0.157378  0.680676  0.371421  1
  Sc  Sc15  1  0.667912  0.824501  0.125830  1
  Sc  Sc16  1  0.828672  0.326350  0.624369  1
  Sc  Sc17  1  0.331054  0.174731  0.874282  1
  Sc  Sc18  1  0.831551  0.324138  0.874831  1
  Sc  Sc19  1  0.168676  0.675937  0.126163  1
  Si  Si20  1  0.036258  0.123243  0.749619  1
  Si  Si21  1  0.961803  0.881821  0.248633  1
  Si  Si22  1  0.460889  0.619541  0.249246  1
  Si  Si23  1  0.537193  0.380873  0.751351  1
  Si  Si24  1  0.291353  0.871217  0.750749  1
  Si  Si25  1  0.710316  0.124165  0.249807  1
  Si  Si26  1  0.209414  0.376550  0.251390  1
  Si  Si27  1  0.791562  0.623406  0.749831  1
  Si  Si28  1  0.815242  0.538466  0.455825  1
  Si  Si29  1  0.336025  0.964782  0.459455  1
  Si  Si30  1  0.846249  0.536431  0.039978  1
  Si  Si31  1  0.663979  0.038729  0.538006  1
  Si  Si32  1  0.152808  0.464263  0.961035  1
  Si  Si33  1  0.653254  0.035864  0.960410  1
  Si  Si34  1  0.346073  0.964920  0.040418  1
  Sb  Sb35  1  0.182791  0.456683  0.539058  1
