# generated using pymatgen
data_Cs2VAuSe4
_symmetry_space_group_name_H-M   'P 1'
_cell_length_a   14.94005107
_cell_length_b   13.27322309
_cell_length_c   8.03464253
_cell_angle_alpha   85.28596742
_cell_angle_beta   62.30411159
_cell_angle_gamma   32.40992296
_symmetry_Int_Tables_number   1
_chemical_formula_structural   Cs2VAuSe4
_chemical_formula_sum   'Cs4 V2 Au2 Se8'
_cell_volume   572.22883942
_cell_formula_units_Z   2
loop_
 _symmetry_equiv_pos_site_id
 _symmetry_equiv_pos_as_xyz
  1  'x, y, z'
loop_
 _atom_site_type_symbol
 _atom_site_label
 _atom_site_symmetry_multiplicity
 _atom_site_fract_x
 _atom_site_fract_y
 _atom_site_fract_z
 _atom_site_occupancy
  Cs  Cs0  1  0.678489  0.678489  0.321511  1
  Cs  Cs1  1  0.321511  0.321511  0.678489  1
  Cs  Cs2  1  0.928489  0.928489  0.571511  1
  Cs  Cs3  1  0.571511  0.571511  0.928489  1
  V  V4  1  0.750000  0.750000  0.750000  1
  V  V5  1  0.500000  0.500000  0.500000  1
  Au  Au6  1  0.000000  0.000000  0.000000  1
  Au  Au7  1  0.250000  0.250000  0.250000  1
  Se  Se8  1  0.391561  0.001461  0.921424  1
  Se  Se9  1  0.685555  0.921424  0.001461  1
  Se  Se10  1  0.921424  0.685555  0.391561  1
  Se  Se11  1  0.001461  0.391561  0.685555  1
  Se  Se12  1  0.248539  0.858439  0.564445  1
  Se  Se13  1  0.564445  0.328576  0.248539  1
  Se  Se14  1  0.328576  0.564445  0.858439  1
  Se  Se15  1  0.858439  0.248539  0.328576  1
