# generated using pymatgen
data_TbGd7(Si3Pd)4
_symmetry_space_group_name_H-M   'P 1'
_cell_length_a   8.10498400
_cell_length_b   8.10498446
_cell_length_c   8.25490100
_cell_angle_alpha   90.00000000
_cell_angle_beta   90.00000000
_cell_angle_gamma   120.00000627
_symmetry_Int_Tables_number   1
_chemical_formula_structural   TbGd7(Si3Pd)4
_chemical_formula_sum   'Tb1 Gd7 Si12 Pd4'
_cell_volume   469.62025717
_cell_formula_units_Z   1
loop_
 _symmetry_equiv_pos_site_id
 _symmetry_equiv_pos_as_xyz
  1  'x, y, z'
loop_
 _atom_site_type_symbol
 _atom_site_label
 _atom_site_symmetry_multiplicity
 _atom_site_fract_x
 _atom_site_fract_y
 _atom_site_fract_z
 _atom_site_occupancy
  Tb  Tb0  1  0.000000  0.000000  0.750000  1
  Gd  Gd1  1  0.500915  0.001828  0.250000  1
  Gd  Gd2  1  0.499133  0.998268  0.750000  1
  Gd  Gd3  1  0.998172  0.499085  0.250000  1
  Gd  Gd4  1  0.001732  0.500867  0.750000  1
  Gd  Gd5  1  0.500915  0.499085  0.250000  1
  Gd  Gd6  1  0.499133  0.500867  0.750000  1
  Gd  Gd7  1  0.000000  0.000000  0.250000  1
  Si  Si8  1  0.165220  0.330439  0.000755  1
  Si  Si9  1  0.834702  0.669404  0.999135  1
  Si  Si10  1  0.669561  0.834780  0.000755  1
  Si  Si11  1  0.834702  0.669404  0.500865  1
  Si  Si12  1  0.330596  0.165298  0.999135  1
  Si  Si13  1  0.165220  0.330439  0.499245  1
  Si  Si14  1  0.165220  0.834780  0.000755  1
  Si  Si15  1  0.330596  0.165298  0.500865  1
  Si  Si16  1  0.834702  0.165298  0.999135  1
  Si  Si17  1  0.669561  0.834780  0.499245  1
  Si  Si18  1  0.834702  0.165298  0.500865  1
  Si  Si19  1  0.165220  0.834780  0.499245  1
  Pd  Pd20  1  0.333333  0.666667  0.003098  1
  Pd  Pd21  1  0.666667  0.333333  0.996883  1
  Pd  Pd22  1  0.666667  0.333333  0.503117  1
  Pd  Pd23  1  0.333333  0.666667  0.496902  1
