# generated using pymatgen
data_Ho13Er7CoBi8Os3
_symmetry_space_group_name_H-M   'P 1'
_cell_length_a   7.92266901
_cell_length_b   8.97501902
_cell_length_c   12.38844154
_cell_angle_alpha   89.99492135
_cell_angle_beta   89.78949128
_cell_angle_gamma   90.00498302
_symmetry_Int_Tables_number   1
_chemical_formula_structural   Ho13Er7CoBi8Os3
_chemical_formula_sum   'Ho13 Er7 Co1 Bi8 Os3'
_cell_volume   880.88787275
_cell_formula_units_Z   1
loop_
 _symmetry_equiv_pos_site_id
 _symmetry_equiv_pos_as_xyz
  1  'x, y, z'
loop_
 _atom_site_type_symbol
 _atom_site_label
 _atom_site_symmetry_multiplicity
 _atom_site_fract_x
 _atom_site_fract_y
 _atom_site_fract_z
 _atom_site_occupancy
  Ho  Ho0  1  0.344643  0.749979  0.701382  1
  Ho  Ho1  1  0.657975  0.250010  0.292528  1
  Ho  Ho2  1  0.842548  0.250040  0.791390  1
  Ho  Ho3  1  0.156224  0.749987  0.206606  1
  Ho  Ho4  1  0.879589  0.749947  0.806172  1
  Ho  Ho5  1  0.119762  0.250073  0.193497  1
  Ho  Ho6  1  0.378897  0.250013  0.692824  1
  Ho  Ho7  1  0.616260  0.749991  0.312737  1
  Ho  Ho8  1  0.174806  0.042098  0.936093  1
  Ho  Ho9  1  0.055539  0.749994  0.496961  1
  Ho  Ho10  1  0.944869  0.250013  0.503120  1
  Ho  Ho11  1  0.557960  0.250041  0.003538  1
  Ho  Ho12  1  0.442527  0.749924  0.995893  1
  Er  Er13  1  0.674850  0.542288  0.563511  1
  Er  Er14  1  0.325684  0.460787  0.437026  1
  Er  Er15  1  0.174488  0.457898  0.936116  1
  Er  Er16  1  0.325683  0.039225  0.437035  1
  Er  Er17  1  0.825020  0.543176  0.064114  1
  Er  Er18  1  0.674840  0.957712  0.563509  1
  Er  Er19  1  0.824837  0.956807  0.064169  1
  Co  Co20  1  0.429800  0.750006  0.491284  1
  Bi  Bi21  1  0.570031  0.508770  0.827169  1
  Bi  Bi22  1  0.429685  0.492258  0.173081  1
  Bi  Bi23  1  0.071371  0.492030  0.671901  1
  Bi  Bi24  1  0.429665  0.007746  0.173082  1
  Bi  Bi25  1  0.929423  0.508960  0.328476  1
  Bi  Bi26  1  0.570143  0.991218  0.827123  1
  Bi  Bi27  1  0.929426  0.991038  0.328475  1
  Bi  Bi28  1  0.071341  0.007970  0.671865  1
  Os  Os29  1  0.074837  0.749832  0.989380  1
  Os  Os30  1  0.924141  0.250180  0.010148  1
  Os  Os31  1  0.573136  0.249989  0.509794  1
