# generated using pymatgen
data_Nd3(MgSb3)2
_symmetry_space_group_name_H-M   'P 1'
_cell_length_a   4.27646700
_cell_length_b   11.20936000
_cell_length_c   13.34191400
_cell_angle_alpha   90.00000000
_cell_angle_beta   90.00000000
_cell_angle_gamma   90.00000000
_symmetry_Int_Tables_number   1
_chemical_formula_structural   Nd3(MgSb3)2
_chemical_formula_sum   'Nd6 Mg4 Sb12'
_cell_volume   639.56410185
_cell_formula_units_Z   2
loop_
 _symmetry_equiv_pos_site_id
 _symmetry_equiv_pos_as_xyz
  1  'x, y, z'
loop_
 _atom_site_type_symbol
 _atom_site_label
 _atom_site_symmetry_multiplicity
 _atom_site_fract_x
 _atom_site_fract_y
 _atom_site_fract_z
 _atom_site_occupancy
  Nd  Nd0  1  0.750000  0.271981  0.750000  1
  Nd  Nd1  1  0.750000  0.279352  0.412118  1
  Nd  Nd2  1  0.250000  0.720648  0.912118  1
  Nd  Nd3  1  0.250000  0.720648  0.587882  1
  Nd  Nd4  1  0.250000  0.728019  0.250000  1
  Nd  Nd5  1  0.750000  0.279352  0.087882  1
  Mg  Mg6  1  0.250000  0.002865  0.096128  1
  Mg  Mg7  1  0.250000  0.002865  0.403872  1
  Mg  Mg8  1  0.750000  0.997135  0.596128  1
  Mg  Mg9  1  0.750000  0.997135  0.903872  1
  Sb  Sb10  1  0.750000  0.502009  0.250000  1
  Sb  Sb11  1  0.750000  0.493920  0.916613  1
  Sb  Sb12  1  0.750000  0.822144  0.750000  1
  Sb  Sb13  1  0.750000  0.830127  0.420085  1
  Sb  Sb14  1  0.250000  0.169873  0.920085  1
  Sb  Sb15  1  0.250000  0.169873  0.579915  1
  Sb  Sb16  1  0.250000  0.177856  0.250000  1
  Sb  Sb17  1  0.250000  0.506080  0.083387  1
  Sb  Sb18  1  0.250000  0.497991  0.750000  1
  Sb  Sb19  1  0.250000  0.506080  0.416613  1
  Sb  Sb20  1  0.750000  0.493920  0.583387  1
  Sb  Sb21  1  0.750000  0.830127  0.079915  1
