# generated using pymatgen
data_NdEr4Zr3(Co4As3)4
_symmetry_space_group_name_H-M   'P 1'
_cell_length_a   12.70158900
_cell_length_b   12.70158997
_cell_length_c   3.82356800
_cell_angle_alpha   90.00000000
_cell_angle_beta   90.00000000
_cell_angle_gamma   120.00000528
_symmetry_Int_Tables_number   1
_chemical_formula_structural   NdEr4Zr3(Co4As3)4
_chemical_formula_sum   'Nd1 Er4 Zr3 Co16 As12'
_cell_volume   534.21437664
_cell_formula_units_Z   1
loop_
 _symmetry_equiv_pos_site_id
 _symmetry_equiv_pos_as_xyz
  1  'x, y, z'
loop_
 _atom_site_type_symbol
 _atom_site_label
 _atom_site_symmetry_multiplicity
 _atom_site_fract_x
 _atom_site_fract_y
 _atom_site_fract_z
 _atom_site_occupancy
  Nd  Nd0  1  0.333333  0.666667  0.000000  1
  Er  Er1  1  0.182106  0.182243  0.500000  1
  Er  Er2  1  0.817757  0.999863  0.500000  1
  Er  Er3  1  0.000137  0.817894  0.500000  1
  Er  Er4  1  0.666667  0.333333  0.000000  1
  Zr  Zr5  1  0.561170  0.559641  0.000000  1
  Zr  Zr6  1  0.440359  0.001529  0.000000  1
  Zr  Zr7  1  0.998471  0.438830  0.000000  1
  Co  Co8  1  0.722130  0.720358  0.500000  1
  Co  Co9  1  0.279642  0.001773  0.500000  1
  Co  Co10  1  0.998227  0.277870  0.500000  1
  Co  Co11  1  0.175967  0.370778  0.000000  1
  Co  Co12  1  0.629222  0.805189  0.000000  1
  Co  Co13  1  0.194811  0.824033  0.000000  1
  Co  Co14  1  0.804577  0.626605  0.000000  1
  Co  Co15  1  0.822028  0.195423  0.000000  1
  Co  Co16  1  0.373395  0.177972  0.000000  1
  Co  Co17  1  0.356495  0.476377  0.500000  1
  Co  Co18  1  0.523623  0.880119  0.500000  1
  Co  Co19  1  0.119881  0.643505  0.500000  1
  Co  Co20  1  0.876393  0.519377  0.500000  1
  Co  Co21  1  0.642985  0.123607  0.500000  1
  Co  Co22  1  0.480623  0.357015  0.500000  1
  Co  Co23  1  0.000000  0.000000  0.000000  1
  As  As24  1  0.824243  0.823283  0.000000  1
  As  As25  1  0.176717  0.000960  0.000000  1
  As  As26  1  0.999040  0.175757  0.000000  1
  As  As27  1  0.170280  0.477531  0.500000  1
  As  As28  1  0.522469  0.692749  0.500000  1
  As  As29  1  0.307251  0.829720  0.500000  1
  As  As30  1  0.691793  0.517527  0.500000  1
  As  As31  1  0.825734  0.308207  0.500000  1
  As  As32  1  0.482473  0.174266  0.500000  1
  As  As33  1  0.350890  0.350844  0.000000  1
  As  As34  1  0.649156  0.000046  0.000000  1
  As  As35  1  0.999954  0.649110  0.000000  1
