# generated using pymatgen
data_LiMg(Zn5Pd)4
_symmetry_space_group_name_H-M   'P 1'
_cell_length_a   7.98632240
_cell_length_b   7.96109471
_cell_length_c   7.94613500
_cell_angle_alpha   70.83010368
_cell_angle_beta   70.67386797
_cell_angle_gamma   109.55938759
_symmetry_Int_Tables_number   1
_chemical_formula_structural   LiMg(Zn5Pd)4
_chemical_formula_sum   'Li1 Mg1 Zn20 Pd4'
_cell_volume   390.62067361
_cell_formula_units_Z   1
loop_
 _symmetry_equiv_pos_site_id
 _symmetry_equiv_pos_as_xyz
  1  'x, y, z'
loop_
 _atom_site_type_symbol
 _atom_site_label
 _atom_site_symmetry_multiplicity
 _atom_site_fract_x
 _atom_site_fract_y
 _atom_site_fract_z
 _atom_site_occupancy
  Li  Li0  1  0.352353  0.000147  0.645496  1
  Mg  Mg1  1  0.997273  0.357187  0.644718  1
  Zn  Zn2  1  0.002266  0.995802  0.785617  1
  Zn  Zn3  1  0.781868  0.781689  0.218181  1
  Zn  Zn4  1  0.207331  0.000830  0.996576  1
  Zn  Zn5  1  0.000121  0.221834  0.004859  1
  Zn  Zn6  1  0.278195  0.265294  0.380779  1
  Zn  Zn7  1  0.008521  0.734202  0.646313  1
  Zn  Zn8  1  0.722721  0.994986  0.649188  1
  Zn  Zn9  1  0.656405  0.644053  0.624254  1
  Zn  Zn10  1  0.386088  0.651088  0.342941  1
  Zn  Zn11  1  0.650183  0.372181  0.357251  1
  Zn  Zn12  1  0.350001  0.736294  0.994594  1
  Zn  Zn13  1  0.602154  0.253808  0.738127  1
  Zn  Zn14  1  0.350105  0.995370  0.271094  1
  Zn  Zn15  1  0.718391  0.347992  0.004061  1
  Zn  Zn16  1  0.005813  0.354580  0.272355  1
  Zn  Zn17  1  0.282772  0.633006  0.722764  1
  Zn  Zn18  1  0.643360  0.645919  0.996220  1
  Zn  Zn19  1  0.005280  0.653953  0.346980  1
  Zn  Zn20  1  0.642208  0.001004  0.357140  1
  Zn  Zn21  1  0.356498  0.357330  0.001784  1
  Pd  Pd22  1  0.001517  0.002528  0.345882  1
  Pd  Pd23  1  0.344621  0.349507  0.654343  1
  Pd  Pd24  1  0.658092  0.001009  0.997535  1
  Pd  Pd25  1  0.995861  0.648409  0.000952  1
