# generated using pymatgen
data_Li2Ni9As7Ru3
_symmetry_space_group_name_H-M   'P 1'
_cell_length_a   9.41964800
_cell_length_b   9.41964723
_cell_length_c   3.71276600
_cell_angle_alpha   90.00000000
_cell_angle_beta   90.00000000
_cell_angle_gamma   120.00000972
_symmetry_Int_Tables_number   1
_chemical_formula_structural   Li2Ni9As7Ru3
_chemical_formula_sum   'Li2 Ni9 As7 Ru3'
_cell_volume   285.29718091
_cell_formula_units_Z   1
loop_
 _symmetry_equiv_pos_site_id
 _symmetry_equiv_pos_as_xyz
  1  'x, y, z'
loop_
 _atom_site_type_symbol
 _atom_site_label
 _atom_site_symmetry_multiplicity
 _atom_site_fract_x
 _atom_site_fract_y
 _atom_site_fract_z
 _atom_site_occupancy
  Li  Li0  1  0.333333  0.666667  0.000000  1
  Li  Li1  1  0.000000  0.000000  0.500000  1
  Ni  Ni2  1  0.279295  0.381773  0.500000  1
  Ni  Ni3  1  0.618227  0.897521  0.500000  1
  Ni  Ni4  1  0.102479  0.720705  0.500000  1
  Ni  Ni5  1  0.498575  0.453117  0.000000  1
  Ni  Ni6  1  0.546883  0.045458  0.000000  1
  Ni  Ni7  1  0.954542  0.501425  0.000000  1
  Ni  Ni8  1  0.721539  0.765975  0.000000  1
  Ni  Ni9  1  0.234025  0.955563  0.000000  1
  Ni  Ni10  1  0.044437  0.278461  0.000000  1
  As  As11  1  0.958265  0.753973  0.000000  1
  As  As12  1  0.246027  0.204292  0.000000  1
  As  As13  1  0.795708  0.041735  0.000000  1
  As  As14  1  0.666667  0.333333  0.000000  1
  As  As15  1  0.538967  0.623842  0.500000  1
  As  As16  1  0.376158  0.915125  0.500000  1
  As  As17  1  0.084875  0.461033  0.500000  1
  Ru  Ru18  1  0.758489  0.548010  0.500000  1
  Ru  Ru19  1  0.451990  0.210480  0.500000  1
  Ru  Ru20  1  0.789520  0.241511  0.500000  1
