# generated using pymatgen
data_Y2PaCoOs2
_symmetry_space_group_name_H-M   'P 1'
_cell_length_a   5.35573137
_cell_length_b   5.70108805
_cell_length_c   5.70108863
_cell_angle_alpha   118.84883599
_cell_angle_beta   124.36722509
_cell_angle_gamma   89.21932340
_symmetry_Int_Tables_number   1
_chemical_formula_structural   Y2PaCoOs2
_chemical_formula_sum   'Y2 Pa1 Co1 Os2'
_cell_volume   117.51943165
_cell_formula_units_Z   1
loop_
 _symmetry_equiv_pos_site_id
 _symmetry_equiv_pos_as_xyz
  1  'x, y, z'
loop_
 _atom_site_type_symbol
 _atom_site_label
 _atom_site_symmetry_multiplicity
 _atom_site_fract_x
 _atom_site_fract_y
 _atom_site_fract_z
 _atom_site_occupancy
  Y  Y0  1  0.125985  0.874932  0.251054  1
  Y  Y1  1  0.874015  0.125068  0.748946  1
  Pa  Pa2  1  0.000000  0.500000  0.500000  1
  Co  Co3  1  0.500000  0.500000  0.000000  1
  Os  Os4  1  0.500000  0.000000  0.000000  1
  Os  Os5  1  0.500000  0.500000  0.500000  1
