# generated using pymatgen
data_SmAl2Pd2Pt3
_symmetry_space_group_name_H-M   'P 1'
_cell_length_a   4.13620712
_cell_length_b   4.13501160
_cell_length_c   8.12122000
_cell_angle_alpha   104.73263451
_cell_angle_beta   104.75311712
_cell_angle_gamma   89.99999394
_symmetry_Int_Tables_number   1
_chemical_formula_structural   SmAl2Pd2Pt3
_chemical_formula_sum   'Sm1 Al2 Pd2 Pt3'
_cell_volume   129.59230238
_cell_formula_units_Z   1
loop_
 _symmetry_equiv_pos_site_id
 _symmetry_equiv_pos_as_xyz
  1  'x, y, z'
loop_
 _atom_site_type_symbol
 _atom_site_label
 _atom_site_symmetry_multiplicity
 _atom_site_fract_x
 _atom_site_fract_y
 _atom_site_fract_z
 _atom_site_occupancy
  Sm  Sm0  1  0.999771  0.999718  0.999542  1
  Al  Al1  1  0.747345  0.747397  0.494691  1
  Al  Al2  1  0.252991  0.252949  0.505983  1
  Pd  Pd3  1  0.499516  0.499527  0.999031  1
  Pd  Pd4  1  0.356342  0.856279  0.712682  1
  Pt  Pt5  1  0.644336  0.144439  0.288676  1
  Pt  Pt6  1  0.146352  0.646336  0.292703  1
  Pt  Pt7  1  0.853346  0.353355  0.706691  1
