# generated using pymatgen
data_SmEr3(Ga2Ag)4
_symmetry_space_group_name_H-M   'P 1'
_cell_length_a   4.38489000
_cell_length_b   6.95754543
_cell_length_c   10.26508426
_cell_angle_alpha   90.10736807
_cell_angle_beta   90.00000000
_cell_angle_gamma   90.00000000
_symmetry_Int_Tables_number   1
_chemical_formula_structural   SmEr3(Ga2Ag)4
_chemical_formula_sum   'Sm1 Er3 Ga8 Ag4'
_cell_volume   313.16737383
_cell_formula_units_Z   1
loop_
 _symmetry_equiv_pos_site_id
 _symmetry_equiv_pos_as_xyz
  1  'x, y, z'
loop_
 _atom_site_type_symbol
 _atom_site_label
 _atom_site_symmetry_multiplicity
 _atom_site_fract_x
 _atom_site_fract_y
 _atom_site_fract_z
 _atom_site_occupancy
  Sm  Sm0  1  0.250000  0.279300  0.675993  1
  Er  Er1  1  0.250000  0.778772  0.825595  1
  Er  Er2  1  0.750000  0.220428  0.175347  1
  Er  Er3  1  0.750000  0.720812  0.324465  1
  Ga  Ga4  1  0.250000  0.928586  0.155111  1
  Ga  Ga5  1  0.750000  0.068458  0.846393  1
  Ga  Ga6  1  0.750000  0.574845  0.654583  1
  Ga  Ga7  1  0.250000  0.430018  0.344667  1
  Ga  Ga8  1  0.250000  0.703800  0.535640  1
  Ga  Ga9  1  0.750000  0.299502  0.462180  1
  Ga  Ga10  1  0.750000  0.799613  0.036375  1
  Ga  Ga11  1  0.250000  0.198146  0.966478  1
  Ag  Ag12  1  0.250000  0.544576  0.095564  1
  Ag  Ag13  1  0.750000  0.455392  0.905409  1
  Ag  Ag14  1  0.750000  0.953852  0.594051  1
  Ag  Ag15  1  0.250000  0.043901  0.402148  1
