# generated using pymatgen
data_Yb3Pr7Ir4
_symmetry_space_group_name_H-M   'P 1'
_cell_length_a   8.89278078
_cell_length_b   8.87069473
_cell_length_c   7.46620427
_cell_angle_alpha   83.61873205
_cell_angle_beta   83.76706488
_cell_angle_gamma   44.44244562
_symmetry_Int_Tables_number   1
_chemical_formula_structural   Yb3Pr7Ir4
_chemical_formula_sum   'Yb3 Pr7 Ir4'
_cell_volume   409.47762429
_cell_formula_units_Z   1
loop_
 _symmetry_equiv_pos_site_id
 _symmetry_equiv_pos_as_xyz
  1  'x, y, z'
loop_
 _atom_site_type_symbol
 _atom_site_label
 _atom_site_symmetry_multiplicity
 _atom_site_fract_x
 _atom_site_fract_y
 _atom_site_fract_z
 _atom_site_occupancy
  Yb  Yb0  1  0.017865  0.801528  0.915274  1
  Yb  Yb1  1  0.199041  0.984391  0.584437  1
  Yb  Yb2  1  0.986149  0.197134  0.084630  1
  Pr  Pr3  1  0.800107  0.018977  0.416198  1
  Pr  Pr4  1  0.348609  0.214879  0.817246  1
  Pr  Pr5  1  0.785200  0.652496  0.682500  1
  Pr  Pr6  1  0.655451  0.782032  0.180050  1
  Pr  Pr7  1  0.210567  0.347847  0.317421  1
  Pr  Pr8  1  0.564454  0.436752  0.751680  1
  Pr  Pr9  1  0.432149  0.568912  0.248695  1
  Ir  Ir10  1  0.178207  0.595646  0.571383  1
  Ir  Ir11  1  0.405375  0.822109  0.925648  1
  Ir  Ir12  1  0.819174  0.400551  0.428877  1
  Ir  Ir13  1  0.597653  0.176747  0.075959  1
