# generated using pymatgen
data_Tb2TmLu5(CdPt)2
_symmetry_space_group_name_H-M   'P 1'
_cell_length_a   9.55947501
_cell_length_b   9.54467123
_cell_length_c   9.54444501
_cell_angle_alpha   60.10342131
_cell_angle_beta   59.94945590
_cell_angle_gamma   59.95426993
_symmetry_Int_Tables_number   1
_chemical_formula_structural   Tb2TmLu5(CdPt)2
_chemical_formula_sum   'Tb4 Tm2 Lu10 Cd4 Pt4'
_cell_volume   615.81764109
_cell_formula_units_Z   2
loop_
 _symmetry_equiv_pos_site_id
 _symmetry_equiv_pos_as_xyz
  1  'x, y, z'
loop_
 _atom_site_type_symbol
 _atom_site_label
 _atom_site_symmetry_multiplicity
 _atom_site_fract_x
 _atom_site_fract_y
 _atom_site_fract_z
 _atom_site_occupancy
  Tb  Tb0  1  0.564996  0.934956  0.565050  1
  Tb  Tb1  1  0.934956  0.564996  0.934999  1
  Tb  Tb2  1  0.565054  0.565054  0.934946  1
  Tb  Tb3  1  0.935018  0.935018  0.564982  1
  Tm  Tm4  1  0.352657  0.352090  0.352079  1
  Tm  Tm5  1  0.352090  0.352657  0.943174  1
  Lu  Lu6  1  0.351933  0.943635  0.352488  1
  Lu  Lu7  1  0.943635  0.351933  0.351944  1
  Lu  Lu8  1  0.811366  0.188704  0.188663  1
  Lu  Lu9  1  0.188704  0.811366  0.811267  1
  Lu  Lu10  1  0.188464  0.811597  0.188456  1
  Lu  Lu11  1  0.811597  0.188464  0.811482  1
  Lu  Lu12  1  0.188393  0.188393  0.811607  1
  Lu  Lu13  1  0.811473  0.811473  0.188527  1
  Lu  Lu14  1  0.939085  0.560860  0.560921  1
  Lu  Lu15  1  0.560860  0.939085  0.939134  1
  Cd  Cd16  1  0.582954  0.580900  0.580717  1
  Cd  Cd17  1  0.580900  0.582954  0.255428  1
  Cd  Cd18  1  0.580967  0.255381  0.582849  1
  Cd  Cd19  1  0.255381  0.580967  0.580801  1
  Pt  Pt20  1  0.144071  0.142131  0.142665  1
  Pt  Pt21  1  0.142131  0.144071  0.571133  1
  Pt  Pt22  1  0.141841  0.571473  0.144309  1
  Pt  Pt23  1  0.571473  0.141841  0.142377  1
