# generated using pymatgen
data_Y7Er6Th3(CdIr)4
_symmetry_space_group_name_H-M   'P 1'
_cell_length_a   9.71160047
_cell_length_b   9.71808612
_cell_length_c   9.71497100
_cell_angle_alpha   60.01060650
_cell_angle_beta   59.98852203
_cell_angle_gamma   60.06607173
_symmetry_Int_Tables_number   1
_chemical_formula_structural   Y7Er6Th3(CdIr)4
_chemical_formula_sum   'Y7 Er6 Th3 Cd4 Ir4'
_cell_volume   648.65169373
_cell_formula_units_Z   1
loop_
 _symmetry_equiv_pos_site_id
 _symmetry_equiv_pos_as_xyz
  1  'x, y, z'
loop_
 _atom_site_type_symbol
 _atom_site_label
 _atom_site_symmetry_multiplicity
 _atom_site_fract_x
 _atom_site_fract_y
 _atom_site_fract_z
 _atom_site_occupancy
  Y  Y0  1  0.811707  0.809664  0.189314  1
  Y  Y1  1  0.936979  0.562900  0.563489  1
  Y  Y2  1  0.563725  0.935982  0.935716  1
  Y  Y3  1  0.563725  0.935982  0.564576  1
  Y  Y4  1  0.936979  0.562900  0.936631  1
  Y  Y5  1  0.563985  0.564236  0.935889  1
  Y  Y6  1  0.936881  0.936760  0.563179  1
  Er  Er7  1  0.949474  0.349802  0.350363  1
  Er  Er8  1  0.811892  0.189455  0.189106  1
  Er  Er9  1  0.188130  0.812427  0.812234  1
  Er  Er10  1  0.188130  0.812427  0.187208  1
  Er  Er11  1  0.811892  0.189455  0.809548  1
  Er  Er12  1  0.187779  0.187242  0.812489  1
  Th  Th13  1  0.347435  0.349931  0.349868  1
  Th  Th14  1  0.347435  0.349931  0.952766  1
  Th  Th15  1  0.347023  0.952916  0.350031  1
  Cd  Cd16  1  0.583972  0.580945  0.581019  1
  Cd  Cd17  1  0.583972  0.580945  0.254064  1
  Cd  Cd18  1  0.583993  0.254090  0.580959  1
  Cd  Cd19  1  0.252017  0.582673  0.582655  1
  Ir  Ir20  1  0.143448  0.141596  0.141750  1
  Ir  Ir21  1  0.143448  0.141596  0.573207  1
  Ir  Ir22  1  0.144766  0.572217  0.141508  1
  Ir  Ir23  1  0.571217  0.143926  0.142428  1
