# generated using pymatgen
data_Li2PuO4
_symmetry_space_group_name_H-M   'P 1'
_cell_length_a   5.15386100
_cell_length_b   6.04016400
_cell_length_c   10.49185900
_cell_angle_alpha   90.00000000
_cell_angle_beta   90.00000000
_cell_angle_gamma   90.00000000
_symmetry_Int_Tables_number   1
_chemical_formula_structural   Li2PuO4
_chemical_formula_sum   'Li8 Pu4 O16'
_cell_volume   326.61330889
_cell_formula_units_Z   4
loop_
 _symmetry_equiv_pos_site_id
 _symmetry_equiv_pos_as_xyz
  1  'x, y, z'
loop_
 _atom_site_type_symbol
 _atom_site_label
 _atom_site_symmetry_multiplicity
 _atom_site_fract_x
 _atom_site_fract_y
 _atom_site_fract_z
 _atom_site_occupancy
  Li  Li0  1  0.539865  0.750000  0.922050  1
  Li  Li1  1  0.039865  0.250000  0.577950  1
  Li  Li2  1  0.460135  0.250000  0.077950  1
  Li  Li3  1  0.960135  0.750000  0.422050  1
  Li  Li4  1  0.500000  0.000000  0.500000  1
  Li  Li5  1  0.000000  0.000000  0.000000  1
  Li  Li6  1  0.500000  0.500000  0.500000  1
  Li  Li7  1  0.000000  0.500000  0.000000  1
  Pu  Pu8  1  0.986886  0.750000  0.739816  1
  Pu  Pu9  1  0.486886  0.250000  0.760184  1
  Pu  Pu10  1  0.013114  0.250000  0.260184  1
  Pu  Pu11  1  0.513114  0.750000  0.239816  1
  O  O12  1  0.172394  0.750000  0.897955  1
  O  O13  1  0.212497  0.250000  0.411803  1
  O  O14  1  0.287503  0.250000  0.911803  1
  O  O15  1  0.712497  0.750000  0.088197  1
  O  O16  1  0.265247  0.012160  0.165000  1
  O  O17  1  0.765247  0.987840  0.335000  1
  O  O18  1  0.734753  0.512160  0.835000  1
  O  O19  1  0.234753  0.487840  0.665000  1
  O  O20  1  0.734753  0.987840  0.835000  1
  O  O21  1  0.234753  0.012160  0.665000  1
  O  O22  1  0.265247  0.487840  0.165000  1
  O  O23  1  0.765247  0.512160  0.335000  1
  O  O24  1  0.827606  0.250000  0.102045  1
  O  O25  1  0.327606  0.750000  0.397955  1
  O  O26  1  0.787503  0.750000  0.588197  1
  O  O27  1  0.672394  0.250000  0.602045  1
