# generated using pymatgen
data_Tb3Ho5Th4(ZnAu5)4
_symmetry_space_group_name_H-M   'P 1'
_cell_length_a   8.47185270
_cell_length_b   8.47185246
_cell_length_c   13.61094000
_cell_angle_alpha   89.99889207
_cell_angle_beta   90.00110779
_cell_angle_gamma   127.28965652
_symmetry_Int_Tables_number   1
_chemical_formula_structural   Tb3Ho5Th4(ZnAu5)4
_chemical_formula_sum   'Tb3 Ho5 Th4 Zn4 Au20'
_cell_volume   777.19557750
_cell_formula_units_Z   1
loop_
 _symmetry_equiv_pos_site_id
 _symmetry_equiv_pos_as_xyz
  1  'x, y, z'
loop_
 _atom_site_type_symbol
 _atom_site_label
 _atom_site_symmetry_multiplicity
 _atom_site_fract_x
 _atom_site_fract_y
 _atom_site_fract_z
 _atom_site_occupancy
  Tb  Tb0  1  0.117924  0.882076  0.048021  1
  Tb  Tb1  1  0.881867  0.118133  0.548109  1
  Tb  Tb2  1  0.118139  0.881861  0.451879  1
  Ho  Ho3  1  0.630547  0.369453  0.460690  1
  Ho  Ho4  1  0.369491  0.630509  0.539349  1
  Ho  Ho5  1  0.630766  0.369234  0.039346  1
  Ho  Ho6  1  0.369390  0.630610  0.960550  1
  Ho  Ho7  1  0.881826  0.118174  0.951783  1
  Th  Th8  1  0.930191  0.069809  0.249914  1
  Th  Th9  1  0.069606  0.930394  0.750121  1
  Th  Th10  1  0.319709  0.680291  0.249946  1
  Th  Th11  1  0.680261  0.319739  0.750194  1
  Zn  Zn12  1  0.718746  0.281254  0.249980  1
  Zn  Zn13  1  0.281259  0.718741  0.750020  1
  Zn  Zn14  1  0.534254  0.465746  0.249966  1
  Zn  Zn15  1  0.465750  0.534250  0.750005  1
  Au  Au16  1  0.318421  0.065026  0.249966  1
  Au  Au17  1  0.064890  0.318171  0.750399  1
  Au  Au18  1  0.681829  0.935110  0.750399  1
  Au  Au19  1  0.934974  0.681579  0.249966  1
  Au  Au20  1  0.570274  0.005310  0.398293  1
  Au  Au21  1  0.005329  0.570230  0.601713  1
  Au  Au22  1  0.570892  0.005582  0.101355  1
  Au  Au23  1  0.005176  0.569876  0.898333  1
  Au  Au24  1  0.429770  0.994671  0.601713  1
  Au  Au25  1  0.994690  0.429726  0.398293  1
  Au  Au26  1  0.430124  0.994824  0.898333  1
  Au  Au27  1  0.994418  0.429108  0.101355  1
  Au  Au28  1  0.683547  0.739033  0.396704  1
  Au  Au29  1  0.739009  0.683579  0.603301  1
  Au  Au30  1  0.683725  0.739361  0.103155  1
  Au  Au31  1  0.739363  0.684185  0.896844  1
  Au  Au32  1  0.316421  0.260991  0.603301  1
  Au  Au33  1  0.260967  0.316453  0.396704  1
  Au  Au34  1  0.315815  0.260637  0.896844  1
  Au  Au35  1  0.260639  0.316275  0.103155  1
