# generated using pymatgen
data_Dy8Ta11Si16Ru
_symmetry_space_group_name_H-M   'P 1'
_cell_length_a   7.02266635
_cell_length_b   7.02266665
_cell_length_c   12.95189714
_cell_angle_alpha   89.85672065
_cell_angle_beta   90.14328013
_cell_angle_gamma   89.59791842
_symmetry_Int_Tables_number   1
_chemical_formula_structural   Dy8Ta11Si16Ru
_chemical_formula_sum   'Dy8 Ta11 Si16 Ru1'
_cell_volume   638.73990131
_cell_formula_units_Z   1
loop_
 _symmetry_equiv_pos_site_id
 _symmetry_equiv_pos_as_xyz
  1  'x, y, z'
loop_
 _atom_site_type_symbol
 _atom_site_label
 _atom_site_symmetry_multiplicity
 _atom_site_fract_x
 _atom_site_fract_y
 _atom_site_fract_z
 _atom_site_occupancy
  Dy  Dy0  1  0.995664  0.659085  0.031605  1
  Dy  Dy1  1  0.002426  0.342386  0.531060  1
  Dy  Dy2  1  0.659085  0.995664  0.968395  1
  Dy  Dy3  1  0.158642  0.504226  0.780921  1
  Dy  Dy4  1  0.840746  0.498662  0.282990  1
  Dy  Dy5  1  0.504226  0.158642  0.219079  1
  Dy  Dy6  1  0.498662  0.840746  0.717010  1
  Dy  Dy7  1  0.342386  0.002426  0.468940  1
  Ta  Ta8  1  0.342165  0.505242  0.375452  1
  Ta  Ta9  1  0.851445  0.996691  0.374981  1
  Ta  Ta10  1  0.006396  0.152614  0.125586  1
  Ta  Ta11  1  0.996691  0.851445  0.625019  1
  Ta  Ta12  1  0.505242  0.342165  0.624548  1
  Ta  Ta13  1  0.152614  0.006396  0.874414  1
  Ta  Ta14  1  0.826038  0.170482  0.747582  1
  Ta  Ta15  1  0.170482  0.826038  0.252418  1
  Ta  Ta16  1  0.328951  0.328951  0.000000  1
  Ta  Ta17  1  0.495197  0.652896  0.125532  1
  Ta  Ta18  1  0.652896  0.495197  0.874468  1
  Si  Si19  1  0.043349  0.708278  0.438653  1
  Si  Si20  1  0.954345  0.294320  0.934937  1
  Si  Si21  1  0.708278  0.043349  0.561347  1
  Si  Si22  1  0.205088  0.455164  0.185842  1
  Si  Si23  1  0.791884  0.550324  0.681787  1
  Si  Si24  1  0.455164  0.205088  0.814158  1
  Si  Si25  1  0.550324  0.791884  0.318213  1
  Si  Si26  1  0.294320  0.954345  0.065063  1
  Si  Si27  1  0.797414  0.864732  0.183195  1
  Si  Si28  1  0.299723  0.631531  0.566969  1
  Si  Si29  1  0.703265  0.365153  0.067418  1
  Si  Si30  1  0.631531  0.299723  0.433031  1
  Si  Si31  1  0.365153  0.703265  0.932582  1
  Si  Si32  1  0.134125  0.204154  0.317490  1
  Si  Si33  1  0.204154  0.134125  0.682510  1
  Si  Si34  1  0.864732  0.797414  0.816805  1
  Ru  Ru35  1  0.667196  0.667196  0.500000  1
