# generated using pymatgen
data_Tm10CuRuPb6
_symmetry_space_group_name_H-M   'P 1'
_cell_length_a   9.07755100
_cell_length_b   9.07755095
_cell_length_c   6.72116900
_cell_angle_alpha   90.00000000
_cell_angle_beta   90.00000000
_cell_angle_gamma   119.99999654
_symmetry_Int_Tables_number   1
_chemical_formula_structural   Tm10CuRuPb6
_chemical_formula_sum   'Tm10 Cu1 Ru1 Pb6'
_cell_volume   479.63719574
_cell_formula_units_Z   1
loop_
 _symmetry_equiv_pos_site_id
 _symmetry_equiv_pos_as_xyz
  1  'x, y, z'
loop_
 _atom_site_type_symbol
 _atom_site_label
 _atom_site_symmetry_multiplicity
 _atom_site_fract_x
 _atom_site_fract_y
 _atom_site_fract_z
 _atom_site_occupancy
  Tm  Tm0  1  0.758821  0.758821  0.735798  1
  Tm  Tm1  1  0.241179  0.000000  0.735798  1
  Tm  Tm2  1  0.000000  0.241179  0.735798  1
  Tm  Tm3  1  0.241179  0.241179  0.264202  1
  Tm  Tm4  1  0.758821  0.000000  0.264202  1
  Tm  Tm5  1  0.000000  0.758821  0.264202  1
  Tm  Tm6  1  0.666667  0.333333  0.000000  1
  Tm  Tm7  1  0.333333  0.666667  0.000000  1
  Tm  Tm8  1  0.333333  0.666667  0.500000  1
  Tm  Tm9  1  0.666667  0.333333  0.500000  1
  Cu  Cu10  1  0.000000  0.000000  0.000000  1
  Ru  Ru11  1  0.000000  0.000000  0.500000  1
  Pb  Pb12  1  0.398844  0.398844  0.752868  1
  Pb  Pb13  1  0.601156  0.000000  0.752868  1
  Pb  Pb14  1  0.000000  0.601156  0.752868  1
  Pb  Pb15  1  0.601156  0.601156  0.247132  1
  Pb  Pb16  1  0.398844  0.000000  0.247132  1
  Pb  Pb17  1  0.000000  0.398844  0.247132  1
