# generated using pymatgen
data_SmYCl3
_symmetry_space_group_name_H-M   'P 1'
_cell_length_a   8.23554592
_cell_length_b   8.23554608
_cell_length_c   10.53835807
_cell_angle_alpha   61.22469786
_cell_angle_beta   61.22469783
_cell_angle_gamma   27.42718684
_symmetry_Int_Tables_number   1
_chemical_formula_structural   SmYCl3
_chemical_formula_sum   'Sm2 Y2 Cl6'
_cell_volume   285.97293664
_cell_formula_units_Z   2
loop_
 _symmetry_equiv_pos_site_id
 _symmetry_equiv_pos_as_xyz
  1  'x, y, z'
loop_
 _atom_site_type_symbol
 _atom_site_label
 _atom_site_symmetry_multiplicity
 _atom_site_fract_x
 _atom_site_fract_y
 _atom_site_fract_z
 _atom_site_occupancy
  Sm  Sm0  1  0.861000  0.861000  0.290524  1
  Sm  Sm1  1  0.139000  0.139000  0.709476  1
  Y  Y2  1  0.584436  0.584436  0.049184  1
  Y  Y3  1  0.415564  0.415564  0.950816  1
  Cl  Cl4  1  0.045169  0.045169  0.256135  1
  Cl  Cl5  1  0.954831  0.954831  0.743865  1
  Cl  Cl6  1  0.222008  0.222008  0.886670  1
  Cl  Cl7  1  0.777992  0.777992  0.113330  1
  Cl  Cl8  1  0.660296  0.660296  0.492047  1
  Cl  Cl9  1  0.339704  0.339704  0.507953  1
