# generated using pymatgen
data_TmScCrB6
_symmetry_space_group_name_H-M   'P 1'
_cell_length_a   3.44108900
_cell_length_b   8.97807300
_cell_length_c   11.31461000
_cell_angle_alpha   90.00000000
_cell_angle_beta   90.00000000
_cell_angle_gamma   90.00000000
_symmetry_Int_Tables_number   1
_chemical_formula_structural   TmScCrB6
_chemical_formula_sum   'Tm4 Sc4 Cr4 B24'
_cell_volume   349.55750156
_cell_formula_units_Z   4
loop_
 _symmetry_equiv_pos_site_id
 _symmetry_equiv_pos_as_xyz
  1  'x, y, z'
loop_
 _atom_site_type_symbol
 _atom_site_label
 _atom_site_symmetry_multiplicity
 _atom_site_fract_x
 _atom_site_fract_y
 _atom_site_fract_z
 _atom_site_occupancy
  Tm  Tm0  1  0.000000  0.822874  0.085527  1
  Tm  Tm1  1  0.000000  0.177126  0.914473  1
  Tm  Tm2  1  0.000000  0.322874  0.414473  1
  Tm  Tm3  1  0.000000  0.677126  0.585527  1
  Sc  Sc4  1  0.000000  0.443230  0.130729  1
  Sc  Sc5  1  0.000000  0.556770  0.869271  1
  Sc  Sc6  1  0.000000  0.943230  0.369271  1
  Sc  Sc7  1  0.000000  0.056770  0.630729  1
  Cr  Cr8  1  0.000000  0.141448  0.181592  1
  Cr  Cr9  1  0.000000  0.858552  0.818408  1
  Cr  Cr10  1  0.000000  0.641448  0.318408  1
  Cr  Cr11  1  0.000000  0.358552  0.681592  1
  B  B12  1  0.500000  0.054472  0.066961  1
  B  B13  1  0.500000  0.945528  0.933039  1
  B  B14  1  0.500000  0.554472  0.433039  1
  B  B15  1  0.500000  0.445528  0.566961  1
  B  B16  1  0.500000  0.252883  0.081784  1
  B  B17  1  0.500000  0.747117  0.918216  1
  B  B18  1  0.500000  0.752883  0.418216  1
  B  B19  1  0.500000  0.247117  0.581784  1
  B  B20  1  0.500000  0.294775  0.235919  1
  B  B21  1  0.500000  0.705225  0.764081  1
  B  B22  1  0.500000  0.794775  0.264081  1
  B  B23  1  0.500000  0.205225  0.735919  1
  B  B24  1  0.500000  0.129994  0.316774  1
  B  B25  1  0.500000  0.870006  0.683226  1
  B  B26  1  0.500000  0.629994  0.183226  1
  B  B27  1  0.500000  0.370006  0.816774  1
  B  B28  1  0.500000  0.482199  0.287070  1
  B  B29  1  0.500000  0.517801  0.712930  1
  B  B30  1  0.500000  0.982199  0.212930  1
  B  B31  1  0.500000  0.017801  0.787070  1
  B  B32  1  0.500000  0.096822  0.473598  1
  B  B33  1  0.500000  0.903178  0.526402  1
  B  B34  1  0.500000  0.596822  0.026402  1
  B  B35  1  0.500000  0.403178  0.973598  1
