# generated using pymatgen
data_Sm6MgZn22P
_symmetry_space_group_name_H-M   'P 1'
_cell_length_a   9.19360830
_cell_length_b   9.19360790
_cell_length_c   9.19360800
_cell_angle_alpha   60.00000684
_cell_angle_beta   60.00000826
_cell_angle_gamma   60.00000617
_symmetry_Int_Tables_number   1
_chemical_formula_structural   Sm6MgZn22P
_chemical_formula_sum   'Sm6 Mg1 Zn22 P1'
_cell_volume   549.46878825
_cell_formula_units_Z   1
loop_
 _symmetry_equiv_pos_site_id
 _symmetry_equiv_pos_as_xyz
  1  'x, y, z'
loop_
 _atom_site_type_symbol
 _atom_site_label
 _atom_site_symmetry_multiplicity
 _atom_site_fract_x
 _atom_site_fract_y
 _atom_site_fract_z
 _atom_site_occupancy
  Sm  Sm0  1  0.786006  0.786006  0.213994  1
  Sm  Sm1  1  0.213994  0.786006  0.213994  1
  Sm  Sm2  1  0.786006  0.213994  0.213994  1
  Sm  Sm3  1  0.213994  0.213994  0.786006  1
  Sm  Sm4  1  0.786006  0.213994  0.786006  1
  Sm  Sm5  1  0.213994  0.786006  0.786006  1
  Mg  Mg6  1  0.500000  0.500000  0.500000  1
  Zn  Zn7  1  0.827649  0.827649  0.517054  1
  Zn  Zn8  1  0.827649  0.517054  0.827649  1
  Zn  Zn9  1  0.517054  0.827649  0.827649  1
  Zn  Zn10  1  0.827649  0.827649  0.827649  1
  Zn  Zn11  1  0.172351  0.172351  0.482946  1
  Zn  Zn12  1  0.172351  0.482946  0.172351  1
  Zn  Zn13  1  0.482946  0.172351  0.172351  1
  Zn  Zn14  1  0.172351  0.172351  0.172351  1
  Zn  Zn15  1  0.628268  0.628268  0.115195  1
  Zn  Zn16  1  0.628268  0.115195  0.628268  1
  Zn  Zn17  1  0.115195  0.628268  0.628268  1
  Zn  Zn18  1  0.628268  0.628268  0.628268  1
  Zn  Zn19  1  0.371732  0.371732  0.884805  1
  Zn  Zn20  1  0.371732  0.884805  0.371732  1
  Zn  Zn21  1  0.884805  0.371732  0.371732  1
  Zn  Zn22  1  0.371732  0.371732  0.371732  1
  Zn  Zn23  1  0.000000  0.000000  0.500000  1
  Zn  Zn24  1  0.500000  0.000000  0.500000  1
  Zn  Zn25  1  0.000000  0.500000  0.500000  1
  Zn  Zn26  1  0.500000  0.500000  0.000000  1
  Zn  Zn27  1  0.000000  0.500000  0.000000  1
  Zn  Zn28  1  0.500000  0.000000  0.000000  1
  P  P29  1  0.000000  0.000000  0.000000  1
