# generated using pymatgen
data_Dy5V3P12(IrRh7)2
_symmetry_space_group_name_H-M   'P 1'
_cell_length_a   12.69414300
_cell_length_b   12.70137324
_cell_length_c   3.90416200
_cell_angle_alpha   90.00000000
_cell_angle_beta   90.00000000
_cell_angle_gamma   119.98117379
_symmetry_Int_Tables_number   1
_chemical_formula_structural   Dy5V3P12(IrRh7)2
_chemical_formula_sum   'Dy5 V3 P12 Ir2 Rh14'
_cell_volume   545.24900682
_cell_formula_units_Z   1
loop_
 _symmetry_equiv_pos_site_id
 _symmetry_equiv_pos_as_xyz
  1  'x, y, z'
loop_
 _atom_site_type_symbol
 _atom_site_label
 _atom_site_symmetry_multiplicity
 _atom_site_fract_x
 _atom_site_fract_y
 _atom_site_fract_z
 _atom_site_occupancy
  Dy  Dy0  1  0.333268  0.666357  0.500000  1
  Dy  Dy1  1  0.666913  0.333643  0.500000  1
  Dy  Dy2  1  0.000013  0.810758  0.000000  1
  Dy  Dy3  1  0.189254  0.189242  0.000000  1
  Dy  Dy4  1  0.810681  0.000000  0.000000  1
  V  V5  1  0.999833  0.448551  0.500000  1
  V  V6  1  0.551282  0.551449  0.500000  1
  V  V7  1  0.448647  0.000000  0.500000  1
  P  P8  1  0.999756  0.634963  0.500000  1
  P  P9  1  0.364794  0.365037  0.500000  1
  P  P10  1  0.635218  0.000000  0.500000  1
  P  P11  1  0.516824  0.682127  0.000000  1
  P  P12  1  0.317713  0.834035  0.000000  1
  P  P13  1  0.165226  0.482875  0.000000  1
  P  P14  1  0.483679  0.165965  0.000000  1
  P  P15  1  0.682351  0.517125  0.000000  1
  P  P16  1  0.834698  0.317873  0.000000  1
  P  P17  1  0.999890  0.177623  0.500000  1
  P  P18  1  0.822267  0.822377  0.500000  1
  P  P19  1  0.177527  0.000000  0.500000  1
  Ir  Ir20  1  0.284031  0.000000  0.000000  1
  Ir  Ir21  1  0.999972  0.000000  0.500000  1
  Rh  Rh22  1  0.512909  0.869860  0.000000  1
  Rh  Rh23  1  0.129928  0.642616  0.000000  1
  Rh  Rh24  1  0.356924  0.486934  0.000000  1
  Rh  Rh25  1  0.487313  0.357384  0.000000  1
  Rh  Rh26  1  0.869991  0.513066  0.000000  1
  Rh  Rh27  1  0.643049  0.130140  0.000000  1
  Rh  Rh28  1  0.999927  0.283456  0.000000  1
  Rh  Rh29  1  0.716470  0.716544  0.000000  1
  Rh  Rh30  1  0.623420  0.801329  0.500000  1
  Rh  Rh31  1  0.198093  0.821137  0.500000  1
  Rh  Rh32  1  0.177797  0.376504  0.500000  1
  Rh  Rh33  1  0.376957  0.178863  0.500000  1
  Rh  Rh34  1  0.801293  0.623496  0.500000  1
  Rh  Rh35  1  0.822091  0.198671  0.500000  1
