# generated using pymatgen
data_Cs6Ge10O23
_symmetry_space_group_name_H-M   'P 1'
_cell_length_a   10.08211475
_cell_length_b   10.08211605
_cell_length_c   8.60702100
_cell_angle_alpha   90.00000000
_cell_angle_beta   90.00000000
_cell_angle_gamma   120.18526083
_symmetry_Int_Tables_number   1
_chemical_formula_structural   Cs6Ge10O23
_chemical_formula_sum   'Cs6 Ge10 O23'
_cell_volume   756.26333535
_cell_formula_units_Z   1
loop_
 _symmetry_equiv_pos_site_id
 _symmetry_equiv_pos_as_xyz
  1  'x, y, z'
loop_
 _atom_site_type_symbol
 _atom_site_label
 _atom_site_symmetry_multiplicity
 _atom_site_fract_x
 _atom_site_fract_y
 _atom_site_fract_z
 _atom_site_occupancy
  Cs  Cs0  1  0.230291  0.987615  0.500000  1
  Cs  Cs1  1  0.987615  0.230291  0.500000  1
  Cs  Cs2  1  0.244063  0.998349  0.000000  1
  Cs  Cs3  1  0.998349  0.244063  0.000000  1
  Cs  Cs4  1  0.745637  0.745637  0.500000  1
  Cs  Cs5  1  0.753486  0.753486  0.000000  1
  Ge  Ge6  1  0.309384  0.655630  0.688521  1
  Ge  Ge7  1  0.655630  0.309384  0.311479  1
  Ge  Ge8  1  0.309384  0.655630  0.311479  1
  Ge  Ge9  1  0.655630  0.309384  0.688521  1
  Ge  Ge10  1  0.585214  0.979537  0.809265  1
  Ge  Ge11  1  0.979537  0.585214  0.190735  1
  Ge  Ge12  1  0.585214  0.979537  0.190735  1
  Ge  Ge13  1  0.979537  0.585214  0.809265  1
  Ge  Ge14  1  0.404316  0.404316  0.201075  1
  Ge  Ge15  1  0.404316  0.404316  0.798925  1
  O  O16  1  0.569645  0.151777  0.816591  1
  O  O17  1  0.151777  0.569645  0.183409  1
  O  O18  1  0.569645  0.151777  0.183409  1
  O  O19  1  0.151777  0.569645  0.816591  1
  O  O20  1  0.414893  0.858292  0.694489  1
  O  O21  1  0.858292  0.414893  0.305511  1
  O  O22  1  0.414893  0.858292  0.305511  1
  O  O23  1  0.858292  0.414893  0.694489  1
  O  O24  1  0.756628  0.000320  0.752402  1
  O  O25  1  0.000320  0.756628  0.247598  1
  O  O26  1  0.756628  0.000320  0.247598  1
  O  O27  1  0.000320  0.756628  0.752402  1
  O  O28  1  0.436501  0.586969  0.723545  1
  O  O29  1  0.586969  0.436501  0.276455  1
  O  O30  1  0.436501  0.586969  0.276455  1
  O  O31  1  0.586969  0.436501  0.723545  1
  O  O32  1  0.449006  0.449006  0.000000  1
  O  O33  1  0.899479  0.519245  0.000000  1
  O  O34  1  0.519245  0.899479  0.000000  1
  O  O35  1  0.601841  0.225240  0.500000  1
  O  O36  1  0.225240  0.601841  0.500000  1
  O  O37  1  0.239371  0.239371  0.753799  1
  O  O38  1  0.239371  0.239371  0.246201  1
