# generated using pymatgen
data_La7Pr9Cd4OsPt3
_symmetry_space_group_name_H-M   'P 1'
_cell_length_a   10.13510871
_cell_length_b   10.13912140
_cell_length_c   10.18001142
_cell_angle_alpha   59.63810931
_cell_angle_beta   59.68790772
_cell_angle_gamma   59.75378841
_symmetry_Int_Tables_number   1
_chemical_formula_structural   La7Pr9Cd4OsPt3
_chemical_formula_sum   'La7 Pr9 Cd4 Os1 Pt3'
_cell_volume   734.55529472
_cell_formula_units_Z   1
loop_
 _symmetry_equiv_pos_site_id
 _symmetry_equiv_pos_as_xyz
  1  'x, y, z'
loop_
 _atom_site_type_symbol
 _atom_site_label
 _atom_site_symmetry_multiplicity
 _atom_site_fract_x
 _atom_site_fract_y
 _atom_site_fract_z
 _atom_site_occupancy
  La  La0  1  0.351088  0.351100  0.350623  1
  La  La1  1  0.345246  0.344217  0.956687  1
  La  La2  1  0.346819  0.955779  0.346308  1
  La  La3  1  0.957217  0.345943  0.346474  1
  La  La4  1  0.818249  0.188346  0.186899  1
  La  La5  1  0.188056  0.807999  0.807745  1
  La  La6  1  0.188186  0.817823  0.189290  1
  Pr  Pr7  1  0.805696  0.190252  0.807057  1
  Pr  Pr8  1  0.190166  0.192891  0.811629  1
  Pr  Pr9  1  0.804447  0.806081  0.190925  1
  Pr  Pr10  1  0.933535  0.565679  0.565603  1
  Pr  Pr11  1  0.560582  0.935439  0.934660  1
  Pr  Pr12  1  0.565762  0.935445  0.564021  1
  Pr  Pr13  1  0.935546  0.558957  0.936266  1
  Pr  Pr14  1  0.564987  0.563705  0.935765  1
  Pr  Pr15  1  0.936449  0.938009  0.557738  1
  Cd  Cd16  1  0.580642  0.578682  0.579418  1
  Cd  Cd17  1  0.581711  0.581541  0.258434  1
  Cd  Cd18  1  0.580057  0.258405  0.582354  1
  Cd  Cd19  1  0.258750  0.579214  0.581740  1
  Os  Os20  1  0.138699  0.140367  0.148475  1
  Pt  Pt21  1  0.146119  0.142538  0.573858  1
  Pt  Pt22  1  0.147446  0.575161  0.142596  1
  Pt  Pt23  1  0.574548  0.146429  0.145438  1
