# generated using pymatgen
data_La16In3HgRu4
_symmetry_space_group_name_H-M   'P 1'
_cell_length_a   10.09002974
_cell_length_b   10.09690287
_cell_length_c   10.09003000
_cell_angle_alpha   60.02251453
_cell_angle_beta   59.99999913
_cell_angle_gamma   60.02251293
_symmetry_Int_Tables_number   1
_chemical_formula_structural   La16In3HgRu4
_chemical_formula_sum   'La16 In3 Hg1 Ru4'
_cell_volume   727.11949037
_cell_formula_units_Z   1
loop_
 _symmetry_equiv_pos_site_id
 _symmetry_equiv_pos_as_xyz
  1  'x, y, z'
loop_
 _atom_site_type_symbol
 _atom_site_label
 _atom_site_symmetry_multiplicity
 _atom_site_fract_x
 _atom_site_fract_y
 _atom_site_fract_z
 _atom_site_occupancy
  La  La0  1  0.059304  0.439385  0.441954  1
  La  La1  1  0.442688  0.054436  0.060105  1
  La  La2  1  0.442690  0.054483  0.442690  1
  La  La3  1  0.441954  0.439385  0.059304  1
  La  La4  1  0.059163  0.439587  0.059163  1
  La  La5  1  0.060105  0.054436  0.442688  1
  La  La6  1  0.190028  0.809064  0.810811  1
  La  La7  1  0.809278  0.190410  0.191073  1
  La  La8  1  0.809239  0.190498  0.809239  1
  La  La9  1  0.810811  0.809064  0.190028  1
  La  La10  1  0.189987  0.809103  0.189987  1
  La  La11  1  0.191073  0.190410  0.809278  1
  La  La12  1  0.654700  0.654193  0.654700  1
  La  La13  1  0.654627  0.654255  0.036505  1
  La  La14  1  0.036505  0.654255  0.654627  1
  La  La15  1  0.654258  0.037174  0.654258  1
  In  In16  1  0.420193  0.422150  0.420193  1
  In  In17  1  0.420264  0.422103  0.737297  1
  In  In18  1  0.737297  0.422103  0.420264  1
  Hg  Hg19  1  0.416726  0.749713  0.416726  1
  Ru  Ru20  1  0.862587  0.863376  0.862587  1
  Ru  Ru21  1  0.862576  0.863546  0.411536  1
  Ru  Ru22  1  0.411536  0.863546  0.862576  1
  Ru  Ru23  1  0.862410  0.413326  0.862410  1
