# generated using pymatgen
data_Er3Lu5Re(B8Os)3
_symmetry_space_group_name_H-M   'P 1'
_cell_length_a   3.61473000
_cell_length_b   9.05738801
_cell_length_c   11.43824302
_cell_angle_alpha   90.08393967
_cell_angle_beta   90.00000000
_cell_angle_gamma   90.00000000
_symmetry_Int_Tables_number   1
_chemical_formula_structural   Er3Lu5Re(B8Os)3
_chemical_formula_sum   'Er3 Lu5 Re1 B24 Os3'
_cell_volume   374.48781340
_cell_formula_units_Z   1
loop_
 _symmetry_equiv_pos_site_id
 _symmetry_equiv_pos_as_xyz
  1  'x, y, z'
loop_
 _atom_site_type_symbol
 _atom_site_label
 _atom_site_symmetry_multiplicity
 _atom_site_fract_x
 _atom_site_fract_y
 _atom_site_fract_z
 _atom_site_occupancy
  Er  Er0  1  0.000000  0.321613  0.414823  1
  Er  Er1  1  0.000000  0.680993  0.588151  1
  Er  Er2  1  0.000000  0.821614  0.083609  1
  Lu  Lu3  1  0.000000  0.177330  0.913154  1
  Lu  Lu4  1  0.000000  0.943579  0.372298  1
  Lu  Lu5  1  0.000000  0.055878  0.627643  1
  Lu  Lu6  1  0.000000  0.442799  0.126942  1
  Lu  Lu7  1  0.000000  0.556406  0.873166  1
  Re  Re8  1  0.000000  0.862958  0.821140  1
  B  B9  1  0.500000  0.553799  0.433487  1
  B  B10  1  0.500000  0.446284  0.566984  1
  B  B11  1  0.500000  0.053699  0.066653  1
  B  B12  1  0.500000  0.947781  0.933501  1
  B  B13  1  0.500000  0.749732  0.419653  1
  B  B14  1  0.500000  0.250419  0.580370  1
  B  B15  1  0.500000  0.249149  0.079847  1
  B  B16  1  0.500000  0.750321  0.919499  1
  B  B17  1  0.500000  0.791443  0.265692  1
  B  B18  1  0.500000  0.208075  0.733968  1
  B  B19  1  0.500000  0.291771  0.234024  1
  B  B20  1  0.500000  0.707708  0.765858  1
  B  B21  1  0.500000  0.630074  0.184520  1
  B  B22  1  0.500000  0.368857  0.815402  1
  B  B23  1  0.500000  0.130830  0.315465  1
  B  B24  1  0.500000  0.869768  0.684900  1
  B  B25  1  0.500000  0.982104  0.213066  1
  B  B26  1  0.500000  0.019641  0.787091  1
  B  B27  1  0.500000  0.481762  0.287163  1
  B  B28  1  0.500000  0.517898  0.713400  1
  B  B29  1  0.500000  0.603136  0.029169  1
  B  B30  1  0.500000  0.394194  0.971055  1
  B  B31  1  0.500000  0.104441  0.470877  1
  B  B32  1  0.500000  0.896271  0.528238  1
  Os  Os33  1  0.000000  0.637756  0.320578  1
  Os  Os34  1  0.000000  0.361903  0.679251  1
  Os  Os35  1  0.000000  0.138019  0.179360  1
