# generated using pymatgen
data_LaPmZnAg3
_symmetry_space_group_name_H-M   'P 1'
_cell_length_a   4.75079100
_cell_length_b   4.75079015
_cell_length_c   7.19722100
_cell_angle_alpha   90.00000000
_cell_angle_beta   90.00000000
_cell_angle_gamma   119.99999896
_symmetry_Int_Tables_number   1
_chemical_formula_structural   LaPmZnAg3
_chemical_formula_sum   'La1 Pm1 Zn1 Ag3'
_cell_volume   140.67834389
_cell_formula_units_Z   1
loop_
 _symmetry_equiv_pos_site_id
 _symmetry_equiv_pos_as_xyz
  1  'x, y, z'
loop_
 _atom_site_type_symbol
 _atom_site_label
 _atom_site_symmetry_multiplicity
 _atom_site_fract_x
 _atom_site_fract_y
 _atom_site_fract_z
 _atom_site_occupancy
  La  La0  1  0.000000  0.000000  0.995283  1
  Pm  Pm1  1  0.000000  0.000000  0.504972  1
  Zn  Zn2  1  0.333333  0.666666  0.740821  1
  Ag  Ag3  1  0.666667  0.333333  0.259993  1
  Ag  Ag4  1  0.333333  0.666666  0.259164  1
  Ag  Ag5  1  0.666667  0.333333  0.739766  1
