# generated using pymatgen
data_Pu3U(MoN2)4
_symmetry_space_group_name_H-M   'P 1'
_cell_length_a   3.21678300
_cell_length_b   5.61300210
_cell_length_c   10.84362566
_cell_angle_alpha   90.05079766
_cell_angle_beta   90.00000000
_cell_angle_gamma   90.00000000
_symmetry_Int_Tables_number   1
_chemical_formula_structural   Pu3U(MoN2)4
_chemical_formula_sum   'Pu3 U1 Mo4 N8'
_cell_volume   195.79036470
_cell_formula_units_Z   1
loop_
 _symmetry_equiv_pos_site_id
 _symmetry_equiv_pos_as_xyz
  1  'x, y, z'
loop_
 _atom_site_type_symbol
 _atom_site_label
 _atom_site_symmetry_multiplicity
 _atom_site_fract_x
 _atom_site_fract_y
 _atom_site_fract_z
 _atom_site_occupancy
  Pu  Pu0  1  0.750000  0.075772  0.855764  1
  Pu  Pu1  1  0.750000  0.577070  0.645881  1
  Pu  Pu2  1  0.250000  0.925511  0.142923  1
  U  U3  1  0.250000  0.424330  0.356590  1
  Mo  Mo4  1  0.250000  0.070536  0.599007  1
  Mo  Mo5  1  0.750000  0.429155  0.098575  1
  Mo  Mo6  1  0.250000  0.571285  0.900371  1
  Mo  Mo7  1  0.750000  0.927993  0.399125  1
  N  N8  1  0.250000  0.336124  0.743861  1
  N  N9  1  0.750000  0.168861  0.246886  1
  N  N10  1  0.250000  0.245841  0.003173  1
  N  N11  1  0.750000  0.658183  0.257606  1
  N  N12  1  0.250000  0.837193  0.755167  1
  N  N13  1  0.750000  0.754988  0.996492  1
  N  N14  1  0.750000  0.255567  0.503379  1
  N  N15  1  0.250000  0.741590  0.495199  1
