# generated using pymatgen
data_HoTh2Co2Sn3Ir
_symmetry_space_group_name_H-M   'P 1'
_cell_length_a   7.43907218
_cell_length_b   7.40245800
_cell_length_c   4.00428200
_cell_angle_alpha   90.00000000
_cell_angle_beta   90.00000000
_cell_angle_gamma   119.59299418
_symmetry_Int_Tables_number   1
_chemical_formula_structural   HoTh2Co2Sn3Ir
_chemical_formula_sum   'Ho1 Th2 Co2 Sn3 Ir1'
_cell_volume   191.74170994
_cell_formula_units_Z   1
loop_
 _symmetry_equiv_pos_site_id
 _symmetry_equiv_pos_as_xyz
  1  'x, y, z'
loop_
 _atom_site_type_symbol
 _atom_site_label
 _atom_site_symmetry_multiplicity
 _atom_site_fract_x
 _atom_site_fract_y
 _atom_site_fract_z
 _atom_site_occupancy
  Ho  Ho0  1  0.001862  0.593707  0.500000  1
  Th  Th1  1  0.415328  0.410029  0.500000  1
  Th  Th2  1  0.589688  0.005013  0.500000  1
  Co  Co3  1  0.652248  0.319903  0.000000  1
  Co  Co4  1  0.999697  0.005916  0.500000  1
  Sn  Sn5  1  0.763974  0.748293  0.000000  1
  Sn  Sn6  1  0.240471  0.995305  0.000000  1
  Sn  Sn7  1  0.994593  0.254618  0.000000  1
  Ir  Ir8  1  0.342141  0.667216  0.000000  1
