# generated using pymatgen
data_PrGdSiO5
_symmetry_space_group_name_H-M   'P 1'
_cell_length_a   7.16908900
_cell_length_b   6.93125903
_cell_length_c   9.40550108
_cell_angle_alpha   71.34023441
_cell_angle_beta   90.00000000
_cell_angle_gamma   90.00000000
_symmetry_Int_Tables_number   1
_chemical_formula_structural   PrGdSiO5
_chemical_formula_sum   'Pr4 Gd4 Si4 O20'
_cell_volume   442.79993493
_cell_formula_units_Z   4
loop_
 _symmetry_equiv_pos_site_id
 _symmetry_equiv_pos_as_xyz
  1  'x, y, z'
loop_
 _atom_site_type_symbol
 _atom_site_label
 _atom_site_symmetry_multiplicity
 _atom_site_fract_x
 _atom_site_fract_y
 _atom_site_fract_z
 _atom_site_occupancy
  Pr  Pr0  1  0.854450  0.411482  0.885922  1
  Pr  Pr1  1  0.354450  0.088518  0.114078  1
  Pr  Pr2  1  0.145550  0.588518  0.114078  1
  Pr  Pr3  1  0.645550  0.911482  0.885922  1
  Gd  Gd4  1  0.375457  0.230133  0.474470  1
  Gd  Gd5  1  0.875457  0.269867  0.525530  1
  Gd  Gd6  1  0.624543  0.769867  0.525530  1
  Gd  Gd7  1  0.124543  0.730133  0.474470  1
  Si  Si8  1  0.412213  0.460480  0.793903  1
  Si  Si9  1  0.912213  0.039520  0.206097  1
  Si  Si10  1  0.587787  0.539520  0.206097  1
  Si  Si11  1  0.087787  0.960480  0.793903  1
  O  O12  1  0.566984  0.641851  0.789309  1
  O  O13  1  0.066984  0.858149  0.210691  1
  O  O14  1  0.433016  0.358149  0.210691  1
  O  O15  1  0.933016  0.141851  0.789309  1
  O  O16  1  0.540391  0.254992  0.863034  1
  O  O17  1  0.040391  0.245008  0.136966  1
  O  O18  1  0.459609  0.745008  0.136966  1
  O  O19  1  0.959609  0.754992  0.863034  1
  O  O20  1  0.361317  0.509758  0.614450  1
  O  O21  1  0.861317  0.990242  0.385550  1
  O  O22  1  0.638683  0.490242  0.385550  1
  O  O23  1  0.138683  0.009758  0.614450  1
  O  O24  1  0.235105  0.444102  0.903938  1
  O  O25  1  0.735105  0.055898  0.096062  1
  O  O26  1  0.764895  0.555898  0.096062  1
  O  O27  1  0.264895  0.944102  0.903938  1
  O  O28  1  0.621630  0.053438  0.610129  1
  O  O29  1  0.121630  0.446562  0.389871  1
  O  O30  1  0.378370  0.946562  0.389871  1
  O  O31  1  0.878370  0.553438  0.610129  1
