# generated using pymatgen
data_Pa3Ti(Co4P3)2
_symmetry_space_group_name_H-M   'P 1'
_cell_length_a   3.76924000
_cell_length_b   10.58120600
_cell_length_c   12.29928300
_cell_angle_alpha   90.00000000
_cell_angle_beta   90.00000000
_cell_angle_gamma   90.00000000
_symmetry_Int_Tables_number   1
_chemical_formula_structural   Pa3Ti(Co4P3)2
_chemical_formula_sum   'Pa6 Ti2 Co16 P12'
_cell_volume   490.53359413
_cell_formula_units_Z   2
loop_
 _symmetry_equiv_pos_site_id
 _symmetry_equiv_pos_as_xyz
  1  'x, y, z'
loop_
 _atom_site_type_symbol
 _atom_site_label
 _atom_site_symmetry_multiplicity
 _atom_site_fract_x
 _atom_site_fract_y
 _atom_site_fract_z
 _atom_site_occupancy
  Pa  Pa0  1  0.000000  0.500000  0.525252  1
  Pa  Pa1  1  0.500000  0.000000  0.474748  1
  Pa  Pa2  1  0.500000  0.819378  0.207519  1
  Pa  Pa3  1  0.500000  0.180622  0.207519  1
  Pa  Pa4  1  0.000000  0.680622  0.792481  1
  Pa  Pa5  1  0.000000  0.319378  0.792481  1
  Ti  Ti6  1  0.500000  0.500000  0.148805  1
  Ti  Ti7  1  0.000000  0.000000  0.851195  1
  Co  Co8  1  0.000000  0.500000  0.982293  1
  Co  Co9  1  0.500000  0.000000  0.017707  1
  Co  Co10  1  0.500000  0.301283  0.429415  1
  Co  Co11  1  0.500000  0.698717  0.429415  1
  Co  Co12  1  0.000000  0.198717  0.570585  1
  Co  Co13  1  0.000000  0.801283  0.570585  1
  Co  Co14  1  0.500000  0.876813  0.712809  1
  Co  Co15  1  0.500000  0.123187  0.712809  1
  Co  Co16  1  0.000000  0.623187  0.287191  1
  Co  Co17  1  0.000000  0.376813  0.287191  1
  Co  Co18  1  0.500000  0.331710  0.991754  1
  Co  Co19  1  0.500000  0.668290  0.991754  1
  Co  Co20  1  0.000000  0.168290  0.008246  1
  Co  Co21  1  0.000000  0.831710  0.008246  1
  Co  Co22  1  0.500000  0.500000  0.698943  1
  Co  Co23  1  0.000000  0.000000  0.301057  1
  P  P24  1  0.500000  0.308242  0.612721  1
  P  P25  1  0.500000  0.691758  0.612721  1
  P  P26  1  0.000000  0.191758  0.387279  1
  P  P27  1  0.000000  0.808242  0.387279  1
  P  P28  1  0.500000  0.500000  0.881944  1
  P  P29  1  0.000000  0.000000  0.118056  1
  P  P30  1  0.500000  0.844892  0.897009  1
  P  P31  1  0.500000  0.155108  0.897009  1
  P  P32  1  0.000000  0.655108  0.102991  1
  P  P33  1  0.000000  0.344892  0.102991  1
  P  P34  1  0.500000  0.500000  0.346462  1
  P  P35  1  0.000000  0.000000  0.653538  1
