# generated using pymatgen
data_Dy7Er10Lu3Sn16
_symmetry_space_group_name_H-M   'P 1'
_cell_length_a   7.97319725
_cell_length_b   8.11113648
_cell_length_c   15.35251257
_cell_angle_alpha   89.99911577
_cell_angle_beta   90.18589864
_cell_angle_gamma   89.96238115
_symmetry_Int_Tables_number   1
_chemical_formula_structural   Dy7Er10Lu3Sn16
_chemical_formula_sum   'Dy7 Er10 Lu3 Sn16'
_cell_volume   992.86751034
_cell_formula_units_Z   1
loop_
 _symmetry_equiv_pos_site_id
 _symmetry_equiv_pos_as_xyz
  1  'x, y, z'
loop_
 _atom_site_type_symbol
 _atom_site_label
 _atom_site_symmetry_multiplicity
 _atom_site_fract_x
 _atom_site_fract_y
 _atom_site_fract_z
 _atom_site_occupancy
  Dy  Dy0  1  0.018835  0.179012  0.596420  1
  Dy  Dy1  1  0.481210  0.678899  0.404303  1
  Dy  Dy2  1  0.980009  0.820871  0.096019  1
  Dy  Dy3  1  0.479906  0.678095  0.096045  1
  Dy  Dy4  1  0.981113  0.821291  0.404334  1
  Dy  Dy5  1  0.518186  0.321639  0.595551  1
  Dy  Dy6  1  0.019732  0.178965  0.903718  1
  Er  Er7  1  0.365038  0.838393  0.876765  1
  Er  Er8  1  0.863221  0.662429  0.623627  1
  Er  Er9  1  0.635836  0.162265  0.376282  1
  Er  Er10  1  0.134249  0.338324  0.123027  1
  Er  Er11  1  0.634334  0.161748  0.123020  1
  Er  Er12  1  0.135986  0.338031  0.376451  1
  Er  Er13  1  0.364295  0.838520  0.624079  1
  Er  Er14  1  0.865720  0.661618  0.876980  1
  Er  Er15  1  0.522240  0.321189  0.903235  1
  Er  Er16  1  0.195824  0.504084  0.750351  1
  Lu  Lu17  1  0.695830  0.995833  0.750417  1
  Lu  Lu18  1  0.804049  0.495602  0.249715  1
  Lu  Lu19  1  0.304171  0.004318  0.249806  1
  Sn  Sn20  1  0.295515  0.038485  0.041765  1
  Sn  Sn21  1  0.797200  0.460476  0.458498  1
  Sn  Sn22  1  0.702278  0.960996  0.541702  1
  Sn  Sn23  1  0.206594  0.537110  0.958219  1
  Sn  Sn24  1  0.703826  0.961303  0.958134  1
  Sn  Sn25  1  0.202119  0.540513  0.541253  1
  Sn  Sn26  1  0.297388  0.039411  0.458583  1
  Sn  Sn27  1  0.794974  0.460058  0.041063  1
  Sn  Sn28  1  0.562156  0.618511  0.750380  1
  Sn  Sn29  1  0.060740  0.882237  0.750233  1
  Sn  Sn30  1  0.438703  0.381697  0.249625  1
  Sn  Sn31  1  0.938839  0.118459  0.249748  1
  Sn  Sn32  1  0.330433  0.150430  0.750390  1
  Sn  Sn33  1  0.828554  0.349094  0.749981  1
  Sn  Sn34  1  0.670536  0.849093  0.250078  1
  Sn  Sn35  1  0.170358  0.650999  0.250202  1
