# generated using pymatgen
data_Tm7Co3Tc3Sn23
_symmetry_space_group_name_H-M   'P 1'
_cell_length_a   9.74490352
_cell_length_b   9.76329459
_cell_length_c   9.97581657
_cell_angle_alpha   89.40573147
_cell_angle_beta   90.68544692
_cell_angle_gamma   119.19943276
_symmetry_Int_Tables_number   1
_chemical_formula_structural   Tm7Co3Tc3Sn23
_chemical_formula_sum   'Tm7 Co3 Tc3 Sn23'
_cell_volume   828.44433022
_cell_formula_units_Z   1
loop_
 _symmetry_equiv_pos_site_id
 _symmetry_equiv_pos_as_xyz
  1  'x, y, z'
loop_
 _atom_site_type_symbol
 _atom_site_label
 _atom_site_symmetry_multiplicity
 _atom_site_fract_x
 _atom_site_fract_y
 _atom_site_fract_z
 _atom_site_occupancy
  Tm  Tm0  1  0.486883  0.516174  0.303443  1
  Tm  Tm1  1  0.514156  0.483418  0.695713  1
  Tm  Tm2  1  0.488082  0.972080  0.302761  1
  Tm  Tm3  1  0.513150  0.033333  0.696055  1
  Tm  Tm4  1  0.032664  0.514623  0.303038  1
  Tm  Tm5  1  0.968236  0.485830  0.697542  1
  Tm  Tm6  1  0.991318  0.986189  0.008222  1
  Co  Co7  1  0.171644  0.346098  0.797408  1
  Co  Co8  1  0.345334  0.170480  0.200276  1
  Co  Co9  1  0.655361  0.831541  0.798529  1
  Tc  Tc10  1  0.836323  0.164861  0.206328  1
  Tc  Tc11  1  0.164024  0.837108  0.791294  1
  Tc  Tc12  1  0.832858  0.661334  0.202110  1
  Sn  Sn13  1  0.126348  0.887634  0.274207  1
  Sn  Sn14  1  0.882518  0.117545  0.727760  1
  Sn  Sn15  1  0.132068  0.239536  0.269827  1
  Sn  Sn16  1  0.866959  0.759058  0.727417  1
  Sn  Sn17  1  0.752181  0.872159  0.273046  1
  Sn  Sn18  1  0.242747  0.133569  0.734305  1
  Sn  Sn19  1  0.781450  0.221939  0.464925  1
  Sn  Sn20  1  0.222180  0.778058  0.534934  1
  Sn  Sn21  1  0.777458  0.555039  0.464126  1
  Sn  Sn22  1  0.218930  0.438100  0.540813  1
  Sn  Sn23  1  0.440211  0.221151  0.458060  1
  Sn  Sn24  1  0.557881  0.779388  0.542508  1
  Sn  Sn25  1  0.345663  0.999229  0.003479  1
  Sn  Sn26  1  0.652948  0.001950  0.994664  1
  Sn  Sn27  1  0.001015  0.344115  0.995074  1
  Sn  Sn28  1  0.002727  0.651110  0.998392  1
  Sn  Sn29  1  0.648817  0.650091  0.993782  1
  Sn  Sn30  1  0.346055  0.347424  0.000351  1
  Sn  Sn31  1  0.333531  0.667816  0.129197  1
  Sn  Sn32  1  0.666325  0.332490  0.871018  1
  Sn  Sn33  1  0.332987  0.668114  0.820681  1
  Sn  Sn34  1  0.666835  0.331709  0.176639  1
  Sn  Sn35  1  0.002133  0.999709  0.502072  1
