# generated using pymatgen
data_TbY3TcRu7
_symmetry_space_group_name_H-M   'P 1'
_cell_length_a   5.21089261
_cell_length_b   5.39892765
_cell_length_c   9.03445729
_cell_angle_alpha   89.99999898
_cell_angle_beta   89.97503018
_cell_angle_gamma   121.20104615
_symmetry_Int_Tables_number   1
_chemical_formula_structural   TbY3TcRu7
_chemical_formula_sum   'Tb1 Y3 Tc1 Ru7'
_cell_volume   217.40420585
_cell_formula_units_Z   1
loop_
 _symmetry_equiv_pos_site_id
 _symmetry_equiv_pos_as_xyz
  1  'x, y, z'
loop_
 _atom_site_type_symbol
 _atom_site_label
 _atom_site_symmetry_multiplicity
 _atom_site_fract_x
 _atom_site_fract_y
 _atom_site_fract_z
 _atom_site_occupancy
  Tb  Tb0  1  0.328140  0.664071  0.066985  1
  Y  Y1  1  0.328593  0.664297  0.432763  1
  Y  Y2  1  0.655911  0.327955  0.565726  1
  Y  Y3  1  0.655797  0.327898  0.934337  1
  Tc  Tc4  1  0.686981  0.843490  0.749785  1
  Ru  Ru5  1  0.979566  0.989783  0.499593  1
  Ru  Ru6  1  0.978868  0.989434  0.000562  1
  Ru  Ru7  1  0.836504  0.166952  0.250170  1
  Ru  Ru8  1  0.836504  0.669552  0.250170  1
  Ru  Ru9  1  0.355200  0.177600  0.250171  1
  Ru  Ru10  1  0.178968  0.825860  0.749869  1
  Ru  Ru11  1  0.178968  0.353108  0.749869  1
