# generated using pymatgen
data_Sm2In(AsRh2)6
_symmetry_space_group_name_H-M   'P 1'
_cell_length_a   10.07514200
_cell_length_b   10.07514207
_cell_length_c   4.00170600
_cell_angle_alpha   90.00000000
_cell_angle_beta   90.00000000
_cell_angle_gamma   119.99999977
_symmetry_Int_Tables_number   1
_chemical_formula_structural   Sm2In(AsRh2)6
_chemical_formula_sum   'Sm2 In1 As6 Rh12'
_cell_volume   351.78568732
_cell_formula_units_Z   1
loop_
 _symmetry_equiv_pos_site_id
 _symmetry_equiv_pos_as_xyz
  1  'x, y, z'
loop_
 _atom_site_type_symbol
 _atom_site_label
 _atom_site_symmetry_multiplicity
 _atom_site_fract_x
 _atom_site_fract_y
 _atom_site_fract_z
 _atom_site_occupancy
  Sm  Sm0  1  0.333333  0.666667  0.244252  1
  Sm  Sm1  1  0.666667  0.333333  0.755748  1
  In  In2  1  0.000000  0.000000  0.500000  1
  As  As3  1  0.403208  0.115623  0.254533  1
  As  As4  1  0.712416  0.596792  0.254533  1
  As  As5  1  0.884377  0.287584  0.254533  1
  As  As6  1  0.596792  0.884377  0.745467  1
  As  As7  1  0.287584  0.403208  0.745467  1
  As  As8  1  0.115623  0.712416  0.745467  1
  Rh  Rh9  1  0.448473  0.385370  0.251186  1
  Rh  Rh10  1  0.936897  0.551527  0.251186  1
  Rh  Rh11  1  0.614630  0.063103  0.251186  1
  Rh  Rh12  1  0.551527  0.614630  0.748814  1
  Rh  Rh13  1  0.063103  0.448473  0.748814  1
  Rh  Rh14  1  0.385370  0.936897  0.748814  1
  Rh  Rh15  1  0.159166  0.873531  0.242067  1
  Rh  Rh16  1  0.714364  0.840834  0.242067  1
  Rh  Rh17  1  0.126469  0.285636  0.242067  1
  Rh  Rh18  1  0.840834  0.126469  0.757933  1
  Rh  Rh19  1  0.285636  0.159166  0.757933  1
  Rh  Rh20  1  0.873531  0.714364  0.757933  1
