# generated using pymatgen
data_NaNb6GeSe12
_symmetry_space_group_name_H-M   'P 1'
_cell_length_a   6.07439300
_cell_length_b   6.07439319
_cell_length_c   14.92001200
_cell_angle_alpha   90.00000000
_cell_angle_beta   90.00000000
_cell_angle_gamma   120.00001532
_symmetry_Int_Tables_number   1
_chemical_formula_structural   NaNb6GeSe12
_chemical_formula_sum   'Na1 Nb6 Ge1 Se12'
_cell_volume   476.76627069
_cell_formula_units_Z   1
loop_
 _symmetry_equiv_pos_site_id
 _symmetry_equiv_pos_as_xyz
  1  'x, y, z'
loop_
 _atom_site_type_symbol
 _atom_site_label
 _atom_site_symmetry_multiplicity
 _atom_site_fract_x
 _atom_site_fract_y
 _atom_site_fract_z
 _atom_site_occupancy
  Na  Na0  1  0.000000  0.000000  0.000000  1
  Nb  Nb1  1  0.333333  0.666667  0.260799  1
  Nb  Nb2  1  0.000000  0.000000  0.261230  1
  Nb  Nb3  1  0.000000  0.000000  0.738770  1
  Nb  Nb4  1  0.333333  0.666667  0.739201  1
  Nb  Nb5  1  0.666667  0.333333  0.739201  1
  Nb  Nb6  1  0.666667  0.333333  0.260799  1
  Ge  Ge7  1  0.000000  0.000000  0.500000  1
  Se  Se8  1  0.000000  0.664443  0.626947  1
  Se  Se9  1  0.000000  0.665161  0.851033  1
  Se  Se10  1  0.000000  0.334839  0.148967  1
  Se  Se11  1  0.000000  0.335557  0.373053  1
  Se  Se12  1  0.335557  0.335557  0.626947  1
  Se  Se13  1  0.334839  0.334839  0.851033  1
  Se  Se14  1  0.665161  0.665161  0.148967  1
  Se  Se15  1  0.664443  0.664443  0.373053  1
  Se  Se16  1  0.334839  0.000000  0.148967  1
  Se  Se17  1  0.335557  0.000000  0.373053  1
  Se  Se18  1  0.664443  0.000000  0.626947  1
  Se  Se19  1  0.665161  0.000000  0.851033  1
