# generated using pymatgen
data_Sc8Re(B8Rh)3
_symmetry_space_group_name_H-M   'P 1'
_cell_length_a   3.48833900
_cell_length_b   8.90572516
_cell_length_c   11.21458888
_cell_angle_alpha   90.18082674
_cell_angle_beta   90.00000000
_cell_angle_gamma   90.00000000
_symmetry_Int_Tables_number   1
_chemical_formula_structural   Sc8Re(B8Rh)3
_chemical_formula_sum   'Sc8 Re1 B24 Rh3'
_cell_volume   348.39279565
_cell_formula_units_Z   1
loop_
 _symmetry_equiv_pos_site_id
 _symmetry_equiv_pos_as_xyz
  1  'x, y, z'
loop_
 _atom_site_type_symbol
 _atom_site_label
 _atom_site_symmetry_multiplicity
 _atom_site_fract_x
 _atom_site_fract_y
 _atom_site_fract_z
 _atom_site_occupancy
  Sc  Sc0  1  0.000000  0.946276  0.373578  1
  Sc  Sc1  1  0.000000  0.055461  0.626523  1
  Sc  Sc2  1  0.000000  0.556002  0.873926  1
  Sc  Sc3  1  0.000000  0.181571  0.917925  1
  Sc  Sc4  1  0.000000  0.822320  0.086205  1
  Sc  Sc5  1  0.000000  0.681603  0.585683  1
  Sc  Sc6  1  0.000000  0.314530  0.410348  1
  Sc  Sc7  1  0.000000  0.443226  0.125322  1
  Re  Re8  1  0.000000  0.138843  0.179608  1
  B  B9  1  0.500000  0.369610  0.818937  1
  B  B10  1  0.500000  0.979103  0.213139  1
  B  B11  1  0.500000  0.553718  0.436150  1
  B  B12  1  0.500000  0.296018  0.236561  1
  B  B13  1  0.500000  0.204899  0.737388  1
  B  B14  1  0.500000  0.101454  0.473127  1
  B  B15  1  0.500000  0.794863  0.264514  1
  B  B16  1  0.500000  0.445729  0.563680  1
  B  B17  1  0.500000  0.246943  0.577902  1
  B  B18  1  0.500000  0.480439  0.287182  1
  B  B19  1  0.500000  0.704203  0.762530  1
  B  B20  1  0.500000  0.752488  0.422307  1
  B  B21  1  0.500000  0.519999  0.712601  1
  B  B22  1  0.500000  0.897574  0.528429  1
  B  B23  1  0.500000  0.053026  0.064113  1
  B  B24  1  0.500000  0.603797  0.027414  1
  B  B25  1  0.500000  0.747324  0.921848  1
  B  B26  1  0.500000  0.020517  0.787255  1
  B  B27  1  0.500000  0.398851  0.971556  1
  B  B28  1  0.500000  0.946522  0.935239  1
  B  B29  1  0.500000  0.631056  0.181243  1
  B  B30  1  0.500000  0.252949  0.078640  1
  B  B31  1  0.500000  0.868668  0.681086  1
  B  B32  1  0.500000  0.130448  0.318096  1
  Rh  Rh33  1  0.000000  0.359195  0.679929  1
  Rh  Rh34  1  0.000000  0.860167  0.820445  1
  Rh  Rh35  1  0.000000  0.640606  0.319571  1
