# generated using pymatgen
data_TbNd2Er(Ir2O7)2
_symmetry_space_group_name_H-M   'P 1'
_cell_length_a   7.31623708
_cell_length_b   7.30527858
_cell_length_c   7.36174800
_cell_angle_alpha   59.74396427
_cell_angle_beta   59.79401208
_cell_angle_gamma   59.54581817
_symmetry_Int_Tables_number   1
_chemical_formula_structural   TbNd2Er(Ir2O7)2
_chemical_formula_sum   'Tb1 Nd2 Er1 Ir4 O14'
_cell_volume   276.28832425
_cell_formula_units_Z   1
loop_
 _symmetry_equiv_pos_site_id
 _symmetry_equiv_pos_as_xyz
  1  'x, y, z'
loop_
 _atom_site_type_symbol
 _atom_site_label
 _atom_site_symmetry_multiplicity
 _atom_site_fract_x
 _atom_site_fract_y
 _atom_site_fract_z
 _atom_site_occupancy
  Tb  Tb0  1  0.625000  0.125000  0.125000  1
  Nd  Nd1  1  0.125000  0.125000  0.625000  1
  Nd  Nd2  1  0.125000  0.125000  0.125000  1
  Er  Er3  1  0.125000  0.625000  0.125000  1
  Ir  Ir4  1  0.125000  0.625000  0.625000  1
  Ir  Ir5  1  0.625000  0.125000  0.625000  1
  Ir  Ir6  1  0.625000  0.625000  0.125000  1
  Ir  Ir7  1  0.625000  0.625000  0.625000  1
  O  O8  1  0.711880  0.707716  0.290202  1
  O  O9  1  0.289660  0.290215  0.710063  1
  O  O10  1  0.702274  0.290603  0.717367  1
  O  O11  1  0.289967  0.700474  0.289544  1
  O  O12  1  0.289967  0.700474  0.720016  1
  O  O13  1  0.702274  0.290603  0.289757  1
  O  O14  1  0.538120  0.542284  0.959798  1
  O  O15  1  0.960340  0.959785  0.539937  1
  O  O16  1  0.547726  0.959397  0.532633  1
  O  O17  1  0.960033  0.549526  0.960456  1
  O  O18  1  0.960033  0.549526  0.529984  1
  O  O19  1  0.547726  0.959397  0.960243  1
  O  O20  1  0.253632  0.260293  0.243038  1
  O  O21  1  0.996368  0.989707  0.006962  1
