# generated using pymatgen
data_Rb2Sc2MnCuTe6
_symmetry_space_group_name_H-M   'P 1'
_cell_length_a   9.93966668
_cell_length_b   4.20621300
_cell_length_c   10.55467620
_cell_angle_alpha   90.00000000
_cell_angle_beta   113.93303015
_cell_angle_gamma   90.00000000
_symmetry_Int_Tables_number   1
_chemical_formula_structural   Rb2Sc2MnCuTe6
_chemical_formula_sum   'Rb2 Sc2 Mn1 Cu1 Te6'
_cell_volume   403.33305141
_cell_formula_units_Z   1
loop_
 _symmetry_equiv_pos_site_id
 _symmetry_equiv_pos_as_xyz
  1  'x, y, z'
loop_
 _atom_site_type_symbol
 _atom_site_label
 _atom_site_symmetry_multiplicity
 _atom_site_fract_x
 _atom_site_fract_y
 _atom_site_fract_z
 _atom_site_occupancy
  Rb  Rb0  1  0.786199  0.750001  0.259114  1
  Rb  Rb1  1  0.211969  0.250000  0.739801  1
  Sc  Sc2  1  0.334511  0.750001  0.359300  1
  Sc  Sc3  1  0.675617  0.250000  0.647742  1
  Mn  Mn4  1  0.074636  0.250000  0.092003  1
  Cu  Cu5  1  0.919713  0.750001  0.905189  1
  Te  Te6  1  0.213407  0.750001  0.040952  1
  Te  Te7  1  0.530271  0.250000  0.342141  1
  Te  Te8  1  0.124417  0.250000  0.358398  1
  Te  Te9  1  0.875997  0.750001  0.642397  1
  Te  Te10  1  0.469288  0.750001  0.656963  1
  Te  Te11  1  0.783975  0.250000  0.955997  1
