# generated using pymatgen
data_Ba12Lu(ScP4)3
_symmetry_space_group_name_H-M   'P 1'
_cell_length_a   4.59326300
_cell_length_b   13.61994230
_cell_length_c   14.74405038
_cell_angle_alpha   89.91405479
_cell_angle_beta   90.00000000
_cell_angle_gamma   90.00000000
_symmetry_Int_Tables_number   1
_chemical_formula_structural   Ba12Lu(ScP4)3
_chemical_formula_sum   'Ba12 Lu1 Sc3 P12'
_cell_volume   922.38641506
_cell_formula_units_Z   1
loop_
 _symmetry_equiv_pos_site_id
 _symmetry_equiv_pos_as_xyz
  1  'x, y, z'
loop_
 _atom_site_type_symbol
 _atom_site_label
 _atom_site_symmetry_multiplicity
 _atom_site_fract_x
 _atom_site_fract_y
 _atom_site_fract_z
 _atom_site_occupancy
  Ba  Ba0  1  0.250000  0.418875  0.100744  1
  Ba  Ba1  1  0.250000  0.142569  0.003361  1
  Ba  Ba2  1  0.250000  0.227769  0.297505  1
  Ba  Ba3  1  0.750000  0.274255  0.796528  1
  Ba  Ba4  1  0.750000  0.360336  0.502131  1
  Ba  Ba5  1  0.250000  0.918340  0.397720  1
  Ba  Ba6  1  0.750000  0.768506  0.701853  1
  Ba  Ba7  1  0.750000  0.859804  0.999555  1
  Ba  Ba8  1  0.250000  0.726764  0.202216  1
  Ba  Ba9  1  0.750000  0.080601  0.597654  1
  Ba  Ba10  1  0.750000  0.581270  0.901254  1
  Ba  Ba11  1  0.250000  0.640420  0.496807  1
  Lu  Lu12  1  0.250000  0.953146  0.794865  1
  Sc  Sc13  1  0.750000  0.547949  0.294680  1
  Sc  Sc14  1  0.750000  0.048658  0.205522  1
  Sc  Sc15  1  0.250000  0.452173  0.705611  1
  P  P16  1  0.750000  0.223280  0.134737  1
  P  P17  1  0.750000  0.722401  0.365449  1
  P  P18  1  0.750000  0.585608  0.123436  1
  P  P19  1  0.250000  0.277455  0.633377  1
  P  P20  1  0.250000  0.772926  0.868581  1
  P  P21  1  0.750000  0.086377  0.376771  1
  P  P22  1  0.250000  0.910209  0.618571  1
  P  P23  1  0.250000  0.414292  0.876972  1
  P  P24  1  0.750000  0.040112  0.851282  1
  P  P25  1  0.250000  0.466205  0.346364  1
  P  P26  1  0.250000  0.966456  0.153401  1
  P  P27  1  0.750000  0.533245  0.653053  1
