# generated using pymatgen
data_Pr2Nd10Os3Au
_symmetry_space_group_name_H-M   'P 1'
_cell_length_a   6.58721701
_cell_length_b   7.51246546
_cell_length_c   9.78500400
_cell_angle_alpha   90.00000000
_cell_angle_beta   90.00000000
_cell_angle_gamma   90.32498979
_symmetry_Int_Tables_number   1
_chemical_formula_structural   Pr2Nd10Os3Au
_chemical_formula_sum   'Pr2 Nd10 Os3 Au1'
_cell_volume   484.21526989
_cell_formula_units_Z   1
loop_
 _symmetry_equiv_pos_site_id
 _symmetry_equiv_pos_as_xyz
  1  'x, y, z'
loop_
 _atom_site_type_symbol
 _atom_site_label
 _atom_site_symmetry_multiplicity
 _atom_site_fract_x
 _atom_site_fract_y
 _atom_site_fract_z
 _atom_site_occupancy
  Pr  Pr0  1  0.855819  0.521480  0.250000  1
  Pr  Pr1  1  0.622366  0.045230  0.250000  1
  Nd  Nd2  1  0.342347  0.667056  0.059927  1
  Nd  Nd3  1  0.170799  0.187859  0.443409  1
  Nd  Nd4  1  0.674080  0.321921  0.568274  1
  Nd  Nd5  1  0.824336  0.827150  0.929637  1
  Nd  Nd6  1  0.674080  0.321921  0.931726  1
  Nd  Nd7  1  0.824336  0.827150  0.570363  1
  Nd  Nd8  1  0.342347  0.667056  0.440073  1
  Nd  Nd9  1  0.170799  0.187859  0.056591  1
  Nd  Nd10  1  0.138170  0.464099  0.750000  1
  Nd  Nd11  1  0.356140  0.958565  0.750000  1
  Os  Os12  1  0.435643  0.384228  0.250000  1
  Os  Os13  1  0.951004  0.114878  0.750000  1
  Os  Os14  1  0.553766  0.614892  0.750000  1
  Au  Au15  1  0.063967  0.888658  0.250000  1
