# generated using pymatgen
data_Er10LuScPb10
_symmetry_space_group_name_H-M   'P 1'
_cell_length_a   11.61768982
_cell_length_b   11.61768902
_cell_length_c   11.62525362
_cell_angle_alpha   146.95977129
_cell_angle_beta   132.51910220
_cell_angle_gamma   58.99521003
_symmetry_Int_Tables_number   1
_chemical_formula_structural   Er10LuScPb10
_chemical_formula_sum   'Er10 Lu1 Sc1 Pb10'
_cell_volume   625.36167605
_cell_formula_units_Z   1
loop_
 _symmetry_equiv_pos_site_id
 _symmetry_equiv_pos_as_xyz
  1  'x, y, z'
loop_
 _atom_site_type_symbol
 _atom_site_label
 _atom_site_symmetry_multiplicity
 _atom_site_fract_x
 _atom_site_fract_y
 _atom_site_fract_z
 _atom_site_occupancy
  Er  Er0  1  0.249653  0.635934  0.610894  1
  Er  Er1  1  0.681861  0.941200  0.739896  1
  Er  Er2  1  0.025039  0.138758  0.889106  1
  Er  Er3  1  0.974572  0.860991  0.112339  1
  Er  Er4  1  0.798927  0.559775  0.240764  1
  Er  Er5  1  0.201304  0.441964  0.760104  1
  Er  Er6  1  0.302753  0.052753  0.750000  1
  Er  Er7  1  0.319010  0.058162  0.259236  1
  Er  Er8  1  0.303949  0.553949  0.250000  1
  Er  Er9  1  0.748651  0.362233  0.387661  1
  Lu  Lu10  1  0.696601  0.946601  0.250000  1
  Sc  Sc11  1  0.695661  0.445661  0.750000  1
  Pb  Pb12  1  0.484074  0.566905  0.898733  1
  Pb  Pb13  1  0.600390  0.785836  0.799711  1
  Pb  Pb14  1  0.668174  0.085341  0.601267  1
  Pb  Pb15  1  0.000190  0.750190  0.750000  1
  Pb  Pb16  1  0.986124  0.300679  0.700289  1
  Pb  Pb17  1  0.519119  0.423800  0.091318  1
  Pb  Pb18  1  0.007561  0.702709  0.298796  1
  Pb  Pb19  1  0.403914  0.208767  0.201204  1
  Pb  Pb20  1  0.332482  0.927801  0.408682  1
  Pb  Pb21  1  0.999991  0.249991  0.250000  1
