# generated using pymatgen
data_Er4Sc16BiSb11
_symmetry_space_group_name_H-M   'P 1'
_cell_length_a   7.71947142
_cell_length_b   8.87365779
_cell_length_c   11.34837327
_cell_angle_alpha   90.02959932
_cell_angle_beta   89.91796502
_cell_angle_gamma   90.03835907
_symmetry_Int_Tables_number   1
_chemical_formula_structural   Er4Sc16BiSb11
_chemical_formula_sum   'Er4 Sc16 Bi1 Sb11'
_cell_volume   777.36190146
_cell_formula_units_Z   1
loop_
 _symmetry_equiv_pos_site_id
 _symmetry_equiv_pos_as_xyz
  1  'x, y, z'
loop_
 _atom_site_type_symbol
 _atom_site_label
 _atom_site_symmetry_multiplicity
 _atom_site_fract_x
 _atom_site_fract_y
 _atom_site_fract_z
 _atom_site_occupancy
  Er  Er0  1  0.319377  0.253943  0.219806  1
  Er  Er1  1  0.814814  0.252915  0.281692  1
  Er  Er2  1  0.683391  0.750110  0.780640  1
  Er  Er3  1  0.183644  0.749905  0.719090  1
  Sc  Sc4  1  0.351957  0.746950  0.218769  1
  Sc  Sc5  1  0.844636  0.746295  0.283081  1
  Sc  Sc6  1  0.651590  0.249966  0.781664  1
  Sc  Sc7  1  0.151560  0.249924  0.717991  1
  Sc  Sc8  1  0.691538  0.562907  0.062532  1
  Sc  Sc9  1  0.194169  0.936645  0.440291  1
  Sc  Sc10  1  0.309272  0.063750  0.935039  1
  Sc  Sc11  1  0.807585  0.437220  0.562920  1
  Sc  Sc12  1  0.308211  0.437314  0.936917  1
  Sc  Sc13  1  0.807744  0.063097  0.562887  1
  Sc  Sc14  1  0.689471  0.936041  0.061867  1
  Sc  Sc15  1  0.192003  0.562724  0.437447  1
  Sc  Sc16  1  0.478356  0.250000  0.489815  1
  Sc  Sc17  1  0.977845  0.252778  0.008964  1
  Sc  Sc18  1  0.521900  0.749934  0.510751  1
  Sc  Sc19  1  0.020687  0.747109  0.987293  1
  Bi  Bi20  1  0.064153  0.990837  0.172298  1
  Sb  Sb21  1  0.404574  0.750126  0.966888  1
  Sb  Sb22  1  0.905692  0.750103  0.533263  1
  Sb  Sb23  1  0.594908  0.249968  0.032786  1
  Sb  Sb24  1  0.094397  0.249891  0.466833  1
  Sb  Sb25  1  0.563066  0.991103  0.328512  1
  Sb  Sb26  1  0.063112  0.509369  0.171286  1
  Sb  Sb27  1  0.436931  0.490949  0.671371  1
  Sb  Sb28  1  0.936808  0.009065  0.828972  1
  Sb  Sb29  1  0.437020  0.009068  0.671266  1
  Sb  Sb30  1  0.936461  0.490865  0.827552  1
  Sb  Sb31  1  0.563129  0.509129  0.329517  1
