# generated using pymatgen
data_Lu3GaP2Ir3
_symmetry_space_group_name_H-M   'P 1'
_cell_length_a   6.59323200
_cell_length_b   6.59323165
_cell_length_c   4.03211500
_cell_angle_alpha   90.00000000
_cell_angle_beta   90.00000000
_cell_angle_gamma   120.00000176
_symmetry_Int_Tables_number   1
_chemical_formula_structural   Lu3GaP2Ir3
_chemical_formula_sum   'Lu3 Ga1 P2 Ir3'
_cell_volume   151.79596472
_cell_formula_units_Z   1
loop_
 _symmetry_equiv_pos_site_id
 _symmetry_equiv_pos_as_xyz
  1  'x, y, z'
loop_
 _atom_site_type_symbol
 _atom_site_label
 _atom_site_symmetry_multiplicity
 _atom_site_fract_x
 _atom_site_fract_y
 _atom_site_fract_z
 _atom_site_occupancy
  Lu  Lu0  1  0.000000  0.428253  0.500000  1
  Lu  Lu1  1  0.571747  0.571747  0.500000  1
  Lu  Lu2  1  0.428253  0.000000  0.500000  1
  Ga  Ga3  1  0.000000  0.000000  0.500000  1
  P  P4  1  0.666667  0.333333  0.000000  1
  P  P5  1  0.333333  0.666667  0.000000  1
  Ir  Ir6  1  0.000000  0.752962  0.000000  1
  Ir  Ir7  1  0.247038  0.247038  0.000000  1
  Ir  Ir8  1  0.752962  0.000000  0.000000  1
