# generated using pymatgen
data_Ce5Sc3(Co4P3)4
_symmetry_space_group_name_H-M   'P 1'
_cell_length_a   12.24457500
_cell_length_b   12.24457611
_cell_length_c   3.76135600
_cell_angle_alpha   90.00000000
_cell_angle_beta   90.00000000
_cell_angle_gamma   119.99999971
_symmetry_Int_Tables_number   1
_chemical_formula_structural   Ce5Sc3(Co4P3)4
_chemical_formula_sum   'Ce5 Sc3 Co16 P12'
_cell_volume   488.38525505
_cell_formula_units_Z   1
loop_
 _symmetry_equiv_pos_site_id
 _symmetry_equiv_pos_as_xyz
  1  'x, y, z'
loop_
 _atom_site_type_symbol
 _atom_site_label
 _atom_site_symmetry_multiplicity
 _atom_site_fract_x
 _atom_site_fract_y
 _atom_site_fract_z
 _atom_site_occupancy
  Ce  Ce0  1  0.816730  0.000000  0.500000  1
  Ce  Ce1  1  0.000000  0.816730  0.500000  1
  Ce  Ce2  1  0.183270  0.183270  0.500000  1
  Ce  Ce3  1  0.333333  0.666667  0.000000  1
  Ce  Ce4  1  0.666667  0.333333  0.000000  1
  Sc  Sc5  1  0.436124  0.000000  0.000000  1
  Sc  Sc6  1  0.000000  0.436124  0.000000  1
  Sc  Sc7  1  0.563876  0.563876  0.000000  1
  Co  Co8  1  0.278528  0.000000  0.500000  1
  Co  Co9  1  0.000000  0.278528  0.500000  1
  Co  Co10  1  0.721472  0.721472  0.500000  1
  Co  Co11  1  0.625620  0.806033  0.000000  1
  Co  Co12  1  0.193967  0.819586  0.000000  1
  Co  Co13  1  0.180414  0.374380  0.000000  1
  Co  Co14  1  0.374380  0.180414  0.000000  1
  Co  Co15  1  0.806033  0.625620  0.000000  1
  Co  Co16  1  0.819586  0.193967  0.000000  1
  Co  Co17  1  0.519005  0.874872  0.500000  1
  Co  Co18  1  0.125128  0.644134  0.500000  1
  Co  Co19  1  0.355866  0.480995  0.500000  1
  Co  Co20  1  0.480995  0.355866  0.500000  1
  Co  Co21  1  0.874872  0.519005  0.500000  1
  Co  Co22  1  0.644134  0.125128  0.500000  1
  Co  Co23  1  0.000000  0.000000  0.000000  1
  P  P24  1  0.181232  0.000000  0.000000  1
  P  P25  1  0.000000  0.181232  0.000000  1
  P  P26  1  0.818768  0.818768  0.000000  1
  P  P27  1  0.524114  0.693104  0.500000  1
  P  P28  1  0.306896  0.831010  0.500000  1
  P  P29  1  0.168990  0.475886  0.500000  1
  P  P30  1  0.475886  0.168990  0.500000  1
  P  P31  1  0.693104  0.524114  0.500000  1
  P  P32  1  0.831010  0.306896  0.500000  1
  P  P33  1  0.641240  0.000000  0.000000  1
  P  P34  1  0.000000  0.641240  0.000000  1
  P  P35  1  0.358760  0.358760  0.000000  1
