# generated using pymatgen
data_ScAl2B4Ru10W3
_symmetry_space_group_name_H-M   'P 1'
_cell_length_a   9.32654810
_cell_length_b   9.32654810
_cell_length_c   2.94705700
_cell_angle_alpha   90.00000000
_cell_angle_beta   90.00000000
_cell_angle_gamma   89.98327794
_symmetry_Int_Tables_number   1
_chemical_formula_structural   ScAl2B4Ru10W3
_chemical_formula_sum   'Sc1 Al2 B4 Ru10 W3'
_cell_volume   256.34826707
_cell_formula_units_Z   1
loop_
 _symmetry_equiv_pos_site_id
 _symmetry_equiv_pos_as_xyz
  1  'x, y, z'
loop_
 _atom_site_type_symbol
 _atom_site_label
 _atom_site_symmetry_multiplicity
 _atom_site_fract_x
 _atom_site_fract_y
 _atom_site_fract_z
 _atom_site_occupancy
  Sc  Sc0  1  0.823676  0.676324  0.000000  1
  Al  Al1  1  0.997677  0.996703  0.000000  1
  Al  Al2  1  0.503297  0.502323  0.000000  1
  B  B3  1  0.123863  0.625129  0.000000  1
  B  B4  1  0.874871  0.376137  0.000000  1
  B  B5  1  0.625171  0.874829  0.000000  1
  B  B6  1  0.373931  0.126069  0.000000  1
  Ru  Ru7  1  0.213762  0.069931  0.500000  1
  Ru  Ru8  1  0.780074  0.942538  0.500000  1
  Ru  Ru9  1  0.079999  0.787432  0.500000  1
  Ru  Ru10  1  0.712568  0.420001  0.500000  1
  Ru  Ru11  1  0.935004  0.214098  0.500000  1
  Ru  Ru12  1  0.285902  0.564996  0.500000  1
  Ru  Ru13  1  0.557462  0.719926  0.500000  1
  Ru  Ru14  1  0.430069  0.286238  0.500000  1
  Ru  Ru15  1  0.497736  0.002264  0.500000  1
  Ru  Ru16  1  0.004766  0.495234  0.500000  1
  W  W17  1  0.678831  0.176607  0.000000  1
  W  W18  1  0.323393  0.821169  0.000000  1
  W  W19  1  0.177949  0.322051  0.000000  1
