# generated using pymatgen
data_YbDyTmAg(Pt2O7)2
_symmetry_space_group_name_H-M   'P 1'
_cell_length_a   7.29278302
_cell_length_b   7.29745065
_cell_length_c   7.16733298
_cell_angle_alpha   59.43534049
_cell_angle_beta   59.56639428
_cell_angle_gamma   60.01217300
_symmetry_Int_Tables_number   1
_chemical_formula_structural   YbDyTmAg(Pt2O7)2
_chemical_formula_sum   'Yb1 Dy1 Tm1 Ag1 Pt4 O14'
_cell_volume   267.68695659
_cell_formula_units_Z   1
loop_
 _symmetry_equiv_pos_site_id
 _symmetry_equiv_pos_as_xyz
  1  'x, y, z'
loop_
 _atom_site_type_symbol
 _atom_site_label
 _atom_site_symmetry_multiplicity
 _atom_site_fract_x
 _atom_site_fract_y
 _atom_site_fract_z
 _atom_site_occupancy
  Yb  Yb0  1  0.125000  0.625000  0.625000  1
  Dy  Dy1  1  0.625000  0.125000  0.625000  1
  Tm  Tm2  1  0.625000  0.625000  0.625000  1
  Ag  Ag3  1  0.625000  0.625000  0.125000  1
  Pt  Pt4  1  0.125000  0.125000  0.125000  1
  Pt  Pt5  1  0.625000  0.125000  0.125000  1
  Pt  Pt6  1  0.125000  0.625000  0.125000  1
  Pt  Pt7  1  0.125000  0.125000  0.625000  1
  O  O8  1  0.027586  0.462554  0.467229  1
  O  O9  1  0.792122  0.793467  0.221724  1
  O  O10  1  0.791205  0.200578  0.215458  1
  O  O11  1  0.465484  0.029507  0.469584  1
  O  O12  1  0.030680  0.038570  0.467699  1
  O  O13  1  0.045579  0.456449  0.042008  1
  O  O14  1  0.736793  0.744572  0.767219  1
  O  O15  1  0.513207  0.505428  0.482781  1
  O  O16  1  0.784516  0.220493  0.780416  1
  O  O17  1  0.204421  0.793551  0.207992  1
  O  O18  1  0.219320  0.211430  0.782301  1
  O  O19  1  0.458795  0.049422  0.034542  1
  O  O20  1  0.457878  0.456533  0.028276  1
  O  O21  1  0.222414  0.787446  0.782771  1
