# generated using pymatgen
data_Tm10Lu2Ni4SnAu
_symmetry_space_group_name_H-M   'P 1'
_cell_length_a   8.21259112
_cell_length_b   8.21331974
_cell_length_c   8.22765182
_cell_angle_alpha   106.85570805
_cell_angle_beta   109.27394539
_cell_angle_gamma   112.24675785
_symmetry_Int_Tables_number   1
_chemical_formula_structural   Tm10Lu2Ni4SnAu
_chemical_formula_sum   'Tm10 Lu2 Ni4 Sn1 Au1'
_cell_volume   426.70383624
_cell_formula_units_Z   1
loop_
 _symmetry_equiv_pos_site_id
 _symmetry_equiv_pos_as_xyz
  1  'x, y, z'
loop_
 _atom_site_type_symbol
 _atom_site_label
 _atom_site_symmetry_multiplicity
 _atom_site_fract_x
 _atom_site_fract_y
 _atom_site_fract_z
 _atom_site_occupancy
  Tm  Tm0  1  0.700701  0.721283  0.422223  1
  Tm  Tm1  1  0.299211  0.277846  0.577147  1
  Tm  Tm2  1  0.804026  0.128861  0.322835  1
  Tm  Tm3  1  0.806469  0.481537  0.677453  1
  Tm  Tm4  1  0.195946  0.871092  0.677260  1
  Tm  Tm5  1  0.193760  0.518650  0.322621  1
  Tm  Tm6  1  0.610691  0.793189  0.818790  1
  Tm  Tm7  1  0.973962  0.792031  0.180607  1
  Tm  Tm8  1  0.025435  0.207837  0.818939  1
  Tm  Tm9  1  0.388470  0.206416  0.180776  1
  Lu  Lu10  1  0.700141  0.278318  0.978735  1
  Lu  Lu11  1  0.299782  0.722069  0.021888  1
  Ni  Ni12  1  0.862358  0.499891  0.361642  1
  Ni  Ni13  1  0.139146  0.500996  0.639811  1
  Ni  Ni14  1  0.998150  0.126220  0.124055  1
  Ni  Ni15  1  0.002091  0.873921  0.875590  1
  Sn  Sn16  1  0.500264  0.000183  0.500114  1
  Au  Au17  1  0.499396  0.499660  0.999512  1
