# generated using pymatgen
data_Yb2CeY(B4Os)4
_symmetry_space_group_name_H-M   'P 1'
_cell_length_a   3.57220000
_cell_length_b   5.97798871
_cell_length_c   11.56063204
_cell_angle_alpha   90.06158720
_cell_angle_beta   90.00000000
_cell_angle_gamma   90.00000000
_symmetry_Int_Tables_number   1
_chemical_formula_structural   Yb2CeY(B4Os)4
_chemical_formula_sum   'Yb2 Ce1 Y1 B16 Os4'
_cell_volume   246.87219830
_cell_formula_units_Z   1
loop_
 _symmetry_equiv_pos_site_id
 _symmetry_equiv_pos_as_xyz
  1  'x, y, z'
loop_
 _atom_site_type_symbol
 _atom_site_label
 _atom_site_symmetry_multiplicity
 _atom_site_fract_x
 _atom_site_fract_y
 _atom_site_fract_z
 _atom_site_occupancy
  Yb  Yb0  1  0.000000  0.370817  0.349767  1
  Yb  Yb1  1  0.000000  0.129159  0.851961  1
  Ce  Ce2  1  0.000000  0.628335  0.650590  1
  Y  Y3  1  0.000000  0.872036  0.149935  1
  B  B4  1  0.500000  0.974978  0.690652  1
  B  B5  1  0.500000  0.024970  0.308593  1
  B  B6  1  0.500000  0.475497  0.810188  1
  B  B7  1  0.500000  0.524903  0.191384  1
  B  B8  1  0.500000  0.787452  0.815395  1
  B  B9  1  0.500000  0.213051  0.185265  1
  B  B10  1  0.500000  0.286255  0.685180  1
  B  B11  1  0.500000  0.712380  0.314067  1
  B  B12  1  0.500000  0.863118  0.969699  1
  B  B13  1  0.500000  0.137047  0.029910  1
  B  B14  1  0.500000  0.362928  0.529914  1
  B  B15  1  0.500000  0.637134  0.468346  1
  B  B16  1  0.500000  0.890039  0.545250  1
  B  B17  1  0.500000  0.114277  0.451623  1
  B  B18  1  0.500000  0.385114  0.953637  1
  B  B19  1  0.500000  0.611043  0.046494  1
  Os  Os20  1  0.000000  0.638940  0.908382  1
  Os  Os21  1  0.000000  0.360335  0.092186  1
  Os  Os22  1  0.000000  0.140232  0.593125  1
  Os  Os23  1  0.000000  0.859957  0.408459  1
