# generated using pymatgen
data_SmErGa2(SiRh3)2
_symmetry_space_group_name_H-M   'P 1'
_cell_length_a   6.69920059
_cell_length_b   6.69920019
_cell_length_c   6.69920121
_cell_angle_alpha   130.34554857
_cell_angle_beta   113.59409780
_cell_angle_gamma   87.26878799
_symmetry_Int_Tables_number   1
_chemical_formula_structural   SmErGa2(SiRh3)2
_chemical_formula_sum   'Sm1 Er1 Ga2 Si2 Rh6'
_cell_volume   200.13328954
_cell_formula_units_Z   1
loop_
 _symmetry_equiv_pos_site_id
 _symmetry_equiv_pos_as_xyz
  1  'x, y, z'
loop_
 _atom_site_type_symbol
 _atom_site_label
 _atom_site_symmetry_multiplicity
 _atom_site_fract_x
 _atom_site_fract_y
 _atom_site_fract_z
 _atom_site_occupancy
  Sm  Sm0  1  0.750000  0.053855  0.303855  1
  Er  Er1  1  0.250000  0.958827  0.708827  1
  Ga  Ga2  1  0.597653  0.396788  0.799134  1
  Ga  Ga3  1  0.902347  0.701480  0.799134  1
  Si  Si4  1  0.435880  0.632327  0.196448  1
  Si  Si5  1  0.064120  0.260567  0.196448  1
  Rh  Rh6  1  0.224081  0.509875  0.723934  1
  Rh  Rh7  1  0.785941  0.509875  0.285794  1
  Rh  Rh8  1  0.460856  0.488349  0.449205  1
  Rh  Rh9  1  0.039144  0.488349  0.027494  1
  Rh  Rh10  1  0.714059  0.999852  0.723934  1
  Rh  Rh11  1  0.275919  0.999852  0.285794  1
