# generated using pymatgen
data_Tb3DyHo4(B6Ru)4
_symmetry_space_group_name_H-M   'P 1'
_cell_length_a   3.66073400
_cell_length_b   9.14368400
_cell_length_c   11.52394600
_cell_angle_alpha   90.00108709
_cell_angle_beta   90.00000000
_cell_angle_gamma   90.00000000
_symmetry_Int_Tables_number   1
_chemical_formula_structural   Tb3DyHo4(B6Ru)4
_chemical_formula_sum   'Tb3 Dy1 Ho4 B24 Ru4'
_cell_volume   385.73637612
_cell_formula_units_Z   1
loop_
 _symmetry_equiv_pos_site_id
 _symmetry_equiv_pos_as_xyz
  1  'x, y, z'
loop_
 _atom_site_type_symbol
 _atom_site_label
 _atom_site_symmetry_multiplicity
 _atom_site_fract_x
 _atom_site_fract_y
 _atom_site_fract_z
 _atom_site_occupancy
  Tb  Tb0  1  0.000000  0.322775  0.414022  1
  Tb  Tb1  1  0.000000  0.677223  0.585997  1
  Tb  Tb2  1  0.000000  0.822814  0.085936  1
  Dy  Dy3  1  0.000000  0.177314  0.914095  1
  Ho  Ho4  1  0.000000  0.943791  0.372225  1
  Ho  Ho5  1  0.000000  0.056264  0.627808  1
  Ho  Ho6  1  0.000000  0.443715  0.127656  1
  Ho  Ho7  1  0.000000  0.556145  0.872275  1
  B  B8  1  0.500000  0.554375  0.432681  1
  B  B9  1  0.500000  0.445577  0.567370  1
  B  B10  1  0.500000  0.054456  0.067101  1
  B  B11  1  0.500000  0.945860  0.932719  1
  B  B12  1  0.500000  0.748285  0.419464  1
  B  B13  1  0.500000  0.251713  0.580603  1
  B  B14  1  0.500000  0.248200  0.080270  1
  B  B15  1  0.500000  0.751801  0.919452  1
  B  B16  1  0.500000  0.791046  0.266359  1
  B  B17  1  0.500000  0.208825  0.733841  1
  B  B18  1  0.500000  0.291019  0.233532  1
  B  B19  1  0.500000  0.709000  0.766407  1
  B  B20  1  0.500000  0.631725  0.185136  1
  B  B21  1  0.500000  0.368044  0.814990  1
  B  B22  1  0.500000  0.131765  0.314802  1
  B  B23  1  0.500000  0.868316  0.685211  1
  B  B24  1  0.500000  0.983955  0.213028  1
  B  B25  1  0.500000  0.016368  0.787036  1
  B  B26  1  0.500000  0.483884  0.286875  1
  B  B27  1  0.500000  0.516012  0.713154  1
  B  B28  1  0.500000  0.607428  0.029621  1
  B  B29  1  0.500000  0.392181  0.970266  1
  B  B30  1  0.500000  0.107361  0.470401  1
  B  B31  1  0.500000  0.892669  0.529625  1
  Ru  Ru32  1  0.000000  0.638077  0.320869  1
  Ru  Ru33  1  0.000000  0.361784  0.679257  1
  Ru  Ru34  1  0.000000  0.138083  0.178950  1
  Ru  Ru35  1  0.000000  0.862149  0.820966  1
