# generated using pymatgen
data_YbNi3As2
_symmetry_space_group_name_H-M   'P 1'
_cell_length_a   3.89799100
_cell_length_b   10.78527600
_cell_length_c   12.78806700
_cell_angle_alpha   90.00000000
_cell_angle_beta   90.00000000
_cell_angle_gamma   90.00000000
_symmetry_Int_Tables_number   1
_chemical_formula_structural   YbNi3As2
_chemical_formula_sum   'Yb6 Ni18 As12'
_cell_volume   537.62195823
_cell_formula_units_Z   6
loop_
 _symmetry_equiv_pos_site_id
 _symmetry_equiv_pos_as_xyz
  1  'x, y, z'
loop_
 _atom_site_type_symbol
 _atom_site_label
 _atom_site_symmetry_multiplicity
 _atom_site_fract_x
 _atom_site_fract_y
 _atom_site_fract_z
 _atom_site_occupancy
  Yb  Yb0  1  0.000000  0.500000  0.517400  1
  Yb  Yb1  1  0.500000  0.000000  0.482600  1
  Yb  Yb2  1  0.500000  0.814284  0.207554  1
  Yb  Yb3  1  0.500000  0.185716  0.207554  1
  Yb  Yb4  1  0.000000  0.685716  0.792446  1
  Yb  Yb5  1  0.000000  0.314284  0.792446  1
  Ni  Ni6  1  0.500000  0.500000  0.152782  1
  Ni  Ni7  1  0.000000  0.000000  0.847218  1
  Ni  Ni8  1  0.500000  0.500000  0.697355  1
  Ni  Ni9  1  0.000000  0.000000  0.302645  1
  Ni  Ni10  1  0.000000  0.500000  0.978946  1
  Ni  Ni11  1  0.500000  0.000000  0.021054  1
  Ni  Ni12  1  0.500000  0.333938  0.995358  1
  Ni  Ni13  1  0.500000  0.666062  0.995358  1
  Ni  Ni14  1  0.000000  0.166062  0.004642  1
  Ni  Ni15  1  0.000000  0.833938  0.004642  1
  Ni  Ni16  1  0.500000  0.300915  0.426906  1
  Ni  Ni17  1  0.500000  0.699085  0.426906  1
  Ni  Ni18  1  0.000000  0.199085  0.573094  1
  Ni  Ni19  1  0.000000  0.800915  0.573094  1
  Ni  Ni20  1  0.500000  0.879881  0.708229  1
  Ni  Ni21  1  0.500000  0.120119  0.708229  1
  Ni  Ni22  1  0.000000  0.620119  0.291771  1
  Ni  Ni23  1  0.000000  0.379881  0.291771  1
  As  As24  1  0.500000  0.500000  0.874081  1
  As  As25  1  0.000000  0.000000  0.125919  1
  As  As26  1  0.500000  0.500000  0.341926  1
  As  As27  1  0.000000  0.000000  0.658074  1
  As  As28  1  0.500000  0.312169  0.613454  1
  As  As29  1  0.500000  0.687831  0.613454  1
  As  As30  1  0.000000  0.187831  0.386546  1
  As  As31  1  0.000000  0.812169  0.386546  1
  As  As32  1  0.500000  0.848502  0.891145  1
  As  As33  1  0.500000  0.151498  0.891145  1
  As  As34  1  0.000000  0.651498  0.108855  1
  As  As35  1  0.000000  0.348502  0.108855  1
