# generated using pymatgen
data_LaNd7Cd2CoPd
_symmetry_space_group_name_H-M   'P 1'
_cell_length_a   9.92080312
_cell_length_b   9.92080349
_cell_length_c   9.98454500
_cell_angle_alpha   59.78723632
_cell_angle_beta   59.78723509
_cell_angle_gamma   60.13522338
_symmetry_Int_Tables_number   1
_chemical_formula_structural   LaNd7Cd2CoPd
_chemical_formula_sum   'La2 Nd14 Cd4 Co2 Pd2'
_cell_volume   693.33282515
_cell_formula_units_Z   2
loop_
 _symmetry_equiv_pos_site_id
 _symmetry_equiv_pos_as_xyz
  1  'x, y, z'
loop_
 _atom_site_type_symbol
 _atom_site_label
 _atom_site_symmetry_multiplicity
 _atom_site_fract_x
 _atom_site_fract_y
 _atom_site_fract_z
 _atom_site_occupancy
  La  La0  1  0.340842  0.340842  0.363729  1
  La  La1  1  0.340842  0.340842  0.954586  1
  Nd  Nd2  1  0.341348  0.953622  0.352514  1
  Nd  Nd3  1  0.953622  0.341348  0.352514  1
  Nd  Nd4  1  0.822159  0.189764  0.188536  1
  Nd  Nd5  1  0.189764  0.822159  0.799541  1
  Nd  Nd6  1  0.189764  0.822159  0.188536  1
  Nd  Nd7  1  0.822159  0.189764  0.799541  1
  Nd  Nd8  1  0.187609  0.187609  0.812391  1
  Nd  Nd9  1  0.808854  0.808854  0.191146  1
  Nd  Nd10  1  0.935760  0.562472  0.565486  1
  Nd  Nd11  1  0.562472  0.935760  0.936283  1
  Nd  Nd12  1  0.562472  0.935760  0.565486  1
  Nd  Nd13  1  0.935760  0.562472  0.936283  1
  Nd  Nd14  1  0.561290  0.561290  0.938710  1
  Nd  Nd15  1  0.935358  0.935358  0.564642  1
  Cd  Cd16  1  0.580340  0.580340  0.578946  1
  Cd  Cd17  1  0.580340  0.580340  0.260375  1
  Cd  Cd18  1  0.583212  0.257504  0.579642  1
  Cd  Cd19  1  0.257504  0.583212  0.579642  1
  Co  Co20  1  0.144825  0.144825  0.139114  1
  Co  Co21  1  0.144825  0.144825  0.571235  1
  Pd  Pd22  1  0.144874  0.574005  0.140560  1
  Pd  Pd23  1  0.574005  0.144874  0.140560  1
