# generated using pymatgen
data_TmV(Ni7B2)3
_symmetry_space_group_name_H-M   'P 1'
_cell_length_a   7.44324006
_cell_length_b   7.44324019
_cell_length_c   7.44324000
_cell_angle_alpha   60.00000085
_cell_angle_beta   60.00000028
_cell_angle_gamma   59.99999562
_symmetry_Int_Tables_number   1
_chemical_formula_structural   TmV(Ni7B2)3
_chemical_formula_sum   'Tm1 V1 Ni21 B6'
_cell_volume   291.58895817
_cell_formula_units_Z   1
loop_
 _symmetry_equiv_pos_site_id
 _symmetry_equiv_pos_as_xyz
  1  'x, y, z'
loop_
 _atom_site_type_symbol
 _atom_site_label
 _atom_site_symmetry_multiplicity
 _atom_site_fract_x
 _atom_site_fract_y
 _atom_site_fract_z
 _atom_site_occupancy
  Tm  Tm0  1  0.250000  0.250000  0.250000  1
  V  V1  1  0.750000  0.750000  0.750000  1
  Ni  Ni2  1  0.341376  0.997723  0.997723  1
  Ni  Ni3  1  0.663178  0.997723  0.997723  1
  Ni  Ni4  1  0.997723  0.341376  0.663178  1
  Ni  Ni5  1  0.997723  0.663178  0.341376  1
  Ni  Ni6  1  0.997723  0.341376  0.997723  1
  Ni  Ni7  1  0.663178  0.997723  0.341376  1
  Ni  Ni8  1  0.997723  0.663178  0.997723  1
  Ni  Ni9  1  0.341376  0.997723  0.663178  1
  Ni  Ni10  1  0.997723  0.997723  0.341376  1
  Ni  Ni11  1  0.997723  0.997723  0.663178  1
  Ni  Ni12  1  0.663178  0.341376  0.997723  1
  Ni  Ni13  1  0.341376  0.663178  0.997723  1
  Ni  Ni14  1  0.392063  0.392063  0.392063  1
  Ni  Ni15  1  0.622271  0.622271  0.622271  1
  Ni  Ni16  1  0.392063  0.392063  0.823811  1
  Ni  Ni17  1  0.392063  0.823811  0.392063  1
  Ni  Ni18  1  0.622271  0.622271  0.133186  1
  Ni  Ni19  1  0.622271  0.133186  0.622271  1
  Ni  Ni20  1  0.823811  0.392063  0.392063  1
  Ni  Ni21  1  0.133186  0.622271  0.622271  1
  Ni  Ni22  1  0.000000  0.000000  0.000000  1
  B  B23  1  0.731480  0.268520  0.268520  1
  B  B24  1  0.268520  0.731480  0.731480  1
  B  B25  1  0.268520  0.731480  0.268520  1
  B  B26  1  0.731480  0.268520  0.731480  1
  B  B27  1  0.268520  0.268520  0.731480  1
  B  B28  1  0.731480  0.731480  0.268520  1
