# generated using pymatgen
data_Hf3ScSi6Ir7
_symmetry_space_group_name_H-M   'P 1'
_cell_length_a   6.99905995
_cell_length_b   6.99258371
_cell_length_c   6.99258337
_cell_angle_alpha   109.45245384
_cell_angle_beta   109.48998456
_cell_angle_gamma   109.48998539
_symmetry_Int_Tables_number   1
_chemical_formula_structural   Hf3ScSi6Ir7
_chemical_formula_sum   'Hf3 Sc1 Si6 Ir7'
_cell_volume   263.38588888
_cell_formula_units_Z   1
loop_
 _symmetry_equiv_pos_site_id
 _symmetry_equiv_pos_as_xyz
  1  'x, y, z'
loop_
 _atom_site_type_symbol
 _atom_site_label
 _atom_site_symmetry_multiplicity
 _atom_site_fract_x
 _atom_site_fract_y
 _atom_site_fract_z
 _atom_site_occupancy
  Hf  Hf0  1  0.000000  0.000000  0.500000  1
  Hf  Hf1  1  0.000000  0.500000  0.000000  1
  Hf  Hf2  1  0.500000  0.500000  0.500000  1
  Sc  Sc3  1  0.500000  0.000000  0.000000  1
  Si  Si4  1  0.680253  0.682161  0.000000  1
  Si  Si5  1  0.319747  0.000000  0.317839  1
  Si  Si6  1  0.998091  0.317839  0.317839  1
  Si  Si7  1  0.319747  0.317839  0.000000  1
  Si  Si8  1  0.680253  0.000000  0.682161  1
  Si  Si9  1  0.001909  0.682161  0.682161  1
  Ir  Ir10  1  0.750728  0.250728  0.501457  1
  Ir  Ir11  1  0.750728  0.501457  0.250728  1
  Ir  Ir12  1  0.500000  0.250728  0.749272  1
  Ir  Ir13  1  0.249272  0.498543  0.749272  1
  Ir  Ir14  1  0.249272  0.749272  0.498543  1
  Ir  Ir15  1  0.500000  0.749272  0.250728  1
  Ir  Ir16  1  0.000000  0.000000  0.000000  1
