# generated using pymatgen
data_Nd3ThFeCoB20
_symmetry_space_group_name_H-M   'P 1'
_cell_length_a   4.18670500
_cell_length_b   5.63341007
_cell_length_c   11.22138190
_cell_angle_alpha   90.36151674
_cell_angle_beta   90.00000000
_cell_angle_gamma   90.00000000
_symmetry_Int_Tables_number   1
_chemical_formula_structural   Nd3ThFeCoB20
_chemical_formula_sum   'Nd3 Th1 Fe1 Co1 B20'
_cell_volume   264.65580547
_cell_formula_units_Z   1
loop_
 _symmetry_equiv_pos_site_id
 _symmetry_equiv_pos_as_xyz
  1  'x, y, z'
loop_
 _atom_site_type_symbol
 _atom_site_label
 _atom_site_symmetry_multiplicity
 _atom_site_fract_x
 _atom_site_fract_y
 _atom_site_fract_z
 _atom_site_occupancy
  Nd  Nd0  1  0.500000  0.299360  0.865758  1
  Nd  Nd1  1  0.500000  0.701450  0.132900  1
  Nd  Nd2  1  0.500000  0.794038  0.633175  1
  Th  Th3  1  0.500000  0.208951  0.369692  1
  Fe  Fe4  1  0.000000  0.496532  0.498534  1
  Co  Co5  1  0.000000  0.999657  0.000418  1
  B  B6  1  0.000000  0.126031  0.540541  1
  B  B7  1  0.000000  0.869943  0.460428  1
  B  B8  1  0.000000  0.627162  0.959365  1
  B  B9  1  0.000000  0.372068  0.040034  1
  B  B10  1  0.000000  0.154774  0.698330  1
  B  B11  1  0.000000  0.848075  0.302792  1
  B  B12  1  0.299091  0.202101  0.113282  1
  B  B13  1  0.298764  0.797790  0.886960  1
  B  B14  1  0.701415  0.702503  0.386361  1
  B  B15  1  0.701951  0.295667  0.612960  1
  B  B16  1  0.701236  0.797790  0.886960  1
  B  B17  1  0.700909  0.202101  0.113282  1
  B  B18  1  0.298049  0.295667  0.612960  1
  B  B19  1  0.298585  0.702503  0.386361  1
  B  B20  1  0.000000  0.036905  0.187719  1
  B  B21  1  0.000000  0.965266  0.813778  1
  B  B22  1  0.000000  0.536747  0.312061  1
  B  B23  1  0.000000  0.465392  0.686069  1
  B  B24  1  0.000000  0.346489  0.196624  1
  B  B25  1  0.000000  0.655040  0.802656  1
