# generated using pymatgen
data_Tb2NdGa4Ni8B2Ru
_symmetry_space_group_name_H-M   'P 1'
_cell_length_a   5.22546100
_cell_length_b   5.22546041
_cell_length_c   10.63324600
_cell_angle_alpha   90.00000000
_cell_angle_beta   90.00000000
_cell_angle_gamma   120.00001008
_symmetry_Int_Tables_number   1
_chemical_formula_structural   Tb2NdGa4Ni8B2Ru
_chemical_formula_sum   'Tb2 Nd1 Ga4 Ni8 B2 Ru1'
_cell_volume   251.44651529
_cell_formula_units_Z   1
loop_
 _symmetry_equiv_pos_site_id
 _symmetry_equiv_pos_as_xyz
  1  'x, y, z'
loop_
 _atom_site_type_symbol
 _atom_site_label
 _atom_site_symmetry_multiplicity
 _atom_site_fract_x
 _atom_site_fract_y
 _atom_site_fract_z
 _atom_site_occupancy
  Tb  Tb0  1  0.000000  0.000000  0.688242  1
  Tb  Tb1  1  0.000000  0.000000  0.006834  1
  Nd  Nd2  1  0.000000  0.000000  0.346760  1
  Ga  Ga3  1  0.332618  0.666310  0.311569  1
  Ga  Ga4  1  0.667382  0.333690  0.311569  1
  Ga  Ga5  1  0.658002  0.329000  0.676154  1
  Ga  Ga6  1  0.341998  0.671000  0.676154  1
  Ni  Ni7  1  0.500000  0.000000  0.496305  1
  Ni  Ni8  1  0.500000  0.500000  0.496305  1
  Ni  Ni9  1  0.000000  0.500000  0.497663  1
  Ni  Ni10  1  0.500000  0.000000  0.127985  1
  Ni  Ni11  1  0.500000  0.500000  0.127985  1
  Ni  Ni12  1  0.000000  0.500000  0.127673  1
  Ni  Ni13  1  0.500000  0.000000  0.870472  1
  Ni  Ni14  1  0.500000  0.500000  0.870472  1
  B  B15  1  0.661591  0.330795  0.000829  1
  B  B16  1  0.338409  0.669205  0.000829  1
  Ru  Ru17  1  0.000000  0.500000  0.866200  1
