# generated using pymatgen
data_Th4Hg2Rh3Au
_symmetry_space_group_name_H-M   'P 1'
_cell_length_a   7.91741938
_cell_length_b   7.91741938
_cell_length_c   3.78998100
_cell_angle_alpha   90.00000000
_cell_angle_beta   90.00000000
_cell_angle_gamma   89.56371437
_symmetry_Int_Tables_number   1
_chemical_formula_structural   Th4Hg2Rh3Au
_chemical_formula_sum   'Th4 Hg2 Rh3 Au1'
_cell_volume   237.57007892
_cell_formula_units_Z   1
loop_
 _symmetry_equiv_pos_site_id
 _symmetry_equiv_pos_as_xyz
  1  'x, y, z'
loop_
 _atom_site_type_symbol
 _atom_site_label
 _atom_site_symmetry_multiplicity
 _atom_site_fract_x
 _atom_site_fract_y
 _atom_site_fract_z
 _atom_site_occupancy
  Th  Th0  1  0.310776  0.167743  0.500001  1
  Th  Th1  1  0.844202  0.344202  0.500001  1
  Th  Th2  1  0.176227  0.676227  0.500001  1
  Th  Th3  1  0.667743  0.810776  0.500001  1
  Hg  Hg4  1  0.998750  0.997275  0.000000  1
  Hg  Hg5  1  0.497275  0.498750  0.000000  1
  Rh  Rh6  1  0.133481  0.371228  0.000000  1
  Rh  Rh7  1  0.871228  0.633479  0.000000  1
  Rh  Rh8  1  0.371371  0.871371  0.000000  1
  Au  Au9  1  0.628949  0.128951  0.000000  1
