# generated using pymatgen
data_V7Re3Si5Ge
_symmetry_space_group_name_H-M   'P 1'
_cell_length_a   7.07486520
_cell_length_b   7.07854143
_cell_length_c   7.09368509
_cell_angle_alpha   96.65674215
_cell_angle_beta   96.68836492
_cell_angle_gamma   140.14154299
_symmetry_Int_Tables_number   1
_chemical_formula_structural   V7Re3Si5Ge
_chemical_formula_sum   'V7 Re3 Si5 Ge1'
_cell_volume   214.04017342
_cell_formula_units_Z   1
loop_
 _symmetry_equiv_pos_site_id
 _symmetry_equiv_pos_as_xyz
  1  'x, y, z'
loop_
 _atom_site_type_symbol
 _atom_site_label
 _atom_site_symmetry_multiplicity
 _atom_site_fract_x
 _atom_site_fract_y
 _atom_site_fract_z
 _atom_site_occupancy
  V  V0  1  0.923499  0.776539  0.697718  1
  V  V1  1  0.748585  0.249718  0.495462  1
  V  V2  1  0.725920  0.578996  0.306072  1
  V  V3  1  0.427770  0.724815  0.154897  1
  V  V4  1  0.774497  0.068905  0.844666  1
  V  V5  1  0.273685  0.424283  0.700197  1
  V  V6  1  0.227941  0.926233  0.152602  1
  Re  Re7  1  0.573524  0.278562  0.851666  1
  Re  Re8  1  0.249677  0.749976  0.495320  1
  Re  Re9  1  0.073745  0.220710  0.298898  1
  Si  Si10  1  0.249536  0.249920  0.000333  1
  Si  Si11  1  0.674824  0.839937  0.502369  1
  Si  Si12  1  0.824531  0.326585  0.163093  1
  Si  Si13  1  0.749575  0.750096  0.999508  1
  Si  Si14  1  0.338624  0.173284  0.498736  1
  Ge  Ge15  1  0.164067  0.661439  0.838467  1
