# generated using pymatgen
data_Tb4Ga4PdPt3
_symmetry_space_group_name_H-M   'P 1'
_cell_length_a   4.46847100
_cell_length_b   6.93646491
_cell_length_c   7.72470451
_cell_angle_alpha   89.64229274
_cell_angle_beta   90.00000000
_cell_angle_gamma   90.00000000
_symmetry_Int_Tables_number   1
_chemical_formula_structural   Tb4Ga4PdPt3
_chemical_formula_sum   'Tb4 Ga4 Pd1 Pt3'
_cell_volume   239.42558045
_cell_formula_units_Z   1
loop_
 _symmetry_equiv_pos_site_id
 _symmetry_equiv_pos_as_xyz
  1  'x, y, z'
loop_
 _atom_site_type_symbol
 _atom_site_label
 _atom_site_symmetry_multiplicity
 _atom_site_fract_x
 _atom_site_fract_y
 _atom_site_fract_z
 _atom_site_occupancy
  Tb  Tb0  1  0.750000  0.515180  0.803084  1
  Tb  Tb1  1  0.250000  0.984599  0.300478  1
  Tb  Tb2  1  0.250000  0.483359  0.197432  1
  Tb  Tb3  1  0.750000  0.020583  0.699159  1
  Ga  Ga4  1  0.750000  0.674653  0.426695  1
  Ga  Ga5  1  0.250000  0.324915  0.573432  1
  Ga  Ga6  1  0.750000  0.173513  0.074741  1
  Ga  Ga7  1  0.250000  0.827444  0.925762  1
  Pd  Pd8  1  0.250000  0.719853  0.598407  1
  Pt  Pt9  1  0.250000  0.222693  0.900848  1
  Pt  Pt10  1  0.750000  0.776658  0.098072  1
  Pt  Pt11  1  0.750000  0.276550  0.401889  1
