# generated using pymatgen
data_La2Pr4PtRh17
_symmetry_space_group_name_H-M   'P 1'
_cell_length_a   5.37508701
_cell_length_b   5.37512158
_cell_length_c   17.80356500
_cell_angle_alpha   90.00048902
_cell_angle_beta   90.00002534
_cell_angle_gamma   120.00622139
_symmetry_Int_Tables_number   1
_chemical_formula_structural   La2Pr4PtRh17
_chemical_formula_sum   'La2 Pr4 Pt1 Rh17'
_cell_volume   445.43482364
_cell_formula_units_Z   1
loop_
 _symmetry_equiv_pos_site_id
 _symmetry_equiv_pos_as_xyz
  1  'x, y, z'
loop_
 _atom_site_type_symbol
 _atom_site_label
 _atom_site_symmetry_multiplicity
 _atom_site_fract_x
 _atom_site_fract_y
 _atom_site_fract_z
 _atom_site_occupancy
  La  La0  1  0.333260  0.666620  0.749682  1
  La  La1  1  0.666740  0.333380  0.250318  1
  Pr  Pr2  1  0.333344  0.666670  0.543014  1
  Pr  Pr3  1  0.666663  0.333330  0.044179  1
  Pr  Pr4  1  0.666656  0.333330  0.456986  1
  Pr  Pr5  1  0.333337  0.666670  0.955821  1
  Pt  Pt6  1  0.000000  0.000000  0.000000  1
  Rh  Rh7  1  0.166932  0.333867  0.128291  1
  Rh  Rh8  1  0.833601  0.667205  0.627581  1
  Rh  Rh9  1  0.666130  0.833035  0.128286  1
  Rh  Rh10  1  0.166927  0.833060  0.128284  1
  Rh  Rh11  1  0.833612  0.166426  0.627576  1
  Rh  Rh12  1  0.332813  0.166398  0.627585  1
  Rh  Rh13  1  0.833068  0.666133  0.871709  1
  Rh  Rh14  1  0.833073  0.166940  0.871716  1
  Rh  Rh15  1  0.333870  0.166965  0.871714  1
  Rh  Rh16  1  0.667187  0.833602  0.372415  1
  Rh  Rh17  1  0.166388  0.833574  0.372424  1
  Rh  Rh18  1  0.166399  0.332795  0.372419  1
  Rh  Rh19  1  0.999919  0.999883  0.250371  1
  Rh  Rh20  1  0.000081  0.000117  0.749629  1
  Rh  Rh21  1  0.333334  0.666762  0.250119  1
  Rh  Rh22  1  0.666666  0.333238  0.749881  1
  Rh  Rh23  1  0.000000  0.000000  0.500000  1
