# generated using pymatgen
data_Ti4InGaRh10
_symmetry_space_group_name_H-M   'P 1'
_cell_length_a   4.02269800
_cell_length_b   5.45238177
_cell_length_c   10.81378329
_cell_angle_alpha   91.05002539
_cell_angle_beta   90.00000000
_cell_angle_gamma   90.00000000
_symmetry_Int_Tables_number   1
_chemical_formula_structural   Ti4InGaRh10
_chemical_formula_sum   'Ti4 In1 Ga1 Rh10'
_cell_volume   237.14196499
_cell_formula_units_Z   1
loop_
 _symmetry_equiv_pos_site_id
 _symmetry_equiv_pos_as_xyz
  1  'x, y, z'
loop_
 _atom_site_type_symbol
 _atom_site_label
 _atom_site_symmetry_multiplicity
 _atom_site_fract_x
 _atom_site_fract_y
 _atom_site_fract_z
 _atom_site_occupancy
  Ti  Ti0  1  0.500000  0.316725  0.143828  1
  Ti  Ti1  1  0.500000  0.683275  0.856172  1
  Ti  Ti2  1  0.500000  0.816174  0.363409  1
  Ti  Ti3  1  0.500000  0.183826  0.636591  1
  In  In4  1  0.000000  0.000000  0.000000  1
  Ga  Ga5  1  0.000000  0.500000  0.500000  1
  Rh  Rh6  1  0.000000  0.000000  0.500000  1
  Rh  Rh7  1  0.000000  0.500000  0.000000  1
  Rh  Rh8  1  0.000000  0.058797  0.253380  1
  Rh  Rh9  1  0.000000  0.941203  0.746620  1
  Rh  Rh10  1  0.000000  0.556630  0.255638  1
  Rh  Rh11  1  0.000000  0.443370  0.744362  1
  Rh  Rh12  1  0.500000  0.300970  0.388903  1
  Rh  Rh13  1  0.500000  0.699030  0.611097  1
  Rh  Rh14  1  0.500000  0.782684  0.124871  1
  Rh  Rh15  1  0.500000  0.217316  0.875129  1
