# generated using pymatgen
data_Tb7HoHf11Si16Mo
_symmetry_space_group_name_H-M   'P 1'
_cell_length_a   7.26648977
_cell_length_b   7.26599197
_cell_length_c   13.33433417
_cell_angle_alpha   89.96124395
_cell_angle_beta   90.05960440
_cell_angle_gamma   90.05182480
_symmetry_Int_Tables_number   1
_chemical_formula_structural   Tb7HoHf11Si16Mo
_chemical_formula_sum   'Tb7 Ho1 Hf11 Si16 Mo1'
_cell_volume   704.02876348
_cell_formula_units_Z   1
loop_
 _symmetry_equiv_pos_site_id
 _symmetry_equiv_pos_as_xyz
  1  'x, y, z'
loop_
 _atom_site_type_symbol
 _atom_site_label
 _atom_site_symmetry_multiplicity
 _atom_site_fract_x
 _atom_site_fract_y
 _atom_site_fract_z
 _atom_site_occupancy
  Tb  Tb0  1  0.004250  0.656688  0.716559  1
  Tb  Tb1  1  0.156640  0.495256  0.465388  1
  Tb  Tb2  1  0.501368  0.845533  0.034280  1
  Tb  Tb3  1  0.845530  0.501272  0.965838  1
  Tb  Tb4  1  0.495300  0.156770  0.534484  1
  Tb  Tb5  1  0.343010  0.998489  0.787476  1
  Tb  Tb6  1  0.656794  0.004346  0.283424  1
  Ho  Ho7  1  0.998885  0.343189  0.212382  1
  Hf  Hf8  1  0.825633  0.825539  0.499945  1
  Hf  Hf9  1  0.324195  0.674318  0.248957  1
  Hf  Hf10  1  0.674484  0.324415  0.751030  1
  Hf  Hf11  1  0.148314  0.997055  0.373549  1
  Hf  Hf12  1  0.853313  0.005011  0.877517  1
  Hf  Hf13  1  0.504096  0.648597  0.624682  1
  Hf  Hf14  1  0.349207  0.493008  0.877318  1
  Hf  Hf15  1  0.493046  0.349226  0.122783  1
  Hf  Hf16  1  0.648728  0.503919  0.375222  1
  Hf  Hf17  1  0.996991  0.148510  0.626321  1
  Hf  Hf18  1  0.004935  0.853496  0.122577  1
  Si  Si19  1  0.362335  0.295289  0.316093  1
  Si  Si20  1  0.636368  0.704938  0.817544  1
  Si  Si21  1  0.204981  0.862939  0.567128  1
  Si  Si22  1  0.137396  0.796349  0.933113  1
  Si  Si23  1  0.796741  0.137835  0.067183  1
  Si  Si24  1  0.862933  0.205064  0.432766  1
  Si  Si25  1  0.295164  0.362767  0.683793  1
  Si  Si26  1  0.705226  0.636084  0.182435  1
  Si  Si27  1  0.293750  0.051545  0.182882  1
  Si  Si28  1  0.704317  0.951855  0.685993  1
  Si  Si29  1  0.450690  0.795591  0.435081  1
  Si  Si30  1  0.203934  0.546964  0.064374  1
  Si  Si31  1  0.547362  0.204273  0.935841  1
  Si  Si32  1  0.795609  0.450698  0.564883  1
  Si  Si33  1  0.051282  0.293990  0.817119  1
  Si  Si34  1  0.951960  0.703838  0.313862  1
  Mo  Mo35  1  0.175233  0.175343  0.000176  1
