# generated using pymatgen
data_Er8TmZrIr6
_symmetry_space_group_name_H-M   'P 1'
_cell_length_a   10.78634800
_cell_length_b   10.78634800
_cell_length_c   6.27400900
_cell_angle_alpha   90.00000000
_cell_angle_beta   90.00000000
_cell_angle_gamma   90.00000000
_symmetry_Int_Tables_number   1
_chemical_formula_structural   Er8TmZrIr6
_chemical_formula_sum   'Er16 Tm2 Zr2 Ir12'
_cell_volume   729.95147924
_cell_formula_units_Z   2
loop_
 _symmetry_equiv_pos_site_id
 _symmetry_equiv_pos_as_xyz
  1  'x, y, z'
loop_
 _atom_site_type_symbol
 _atom_site_label
 _atom_site_symmetry_multiplicity
 _atom_site_fract_x
 _atom_site_fract_y
 _atom_site_fract_z
 _atom_site_occupancy
  Er  Er0  1  0.289522  0.086282  0.374807  1
  Er  Er1  1  0.289522  0.913718  0.874807  1
  Er  Er2  1  0.710478  0.086282  0.874807  1
  Er  Er3  1  0.710478  0.913718  0.374807  1
  Er  Er4  1  0.587579  0.792540  0.875034  1
  Er  Er5  1  0.587579  0.207460  0.375034  1
  Er  Er6  1  0.412421  0.792540  0.375034  1
  Er  Er7  1  0.412421  0.207460  0.875034  1
  Er  Er8  1  0.207460  0.412421  0.624966  1
  Er  Er9  1  0.207460  0.587579  0.124966  1
  Er  Er10  1  0.792540  0.412421  0.124966  1
  Er  Er11  1  0.792540  0.587579  0.624966  1
  Er  Er12  1  0.913718  0.710478  0.125193  1
  Er  Er13  1  0.913718  0.289522  0.625193  1
  Er  Er14  1  0.086282  0.710478  0.625193  1
  Er  Er15  1  0.086282  0.289522  0.125193  1
  Tm  Tm16  1  0.500000  0.500000  0.000000  1
  Tm  Tm17  1  0.500000  0.500000  0.500000  1
  Zr  Zr18  1  0.000000  0.000000  0.500000  1
  Zr  Zr19  1  0.000000  0.000000  0.000000  1
  Ir  Ir20  1  0.854323  0.145677  0.250000  1
  Ir  Ir21  1  0.854323  0.854323  0.750000  1
  Ir  Ir22  1  0.145677  0.145677  0.750000  1
  Ir  Ir23  1  0.145677  0.854323  0.250000  1
  Ir  Ir24  1  0.654088  0.345912  0.750000  1
  Ir  Ir25  1  0.654088  0.654088  0.250000  1
  Ir  Ir26  1  0.345912  0.345912  0.250000  1
  Ir  Ir27  1  0.345912  0.654088  0.750000  1
  Ir  Ir28  1  0.500000  0.000000  0.122344  1
  Ir  Ir29  1  0.500000  0.000000  0.622344  1
  Ir  Ir30  1  0.000000  0.500000  0.877656  1
  Ir  Ir31  1  0.000000  0.500000  0.377656  1
