# generated using pymatgen
data_La20GaSi9Hg2
_symmetry_space_group_name_H-M   'P 1'
_cell_length_a   7.92829700
_cell_length_b   7.92829700
_cell_length_c   14.91231000
_cell_angle_alpha   90.00000000
_cell_angle_beta   90.00000000
_cell_angle_gamma   90.00000000
_symmetry_Int_Tables_number   1
_chemical_formula_structural   La20GaSi9Hg2
_chemical_formula_sum   'La20 Ga1 Si9 Hg2'
_cell_volume   937.35639114
_cell_formula_units_Z   1
loop_
 _symmetry_equiv_pos_site_id
 _symmetry_equiv_pos_as_xyz
  1  'x, y, z'
loop_
 _atom_site_type_symbol
 _atom_site_label
 _atom_site_symmetry_multiplicity
 _atom_site_fract_x
 _atom_site_fract_y
 _atom_site_fract_z
 _atom_site_occupancy
  La  La0  1  0.500000  0.000000  0.772615  1
  La  La1  1  0.336866  0.308530  0.107728  1
  La  La2  1  0.821688  0.821555  0.892439  1
  La  La3  1  0.000000  0.500000  0.224245  1
  La  La4  1  0.833819  0.186590  0.389560  1
  La  La5  1  0.178312  0.178445  0.892439  1
  La  La6  1  0.663134  0.691470  0.107728  1
  La  La7  1  0.000000  0.500000  0.727514  1
  La  La8  1  0.817496  0.827223  0.610627  1
  La  La9  1  0.313410  0.333819  0.389560  1
  La  La10  1  0.191470  0.836866  0.107728  1
  La  La11  1  0.182504  0.172777  0.610627  1
  La  La12  1  0.808530  0.163134  0.107728  1
  La  La13  1  0.327223  0.682504  0.610627  1
  La  La14  1  0.500000  0.000000  0.275989  1
  La  La15  1  0.678445  0.321688  0.892439  1
  La  La16  1  0.672777  0.317496  0.610627  1
  La  La17  1  0.321555  0.678312  0.892439  1
  La  La18  1  0.166181  0.813410  0.389560  1
  La  La19  1  0.686590  0.666181  0.389560  1
  Ga  Ga20  1  0.000000  0.500000  0.504448  1
  Si  Si21  1  0.613614  0.386813  0.248232  1
  Si  Si22  1  0.888648  0.113240  0.752001  1
  Si  Si23  1  0.886813  0.886386  0.248232  1
  Si  Si24  1  0.111352  0.886760  0.752001  1
  Si  Si25  1  0.386760  0.388648  0.752001  1
  Si  Si26  1  0.113187  0.113614  0.248232  1
  Si  Si27  1  0.386386  0.613187  0.248232  1
  Si  Si28  1  0.613240  0.611352  0.752001  1
  Si  Si29  1  0.500000  0.000000  0.991268  1
  Hg  Hg30  1  0.500000  0.000000  0.498771  1
  Hg  Hg31  1  0.000000  0.500000  0.002803  1
