# generated using pymatgen
data_Zr6TaTi(Ir2N)2
_symmetry_space_group_name_H-M   'P 1'
_cell_length_a   8.70398807
_cell_length_b   8.69808098
_cell_length_c   8.69808109
_cell_angle_alpha   59.96348515
_cell_angle_beta   59.97753101
_cell_angle_gamma   59.97753125
_symmetry_Int_Tables_number   1
_chemical_formula_structural   Zr6TaTi(Ir2N)2
_chemical_formula_sum   'Zr12 Ta2 Ti2 Ir8 N4'
_cell_volume   465.35319618
_cell_formula_units_Z   2
loop_
 _symmetry_equiv_pos_site_id
 _symmetry_equiv_pos_as_xyz
  1  'x, y, z'
loop_
 _atom_site_type_symbol
 _atom_site_label
 _atom_site_symmetry_multiplicity
 _atom_site_fract_x
 _atom_site_fract_y
 _atom_site_fract_z
 _atom_site_occupancy
  Zr  Zr0  1  0.811008  0.811922  0.187520  1
  Zr  Zr1  1  0.189549  0.187520  0.811922  1
  Zr  Zr2  1  0.811008  0.187520  0.811922  1
  Zr  Zr3  1  0.189549  0.811922  0.187520  1
  Zr  Zr4  1  0.188345  0.811655  0.811655  1
  Zr  Zr5  1  0.811144  0.188856  0.188856  1
  Zr  Zr6  1  0.438992  0.438078  0.062480  1
  Zr  Zr7  1  0.060451  0.062480  0.438078  1
  Zr  Zr8  1  0.438992  0.062480  0.438078  1
  Zr  Zr9  1  0.060451  0.438078  0.062480  1
  Zr  Zr10  1  0.061655  0.438345  0.438345  1
  Zr  Zr11  1  0.438856  0.061144  0.061144  1
  Ta  Ta12  1  0.125000  0.625000  0.625000  1
  Ta  Ta13  1  0.625000  0.625000  0.625000  1
  Ti  Ti14  1  0.625000  0.125000  0.625000  1
  Ti  Ti15  1  0.625000  0.625000  0.125000  1
  Ir  Ir16  1  0.752004  0.414275  0.414275  1
  Ir  Ir17  1  0.417746  0.751728  0.412781  1
  Ir  Ir18  1  0.417746  0.412781  0.751728  1
  Ir  Ir19  1  0.419447  0.414275  0.414275  1
  Ir  Ir20  1  0.497996  0.835725  0.835725  1
  Ir  Ir21  1  0.832254  0.498272  0.837219  1
  Ir  Ir22  1  0.832254  0.837219  0.498272  1
  Ir  Ir23  1  0.830553  0.835725  0.835725  1
  N  N24  1  0.625000  0.125000  0.125000  1
  N  N25  1  0.125000  0.625000  0.125000  1
  N  N26  1  0.125000  0.125000  0.625000  1
  N  N27  1  0.125000  0.125000  0.125000  1
