# generated using pymatgen
data_LiZr2NbPd12
_symmetry_space_group_name_H-M   'P 1'
_cell_length_a   5.66092900
_cell_length_b   5.66092984
_cell_length_c   9.17275400
_cell_angle_alpha   90.00000000
_cell_angle_beta   90.00000000
_cell_angle_gamma   120.00000096
_symmetry_Int_Tables_number   1
_chemical_formula_structural   LiZr2NbPd12
_chemical_formula_sum   'Li1 Zr2 Nb1 Pd12'
_cell_volume   254.56919784
_cell_formula_units_Z   1
loop_
 _symmetry_equiv_pos_site_id
 _symmetry_equiv_pos_as_xyz
  1  'x, y, z'
loop_
 _atom_site_type_symbol
 _atom_site_label
 _atom_site_symmetry_multiplicity
 _atom_site_fract_x
 _atom_site_fract_y
 _atom_site_fract_z
 _atom_site_occupancy
  Li  Li0  1  0.333333  0.666667  0.249778  1
  Zr  Zr1  1  0.000000  0.000000  0.004401  1
  Zr  Zr2  1  0.666667  0.333333  0.751290  1
  Nb  Nb3  1  0.000000  0.000000  0.493459  1
  Pd  Pd4  1  0.499535  0.500465  0.498900  1
  Pd  Pd5  1  0.499535  0.999070  0.498900  1
  Pd  Pd6  1  0.000930  0.500465  0.498900  1
  Pd  Pd7  1  0.499692  0.500308  0.001170  1
  Pd  Pd8  1  0.499692  0.999382  0.001170  1
  Pd  Pd9  1  0.000618  0.500308  0.001170  1
  Pd  Pd10  1  0.831800  0.168200  0.252944  1
  Pd  Pd11  1  0.831800  0.663599  0.252944  1
  Pd  Pd12  1  0.336401  0.168200  0.252944  1
  Pd  Pd13  1  0.167881  0.832119  0.747343  1
  Pd  Pd14  1  0.167881  0.335762  0.747343  1
  Pd  Pd15  1  0.664238  0.832119  0.747343  1
