# generated using pymatgen
data_Pr5TaRhO12
_symmetry_space_group_name_H-M   'P 1'
_cell_length_a   7.13870316
_cell_length_b   7.13870402
_cell_length_c   7.76440751
_cell_angle_alpha   74.19949712
_cell_angle_beta   74.19949550
_cell_angle_gamma   50.29219533
_symmetry_Int_Tables_number   1
_chemical_formula_structural   Pr5TaRhO12
_chemical_formula_sum   'Pr5 Ta1 Rh1 O12'
_cell_volume   290.30624745
_cell_formula_units_Z   1
loop_
 _symmetry_equiv_pos_site_id
 _symmetry_equiv_pos_as_xyz
  1  'x, y, z'
loop_
 _atom_site_type_symbol
 _atom_site_label
 _atom_site_symmetry_multiplicity
 _atom_site_fract_x
 _atom_site_fract_y
 _atom_site_fract_z
 _atom_site_occupancy
  Pr  Pr0  1  0.298977  0.312169  0.358056  1
  Pr  Pr1  1  0.687831  0.701023  0.641944  1
  Pr  Pr2  1  0.686029  0.697436  0.167317  1
  Pr  Pr3  1  0.302564  0.313971  0.832683  1
  Pr  Pr4  1  0.999554  0.000446  0.500000  1
  Ta  Ta5  1  0.783361  0.216639  0.000000  1
  Rh  Rh6  1  0.252173  0.747827  0.000000  1
  O  O7  1  0.091047  0.598108  0.577311  1
  O  O8  1  0.998548  0.000047  0.186304  1
  O  O9  1  0.401892  0.908953  0.422689  1
  O  O10  1  0.508299  0.492286  0.172320  1
  O  O11  1  0.095147  0.581937  0.079926  1
  O  O12  1  0.899289  0.407980  0.423208  1
  O  O13  1  0.999953  0.001452  0.813696  1
  O  O14  1  0.592020  0.100710  0.576792  1
  O  O15  1  0.507714  0.491701  0.827680  1
  O  O16  1  0.579785  0.102244  0.079157  1
  O  O17  1  0.418063  0.904853  0.920074  1
  O  O18  1  0.897756  0.420215  0.920843  1
