# generated using pymatgen
data_YbHo3(TcB4)4
_symmetry_space_group_name_H-M   'P 1'
_cell_length_a   3.58973300
_cell_length_b   5.96047094
_cell_length_c   11.53790071
_cell_angle_alpha   89.99905165
_cell_angle_beta   90.00000000
_cell_angle_gamma   90.00000000
_symmetry_Int_Tables_number   1
_chemical_formula_structural   YbHo3(TcB4)4
_chemical_formula_sum   'Yb1 Ho3 Tc4 B16'
_cell_volume   246.87068363
_cell_formula_units_Z   1
loop_
 _symmetry_equiv_pos_site_id
 _symmetry_equiv_pos_as_xyz
  1  'x, y, z'
loop_
 _atom_site_type_symbol
 _atom_site_label
 _atom_site_symmetry_multiplicity
 _atom_site_fract_x
 _atom_site_fract_y
 _atom_site_fract_z
 _atom_site_occupancy
  Yb  Yb0  1  0.000000  0.371836  0.150219  1
  Ho  Ho1  1  0.000000  0.127927  0.650192  1
  Ho  Ho2  1  0.000000  0.871340  0.349033  1
  Ho  Ho3  1  0.000000  0.627188  0.850236  1
  Tc  Tc4  1  0.000000  0.131064  0.914127  1
  Tc  Tc5  1  0.000000  0.867898  0.084827  1
  Tc  Tc6  1  0.000000  0.633012  0.587415  1
  Tc  Tc7  1  0.000000  0.365960  0.413395  1
  B  B8  1  0.500000  0.476880  0.692857  1
  B  B9  1  0.500000  0.523415  0.307189  1
  B  B10  1  0.500000  0.977855  0.807481  1
  B  B11  1  0.500000  0.022293  0.192240  1
  B  B12  1  0.500000  0.287767  0.815538  1
  B  B13  1  0.500000  0.713242  0.184707  1
  B  B14  1  0.500000  0.787406  0.685405  1
  B  B15  1  0.500000  0.213777  0.314507  1
  B  B16  1  0.500000  0.364573  0.968258  1
  B  B17  1  0.500000  0.635338  0.031826  1
  B  B18  1  0.500000  0.864304  0.531313  1
  B  B19  1  0.500000  0.135468  0.468765  1
  B  B20  1  0.500000  0.386622  0.547510  1
  B  B21  1  0.500000  0.613219  0.452455  1
  B  B22  1  0.500000  0.886901  0.952899  1
  B  B23  1  0.500000  0.114715  0.047609  1
