# generated using pymatgen
data_Ta6AlGa3(CoC)2
_symmetry_space_group_name_H-M   'P 1'
_cell_length_a   8.19757818
_cell_length_b   8.19854639
_cell_length_c   8.19854603
_cell_angle_alpha   60.00831243
_cell_angle_beta   60.00390734
_cell_angle_gamma   60.00390627
_symmetry_Int_Tables_number   1
_chemical_formula_structural   Ta6AlGa3(CoC)2
_chemical_formula_sum   'Ta12 Al2 Ga6 Co4 C4'
_cell_volume   389.67019493
_cell_formula_units_Z   2
loop_
 _symmetry_equiv_pos_site_id
 _symmetry_equiv_pos_as_xyz
  1  'x, y, z'
loop_
 _atom_site_type_symbol
 _atom_site_label
 _atom_site_symmetry_multiplicity
 _atom_site_fract_x
 _atom_site_fract_y
 _atom_site_fract_z
 _atom_site_occupancy
  Ta  Ta0  1  0.560495  0.939277  0.561342  1
  Ta  Ta1  1  0.310421  0.689722  0.689722  1
  Ta  Ta2  1  0.688163  0.310880  0.310880  1
  Ta  Ta3  1  0.311115  0.688658  0.310723  1
  Ta  Ta4  1  0.689414  0.690334  0.310177  1
  Ta  Ta5  1  0.311115  0.310723  0.688658  1
  Ta  Ta6  1  0.560495  0.561342  0.939277  1
  Ta  Ta7  1  0.939865  0.560278  0.560278  1
  Ta  Ta8  1  0.559924  0.939120  0.939120  1
  Ta  Ta9  1  0.939925  0.939823  0.559666  1
  Ta  Ta10  1  0.689414  0.310177  0.690334  1
  Ta  Ta11  1  0.939925  0.559666  0.939823  1
  Al  Al12  1  0.244132  0.918595  0.918595  1
  Al  Al13  1  0.331321  0.331405  0.331405  1
  Ga  Ga14  1  0.917128  0.916606  0.916606  1
  Ga  Ga15  1  0.000339  0.333394  0.333394  1
  Ga  Ga16  1  0.333256  0.000648  0.333324  1
  Ga  Ga17  1  0.333256  0.333324  0.000648  1
  Ga  Ga18  1  0.917229  0.249352  0.916676  1
  Ga  Ga19  1  0.917229  0.916676  0.249352  1
  Co  Co20  1  0.126188  0.123777  0.123777  1
  Co  Co21  1  0.623742  0.126223  0.126223  1
  Co  Co22  1  0.127166  0.625000  0.125000  1
  Co  Co23  1  0.127166  0.125000  0.625000  1
  C  C24  1  0.625331  0.624597  0.624597  1
  C  C25  1  0.124525  0.625403  0.625403  1
  C  C26  1  0.625861  0.125000  0.625000  1
  C  C27  1  0.625861  0.625000  0.125000  1
