# generated using pymatgen
data_NdHo2Er5(CdPt)2
_symmetry_space_group_name_H-M   'P 1'
_cell_length_a   9.67309514
_cell_length_b   9.67309527
_cell_length_c   9.65124600
_cell_angle_alpha   60.07469134
_cell_angle_beta   60.07469089
_cell_angle_gamma   59.85061387
_symmetry_Int_Tables_number   1
_chemical_formula_structural   NdHo2Er5(CdPt)2
_chemical_formula_sum   'Nd2 Ho4 Er10 Cd4 Pt4'
_cell_volume   638.54995382
_cell_formula_units_Z   2
loop_
 _symmetry_equiv_pos_site_id
 _symmetry_equiv_pos_as_xyz
  1  'x, y, z'
loop_
 _atom_site_type_symbol
 _atom_site_label
 _atom_site_symmetry_multiplicity
 _atom_site_fract_x
 _atom_site_fract_y
 _atom_site_fract_z
 _atom_site_occupancy
  Nd  Nd0  1  0.566409  0.566409  0.933591  1
  Nd  Nd1  1  0.933591  0.933591  0.566409  1
  Ho  Ho2  1  0.938025  0.561975  0.561975  1
  Ho  Ho3  1  0.561975  0.938025  0.938025  1
  Ho  Ho4  1  0.561975  0.938025  0.561975  1
  Ho  Ho5  1  0.938025  0.561975  0.938025  1
  Er  Er6  1  0.351077  0.351077  0.351952  1
  Er  Er7  1  0.351077  0.351077  0.945894  1
  Er  Er8  1  0.351952  0.945894  0.351077  1
  Er  Er9  1  0.945894  0.351952  0.351077  1
  Er  Er10  1  0.810926  0.189074  0.189074  1
  Er  Er11  1  0.189074  0.810926  0.810926  1
  Er  Er12  1  0.189074  0.810926  0.189074  1
  Er  Er13  1  0.810926  0.189074  0.810926  1
  Er  Er14  1  0.188955  0.188955  0.811045  1
  Er  Er15  1  0.811045  0.811045  0.188955  1
  Cd  Cd16  1  0.581997  0.581997  0.578699  1
  Cd  Cd17  1  0.581997  0.581997  0.257309  1
  Cd  Cd18  1  0.578699  0.257309  0.581997  1
  Cd  Cd19  1  0.257309  0.578699  0.581997  1
  Pt  Pt20  1  0.143772  0.143772  0.141210  1
  Pt  Pt21  1  0.143772  0.143772  0.571247  1
  Pt  Pt22  1  0.141210  0.571247  0.143772  1
  Pt  Pt23  1  0.571247  0.141210  0.143772  1
