# generated using pymatgen
data_Dy8In2RuAu
_symmetry_space_group_name_H-M   'P 1'
_cell_length_a   9.73813449
_cell_length_b   9.73076488
_cell_length_c   9.73076557
_cell_angle_alpha   60.09952118
_cell_angle_beta   59.97494928
_cell_angle_gamma   59.97494970
_symmetry_Int_Tables_number   1
_chemical_formula_structural   Dy8In2RuAu
_chemical_formula_sum   'Dy16 In4 Ru2 Au2'
_cell_volume   652.25219431
_cell_formula_units_Z   2
loop_
 _symmetry_equiv_pos_site_id
 _symmetry_equiv_pos_as_xyz
  1  'x, y, z'
loop_
 _atom_site_type_symbol
 _atom_site_label
 _atom_site_symmetry_multiplicity
 _atom_site_fract_x
 _atom_site_fract_y
 _atom_site_fract_z
 _atom_site_occupancy
  Dy  Dy0  1  0.433706  0.440887  0.063878  1
  Dy  Dy1  1  0.061529  0.440887  0.063878  1
  Dy  Dy2  1  0.438085  0.061915  0.061915  1
  Dy  Dy3  1  0.061529  0.063878  0.440887  1
  Dy  Dy4  1  0.433706  0.063878  0.440887  1
  Dy  Dy5  1  0.061810  0.438190  0.438190  1
  Dy  Dy6  1  0.808773  0.809718  0.180593  1
  Dy  Dy7  1  0.200916  0.809718  0.180593  1
  Dy  Dy8  1  0.806704  0.193296  0.193296  1
  Dy  Dy9  1  0.200916  0.180593  0.809718  1
  Dy  Dy10  1  0.808773  0.180593  0.809718  1
  Dy  Dy11  1  0.188471  0.811529  0.811529  1
  Dy  Dy12  1  0.647799  0.656740  0.047662  1
  Dy  Dy13  1  0.647799  0.047662  0.656740  1
  Dy  Dy14  1  0.058335  0.653343  0.653343  1
  Dy  Dy15  1  0.634979  0.653343  0.653343  1
  In  In16  1  0.417471  0.416732  0.748325  1
  In  In17  1  0.417471  0.748325  0.416732  1
  In  In18  1  0.749604  0.416934  0.416934  1
  In  In19  1  0.416529  0.416934  0.416934  1
  Ru  Ru20  1  0.425661  0.856708  0.856708  1
  Ru  Ru21  1  0.860923  0.856708  0.856708  1
  Au  Au22  1  0.859256  0.853046  0.428442  1
  Au  Au23  1  0.859256  0.428442  0.853046  1
