# generated using pymatgen
data_NdDy2(NiIr2)3
_symmetry_space_group_name_H-M   'P 1'
_cell_length_a   8.81577015
_cell_length_b   8.81576975
_cell_length_c   8.81576960
_cell_angle_alpha   35.14904989
_cell_angle_beta   35.14905329
_cell_angle_gamma   35.14905091
_symmetry_Int_Tables_number   1
_chemical_formula_structural   NdDy2(NiIr2)3
_chemical_formula_sum   'Nd1 Dy2 Ni3 Ir6'
_cell_volume   202.80827651
_cell_formula_units_Z   1
loop_
 _symmetry_equiv_pos_site_id
 _symmetry_equiv_pos_as_xyz
  1  'x, y, z'
loop_
 _atom_site_type_symbol
 _atom_site_label
 _atom_site_symmetry_multiplicity
 _atom_site_fract_x
 _atom_site_fract_y
 _atom_site_fract_z
 _atom_site_occupancy
  Nd  Nd0  1  0.000000  0.000000  0.000000  1
  Dy  Dy1  1  0.859461  0.859461  0.859461  1
  Dy  Dy2  1  0.140539  0.140539  0.140539  1
  Ni  Ni3  1  0.667059  0.667059  0.667059  1
  Ni  Ni4  1  0.332941  0.332941  0.332941  1
  Ni  Ni5  1  0.500000  0.500000  0.500000  1
  Ir  Ir6  1  0.417296  0.918723  0.417296  1
  Ir  Ir7  1  0.417296  0.417296  0.918723  1
  Ir  Ir8  1  0.918723  0.417296  0.417296  1
  Ir  Ir9  1  0.582704  0.081277  0.582704  1
  Ir  Ir10  1  0.582704  0.582704  0.081277  1
  Ir  Ir11  1  0.081277  0.582704  0.582704  1
