# generated using pymatgen
data_Hf18Re3Mo5PIr
_symmetry_space_group_name_H-M   'P 1'
_cell_length_a   8.66298100
_cell_length_b   8.66298158
_cell_length_c   8.56762500
_cell_angle_alpha   90.00000000
_cell_angle_beta   90.00000000
_cell_angle_gamma   120.00000160
_symmetry_Int_Tables_number   1
_chemical_formula_structural   Hf18Re3Mo5PIr
_chemical_formula_sum   'Hf18 Re3 Mo5 P1 Ir1'
_cell_volume   556.83410484
_cell_formula_units_Z   1
loop_
 _symmetry_equiv_pos_site_id
 _symmetry_equiv_pos_as_xyz
  1  'x, y, z'
loop_
 _atom_site_type_symbol
 _atom_site_label
 _atom_site_symmetry_multiplicity
 _atom_site_fract_x
 _atom_site_fract_y
 _atom_site_fract_z
 _atom_site_occupancy
  Hf  Hf0  1  0.197071  0.802929  0.446152  1
  Hf  Hf1  1  0.197071  0.394141  0.446152  1
  Hf  Hf2  1  0.605859  0.802929  0.446152  1
  Hf  Hf3  1  0.802930  0.197070  0.546273  1
  Hf  Hf4  1  0.802930  0.605859  0.546273  1
  Hf  Hf5  1  0.394141  0.197070  0.546273  1
  Hf  Hf6  1  0.802930  0.197070  0.953727  1
  Hf  Hf7  1  0.802930  0.605859  0.953727  1
  Hf  Hf8  1  0.394141  0.197070  0.953727  1
  Hf  Hf9  1  0.197071  0.802929  0.053848  1
  Hf  Hf10  1  0.197071  0.394141  0.053848  1
  Hf  Hf11  1  0.605859  0.802929  0.053848  1
  Hf  Hf12  1  0.541541  0.458459  0.250000  1
  Hf  Hf13  1  0.541541  0.083081  0.250000  1
  Hf  Hf14  1  0.916919  0.458459  0.250000  1
  Hf  Hf15  1  0.460784  0.539216  0.750000  1
  Hf  Hf16  1  0.460784  0.921569  0.750000  1
  Hf  Hf17  1  0.078431  0.539216  0.750000  1
  Re  Re18  1  0.888466  0.111534  0.250000  1
  Re  Re19  1  0.888466  0.776932  0.250000  1
  Re  Re20  1  0.223068  0.111534  0.250000  1
  Mo  Mo21  1  0.110909  0.889091  0.750000  1
  Mo  Mo22  1  0.110909  0.221819  0.750000  1
  Mo  Mo23  1  0.778181  0.889091  0.750000  1
  Mo  Mo24  1  0.000000  0.000000  0.500451  1
  Mo  Mo25  1  0.000000  0.000000  0.999549  1
  P  P26  1  0.666667  0.333333  0.750000  1
  Ir  Ir27  1  0.333333  0.666667  0.250000  1
