# generated using pymatgen
data_NdThMn12P7
_symmetry_space_group_name_H-M   'P 1'
_cell_length_a   9.39536500
_cell_length_b   9.39536582
_cell_length_c   3.64383100
_cell_angle_alpha   90.00000000
_cell_angle_beta   90.00000000
_cell_angle_gamma   119.99999360
_symmetry_Int_Tables_number   1
_chemical_formula_structural   NdThMn12P7
_chemical_formula_sum   'Nd1 Th1 Mn12 P7'
_cell_volume   278.55838576
_cell_formula_units_Z   1
loop_
 _symmetry_equiv_pos_site_id
 _symmetry_equiv_pos_as_xyz
  1  'x, y, z'
loop_
 _atom_site_type_symbol
 _atom_site_label
 _atom_site_symmetry_multiplicity
 _atom_site_fract_x
 _atom_site_fract_y
 _atom_site_fract_z
 _atom_site_occupancy
  Nd  Nd0  1  0.000000  0.000000  0.500000  1
  Th  Th1  1  0.333333  0.666667  0.000000  1
  Mn  Mn2  1  0.040767  0.283910  0.000000  1
  Mn  Mn3  1  0.716090  0.756857  0.000000  1
  Mn  Mn4  1  0.243143  0.959233  0.000000  1
  Mn  Mn5  1  0.548152  0.060451  0.000000  1
  Mn  Mn6  1  0.939549  0.487702  0.000000  1
  Mn  Mn7  1  0.512298  0.451848  0.000000  1
  Mn  Mn8  1  0.620148  0.893175  0.500000  1
  Mn  Mn9  1  0.106825  0.726972  0.500000  1
  Mn  Mn10  1  0.273028  0.379852  0.500000  1
  Mn  Mn11  1  0.788728  0.226633  0.500000  1
  Mn  Mn12  1  0.773367  0.562096  0.500000  1
  Mn  Mn13  1  0.437904  0.211272  0.500000  1
  P  P14  1  0.780074  0.040458  0.000000  1
  P  P15  1  0.959542  0.739616  0.000000  1
  P  P16  1  0.260384  0.219926  0.000000  1
  P  P17  1  0.389508  0.935086  0.500000  1
  P  P18  1  0.064914  0.454421  0.500000  1
  P  P19  1  0.545579  0.610492  0.500000  1
  P  P20  1  0.666667  0.333333  0.000000  1
