# generated using pymatgen
data_MnZn2Ga10Ir3
_symmetry_space_group_name_H-M   'P 1'
_cell_length_a   6.48227447
_cell_length_b   6.48227468
_cell_length_c   6.81108346
_cell_angle_alpha   89.96871935
_cell_angle_beta   89.96872418
_cell_angle_gamma   90.75336779
_symmetry_Int_Tables_number   1
_chemical_formula_structural   MnZn2Ga10Ir3
_chemical_formula_sum   'Mn1 Zn2 Ga10 Ir3'
_cell_volume   286.17610783
_cell_formula_units_Z   1
loop_
 _symmetry_equiv_pos_site_id
 _symmetry_equiv_pos_as_xyz
  1  'x, y, z'
loop_
 _atom_site_type_symbol
 _atom_site_label
 _atom_site_symmetry_multiplicity
 _atom_site_fract_x
 _atom_site_fract_y
 _atom_site_fract_z
 _atom_site_occupancy
  Mn  Mn0  1  0.340403  0.340403  0.994225  1
  Zn  Zn1  1  0.345568  0.640886  0.238628  1
  Zn  Zn2  1  0.640886  0.345568  0.238628  1
  Ga  Ga3  1  0.002938  0.500935  0.477844  1
  Ga  Ga4  1  0.490952  0.006965  0.006734  1
  Ga  Ga5  1  0.500935  0.002938  0.477844  1
  Ga  Ga6  1  0.006965  0.490952  0.006734  1
  Ga  Ga7  1  0.165401  0.165401  0.741303  1
  Ga  Ga8  1  0.845366  0.845366  0.735809  1
  Ga  Ga9  1  0.646858  0.334177  0.775732  1
  Ga  Ga10  1  0.334177  0.646858  0.775732  1
  Ga  Ga11  1  0.849236  0.849236  0.263214  1
  Ga  Ga12  1  0.160964  0.160964  0.254446  1
  Ir  Ir13  1  0.159720  0.845294  0.508080  1
  Ir  Ir14  1  0.845294  0.159720  0.508080  1
  Ir  Ir15  1  0.664337  0.664337  0.996966  1
