# generated using pymatgen
data_Y3ErGa18(PdRu2)2
_symmetry_space_group_name_H-M   'P 1'
_cell_length_a   7.54466764
_cell_length_b   7.54551574
_cell_length_c   9.65481800
_cell_angle_alpha   90.00000000
_cell_angle_beta   90.00000000
_cell_angle_gamma   119.44312751
_symmetry_Int_Tables_number   1
_chemical_formula_structural   Y3ErGa18(PdRu2)2
_chemical_formula_sum   'Y3 Er1 Ga18 Pd2 Ru4'
_cell_volume   478.64499710
_cell_formula_units_Z   1
loop_
 _symmetry_equiv_pos_site_id
 _symmetry_equiv_pos_as_xyz
  1  'x, y, z'
loop_
 _atom_site_type_symbol
 _atom_site_label
 _atom_site_symmetry_multiplicity
 _atom_site_fract_x
 _atom_site_fract_y
 _atom_site_fract_z
 _atom_site_occupancy
  Y  Y0  1  0.996999  0.672644  0.250000  1
  Y  Y1  1  0.003097  0.327547  0.750000  1
  Y  Y2  1  0.672507  0.997186  0.250000  1
  Er  Er3  1  0.327951  0.002641  0.750000  1
  Ga  Ga4  1  0.134093  0.134158  0.250000  1
  Ga  Ga5  1  0.867475  0.866697  0.750000  1
  Ga  Ga6  1  0.004382  0.340338  0.079204  1
  Ga  Ga7  1  0.996221  0.660480  0.919734  1
  Ga  Ga8  1  0.996221  0.660480  0.580266  1
  Ga  Ga9  1  0.340245  0.004195  0.421414  1
  Ga  Ga10  1  0.004382  0.340338  0.420796  1
  Ga  Ga11  1  0.658826  0.995626  0.580158  1
  Ga  Ga12  1  0.658826  0.995626  0.919842  1
  Ga  Ga13  1  0.340245  0.004195  0.078586  1
  Ga  Ga14  1  0.342542  0.341845  0.565512  1
  Ga  Ga15  1  0.657453  0.657498  0.435309  1
  Ga  Ga16  1  0.657453  0.657498  0.064691  1
  Ga  Ga17  1  0.342542  0.341845  0.934488  1
  Ga  Ga18  1  0.335442  0.550850  0.250000  1
  Ga  Ga19  1  0.663596  0.448244  0.750000  1
  Ga  Ga20  1  0.550615  0.335224  0.250000  1
  Ga  Ga21  1  0.449194  0.665025  0.750000  1
  Pd  Pd22  1  0.000063  0.000024  0.999908  1
  Pd  Pd23  1  0.000063  0.000024  0.500092  1
  Ru  Ru24  1  0.673969  0.325748  0.999736  1
  Ru  Ru25  1  0.325816  0.674138  0.999667  1
  Ru  Ru26  1  0.325816  0.674138  0.500333  1
  Ru  Ru27  1  0.673969  0.325748  0.500264  1
