# generated using pymatgen
data_Yb3InCoO6
_symmetry_space_group_name_H-M   'P 1'
_cell_length_a   6.33401162
_cell_length_b   6.33401173
_cell_length_c   6.33401108
_cell_angle_alpha   90.52594509
_cell_angle_beta   90.52594156
_cell_angle_gamma   90.52594552
_symmetry_Int_Tables_number   1
_chemical_formula_structural   Yb3InCoO6
_chemical_formula_sum   'Yb6 In2 Co2 O12'
_cell_volume   254.08633197
_cell_formula_units_Z   2
loop_
 _symmetry_equiv_pos_site_id
 _symmetry_equiv_pos_as_xyz
  1  'x, y, z'
loop_
 _atom_site_type_symbol
 _atom_site_label
 _atom_site_symmetry_multiplicity
 _atom_site_fract_x
 _atom_site_fract_y
 _atom_site_fract_z
 _atom_site_occupancy
  Yb  Yb0  1  0.379553  0.750000  0.120447  1
  Yb  Yb1  1  0.750000  0.120447  0.379553  1
  Yb  Yb2  1  0.120447  0.379553  0.750000  1
  Yb  Yb3  1  0.879553  0.620447  0.250000  1
  Yb  Yb4  1  0.250000  0.879553  0.620447  1
  Yb  Yb5  1  0.620447  0.250000  0.879553  1
  In  In6  1  0.250000  0.250000  0.250000  1
  In  In7  1  0.750000  0.750000  0.750000  1
  Co  Co8  1  0.500000  0.500000  0.500000  1
  Co  Co9  1  0.000000  0.000000  0.000000  1
  O  O10  1  0.082574  0.947543  0.291923  1
  O  O11  1  0.917426  0.052457  0.708077  1
  O  O12  1  0.708077  0.917426  0.052457  1
  O  O13  1  0.947543  0.291923  0.082574  1
  O  O14  1  0.208077  0.552457  0.417426  1
  O  O15  1  0.052457  0.708077  0.917426  1
  O  O16  1  0.447543  0.582574  0.791923  1
  O  O17  1  0.417426  0.208077  0.552457  1
  O  O18  1  0.552457  0.417426  0.208077  1
  O  O19  1  0.791923  0.447543  0.582574  1
  O  O20  1  0.291923  0.082574  0.947543  1
  O  O21  1  0.582574  0.791923  0.447543  1
