# generated using pymatgen
data_Cs3(CO3)2
_symmetry_space_group_name_H-M   'P 1'
_cell_length_a   8.37132457
_cell_length_b   8.37134074
_cell_length_c   8.37131290
_cell_angle_alpha   42.94689382
_cell_angle_beta   42.94667564
_cell_angle_gamma   42.94630222
_symmetry_Int_Tables_number   1
_chemical_formula_structural   Cs3(CO3)2
_chemical_formula_sum   'Cs3 C2 O6'
_cell_volume   246.80514138
_cell_formula_units_Z   1
loop_
 _symmetry_equiv_pos_site_id
 _symmetry_equiv_pos_as_xyz
  1  'x, y, z'
loop_
 _atom_site_type_symbol
 _atom_site_label
 _atom_site_symmetry_multiplicity
 _atom_site_fract_x
 _atom_site_fract_y
 _atom_site_fract_z
 _atom_site_occupancy
  Cs  Cs0  1  0.207389  0.207411  0.207399  1
  Cs  Cs1  1  0.792611  0.792589  0.792601  1
  Cs  Cs2  1  0.000000  0.000000  0.000000  1
  C  C3  1  0.423535  0.423537  0.423543  1
  C  C4  1  0.576465  0.576463  0.576457  1
  O  O5  1  0.667341  0.301423  0.301442  1
  O  O6  1  0.301435  0.667336  0.301430  1
  O  O7  1  0.698559  0.698583  0.332659  1
  O  O8  1  0.301441  0.301417  0.667341  1
  O  O9  1  0.698565  0.332665  0.698570  1
  O  O10  1  0.332660  0.698577  0.698558  1
