# generated using pymatgen
data_Pr20Ir7PdRu4
_symmetry_space_group_name_H-M   'P 1'
_cell_length_a   11.33291187
_cell_length_b   11.33291187
_cell_length_c   6.68614950
_cell_angle_alpha   90.15003094
_cell_angle_beta   90.15003094
_cell_angle_gamma   89.97908277
_symmetry_Int_Tables_number   1
_chemical_formula_structural   Pr20Ir7PdRu4
_chemical_formula_sum   'Pr20 Ir7 Pd1 Ru4'
_cell_volume   858.72894119
_cell_formula_units_Z   1
loop_
 _symmetry_equiv_pos_site_id
 _symmetry_equiv_pos_as_xyz
  1  'x, y, z'
loop_
 _atom_site_type_symbol
 _atom_site_label
 _atom_site_symmetry_multiplicity
 _atom_site_fract_x
 _atom_site_fract_y
 _atom_site_fract_z
 _atom_site_occupancy
  Pr  Pr0  1  0.292018  0.087547  0.383266  1
  Pr  Pr1  1  0.294758  0.910904  0.882490  1
  Pr  Pr2  1  0.702766  0.086252  0.872752  1
  Pr  Pr3  1  0.704587  0.906044  0.384456  1
  Pr  Pr4  1  0.588482  0.792274  0.883955  1
  Pr  Pr5  1  0.582457  0.206987  0.382071  1
  Pr  Pr6  1  0.409948  0.793401  0.383436  1
  Pr  Pr7  1  0.410235  0.206638  0.884031  1
  Pr  Pr8  1  0.207726  0.411518  0.616045  1
  Pr  Pr9  1  0.206599  0.590052  0.116564  1
  Pr  Pr10  1  0.793013  0.417543  0.117929  1
  Pr  Pr11  1  0.793362  0.589765  0.615969  1
  Pr  Pr12  1  0.912453  0.707982  0.116734  1
  Pr  Pr13  1  0.913748  0.297234  0.627248  1
  Pr  Pr14  1  0.089096  0.705242  0.617510  1
  Pr  Pr15  1  0.093956  0.295413  0.115544  1
  Pr  Pr16  1  0.001300  0.997736  0.500768  1
  Pr  Pr17  1  0.002264  0.998700  0.999232  1
  Pr  Pr18  1  0.499361  0.500049  0.999505  1
  Pr  Pr19  1  0.499951  0.500639  0.500495  1
  Ir  Ir20  1  0.848668  0.848921  0.749774  1
  Ir  Ir21  1  0.151079  0.151332  0.750226  1
  Ir  Ir22  1  0.153572  0.846428  0.250000  1
  Ir  Ir23  1  0.653791  0.346209  0.750000  1
  Ir  Ir24  1  0.652922  0.652003  0.249821  1
  Ir  Ir25  1  0.347997  0.347078  0.250179  1
  Ir  Ir26  1  0.347265  0.652735  0.750000  1
  Pd  Pd27  1  0.845126  0.154874  0.250000  1
  Ru  Ru28  1  0.501795  0.000548  0.118576  1
  Ru  Ru29  1  0.500905  0.000651  0.617284  1
  Ru  Ru30  1  0.999349  0.499095  0.882716  1
  Ru  Ru31  1  0.999452  0.498205  0.381424  1
