# generated using pymatgen
data_DyHo7(TmIr2)2
_symmetry_space_group_name_H-M   'P 1'
_cell_length_a   6.46012056
_cell_length_b   7.18818771
_cell_length_c   8.47135354
_cell_angle_alpha   96.43870416
_cell_angle_beta   112.35843068
_cell_angle_gamma   89.96321089
_symmetry_Int_Tables_number   1
_chemical_formula_structural   DyHo7(TmIr2)2
_chemical_formula_sum   'Dy1 Ho7 Tm2 Ir4'
_cell_volume   361.13427059
_cell_formula_units_Z   1
loop_
 _symmetry_equiv_pos_site_id
 _symmetry_equiv_pos_as_xyz
  1  'x, y, z'
loop_
 _atom_site_type_symbol
 _atom_site_label
 _atom_site_symmetry_multiplicity
 _atom_site_fract_x
 _atom_site_fract_y
 _atom_site_fract_z
 _atom_site_occupancy
  Dy  Dy0  1  0.970398  0.919064  0.181992  1
  Ho  Ho1  1  0.788809  0.581256  0.817926  1
  Ho  Ho2  1  0.029450  0.081156  0.817966  1
  Ho  Ho3  1  0.211197  0.418681  0.181896  1
  Ho  Ho4  1  0.653664  0.817096  0.441226  1
  Ho  Ho5  1  0.212791  0.682518  0.558792  1
  Ho  Ho6  1  0.346381  0.182947  0.559095  1
  Ho  Ho7  1  0.787283  0.317433  0.441346  1
  Tm  Tm8  1  0.428182  0.750009  0.999945  1
  Tm  Tm9  1  0.571565  0.250012  0.999888  1
  Ir  Ir10  1  0.823692  0.572513  0.217749  1
  Ir  Ir11  1  0.605769  0.927007  0.782257  1
  Ir  Ir12  1  0.176153  0.427086  0.782313  1
  Ir  Ir13  1  0.394668  0.073221  0.217609  1
