# generated using pymatgen
data_Yb4InGePt4
_symmetry_space_group_name_H-M   'P 1'
_cell_length_a   5.66960710
_cell_length_b   5.66960642
_cell_length_c   8.05231557
_cell_angle_alpha   77.93398742
_cell_angle_beta   77.93398807
_cell_angle_gamma   59.18411001
_symmetry_Int_Tables_number   1
_chemical_formula_structural   Yb4InGePt4
_chemical_formula_sum   'Yb4 In1 Ge1 Pt4'
_cell_volume   215.77526675
_cell_formula_units_Z   1
loop_
 _symmetry_equiv_pos_site_id
 _symmetry_equiv_pos_as_xyz
  1  'x, y, z'
loop_
 _atom_site_type_symbol
 _atom_site_label
 _atom_site_symmetry_multiplicity
 _atom_site_fract_x
 _atom_site_fract_y
 _atom_site_fract_z
 _atom_site_occupancy
  Yb  Yb0  1  0.789540  0.507121  0.346139  1
  Yb  Yb1  1  0.492879  0.210460  0.153861  1
  Yb  Yb2  1  0.202615  0.496121  0.645404  1
  Yb  Yb3  1  0.503879  0.797385  0.854596  1
  In  In4  1  0.841141  0.158859  0.750000  1
  Ge  Ge5  1  0.146074  0.853926  0.250000  1
  Pt  Pt6  1  0.008805  0.729446  0.010286  1
  Pt  Pt7  1  0.270554  0.991195  0.489714  1
  Pt  Pt8  1  0.005925  0.261414  0.009958  1
  Pt  Pt9  1  0.738586  0.994075  0.490042  1
