# generated using pymatgen
data_Sr2AuBrO2
_symmetry_space_group_name_H-M   'P 1'
_cell_length_a   10.13820358
_cell_length_b   10.13820383
_cell_length_c   10.13820413
_cell_angle_alpha   23.40497283
_cell_angle_beta   23.40496989
_cell_angle_gamma   23.40496835
_symmetry_Int_Tables_number   1
_chemical_formula_structural   Sr2AuBrO2
_chemical_formula_sum   'Sr2 Au1 Br1 O2'
_cell_volume   144.37323913
_cell_formula_units_Z   1
loop_
 _symmetry_equiv_pos_site_id
 _symmetry_equiv_pos_as_xyz
  1  'x, y, z'
loop_
 _atom_site_type_symbol
 _atom_site_label
 _atom_site_symmetry_multiplicity
 _atom_site_fract_x
 _atom_site_fract_y
 _atom_site_fract_z
 _atom_site_occupancy
  Sr  Sr0  1  0.254973  0.254973  0.254973  1
  Sr  Sr1  1  0.745027  0.745027  0.745027  1
  Au  Au2  1  0.500000  0.500000  0.500000  1
  Br  Br3  1  0.000000  0.000000  0.000000  1
  O  O4  1  0.431119  0.431119  0.431119  1
  O  O5  1  0.568881  0.568881  0.568881  1
