# generated using pymatgen
data_Zr2Si7Ni11Rh
_symmetry_space_group_name_H-M   'P 1'
_cell_length_a   9.12114399
_cell_length_b   9.20992969
_cell_length_c   3.63693400
_cell_angle_alpha   90.00000000
_cell_angle_beta   90.00000000
_cell_angle_gamma   120.34403116
_symmetry_Int_Tables_number   1
_chemical_formula_structural   Zr2Si7Ni11Rh
_chemical_formula_sum   'Zr2 Si7 Ni11 Rh1'
_cell_volume   263.66692397
_cell_formula_units_Z   1
loop_
 _symmetry_equiv_pos_site_id
 _symmetry_equiv_pos_as_xyz
  1  'x, y, z'
loop_
 _atom_site_type_symbol
 _atom_site_label
 _atom_site_symmetry_multiplicity
 _atom_site_fract_x
 _atom_site_fract_y
 _atom_site_fract_z
 _atom_site_occupancy
  Zr  Zr0  1  0.998827  0.000142  0.000000  1
  Zr  Zr1  1  0.332715  0.668447  0.500000  1
  Si  Si2  1  0.665548  0.333617  0.000000  1
  Si  Si3  1  0.072544  0.453129  0.000000  1
  Si  Si4  1  0.258185  0.217127  0.500000  1
  Si  Si5  1  0.779349  0.038021  0.500000  1
  Si  Si6  1  0.961443  0.746959  0.500000  1
  Si  Si7  1  0.543904  0.615271  0.000000  1
  Si  Si8  1  0.387849  0.931698  0.000000  1
  Ni  Ni9  1  0.282970  0.388670  0.000000  1
  Ni  Ni10  1  0.110265  0.718330  0.000000  1
  Ni  Ni11  1  0.544280  0.427400  0.500000  1
  Ni  Ni12  1  0.384239  0.176076  0.000000  1
  Ni  Ni13  1  0.790901  0.619208  0.000000  1
  Ni  Ni14  1  0.820865  0.204074  0.000000  1
  Ni  Ni15  1  0.238053  0.952247  0.500000  1
  Ni  Ni16  1  0.049000  0.280449  0.500000  1
  Ni  Ni17  1  0.714657  0.763866  0.500000  1
  Ni  Ni18  1  0.574175  0.121325  0.500000  1
  Ni  Ni19  1  0.609747  0.888924  0.000000  1
  Rh  Rh20  1  0.880484  0.455020  0.500000  1
