# generated using pymatgen
data_Pr4Zn8Cd3Ag
_symmetry_space_group_name_H-M   'P 1'
_cell_length_a   4.54814300
_cell_length_b   7.40042610
_cell_length_c   10.23026772
_cell_angle_alpha   89.75161500
_cell_angle_beta   90.00000000
_cell_angle_gamma   90.00000000
_symmetry_Int_Tables_number   1
_chemical_formula_structural   Pr4Zn8Cd3Ag
_chemical_formula_sum   'Pr4 Zn8 Cd3 Ag1'
_cell_volume   344.32912215
_cell_formula_units_Z   1
loop_
 _symmetry_equiv_pos_site_id
 _symmetry_equiv_pos_as_xyz
  1  'x, y, z'
loop_
 _atom_site_type_symbol
 _atom_site_label
 _atom_site_symmetry_multiplicity
 _atom_site_fract_x
 _atom_site_fract_y
 _atom_site_fract_z
 _atom_site_occupancy
  Pr  Pr0  1  0.250000  0.308828  0.673206  1
  Pr  Pr1  1  0.250000  0.812225  0.822454  1
  Pr  Pr2  1  0.750000  0.690615  0.329643  1
  Pr  Pr3  1  0.750000  0.191421  0.173213  1
  Zn  Zn4  1  0.250000  0.903154  0.145447  1
  Zn  Zn5  1  0.250000  0.401296  0.356695  1
  Zn  Zn6  1  0.750000  0.098335  0.850607  1
  Zn  Zn7  1  0.750000  0.605964  0.644808  1
  Zn  Zn8  1  0.250000  0.184178  0.964102  1
  Zn  Zn9  1  0.250000  0.683564  0.535420  1
  Zn  Zn10  1  0.750000  0.813741  0.035388  1
  Zn  Zn11  1  0.750000  0.305781  0.465458  1
  Cd  Cd12  1  0.250000  0.526940  0.096018  1
  Cd  Cd13  1  0.250000  0.023712  0.408533  1
  Cd  Cd14  1  0.750000  0.474355  0.902669  1
  Ag  Ag15  1  0.750000  0.975890  0.596338  1
