# generated using pymatgen
data_Nb8TlFeSe16
_symmetry_space_group_name_H-M   'P 1'
_cell_length_a   6.97211311
_cell_length_b   6.97196179
_cell_length_c   14.98678100
_cell_angle_alpha   89.99796193
_cell_angle_beta   90.01019013
_cell_angle_gamma   119.99901401
_symmetry_Int_Tables_number   1
_chemical_formula_structural   Nb8TlFeSe16
_chemical_formula_sum   'Nb8 Tl1 Fe1 Se16'
_cell_volume   630.90318845
_cell_formula_units_Z   1
loop_
 _symmetry_equiv_pos_site_id
 _symmetry_equiv_pos_as_xyz
  1  'x, y, z'
loop_
 _atom_site_type_symbol
 _atom_site_label
 _atom_site_symmetry_multiplicity
 _atom_site_fract_x
 _atom_site_fract_y
 _atom_site_fract_z
 _atom_site_occupancy
  Nb  Nb0  1  0.999977  0.999999  0.206583  1
  Nb  Nb1  1  0.000023  0.000001  0.793417  1
  Nb  Nb2  1  0.506991  0.013998  0.203600  1
  Nb  Nb3  1  0.985936  0.492965  0.203606  1
  Nb  Nb4  1  0.506983  0.492998  0.203601  1
  Nb  Nb5  1  0.493009  0.986002  0.796400  1
  Nb  Nb6  1  0.014064  0.507035  0.796394  1
  Nb  Nb7  1  0.493017  0.507002  0.796399  1
  Tl  Tl8  1  0.000000  0.000000  0.500000  1
  Fe  Fe9  1  0.000000  0.000000  0.000000  1
  Se  Se10  1  0.333433  0.666701  0.911061  1
  Se  Se11  1  0.666567  0.333299  0.088939  1
  Se  Se12  1  0.666684  0.333335  0.320158  1
  Se  Se13  1  0.333316  0.666665  0.679842  1
  Se  Se14  1  0.168164  0.831877  0.316032  1
  Se  Se15  1  0.168166  0.336275  0.316034  1
  Se  Se16  1  0.663771  0.831871  0.316028  1
  Se  Se17  1  0.831836  0.168123  0.683968  1
  Se  Se18  1  0.831834  0.663725  0.683966  1
  Se  Se19  1  0.336229  0.168129  0.683972  1
  Se  Se20  1  0.835270  0.164848  0.905546  1
  Se  Se21  1  0.835269  0.670396  0.905555  1
  Se  Se22  1  0.329675  0.164827  0.905580  1
  Se  Se23  1  0.164730  0.835152  0.094454  1
  Se  Se24  1  0.164731  0.329604  0.094445  1
  Se  Se25  1  0.670325  0.835173  0.094420  1
