# generated using pymatgen
data_Nd2Zn(GeRh2)3
_symmetry_space_group_name_H-M   'P 1'
_cell_length_a   6.81024079
_cell_length_b   6.82034819
_cell_length_c   6.81024101
_cell_angle_alpha   130.74880445
_cell_angle_beta   112.44539359
_cell_angle_gamma   87.96770344
_symmetry_Int_Tables_number   1
_chemical_formula_structural   Nd2Zn(GeRh2)3
_chemical_formula_sum   'Nd2 Zn1 Ge3 Rh6'
_cell_volume   210.91224291
_cell_formula_units_Z   1
loop_
 _symmetry_equiv_pos_site_id
 _symmetry_equiv_pos_as_xyz
  1  'x, y, z'
loop_
 _atom_site_type_symbol
 _atom_site_label
 _atom_site_symmetry_multiplicity
 _atom_site_fract_x
 _atom_site_fract_y
 _atom_site_fract_z
 _atom_site_occupancy
  Nd  Nd0  1  0.747696  0.045332  0.297635  1
  Nd  Nd1  1  0.253689  0.965527  0.711838  1
  Zn  Zn2  1  0.587705  0.384518  0.796814  1
  Ge  Ge3  1  0.429944  0.632076  0.202131  1
  Ge  Ge4  1  0.076524  0.282182  0.205658  1
  Ge  Ge5  1  0.905265  0.696204  0.790939  1
  Rh  Rh6  1  0.216858  0.502567  0.719505  1
  Rh  Rh7  1  0.728566  0.998137  0.729286  1
  Rh  Rh8  1  0.783062  0.502567  0.285709  1
  Rh  Rh9  1  0.268851  0.998137  0.269570  1
  Rh  Rh10  1  0.485017  0.496376  0.479553  1
  Rh  Rh11  1  0.016823  0.496376  0.011360  1
