# generated using pymatgen
data_SmSiPtRh
_symmetry_space_group_name_H-M   'P 1'
_cell_length_a   9.28935834
_cell_length_b   9.28935804
_cell_length_c   4.10893700
_cell_angle_alpha   90.00000000
_cell_angle_beta   90.00000000
_cell_angle_gamma   154.95679789
_symmetry_Int_Tables_number   1
_chemical_formula_structural   SmSiPtRh
_chemical_formula_sum   'Sm2 Si2 Pt2 Rh2'
_cell_volume   150.08964265
_cell_formula_units_Z   2
loop_
 _symmetry_equiv_pos_site_id
 _symmetry_equiv_pos_as_xyz
  1  'x, y, z'
loop_
 _atom_site_type_symbol
 _atom_site_label
 _atom_site_symmetry_multiplicity
 _atom_site_fract_x
 _atom_site_fract_y
 _atom_site_fract_z
 _atom_site_occupancy
  Sm  Sm0  1  0.103688  0.896312  0.750000  1
  Sm  Sm1  1  0.896312  0.103688  0.250000  1
  Si  Si2  1  0.319675  0.680325  0.750000  1
  Si  Si3  1  0.680325  0.319675  0.250000  1
  Pt  Pt4  1  0.549258  0.450742  0.250000  1
  Pt  Pt5  1  0.450742  0.549258  0.750000  1
  Rh  Rh6  1  0.250154  0.749846  0.250000  1
  Rh  Rh7  1  0.749846  0.250154  0.750000  1
