# generated using pymatgen
data_Yb3ScCoO6
_symmetry_space_group_name_H-M   'P 1'
_cell_length_a   6.28172418
_cell_length_b   6.28172353
_cell_length_c   6.28172330
_cell_angle_alpha   91.88982122
_cell_angle_beta   91.88981986
_cell_angle_gamma   91.88981772
_symmetry_Int_Tables_number   1
_chemical_formula_structural   Yb3ScCoO6
_chemical_formula_sum   'Yb6 Sc2 Co2 O12'
_cell_volume   247.46355187
_cell_formula_units_Z   2
loop_
 _symmetry_equiv_pos_site_id
 _symmetry_equiv_pos_as_xyz
  1  'x, y, z'
loop_
 _atom_site_type_symbol
 _atom_site_label
 _atom_site_symmetry_multiplicity
 _atom_site_fract_x
 _atom_site_fract_y
 _atom_site_fract_z
 _atom_site_occupancy
  Yb  Yb0  1  0.380442  0.750000  0.119558  1
  Yb  Yb1  1  0.750000  0.119558  0.380442  1
  Yb  Yb2  1  0.119558  0.380442  0.750000  1
  Yb  Yb3  1  0.880442  0.619558  0.250000  1
  Yb  Yb4  1  0.250000  0.880442  0.619558  1
  Yb  Yb5  1  0.619558  0.250000  0.880442  1
  Sc  Sc6  1  0.250000  0.250000  0.250000  1
  Sc  Sc7  1  0.750000  0.750000  0.750000  1
  Co  Co8  1  0.500000  0.500000  0.500000  1
  Co  Co9  1  0.000000  0.000000  0.000000  1
  O  O10  1  0.088011  0.954000  0.293686  1
  O  O11  1  0.911989  0.046000  0.706314  1
  O  O12  1  0.706314  0.911989  0.046000  1
  O  O13  1  0.954000  0.293686  0.088011  1
  O  O14  1  0.206314  0.546000  0.411989  1
  O  O15  1  0.046000  0.706314  0.911989  1
  O  O16  1  0.454000  0.588011  0.793686  1
  O  O17  1  0.411989  0.206314  0.546000  1
  O  O18  1  0.546000  0.411989  0.206314  1
  O  O19  1  0.793686  0.454000  0.588011  1
  O  O20  1  0.293686  0.088011  0.954000  1
  O  O21  1  0.588011  0.793686  0.454000  1
