# generated using pymatgen
data_Sr7NpSi2N9
_symmetry_space_group_name_H-M   'P 1'
_cell_length_a   10.48484200
_cell_length_b   6.50586266
_cell_length_c   9.60882029
_cell_angle_alpha   89.23918898
_cell_angle_beta   90.00000000
_cell_angle_gamma   90.00000000
_symmetry_Int_Tables_number   1
_chemical_formula_structural   Sr7NpSi2N9
_chemical_formula_sum   'Sr14 Np2 Si4 N18'
_cell_volume   655.38811803
_cell_formula_units_Z   2
loop_
 _symmetry_equiv_pos_site_id
 _symmetry_equiv_pos_as_xyz
  1  'x, y, z'
loop_
 _atom_site_type_symbol
 _atom_site_label
 _atom_site_symmetry_multiplicity
 _atom_site_fract_x
 _atom_site_fract_y
 _atom_site_fract_z
 _atom_site_occupancy
  Sr  Sr0  1  0.944636  0.431923  0.167633  1
  Sr  Sr1  1  0.084647  0.248057  0.492235  1
  Sr  Sr2  1  0.250000  0.104648  0.799445  1
  Sr  Sr3  1  0.444636  0.568077  0.832367  1
  Sr  Sr4  1  0.584647  0.751943  0.507765  1
  Sr  Sr5  1  0.581494  0.069958  0.833964  1
  Sr  Sr6  1  0.918506  0.069958  0.833964  1
  Sr  Sr7  1  0.418506  0.930042  0.166036  1
  Sr  Sr8  1  0.415353  0.248057  0.492235  1
  Sr  Sr9  1  0.081494  0.930042  0.166036  1
  Sr  Sr10  1  0.915353  0.751943  0.507765  1
  Sr  Sr11  1  0.055364  0.568077  0.832367  1
  Sr  Sr12  1  0.750000  0.895352  0.200555  1
  Sr  Sr13  1  0.555364  0.431923  0.167633  1
  Np  Np14  1  0.750000  0.267718  0.453799  1
  Np  Np15  1  0.250000  0.732282  0.546201  1
  Si  Si16  1  0.250000  0.325684  0.066950  1
  Si  Si17  1  0.750000  0.463998  0.723762  1
  Si  Si18  1  0.750000  0.674316  0.933050  1
  Si  Si19  1  0.250000  0.536002  0.276238  1
  N  N20  1  0.392956  0.236845  0.989233  1
  N  N21  1  0.250000  0.262391  0.253168  1
  N  N22  1  0.899812  0.120361  0.342001  1
  N  N23  1  0.615830  0.372018  0.631768  1
  N  N24  1  0.750000  0.549045  0.341428  1
  N  N25  1  0.250000  0.605112  0.095087  1
  N  N26  1  0.884170  0.372018  0.631768  1
  N  N27  1  0.384170  0.627982  0.368232  1
  N  N28  1  0.750000  0.394888  0.904913  1
  N  N29  1  0.100188  0.879639  0.657999  1
  N  N30  1  0.750000  0.737609  0.746832  1
  N  N31  1  0.115830  0.627982  0.368232  1
  N  N32  1  0.607044  0.763155  0.010767  1
  N  N33  1  0.250000  0.450955  0.658572  1
  N  N34  1  0.399812  0.879639  0.657999  1
  N  N35  1  0.600188  0.120361  0.342001  1
  N  N36  1  0.107044  0.236845  0.989233  1
  N  N37  1  0.892956  0.763155  0.010767  1
