# generated using pymatgen
data_Nd3Zr(Al8Pt3)3
_symmetry_space_group_name_H-M   'P 1'
_cell_length_a   7.56445875
_cell_length_b   7.57117097
_cell_length_c   13.21471185
_cell_angle_alpha   84.51680369
_cell_angle_beta   79.01752400
_cell_angle_gamma   59.88319171
_symmetry_Int_Tables_number   1
_chemical_formula_structural   Nd3Zr(Al8Pt3)3
_chemical_formula_sum   'Nd3 Zr1 Al24 Pt9'
_cell_volume   642.67178137
_cell_formula_units_Z   1
loop_
 _symmetry_equiv_pos_site_id
 _symmetry_equiv_pos_as_xyz
  1  'x, y, z'
loop_
 _atom_site_type_symbol
 _atom_site_label
 _atom_site_symmetry_multiplicity
 _atom_site_fract_x
 _atom_site_fract_y
 _atom_site_fract_z
 _atom_site_occupancy
  Nd  Nd0  1  0.606529  0.832361  0.190762  1
  Nd  Nd1  1  0.733438  0.498447  0.808273  1
  Nd  Nd2  1  0.267101  0.501486  0.190804  1
  Zr  Zr3  1  0.393707  0.168146  0.808138  1
  Al  Al4  1  0.681660  0.838000  0.941973  1
  Al  Al5  1  0.315619  0.166475  0.050406  1
  Al  Al6  1  0.146312  0.832976  0.562391  1
  Al  Al7  1  0.852697  0.166948  0.439579  1
  Al  Al8  1  0.480151  0.166959  0.561036  1
  Al  Al9  1  0.518698  0.834002  0.442263  1
  Al  Al10  1  0.215222  0.165548  0.333870  1
  Al  Al11  1  0.779950  0.837599  0.670969  1
  Al  Al12  1  0.436308  0.504176  0.671292  1
  Al  Al13  1  0.561767  0.492987  0.333284  1
  Al  Al14  1  0.112714  0.159306  0.670131  1
  Al  Al15  1  0.888877  0.840376  0.334621  1
  Al  Al16  1  0.352328  0.496170  0.941871  1
  Al  Al17  1  0.650733  0.497788  0.053537  1
  Al  Al18  1  0.019697  0.166776  0.951369  1
  Al  Al19  1  0.985882  0.834636  0.042576  1
  Al  Al20  1  0.186519  0.499260  0.442124  1
  Al  Al21  1  0.813850  0.500176  0.559022  1
  Al  Al22  1  0.735735  0.163754  0.184227  1
  Al  Al23  1  0.263533  0.844450  0.815731  1
  Al  Al24  1  0.068987  0.625644  0.814326  1
  Al  Al25  1  0.939693  0.366526  0.184997  1
  Al  Al26  1  0.850334  0.038908  0.814907  1
  Al  Al27  1  0.142785  0.960656  0.184211  1
  Pt  Pt28  1  0.120790  0.491754  0.638616  1
  Pt  Pt29  1  0.878357  0.506801  0.363363  1
  Pt  Pt30  1  0.658602  0.171362  0.998084  1
  Pt  Pt31  1  0.343169  0.828102  0.998406  1
  Pt  Pt32  1  0.538278  0.166710  0.363867  1
  Pt  Pt33  1  0.462284  0.833362  0.638643  1
  Pt  Pt34  1  0.779110  0.175013  0.637519  1
  Pt  Pt35  1  0.218698  0.826166  0.364736  1
  Pt  Pt36  1  0.999892  0.500196  0.998077  1
