# generated using pymatgen
data_LiCa3Ag2As3
_symmetry_space_group_name_H-M   'P 1'
_cell_length_a   7.22850912
_cell_length_b   7.20046149
_cell_length_c   4.29867200
_cell_angle_alpha   90.00000000
_cell_angle_beta   90.00000000
_cell_angle_gamma   119.87172073
_symmetry_Int_Tables_number   1
_chemical_formula_structural   LiCa3Ag2As3
_chemical_formula_sum   'Li1 Ca3 Ag2 As3'
_cell_volume   194.01438703
_cell_formula_units_Z   1
loop_
 _symmetry_equiv_pos_site_id
 _symmetry_equiv_pos_as_xyz
  1  'x, y, z'
loop_
 _atom_site_type_symbol
 _atom_site_label
 _atom_site_symmetry_multiplicity
 _atom_site_fract_x
 _atom_site_fract_y
 _atom_site_fract_z
 _atom_site_occupancy
  Li  Li0  1  0.000000  0.237590  0.000000  1
  Ca  Ca1  1  0.000000  0.591003  0.500000  1
  Ca  Ca2  1  0.419748  0.416163  0.500000  1
  Ca  Ca3  1  0.580252  0.996415  0.500000  1
  Ag  Ag4  1  0.752217  0.753069  0.000000  1
  Ag  Ag5  1  0.247783  0.000852  0.000000  1
  As  As6  1  0.000000  0.012660  0.500000  1
  As  As7  1  0.327430  0.659840  0.000000  1
  As  As8  1  0.672570  0.332409  0.000000  1
