# generated using pymatgen
data_HfSc11Mn3Si12Ru
_symmetry_space_group_name_H-M   'P 1'
_cell_length_a   3.93947600
_cell_length_b   10.31722439
_cell_length_c   11.73441043
_cell_angle_alpha   90.06140389
_cell_angle_beta   90.00000000
_cell_angle_gamma   90.00000000
_symmetry_Int_Tables_number   1
_chemical_formula_structural   HfSc11Mn3Si12Ru
_chemical_formula_sum   'Hf1 Sc11 Mn3 Si12 Ru1'
_cell_volume   476.93847615
_cell_formula_units_Z   1
loop_
 _symmetry_equiv_pos_site_id
 _symmetry_equiv_pos_as_xyz
  1  'x, y, z'
loop_
 _atom_site_type_symbol
 _atom_site_label
 _atom_site_symmetry_multiplicity
 _atom_site_fract_x
 _atom_site_fract_y
 _atom_site_fract_z
 _atom_site_occupancy
  Hf  Hf0  1  0.250000  0.875435  0.017753  1
  Sc  Sc1  1  0.250000  0.621696  0.521504  1
  Sc  Sc2  1  0.750000  0.122254  0.979331  1
  Sc  Sc3  1  0.750000  0.379401  0.478824  1
  Sc  Sc4  1  0.250000  0.923825  0.603450  1
  Sc  Sc5  1  0.250000  0.576878  0.103656  1
  Sc  Sc6  1  0.750000  0.076315  0.394710  1
  Sc  Sc7  1  0.750000  0.423451  0.897040  1
  Sc  Sc8  1  0.250000  0.660562  0.799381  1
  Sc  Sc9  1  0.250000  0.836304  0.300167  1
  Sc  Sc10  1  0.750000  0.341796  0.201125  1
  Sc  Sc11  1  0.750000  0.161867  0.701011  1
  Mn  Mn12  1  0.250000  0.386715  0.676868  1
  Mn  Mn13  1  0.750000  0.613691  0.322879  1
  Mn  Mn14  1  0.750000  0.886996  0.826968  1
  Si  Si15  1  0.250000  0.016071  0.822894  1
  Si  Si16  1  0.250000  0.485614  0.322931  1
  Si  Si17  1  0.750000  0.981384  0.174522  1
  Si  Si18  1  0.750000  0.516266  0.677101  1
  Si  Si19  1  0.250000  0.253587  0.841516  1
  Si  Si20  1  0.250000  0.247949  0.342098  1
  Si  Si21  1  0.750000  0.746584  0.158303  1
  Si  Si22  1  0.750000  0.754718  0.659972  1
  Si  Si23  1  0.250000  0.195049  0.544095  1
  Si  Si24  1  0.250000  0.305952  0.043703  1
  Si  Si25  1  0.750000  0.804333  0.456753  1
  Si  Si26  1  0.750000  0.695483  0.955914  1
  Ru  Ru27  1  0.250000  0.109825  0.175534  1
