# generated using pymatgen
data_Gd3Ga5Pd
_symmetry_space_group_name_H-M   'P 1'
_cell_length_a   7.01853000
_cell_length_b   7.01853063
_cell_length_c   4.34212300
_cell_angle_alpha   90.00000000
_cell_angle_beta   90.00000000
_cell_angle_gamma   119.99999705
_symmetry_Int_Tables_number   1
_chemical_formula_structural   Gd3Ga5Pd
_chemical_formula_sum   'Gd3 Ga5 Pd1'
_cell_volume   185.23588566
_cell_formula_units_Z   1
loop_
 _symmetry_equiv_pos_site_id
 _symmetry_equiv_pos_as_xyz
  1  'x, y, z'
loop_
 _atom_site_type_symbol
 _atom_site_label
 _atom_site_symmetry_multiplicity
 _atom_site_fract_x
 _atom_site_fract_y
 _atom_site_fract_z
 _atom_site_occupancy
  Gd  Gd0  1  0.415767  0.000000  0.000000  1
  Gd  Gd1  1  0.000000  0.415767  0.000000  1
  Gd  Gd2  1  0.584233  0.584233  0.000000  1
  Ga  Ga3  1  0.759207  0.000000  0.500000  1
  Ga  Ga4  1  0.240793  0.240793  0.500000  1
  Ga  Ga5  1  0.000000  0.759207  0.500000  1
  Ga  Ga6  1  0.666666  0.333333  0.500000  1
  Ga  Ga7  1  0.333334  0.666667  0.500000  1
  Pd  Pd8  1  0.000000  0.000000  0.000000  1
