# generated using pymatgen
data_Ca2Ho3Er(SiRh2)6
_symmetry_space_group_name_H-M   'P 1'
_cell_length_a   5.58281400
_cell_length_b   5.58281285
_cell_length_c   14.95894300
_cell_angle_alpha   90.00000000
_cell_angle_beta   90.00000000
_cell_angle_gamma   119.99999495
_symmetry_Int_Tables_number   1
_chemical_formula_structural   Ca2Ho3Er(SiRh2)6
_chemical_formula_sum   'Ca2 Ho3 Er1 Si6 Rh12'
_cell_volume   403.77347878
_cell_formula_units_Z   1
loop_
 _symmetry_equiv_pos_site_id
 _symmetry_equiv_pos_as_xyz
  1  'x, y, z'
loop_
 _atom_site_type_symbol
 _atom_site_label
 _atom_site_symmetry_multiplicity
 _atom_site_fract_x
 _atom_site_fract_y
 _atom_site_fract_z
 _atom_site_occupancy
  Ca  Ca0  1  0.333333  0.666667  0.750028  1
  Ca  Ca1  1  0.666667  0.333333  0.249951  1
  Ho  Ho2  1  0.333333  0.666667  0.540149  1
  Ho  Ho3  1  0.666667  0.333333  0.459861  1
  Ho  Ho4  1  0.666667  0.333333  0.039993  1
  Er  Er5  1  0.333333  0.666667  0.959994  1
  Si  Si6  1  0.000000  0.000000  0.249975  1
  Si  Si7  1  0.000000  0.000000  0.750088  1
  Si  Si8  1  0.333333  0.666667  0.249971  1
  Si  Si9  1  0.666667  0.333333  0.750022  1
  Si  Si10  1  0.000000  0.000000  0.999953  1
  Si  Si11  1  0.000000  0.000000  0.500008  1
  Rh  Rh12  1  0.167113  0.334227  0.128895  1
  Rh  Rh13  1  0.832931  0.665860  0.871078  1
  Rh  Rh14  1  0.665773  0.832887  0.128895  1
  Rh  Rh15  1  0.832944  0.665887  0.629046  1
  Rh  Rh16  1  0.334140  0.167069  0.871078  1
  Rh  Rh17  1  0.167073  0.334148  0.370982  1
  Rh  Rh18  1  0.167113  0.832887  0.128895  1
  Rh  Rh19  1  0.334113  0.167056  0.629046  1
  Rh  Rh20  1  0.832931  0.167069  0.871078  1
  Rh  Rh21  1  0.665852  0.832927  0.370982  1
  Rh  Rh22  1  0.832944  0.167056  0.629046  1
  Rh  Rh23  1  0.167073  0.832927  0.370982  1
