# generated using pymatgen
data_Tm3In4CoPd
_symmetry_space_group_name_H-M   'P 1'
_cell_length_a   7.95359404
_cell_length_b   7.95383239
_cell_length_c   3.61581600
_cell_angle_alpha   90.00000000
_cell_angle_beta   90.00000000
_cell_angle_gamma   119.98721869
_symmetry_Int_Tables_number   1
_chemical_formula_structural   Tm3In4CoPd
_chemical_formula_sum   'Tm3 In4 Co1 Pd1'
_cell_volume   198.12201164
_cell_formula_units_Z   1
loop_
 _symmetry_equiv_pos_site_id
 _symmetry_equiv_pos_as_xyz
  1  'x, y, z'
loop_
 _atom_site_type_symbol
 _atom_site_label
 _atom_site_symmetry_multiplicity
 _atom_site_fract_x
 _atom_site_fract_y
 _atom_site_fract_z
 _atom_site_occupancy
  Tm  Tm0  1  0.288270  0.244237  0.500000  1
  Tm  Tm1  1  0.755771  0.044044  0.500000  1
  Tm  Tm2  1  0.955968  0.711729  0.500000  1
  In  In3  1  0.067251  0.402191  0.000000  1
  In  In4  1  0.597823  0.665054  0.000000  1
  In  In5  1  0.334965  0.932781  0.000000  1
  In  In6  1  0.666658  0.333327  0.000000  1
  Co  Co7  1  0.999964  0.999973  0.000000  1
  Pd  Pd8  1  0.333330  0.666664  0.500000  1
