# generated using pymatgen
data_SmYEr4NiI10
_symmetry_space_group_name_H-M   'P 1'
_cell_length_a   7.69117982
_cell_length_b   9.64457592
_cell_length_c   9.71199967
_cell_angle_alpha   106.86931986
_cell_angle_beta   96.40553592
_cell_angle_gamma   104.48681289
_symmetry_Int_Tables_number   1
_chemical_formula_structural   SmYEr4NiI10
_chemical_formula_sum   'Sm1 Y1 Er4 Ni1 I10'
_cell_volume   654.18065083
_cell_formula_units_Z   1
loop_
 _symmetry_equiv_pos_site_id
 _symmetry_equiv_pos_as_xyz
  1  'x, y, z'
loop_
 _atom_site_type_symbol
 _atom_site_label
 _atom_site_symmetry_multiplicity
 _atom_site_fract_x
 _atom_site_fract_y
 _atom_site_fract_z
 _atom_site_occupancy
  Sm  Sm0  1  0.883414  0.957095  0.239434  1
  Y  Y1  1  0.339760  0.120815  0.160131  1
  Er  Er2  1  0.112846  0.040793  0.768043  1
  Er  Er3  1  0.032991  0.722673  0.916079  1
  Er  Er4  1  0.966360  0.276090  0.079768  1
  Er  Er5  1  0.664980  0.881006  0.841794  1
  Ni  Ni6  1  0.999367  0.999201  0.000016  1
  I  I7  1  0.656470  0.552514  0.726990  1
  I  I8  1  0.341069  0.450166  0.270859  1
  I  I9  1  0.744608  0.916316  0.545434  1
  I  I10  1  0.260796  0.086741  0.463795  1
  I  I11  1  0.087173  0.372685  0.819256  1
  I  I12  1  0.912521  0.619478  0.173336  1
  I  I13  1  0.449725  0.810557  0.089684  1
  I  I14  1  0.545858  0.185388  0.904923  1
  I  I15  1  0.233392  0.747686  0.659605  1
  I  I16  1  0.768668  0.260793  0.340851  1
