# generated using pymatgen
data_CaCd2BPO7
_symmetry_space_group_name_H-M   'P 1'
_cell_length_a   5.07556500
_cell_length_b   9.25376500
_cell_length_c   13.65995000
_cell_angle_alpha   90.00000000
_cell_angle_beta   90.00000000
_cell_angle_gamma   90.00000000
_symmetry_Int_Tables_number   1
_chemical_formula_structural   CaCd2BPO7
_chemical_formula_sum   'Ca4 Cd8 B4 P4 O28'
_cell_volume   641.58170297
_cell_formula_units_Z   4
loop_
 _symmetry_equiv_pos_site_id
 _symmetry_equiv_pos_as_xyz
  1  'x, y, z'
loop_
 _atom_site_type_symbol
 _atom_site_label
 _atom_site_symmetry_multiplicity
 _atom_site_fract_x
 _atom_site_fract_y
 _atom_site_fract_z
 _atom_site_occupancy
  Ca  Ca0  1  0.991299  0.900106  0.137566  1
  Ca  Ca1  1  0.491299  0.099894  0.862434  1
  Ca  Ca2  1  0.491299  0.400106  0.362434  1
  Ca  Ca3  1  0.991299  0.599894  0.637566  1
  Cd  Cd4  1  0.006894  0.923381  0.404702  1
  Cd  Cd5  1  0.506894  0.076619  0.595298  1
  Cd  Cd6  1  0.506894  0.423381  0.095298  1
  Cd  Cd7  1  0.006894  0.576619  0.904702  1
  Cd  Cd8  1  0.996380  0.230977  0.243730  1
  Cd  Cd9  1  0.496380  0.769023  0.756270  1
  Cd  Cd10  1  0.496380  0.730977  0.256270  1
  Cd  Cd11  1  0.996380  0.269023  0.743730  1
  B  B12  1  0.993378  0.557136  0.225303  1
  B  B13  1  0.493378  0.442864  0.774697  1
  B  B14  1  0.493378  0.057136  0.274697  1
  B  B15  1  0.993378  0.942864  0.725303  1
  P  P16  1  0.030473  0.234577  0.998275  1
  P  P17  1  0.530473  0.765423  0.001725  1
  P  P18  1  0.530473  0.734577  0.501725  1
  P  P19  1  0.030473  0.265423  0.498275  1
  O  O20  1  0.336462  0.253669  0.994960  1
  O  O21  1  0.836462  0.746331  0.005040  1
  O  O22  1  0.836462  0.753669  0.505040  1
  O  O23  1  0.336462  0.246331  0.494960  1
  O  O24  1  0.948095  0.139906  0.086846  1
  O  O25  1  0.448095  0.860094  0.913154  1
  O  O26  1  0.448095  0.639906  0.413154  1
  O  O27  1  0.948095  0.360094  0.586846  1
  O  O28  1  0.896849  0.386176  0.006438  1
  O  O29  1  0.396849  0.613824  0.993562  1
  O  O30  1  0.396849  0.886176  0.493562  1
  O  O31  1  0.896849  0.113824  0.506438  1
  O  O32  1  0.452019  0.844990  0.097724  1
  O  O33  1  0.952019  0.155010  0.902276  1
  O  O34  1  0.952019  0.344990  0.402276  1
  O  O35  1  0.452019  0.655010  0.597724  1
  O  O36  1  0.061242  0.700156  0.235556  1
  O  O37  1  0.561242  0.299844  0.764444  1
  O  O38  1  0.561242  0.200156  0.264444  1
  O  O39  1  0.061242  0.799844  0.735556  1
  O  O40  1  0.182346  0.447818  0.219018  1
  O  O41  1  0.682346  0.552182  0.780982  1
  O  O42  1  0.682346  0.947818  0.280982  1
  O  O43  1  0.182346  0.052182  0.719018  1
  O  O44  1  0.224344  0.021668  0.274891  1
  O  O45  1  0.724344  0.978332  0.725109  1
  O  O46  1  0.724344  0.521668  0.225109  1
  O  O47  1  0.224344  0.478332  0.774891  1
