# generated using pymatgen
data_Th5HgBi2Pb
_symmetry_space_group_name_H-M   'P 1'
_cell_length_a   9.75915801
_cell_length_b   9.75915850
_cell_length_c   6.67313500
_cell_angle_alpha   90.00000000
_cell_angle_beta   90.00000000
_cell_angle_gamma   119.99549317
_symmetry_Int_Tables_number   1
_chemical_formula_structural   Th5HgBi2Pb
_chemical_formula_sum   'Th10 Hg2 Bi4 Pb2'
_cell_volume   550.43366136
_cell_formula_units_Z   2
loop_
 _symmetry_equiv_pos_site_id
 _symmetry_equiv_pos_as_xyz
  1  'x, y, z'
loop_
 _atom_site_type_symbol
 _atom_site_label
 _atom_site_symmetry_multiplicity
 _atom_site_fract_x
 _atom_site_fract_y
 _atom_site_fract_z
 _atom_site_occupancy
  Th  Th0  1  0.666644  0.331968  0.501626  1
  Th  Th1  1  0.331968  0.666644  0.501626  1
  Th  Th2  1  0.331968  0.666644  0.998374  1
  Th  Th3  1  0.666644  0.331968  0.998374  1
  Th  Th4  1  0.725747  0.725747  0.250000  1
  Th  Th5  1  0.274422  0.000378  0.250000  1
  Th  Th6  1  0.000378  0.274422  0.250000  1
  Th  Th7  1  0.276119  0.276119  0.750000  1
  Th  Th8  1  0.724608  0.001048  0.750000  1
  Th  Th9  1  0.001048  0.724608  0.750000  1
  Hg  Hg10  1  0.000405  0.000405  0.501559  1
  Hg  Hg11  1  0.000405  0.000405  0.998441  1
  Bi  Bi12  1  0.381850  0.381850  0.250000  1
  Bi  Bi13  1  0.618560  0.000917  0.250000  1
  Bi  Bi14  1  0.000917  0.618560  0.250000  1
  Bi  Bi15  1  0.618428  0.618428  0.750000  1
  Pb  Pb16  1  0.379863  0.000026  0.750000  1
  Pb  Pb17  1  0.000026  0.379863  0.750000  1
