# generated using pymatgen
data_NdScMnB6
_symmetry_space_group_name_H-M   'P 1'
_cell_length_a   3.52234200
_cell_length_b   9.02301400
_cell_length_c   11.47502100
_cell_angle_alpha   90.00000000
_cell_angle_beta   90.00000000
_cell_angle_gamma   90.00000000
_symmetry_Int_Tables_number   1
_chemical_formula_structural   NdScMnB6
_chemical_formula_sum   'Nd4 Sc4 Mn4 B24'
_cell_volume   364.70073745
_cell_formula_units_Z   4
loop_
 _symmetry_equiv_pos_site_id
 _symmetry_equiv_pos_as_xyz
  1  'x, y, z'
loop_
 _atom_site_type_symbol
 _atom_site_label
 _atom_site_symmetry_multiplicity
 _atom_site_fract_x
 _atom_site_fract_y
 _atom_site_fract_z
 _atom_site_occupancy
  Nd  Nd0  1  0.000000  0.323048  0.415174  1
  Nd  Nd1  1  0.000000  0.676952  0.584826  1
  Nd  Nd2  1  0.000000  0.823048  0.084826  1
  Nd  Nd3  1  0.000000  0.176952  0.915174  1
  Sc  Sc4  1  0.000000  0.943268  0.367837  1
  Sc  Sc5  1  0.000000  0.056732  0.632163  1
  Sc  Sc6  1  0.000000  0.443268  0.132163  1
  Sc  Sc7  1  0.000000  0.556732  0.867837  1
  Mn  Mn8  1  0.000000  0.641935  0.316331  1
  Mn  Mn9  1  0.000000  0.358065  0.683669  1
  Mn  Mn10  1  0.000000  0.141935  0.183669  1
  Mn  Mn11  1  0.000000  0.858065  0.816331  1
  B  B12  1  0.500000  0.557832  0.427780  1
  B  B13  1  0.500000  0.442168  0.572220  1
  B  B14  1  0.500000  0.057832  0.072220  1
  B  B15  1  0.500000  0.942168  0.927780  1
  B  B16  1  0.500000  0.753007  0.414148  1
  B  B17  1  0.500000  0.246993  0.585852  1
  B  B18  1  0.500000  0.253007  0.085852  1
  B  B19  1  0.500000  0.746993  0.914148  1
  B  B20  1  0.500000  0.792968  0.265834  1
  B  B21  1  0.500000  0.207032  0.734166  1
  B  B22  1  0.500000  0.292968  0.234166  1
  B  B23  1  0.500000  0.707032  0.765834  1
  B  B24  1  0.500000  0.628648  0.184866  1
  B  B25  1  0.500000  0.371352  0.815134  1
  B  B26  1  0.500000  0.128648  0.315134  1
  B  B27  1  0.500000  0.871352  0.684866  1
  B  B28  1  0.500000  0.985275  0.214661  1
  B  B29  1  0.500000  0.014725  0.785339  1
  B  B30  1  0.500000  0.485275  0.285339  1
  B  B31  1  0.500000  0.514725  0.714661  1
  B  B32  1  0.500000  0.593846  0.025092  1
  B  B33  1  0.500000  0.406154  0.974908  1
  B  B34  1  0.500000  0.093846  0.474908  1
  B  B35  1  0.500000  0.906154  0.525092  1
