# generated using pymatgen
data_Ho5ErVB14W
_symmetry_space_group_name_H-M   'P 1'
_cell_length_a   8.12009656
_cell_length_b   8.12009497
_cell_length_c   9.43522852
_cell_angle_alpha   89.96280838
_cell_angle_beta   90.03719163
_cell_angle_gamma   155.57336447
_symmetry_Int_Tables_number   1
_chemical_formula_structural   Ho5ErVB14W
_chemical_formula_sum   'Ho5 Er1 V1 B14 W1'
_cell_volume   257.26415515
_cell_formula_units_Z   1
loop_
 _symmetry_equiv_pos_site_id
 _symmetry_equiv_pos_as_xyz
  1  'x, y, z'
loop_
 _atom_site_type_symbol
 _atom_site_label
 _atom_site_symmetry_multiplicity
 _atom_site_fract_x
 _atom_site_fract_y
 _atom_site_fract_z
 _atom_site_occupancy
  Ho  Ho0  1  0.893661  0.106339  0.437972  1
  Ho  Ho1  1  0.106987  0.893013  0.557454  1
  Ho  Ho2  1  0.893579  0.106421  0.061945  1
  Ho  Ho3  1  0.241927  0.758073  0.249985  1
  Ho  Ho4  1  0.754715  0.245285  0.749985  1
  Er  Er5  1  0.106692  0.893308  0.943156  1
  V  V6  1  0.052588  0.947412  0.249863  1
  B  B7  1  0.727273  0.272727  0.466698  1
  B  B8  1  0.272659  0.727341  0.531443  1
  B  B9  1  0.726975  0.273025  0.032931  1
  B  B10  1  0.272339  0.727661  0.968407  1
  B  B11  1  0.632470  0.367530  0.149759  1
  B  B12  1  0.365228  0.634772  0.853817  1
  B  B13  1  0.632538  0.367462  0.349769  1
  B  B14  1  0.365274  0.634726  0.646219  1
  B  B15  1  0.521046  0.478954  0.094952  1
  B  B16  1  0.480970  0.519030  0.909451  1
  B  B17  1  0.521003  0.478997  0.404788  1
  B  B18  1  0.480865  0.519135  0.590928  1
  B  B19  1  0.458258  0.541742  0.249876  1
  B  B20  1  0.545819  0.454181  0.750465  1
  W  W21  1  0.947132  0.052868  0.750136  1
