# generated using pymatgen
data_BiRu(NF10)2
_symmetry_space_group_name_H-M   'P 1'
_cell_length_a   5.68767278
_cell_length_b   7.70211790
_cell_length_c   9.11964800
_cell_angle_alpha   88.73946253
_cell_angle_beta   109.33203743
_cell_angle_gamma   96.69047794
_symmetry_Int_Tables_number   1
_chemical_formula_structural   BiRu(NF10)2
_chemical_formula_sum   'Bi1 Ru1 N2 F20'
_cell_volume   374.35410183
_cell_formula_units_Z   1
loop_
 _symmetry_equiv_pos_site_id
 _symmetry_equiv_pos_as_xyz
  1  'x, y, z'
loop_
 _atom_site_type_symbol
 _atom_site_label
 _atom_site_symmetry_multiplicity
 _atom_site_fract_x
 _atom_site_fract_y
 _atom_site_fract_z
 _atom_site_occupancy
  Bi  Bi0  1  0.006122  0.244371  0.702898  1
  Ru  Ru1  1  0.996200  0.754399  0.294822  1
  N  N2  1  0.295347  0.274115  0.215135  1
  N  N3  1  0.703939  0.725909  0.785539  1
  F  F4  1  0.060765  0.233015  0.214184  1
  F  F5  1  0.939160  0.766091  0.786186  1
  F  F6  1  0.370585  0.140275  0.156681  1
  F  F7  1  0.630037  0.859363  0.844854  1
  F  F8  1  0.928788  0.192306  0.905720  1
  F  F9  1  0.068275  0.805075  0.106622  1
  F  F10  1  0.080017  0.303846  0.503431  1
  F  F11  1  0.925866  0.701422  0.479893  1
  F  F12  1  0.765680  0.030294  0.599130  1
  F  F13  1  0.213512  0.954597  0.392039  1
  F  F14  1  0.298951  0.097841  0.785010  1
  F  F15  1  0.723864  0.890071  0.222656  1
  F  F16  1  0.226017  0.466722  0.812666  1
  F  F17  1  0.786370  0.549404  0.194347  1
  F  F18  1  0.708115  0.388031  0.634565  1
  F  F19  1  0.272387  0.620710  0.361025  1
  F  F20  1  0.696774  0.586010  0.874414  1
  F  F21  1  0.305235  0.414940  0.127466  1
  F  F22  1  0.548735  0.692863  0.640146  1
  F  F23  1  0.449260  0.308332  0.360569  1
