# generated using pymatgen
data_Er3Np(ZnRh2)4
_symmetry_space_group_name_H-M   'P 1'
_cell_length_a   6.04314200
_cell_length_b   6.04294100
_cell_length_c   6.92221400
_cell_angle_alpha   90.00000000
_cell_angle_beta   90.00000000
_cell_angle_gamma   90.00000000
_symmetry_Int_Tables_number   1
_chemical_formula_structural   Er3Np(ZnRh2)4
_chemical_formula_sum   'Er3 Np1 Zn4 Rh8'
_cell_volume   252.78783751
_cell_formula_units_Z   1
loop_
 _symmetry_equiv_pos_site_id
 _symmetry_equiv_pos_as_xyz
  1  'x, y, z'
loop_
 _atom_site_type_symbol
 _atom_site_label
 _atom_site_symmetry_multiplicity
 _atom_site_fract_x
 _atom_site_fract_y
 _atom_site_fract_z
 _atom_site_occupancy
  Er  Er0  1  0.750060  0.249999  0.000044  1
  Er  Er1  1  0.249942  0.750000  0.000033  1
  Er  Er2  1  0.750000  0.249999  0.500012  1
  Np  Np3  1  0.250049  0.750000  0.499842  1
  Zn  Zn4  1  0.250020  0.249999  0.000046  1
  Zn  Zn5  1  0.749984  0.750000  0.000050  1
  Zn  Zn6  1  0.749948  0.750000  0.499966  1
  Zn  Zn7  1  0.250006  0.249999  0.499972  1
  Rh  Rh8  1  0.496256  0.994865  0.253880  1
  Rh  Rh9  1  0.496256  0.505137  0.253880  1
  Rh  Rh10  1  0.003718  0.994877  0.253880  1
  Rh  Rh11  1  0.003718  0.505122  0.253880  1
  Rh  Rh12  1  0.003744  0.994877  0.746095  1
  Rh  Rh13  1  0.003744  0.505125  0.746095  1
  Rh  Rh14  1  0.496278  0.994871  0.746164  1
  Rh  Rh15  1  0.496278  0.505128  0.746164  1
