# generated using pymatgen
data_OsCl6
_symmetry_space_group_name_H-M   'P 1'
_cell_length_a   6.87658270
_cell_length_b   6.87655886
_cell_length_c   6.87658473
_cell_angle_alpha   55.38592218
_cell_angle_beta   55.38593755
_cell_angle_gamma   55.38595405
_symmetry_Int_Tables_number   1
_chemical_formula_structural   OsCl6
_chemical_formula_sum   'Os1 Cl6'
_cell_volume   205.28835333
_cell_formula_units_Z   1
loop_
 _symmetry_equiv_pos_site_id
 _symmetry_equiv_pos_as_xyz
  1  'x, y, z'
loop_
 _atom_site_type_symbol
 _atom_site_label
 _atom_site_symmetry_multiplicity
 _atom_site_fract_x
 _atom_site_fract_y
 _atom_site_fract_z
 _atom_site_occupancy
  Os  Os0  1  0.000000  0.000000  0.000000  1
  Cl  Cl1  1  0.633635  0.219673  0.918526  1
  Cl  Cl2  1  0.918526  0.633634  0.219673  1
  Cl  Cl3  1  0.219673  0.918526  0.633634  1
  Cl  Cl4  1  0.366365  0.780327  0.081474  1
  Cl  Cl5  1  0.081474  0.366366  0.780327  1
  Cl  Cl6  1  0.780327  0.081474  0.366366  1
