# generated using pymatgen
data_Tb4Al18(NiIr)3
_symmetry_space_group_name_H-M   'P 1'
_cell_length_a   7.51708188
_cell_length_b   7.51708140
_cell_length_c   9.37199062
_cell_angle_alpha   89.97911633
_cell_angle_beta   89.97911434
_cell_angle_gamma   119.58386970
_symmetry_Int_Tables_number   1
_chemical_formula_structural   Tb4Al18(NiIr)3
_chemical_formula_sum   'Tb4 Al18 Ni3 Ir3'
_cell_volume   460.53935968
_cell_formula_units_Z   1
loop_
 _symmetry_equiv_pos_site_id
 _symmetry_equiv_pos_as_xyz
  1  'x, y, z'
loop_
 _atom_site_type_symbol
 _atom_site_label
 _atom_site_symmetry_multiplicity
 _atom_site_fract_x
 _atom_site_fract_y
 _atom_site_fract_z
 _atom_site_occupancy
  Tb  Tb0  1  0.994931  0.670127  0.249216  1
  Tb  Tb1  1  0.005069  0.329873  0.750784  1
  Tb  Tb2  1  0.670127  0.994931  0.249216  1
  Tb  Tb3  1  0.329873  0.005069  0.750784  1
  Al  Al4  1  0.126405  0.126405  0.245800  1
  Al  Al5  1  0.873595  0.873595  0.754200  1
  Al  Al6  1  0.998714  0.334474  0.073083  1
  Al  Al7  1  0.001286  0.665526  0.926917  1
  Al  Al8  1  0.999306  0.665423  0.573042  1
  Al  Al9  1  0.334577  0.000694  0.426958  1
  Al  Al10  1  0.000694  0.334577  0.426958  1
  Al  Al11  1  0.665423  0.999306  0.573042  1
  Al  Al12  1  0.665526  0.001286  0.926917  1
  Al  Al13  1  0.334474  0.998714  0.073083  1
  Al  Al14  1  0.333427  0.333427  0.550719  1
  Al  Al15  1  0.666573  0.666573  0.449281  1
  Al  Al16  1  0.667337  0.667337  0.051690  1
  Al  Al17  1  0.332663  0.332663  0.948310  1
  Al  Al18  1  0.339295  0.549705  0.246198  1
  Al  Al19  1  0.660705  0.450295  0.753802  1
  Al  Al20  1  0.549705  0.339295  0.246198  1
  Al  Al21  1  0.450295  0.660705  0.753802  1
  Ni  Ni22  1  0.671584  0.328416  0.000000  1
  Ni  Ni23  1  0.328416  0.671584  0.000000  1
  Ni  Ni24  1  0.000000  0.000000  0.000000  1
  Ir  Ir25  1  0.328688  0.671312  0.500000  1
  Ir  Ir26  1  0.671312  0.328688  0.500000  1
  Ir  Ir27  1  0.000000  0.000000  0.500000  1
