# generated using pymatgen
data_Zr10Ag2SnBi5
_symmetry_space_group_name_H-M   'P 1'
_cell_length_a   8.86005200
_cell_length_b   8.88920265
_cell_length_c   6.00064500
_cell_angle_alpha   90.00000000
_cell_angle_beta   90.00000000
_cell_angle_gamma   119.89157973
_symmetry_Int_Tables_number   1
_chemical_formula_structural   Zr10Ag2SnBi5
_chemical_formula_sum   'Zr10 Ag2 Sn1 Bi5'
_cell_volume   409.73312958
_cell_formula_units_Z   1
loop_
 _symmetry_equiv_pos_site_id
 _symmetry_equiv_pos_as_xyz
  1  'x, y, z'
loop_
 _atom_site_type_symbol
 _atom_site_label
 _atom_site_symmetry_multiplicity
 _atom_site_fract_x
 _atom_site_fract_y
 _atom_site_fract_z
 _atom_site_occupancy
  Zr  Zr0  1  0.333997  0.670009  0.998366  1
  Zr  Zr1  1  0.663988  0.329991  0.501634  1
  Zr  Zr2  1  0.663988  0.329991  0.998366  1
  Zr  Zr3  1  0.333997  0.670009  0.501634  1
  Zr  Zr4  1  0.277255  0.000000  0.250000  1
  Zr  Zr5  1  0.280253  0.274460  0.750000  1
  Zr  Zr6  1  0.005793  0.725540  0.750000  1
  Zr  Zr7  1  0.999188  0.276612  0.250000  1
  Zr  Zr8  1  0.722576  0.723388  0.250000  1
  Zr  Zr9  1  0.719078  0.000000  0.750000  1
  Ag  Ag10  1  0.999963  0.000000  0.998464  1
  Ag  Ag11  1  0.999963  0.000000  0.501536  1
  Sn  Sn12  1  0.379003  0.000000  0.750000  1
  Bi  Bi13  1  0.619600  0.000000  0.250000  1
  Bi  Bi14  1  0.622464  0.621323  0.750000  1
  Bi  Bi15  1  0.001141  0.378677  0.750000  1
  Bi  Bi16  1  0.998909  0.620063  0.250000  1
  Bi  Bi17  1  0.378845  0.379937  0.250000  1
