# generated using pymatgen
data_NdHf3(NiAs2)2
_symmetry_space_group_name_H-M   'P 1'
_cell_length_a   3.99654000
_cell_length_b   3.99653936
_cell_length_c   13.37712600
_cell_angle_alpha   90.00000000
_cell_angle_beta   90.00000000
_cell_angle_gamma   119.99998878
_symmetry_Int_Tables_number   1
_chemical_formula_structural   NdHf3(NiAs2)2
_chemical_formula_sum   'Nd1 Hf3 Ni2 As4'
_cell_volume   185.03835399
_cell_formula_units_Z   1
loop_
 _symmetry_equiv_pos_site_id
 _symmetry_equiv_pos_as_xyz
  1  'x, y, z'
loop_
 _atom_site_type_symbol
 _atom_site_label
 _atom_site_symmetry_multiplicity
 _atom_site_fract_x
 _atom_site_fract_y
 _atom_site_fract_z
 _atom_site_occupancy
  Nd  Nd0  1  0.666667  0.333333  0.387514  1
  Hf  Hf1  1  0.333333  0.666667  0.890676  1
  Hf  Hf2  1  0.333333  0.666667  0.632659  1
  Hf  Hf3  1  0.666667  0.333333  0.101596  1
  Ni  Ni4  1  0.000000  0.000000  0.770132  1
  Ni  Ni5  1  0.000000  0.000000  0.201720  1
  As  As6  1  0.333333  0.666667  0.238396  1
  As  As7  1  0.000000  0.000000  0.996772  1
  As  As8  1  0.000000  0.000000  0.522709  1
  As  As9  1  0.666667  0.333333  0.757828  1
