# generated using pymatgen
data_TbNdMgIn5
_symmetry_space_group_name_H-M   'P 1'
_cell_length_a   4.68411200
_cell_length_b   4.68411200
_cell_length_c   9.25899100
_cell_angle_alpha   90.00000000
_cell_angle_beta   90.00000000
_cell_angle_gamma   90.00000000
_symmetry_Int_Tables_number   1
_chemical_formula_structural   TbNdMgIn5
_chemical_formula_sum   'Tb1 Nd1 Mg1 In5'
_cell_volume   203.15064404
_cell_formula_units_Z   1
loop_
 _symmetry_equiv_pos_site_id
 _symmetry_equiv_pos_as_xyz
  1  'x, y, z'
loop_
 _atom_site_type_symbol
 _atom_site_label
 _atom_site_symmetry_multiplicity
 _atom_site_fract_x
 _atom_site_fract_y
 _atom_site_fract_z
 _atom_site_occupancy
  Tb  Tb0  1  0.000000  0.000000  0.500000  1
  Nd  Nd1  1  0.000000  0.000000  0.000000  1
  Mg  Mg2  1  0.500000  0.500000  0.500000  1
  In  In3  1  0.500000  0.500000  0.000000  1
  In  In4  1  0.500000  0.000000  0.261685  1
  In  In5  1  0.500000  0.000000  0.738315  1
  In  In6  1  0.000000  0.500000  0.261685  1
  In  In7  1  0.000000  0.500000  0.738315  1
