# generated using pymatgen
data_Tm4ScSi3
_symmetry_space_group_name_H-M   'P 1'
_cell_length_a   8.23993100
_cell_length_b   8.23993076
_cell_length_c   6.12978600
_cell_angle_alpha   90.00000000
_cell_angle_beta   90.00000000
_cell_angle_gamma   120.00000500
_symmetry_Int_Tables_number   1
_chemical_formula_structural   Tm4ScSi3
_chemical_formula_sum   'Tm8 Sc2 Si6'
_cell_volume   360.43176606
_cell_formula_units_Z   2
loop_
 _symmetry_equiv_pos_site_id
 _symmetry_equiv_pos_as_xyz
  1  'x, y, z'
loop_
 _atom_site_type_symbol
 _atom_site_label
 _atom_site_symmetry_multiplicity
 _atom_site_fract_x
 _atom_site_fract_y
 _atom_site_fract_z
 _atom_site_occupancy
  Tm  Tm0  1  0.333333  0.666667  0.000000  1
  Tm  Tm1  1  0.666667  0.333333  0.000000  1
  Tm  Tm2  1  0.756538  0.756538  0.253408  1
  Tm  Tm3  1  0.243462  0.000000  0.253408  1
  Tm  Tm4  1  0.000000  0.243462  0.253408  1
  Tm  Tm5  1  0.243462  0.243462  0.746592  1
  Tm  Tm6  1  0.756538  0.000000  0.746592  1
  Tm  Tm7  1  0.000000  0.756538  0.746592  1
  Sc  Sc8  1  0.666667  0.333333  0.500000  1
  Sc  Sc9  1  0.333333  0.666667  0.500000  1
  Si  Si10  1  0.396305  0.396305  0.262224  1
  Si  Si11  1  0.603695  0.000000  0.262224  1
  Si  Si12  1  0.000000  0.603695  0.262224  1
  Si  Si13  1  0.603695  0.603695  0.737776  1
  Si  Si14  1  0.396305  0.000000  0.737776  1
  Si  Si15  1  0.000000  0.396305  0.737776  1
