# generated using pymatgen
data_Tb2PrMn(Co4P3)2
_symmetry_space_group_name_H-M   'P 1'
_cell_length_a   3.72052500
_cell_length_b   10.58955500
_cell_length_c   12.27030300
_cell_angle_alpha   90.00000000
_cell_angle_beta   90.00000000
_cell_angle_gamma   90.00000000
_symmetry_Int_Tables_number   1
_chemical_formula_structural   Tb2PrMn(Co4P3)2
_chemical_formula_sum   'Tb4 Pr2 Mn2 Co16 P12'
_cell_volume   483.43403732
_cell_formula_units_Z   2
loop_
 _symmetry_equiv_pos_site_id
 _symmetry_equiv_pos_as_xyz
  1  'x, y, z'
loop_
 _atom_site_type_symbol
 _atom_site_label
 _atom_site_symmetry_multiplicity
 _atom_site_fract_x
 _atom_site_fract_y
 _atom_site_fract_z
 _atom_site_occupancy
  Tb  Tb0  1  0.500000  0.817830  0.204326  1
  Tb  Tb1  1  0.500000  0.182170  0.204326  1
  Tb  Tb2  1  0.000000  0.682170  0.795674  1
  Tb  Tb3  1  0.000000  0.317830  0.795674  1
  Pr  Pr4  1  0.000000  0.500000  0.523044  1
  Pr  Pr5  1  0.500000  0.000000  0.476956  1
  Mn  Mn6  1  0.500000  0.500000  0.156075  1
  Mn  Mn7  1  0.000000  0.000000  0.843925  1
  Co  Co8  1  0.500000  0.500000  0.706440  1
  Co  Co9  1  0.000000  0.000000  0.293560  1
  Co  Co10  1  0.000000  0.500000  0.986546  1
  Co  Co11  1  0.500000  0.000000  0.013454  1
  Co  Co12  1  0.500000  0.333222  0.994772  1
  Co  Co13  1  0.500000  0.666778  0.994772  1
  Co  Co14  1  0.000000  0.166778  0.005228  1
  Co  Co15  1  0.000000  0.833222  0.005228  1
  Co  Co16  1  0.500000  0.296203  0.428961  1
  Co  Co17  1  0.500000  0.703797  0.428961  1
  Co  Co18  1  0.000000  0.203797  0.571039  1
  Co  Co19  1  0.000000  0.796203  0.571039  1
  Co  Co20  1  0.500000  0.880248  0.712448  1
  Co  Co21  1  0.500000  0.119752  0.712448  1
  Co  Co22  1  0.000000  0.619752  0.287552  1
  Co  Co23  1  0.000000  0.380248  0.287552  1
  P  P24  1  0.500000  0.500000  0.884548  1
  P  P25  1  0.000000  0.000000  0.115452  1
  P  P26  1  0.500000  0.500000  0.339825  1
  P  P27  1  0.000000  0.000000  0.660175  1
  P  P28  1  0.500000  0.306971  0.617528  1
  P  P29  1  0.500000  0.693029  0.617528  1
  P  P30  1  0.000000  0.193029  0.382472  1
  P  P31  1  0.000000  0.806971  0.382472  1
  P  P32  1  0.500000  0.847000  0.894407  1
  P  P33  1  0.500000  0.153000  0.894407  1
  P  P34  1  0.000000  0.653000  0.105593  1
  P  P35  1  0.000000  0.347000  0.105593  1
