# generated using pymatgen
data_Eu2TmPtO7
_symmetry_space_group_name_H-M   'P 1'
_cell_length_a   6.46823966
_cell_length_b   6.51714049
_cell_length_c   7.50097200
_cell_angle_alpha   90.00000000
_cell_angle_beta   90.00000000
_cell_angle_gamma   109.46872377
_symmetry_Int_Tables_number   1
_chemical_formula_structural   Eu2TmPtO7
_chemical_formula_sum   'Eu4 Tm2 Pt2 O14'
_cell_volume   298.12003284
_cell_formula_units_Z   2
loop_
 _symmetry_equiv_pos_site_id
 _symmetry_equiv_pos_as_xyz
  1  'x, y, z'
loop_
 _atom_site_type_symbol
 _atom_site_label
 _atom_site_symmetry_multiplicity
 _atom_site_fract_x
 _atom_site_fract_y
 _atom_site_fract_z
 _atom_site_occupancy
  Eu  Eu0  1  0.520400  0.996293  0.750002  1
  Eu  Eu1  1  0.479600  0.003707  0.250002  1
  Eu  Eu2  1  0.500014  0.499999  0.500011  1
  Eu  Eu3  1  0.499986  0.500001  0.000011  1
  Tm  Tm4  1  0.999478  0.464867  0.750000  1
  Tm  Tm5  1  0.000522  0.535133  0.250000  1
  Pt  Pt6  1  0.000144  0.000091  0.499990  1
  Pt  Pt7  1  0.999856  0.999909  0.999990  1
  O  O8  1  0.639141  0.363936  0.750012  1
  O  O9  1  0.360859  0.636064  0.250012  1
  O  O10  1  0.937462  0.087321  0.749996  1
  O  O11  1  0.062538  0.912679  0.249996  1
  O  O12  1  0.939530  0.675392  0.529725  1
  O  O13  1  0.060470  0.324608  0.029725  1
  O  O14  1  0.325568  0.088822  0.979370  1
  O  O15  1  0.674432  0.911178  0.479370  1
  O  O16  1  0.359115  0.626960  0.750008  1
  O  O17  1  0.640885  0.373040  0.250008  1
  O  O18  1  0.939433  0.675382  0.970280  1
  O  O19  1  0.060567  0.324618  0.470280  1
  O  O20  1  0.325590  0.088873  0.520609  1
  O  O21  1  0.674410  0.911127  0.020609  1
