# generated using pymatgen
data_HoTm2PaPt4
_symmetry_space_group_name_H-M   'P 1'
_cell_length_a   4.53650000
_cell_length_b   5.57304764
_cell_length_c   6.93416405
_cell_angle_alpha   90.88384710
_cell_angle_beta   90.00000000
_cell_angle_gamma   90.00000000
_symmetry_Int_Tables_number   1
_chemical_formula_structural   HoTm2PaPt4
_chemical_formula_sum   'Ho1 Tm2 Pa1 Pt4'
_cell_volume   175.28958288
_cell_formula_units_Z   1
loop_
 _symmetry_equiv_pos_site_id
 _symmetry_equiv_pos_as_xyz
  1  'x, y, z'
loop_
 _atom_site_type_symbol
 _atom_site_label
 _atom_site_symmetry_multiplicity
 _atom_site_fract_x
 _atom_site_fract_y
 _atom_site_fract_z
 _atom_site_occupancy
  Ho  Ho0  1  0.250000  0.641352  0.182861  1
  Tm  Tm1  1  0.750000  0.356035  0.820956  1
  Tm  Tm2  1  0.750000  0.143907  0.315535  1
  Pa  Pa3  1  0.250000  0.856935  0.682152  1
  Pt  Pt4  1  0.250000  0.154771  0.039900  1
  Pt  Pt5  1  0.750000  0.843496  0.947310  1
  Pt  Pt6  1  0.750000  0.665839  0.461444  1
  Pt  Pt7  1  0.250000  0.337665  0.549842  1
