# generated using pymatgen
data_Ac3Sb4Pd2Au
_symmetry_space_group_name_H-M   'P 1'
_cell_length_a   8.96940724
_cell_length_b   8.96940878
_cell_length_c   8.96940800
_cell_angle_alpha   109.32114753
_cell_angle_beta   109.77178382
_cell_angle_gamma   109.32115044
_symmetry_Int_Tables_number   1
_chemical_formula_structural   Ac3Sb4Pd2Au
_chemical_formula_sum   'Ac6 Sb8 Pd4 Au2'
_cell_volume   555.46982795
_cell_formula_units_Z   2
loop_
 _symmetry_equiv_pos_site_id
 _symmetry_equiv_pos_as_xyz
  1  'x, y, z'
loop_
 _atom_site_type_symbol
 _atom_site_label
 _atom_site_symmetry_multiplicity
 _atom_site_fract_x
 _atom_site_fract_y
 _atom_site_fract_z
 _atom_site_occupancy
  Ac  Ac0  1  0.874995  0.250018  0.124985  1
  Ac  Ac1  1  0.624985  0.750018  0.374995  1
  Ac  Ac2  1  0.249991  0.125106  0.875081  1
  Ac  Ac3  1  0.749974  0.374880  0.624900  1
  Ac  Ac4  1  0.124900  0.874880  0.249974  1
  Ac  Ac5  1  0.375081  0.625106  0.749991  1
  Sb  Sb6  1  0.666107  0.505090  0.007705  1
  Sb  Sb7  1  0.502617  0.994896  0.661002  1
  Sb  Sb8  1  0.997414  0.658404  0.492306  1
  Sb  Sb9  1  0.833907  0.841616  0.838995  1
  Sb  Sb10  1  0.507705  0.005090  0.166107  1
  Sb  Sb11  1  0.161002  0.494896  0.002617  1
  Sb  Sb12  1  0.992306  0.158404  0.497414  1
  Sb  Sb13  1  0.338995  0.341616  0.333907  1
  Pd  Pd14  1  0.250004  0.627243  0.377258  1
  Pd  Pd15  1  0.749995  0.872745  0.122749  1
  Pd  Pd16  1  0.622749  0.372745  0.249995  1
  Pd  Pd17  1  0.877258  0.127243  0.750004  1
  Au  Au18  1  0.375007  0.250002  0.625008  1
  Au  Au19  1  0.125008  0.750002  0.875007  1
