# generated using pymatgen
data_DyHo3(TcB2)4
_symmetry_space_group_name_H-M   'P 1'
_cell_length_a   5.28356000
_cell_length_b   5.94612861
_cell_length_c   6.43852702
_cell_angle_alpha   90.03003684
_cell_angle_beta   90.00000000
_cell_angle_gamma   90.00000000
_symmetry_Int_Tables_number   1
_chemical_formula_structural   DyHo3(TcB2)4
_chemical_formula_sum   'Dy1 Ho3 Tc4 B8'
_cell_volume   202.27741944
_cell_formula_units_Z   1
loop_
 _symmetry_equiv_pos_site_id
 _symmetry_equiv_pos_as_xyz
  1  'x, y, z'
loop_
 _atom_site_type_symbol
 _atom_site_label
 _atom_site_symmetry_multiplicity
 _atom_site_fract_x
 _atom_site_fract_y
 _atom_site_fract_z
 _atom_site_occupancy
  Dy  Dy0  1  0.750000  0.486485  0.839957  1
  Ho  Ho1  1  0.250000  0.014444  0.338601  1
  Ho  Ho2  1  0.250000  0.514551  0.161521  1
  Ho  Ho3  1  0.750000  0.986459  0.660299  1
  Tc  Tc4  1  0.250000  0.181356  0.814914  1
  Tc  Tc5  1  0.250000  0.681958  0.684712  1
  Tc  Tc6  1  0.750000  0.818730  0.185593  1
  Tc  Tc7  1  0.750000  0.318328  0.315057  1
  B  B8  1  0.078250  0.370151  0.535931  1
  B  B9  1  0.421847  0.870163  0.963754  1
  B  B10  1  0.578137  0.629518  0.464339  1
  B  B11  1  0.921664  0.129012  0.035649  1
  B  B12  1  0.921863  0.629518  0.464339  1
  B  B13  1  0.578336  0.129012  0.035649  1
  B  B14  1  0.421750  0.370151  0.535931  1
  B  B15  1  0.078153  0.870163  0.963754  1
