# generated using pymatgen
data_Pr8Zr11Si16W
_symmetry_space_group_name_H-M   'P 1'
_cell_length_a   7.23456534
_cell_length_b   7.43725437
_cell_length_c   14.10582957
_cell_angle_alpha   90.19236576
_cell_angle_beta   89.65380772
_cell_angle_gamma   89.68601388
_symmetry_Int_Tables_number   1
_chemical_formula_structural   Pr8Zr11Si16W
_chemical_formula_sum   'Pr8 Zr11 Si16 W1'
_cell_volume   758.93881662
_cell_formula_units_Z   1
loop_
 _symmetry_equiv_pos_site_id
 _symmetry_equiv_pos_as_xyz
  1  'x, y, z'
loop_
 _atom_site_type_symbol
 _atom_site_label
 _atom_site_symmetry_multiplicity
 _atom_site_fract_x
 _atom_site_fract_y
 _atom_site_fract_z
 _atom_site_occupancy
  Pr  Pr0  1  0.013638  0.174185  0.402749  1
  Pr  Pr1  1  0.509547  0.327381  0.407960  1
  Pr  Pr2  1  0.483889  0.673849  0.898658  1
  Pr  Pr3  1  0.486819  0.668908  0.597357  1
  Pr  Pr4  1  0.988408  0.828827  0.595675  1
  Pr  Pr5  1  0.986873  0.828105  0.899045  1
  Pr  Pr6  1  0.515067  0.327711  0.096940  1
  Pr  Pr7  1  0.013591  0.173236  0.097071  1
  Zr  Zr8  1  0.666898  0.828958  0.378209  1
  Zr  Zr9  1  0.654161  0.006389  0.747039  1
  Zr  Zr10  1  0.169688  0.677657  0.377418  1
  Zr  Zr11  1  0.829906  0.321422  0.871636  1
  Zr  Zr12  1  0.830950  0.322705  0.623277  1
  Zr  Zr13  1  0.843473  0.506023  0.251107  1
  Zr  Zr14  1  0.342453  0.996631  0.251469  1
  Zr  Zr15  1  0.327859  0.176262  0.874886  1
  Zr  Zr16  1  0.172357  0.675722  0.125391  1
  Zr  Zr17  1  0.671513  0.822545  0.125279  1
  Zr  Zr18  1  0.159658  0.489748  0.745702  1
  Si  Si19  1  0.285885  0.890808  0.745723  1
  Si  Si20  1  0.467174  0.627531  0.251667  1
  Si  Si21  1  0.040920  0.126469  0.745495  1
  Si  Si22  1  0.529480  0.367775  0.746161  1
  Si  Si23  1  0.164078  0.451863  0.544080  1
  Si  Si24  1  0.966632  0.874519  0.251083  1
  Si  Si25  1  0.715344  0.118915  0.251243  1
  Si  Si26  1  0.849530  0.535168  0.039601  1
  Si  Si27  1  0.351431  0.964853  0.041681  1
  Si  Si28  1  0.148705  0.465302  0.957921  1
  Si  Si29  1  0.638311  0.038226  0.547224  1
  Si  Si30  1  0.341670  0.968277  0.467669  1
  Si  Si31  1  0.848126  0.534329  0.458300  1
  Si  Si32  1  0.785213  0.615180  0.747723  1
  Si  Si33  1  0.217304  0.383174  0.251094  1
  Si  Si34  1  0.651789  0.034460  0.957643  1
  W  W35  1  0.331659  0.176885  0.628827  1
