# generated using pymatgen
data_Ac2GaPt9
_symmetry_space_group_name_H-M   'P 1'
_cell_length_a   5.46603899
_cell_length_b   5.46603814
_cell_length_c   8.90021000
_cell_angle_alpha   90.00000000
_cell_angle_beta   90.00000000
_cell_angle_gamma   118.00285654
_symmetry_Int_Tables_number   1
_chemical_formula_structural   Ac2GaPt9
_chemical_formula_sum   'Ac2 Ga1 Pt9'
_cell_volume   234.78429895
_cell_formula_units_Z   1
loop_
 _symmetry_equiv_pos_site_id
 _symmetry_equiv_pos_as_xyz
  1  'x, y, z'
loop_
 _atom_site_type_symbol
 _atom_site_label
 _atom_site_symmetry_multiplicity
 _atom_site_fract_x
 _atom_site_fract_y
 _atom_site_fract_z
 _atom_site_occupancy
  Ac  Ac0  1  0.000000  0.000000  0.763002  1
  Ac  Ac1  1  0.000000  0.000000  0.236998  1
  Ga  Ga2  1  0.500000  0.500000  0.500000  1
  Pt  Pt3  1  0.662856  0.337144  0.745289  1
  Pt  Pt4  1  0.662856  0.337144  0.254711  1
  Pt  Pt5  1  0.500000  0.500000  0.000000  1
  Pt  Pt6  1  0.337144  0.662856  0.745289  1
  Pt  Pt7  1  0.500000  0.000000  0.500000  1
  Pt  Pt8  1  0.000000  0.500000  0.000000  1
  Pt  Pt9  1  0.500000  0.000000  0.000000  1
  Pt  Pt10  1  0.337144  0.662856  0.254711  1
  Pt  Pt11  1  0.000000  0.500000  0.500000  1
