# generated using pymatgen
data_Lu6Ti3NbAl12Ru7
_symmetry_space_group_name_H-M   'P 1'
_cell_length_a   8.94726660
_cell_length_b   8.94745504
_cell_length_c   8.95221773
_cell_angle_alpha   60.01544885
_cell_angle_beta   60.01292155
_cell_angle_gamma   59.99118040
_symmetry_Int_Tables_number   1
_chemical_formula_structural   Lu6Ti3NbAl12Ru7
_chemical_formula_sum   'Lu6 Ti3 Nb1 Al12 Ru7'
_cell_volume   506.83856898
_cell_formula_units_Z   1
loop_
 _symmetry_equiv_pos_site_id
 _symmetry_equiv_pos_as_xyz
  1  'x, y, z'
loop_
 _atom_site_type_symbol
 _atom_site_label
 _atom_site_symmetry_multiplicity
 _atom_site_fract_x
 _atom_site_fract_y
 _atom_site_fract_z
 _atom_site_occupancy
  Lu  Lu0  1  0.707250  0.707200  0.290981  1
  Lu  Lu1  1  0.294541  0.707197  0.291080  1
  Lu  Lu2  1  0.707263  0.294474  0.291063  1
  Lu  Lu3  1  0.292408  0.292360  0.707239  1
  Lu  Lu4  1  0.708054  0.292281  0.707256  1
  Lu  Lu5  1  0.292227  0.708054  0.707342  1
  Ti  Ti6  1  0.881873  0.356985  0.879314  1
  Ti  Ti7  1  0.357039  0.881710  0.879483  1
  Ti  Ti8  1  0.881613  0.881912  0.879262  1
  Nb  Nb9  1  0.879864  0.879745  0.360532  1
  Al  Al10  1  0.119496  0.119472  0.641489  1
  Al  Al11  1  0.120220  0.642065  0.117387  1
  Al  Al12  1  0.642054  0.120234  0.117407  1
  Al  Al13  1  0.120274  0.120250  0.117436  1
  Al  Al14  1  0.669575  0.669455  0.991590  1
  Al  Al15  1  0.667293  0.993415  0.672052  1
  Al  Al16  1  0.993406  0.667289  0.672104  1
  Al  Al17  1  0.667273  0.667263  0.672026  1
  Al  Al18  1  0.331147  0.331099  0.006690  1
  Al  Al19  1  0.330936  0.005829  0.332302  1
  Al  Al20  1  0.005854  0.330937  0.332298  1
  Al  Al21  1  0.330942  0.330958  0.332276  1
  Ru  Ru22  1  0.999892  0.000154  0.999758  1
  Ru  Ru23  1  0.997604  0.997675  0.501915  1
  Ru  Ru24  1  0.502891  0.997653  0.501898  1
  Ru  Ru25  1  0.997718  0.502765  0.501854  1
  Ru  Ru26  1  0.501158  0.501185  0.998699  1
  Ru  Ru27  1  0.998969  0.501349  0.998567  1
  Ru  Ru28  1  0.501163  0.999030  0.998697  1
