# generated using pymatgen
data_Ta2TiP
_symmetry_space_group_name_H-M   'P 1'
_cell_length_a   10.13250000
_cell_length_b   10.13250000
_cell_length_c   5.03289100
_cell_angle_alpha   90.00000000
_cell_angle_beta   90.00000000
_cell_angle_gamma   90.00000000
_symmetry_Int_Tables_number   1
_chemical_formula_structural   Ta2TiP
_chemical_formula_sum   'Ta16 Ti8 P8'
_cell_volume   516.71461984
_cell_formula_units_Z   8
loop_
 _symmetry_equiv_pos_site_id
 _symmetry_equiv_pos_as_xyz
  1  'x, y, z'
loop_
 _atom_site_type_symbol
 _atom_site_label
 _atom_site_symmetry_multiplicity
 _atom_site_fract_x
 _atom_site_fract_y
 _atom_site_fract_z
 _atom_site_occupancy
  Ta  Ta0  1  0.905830  0.594170  0.500000  1
  Ta  Ta1  1  0.905830  0.405830  0.000000  1
  Ta  Ta2  1  0.594170  0.094170  0.500000  1
  Ta  Ta3  1  0.801173  0.301173  0.500000  1
  Ta  Ta4  1  0.094170  0.405830  0.500000  1
  Ta  Ta5  1  0.094170  0.594170  0.000000  1
  Ta  Ta6  1  0.198827  0.301173  0.000000  1
  Ta  Ta7  1  0.301173  0.801173  0.000000  1
  Ta  Ta8  1  0.301173  0.198827  0.500000  1
  Ta  Ta9  1  0.698827  0.198827  0.000000  1
  Ta  Ta10  1  0.594170  0.905830  0.000000  1
  Ta  Ta11  1  0.698827  0.801173  0.500000  1
  Ta  Ta12  1  0.198827  0.698827  0.500000  1
  Ta  Ta13  1  0.405830  0.094170  0.000000  1
  Ta  Ta14  1  0.405830  0.905830  0.500000  1
  Ta  Ta15  1  0.801173  0.698827  0.000000  1
  Ti  Ti16  1  0.500000  0.644876  0.250000  1
  Ti  Ti17  1  0.855124  0.000000  0.750000  1
  Ti  Ti18  1  0.644876  0.500000  0.750000  1
  Ti  Ti19  1  0.000000  0.855124  0.250000  1
  Ti  Ti20  1  0.355124  0.500000  0.750000  1
  Ti  Ti21  1  0.000000  0.144876  0.250000  1
  Ti  Ti22  1  0.500000  0.355124  0.250000  1
  Ti  Ti23  1  0.144876  0.000000  0.750000  1
  P  P24  1  0.000000  0.797143  0.750000  1
  P  P25  1  0.500000  0.297143  0.750000  1
  P  P26  1  0.202857  0.000000  0.250000  1
  P  P27  1  0.797143  0.000000  0.250000  1
  P  P28  1  0.000000  0.202857  0.750000  1
  P  P29  1  0.702857  0.500000  0.250000  1
  P  P30  1  0.297143  0.500000  0.250000  1
  P  P31  1  0.500000  0.702857  0.750000  1
