# generated using pymatgen
data_Yb2Eu7Au6
_symmetry_space_group_name_H-M   'P 1'
_cell_length_a   8.01273428
_cell_length_b   8.01273452
_cell_length_c   8.01273465
_cell_angle_alpha   70.75531655
_cell_angle_beta   70.75532037
_cell_angle_gamma   70.75531199
_symmetry_Int_Tables_number   1
_chemical_formula_structural   Yb2Eu7Au6
_chemical_formula_sum   'Yb2 Eu7 Au6'
_cell_volume   444.24695066
_cell_formula_units_Z   1
loop_
 _symmetry_equiv_pos_site_id
 _symmetry_equiv_pos_as_xyz
  1  'x, y, z'
loop_
 _atom_site_type_symbol
 _atom_site_label
 _atom_site_symmetry_multiplicity
 _atom_site_fract_x
 _atom_site_fract_y
 _atom_site_fract_z
 _atom_site_occupancy
  Yb  Yb0  1  0.999704  0.999704  0.999704  1
  Yb  Yb1  1  0.196745  0.196745  0.196745  1
  Eu  Eu2  1  0.801032  0.801032  0.801032  1
  Eu  Eu3  1  0.401457  0.659889  0.159283  1
  Eu  Eu4  1  0.659889  0.159283  0.401457  1
  Eu  Eu5  1  0.159283  0.401457  0.659889  1
  Eu  Eu6  1  0.599047  0.339553  0.841491  1
  Eu  Eu7  1  0.339553  0.841491  0.599047  1
  Eu  Eu8  1  0.841491  0.599047  0.339553  1
  Au  Au9  1  0.045225  0.847085  0.399620  1
  Au  Au10  1  0.847085  0.399620  0.045225  1
  Au  Au11  1  0.399620  0.045225  0.847085  1
  Au  Au12  1  0.962077  0.161020  0.586773  1
  Au  Au13  1  0.161020  0.586773  0.962077  1
  Au  Au14  1  0.586773  0.962077  0.161020  1
