# generated using pymatgen
data_Er15LuInAg3Rh4
_symmetry_space_group_name_H-M   'P 1'
_cell_length_a   9.47129538
_cell_length_b   9.47134899
_cell_length_c   9.47094795
_cell_angle_alpha   60.19352259
_cell_angle_beta   60.19433109
_cell_angle_gamma   60.15890212
_symmetry_Int_Tables_number   1
_chemical_formula_structural   Er15LuInAg3Rh4
_chemical_formula_sum   'Er15 Lu1 In1 Ag3 Rh4'
_cell_volume   603.23753126
_cell_formula_units_Z   1
loop_
 _symmetry_equiv_pos_site_id
 _symmetry_equiv_pos_as_xyz
  1  'x, y, z'
loop_
 _atom_site_type_symbol
 _atom_site_label
 _atom_site_symmetry_multiplicity
 _atom_site_fract_x
 _atom_site_fract_y
 _atom_site_fract_z
 _atom_site_occupancy
  Er  Er0  1  0.435692  0.063425  0.062658  1
  Er  Er1  1  0.434709  0.060842  0.435508  1
  Er  Er2  1  0.063397  0.435710  0.062647  1
  Er  Er3  1  0.647366  0.054312  0.648539  1
  Er  Er4  1  0.188945  0.812745  0.812091  1
  Er  Er5  1  0.062893  0.062903  0.436300  1
  Er  Er6  1  0.810921  0.189546  0.189153  1
  Er  Er7  1  0.812148  0.812129  0.189133  1
  Er  Er8  1  0.648285  0.648316  0.053516  1
  Er  Er9  1  0.648598  0.648591  0.648896  1
  Er  Er10  1  0.060853  0.434682  0.435507  1
  Er  Er11  1  0.054357  0.647366  0.648515  1
  Er  Er12  1  0.812713  0.188972  0.812116  1
  Er  Er13  1  0.435001  0.435005  0.060772  1
  Er  Er14  1  0.189565  0.810905  0.189159  1
  Lu  Lu15  1  0.189196  0.189230  0.810549  1
  In  In16  1  0.421184  0.421167  0.421277  1
  Ag  Ag17  1  0.417273  0.749432  0.417219  1
  Ag  Ag18  1  0.417164  0.417144  0.749395  1
  Ag  Ag19  1  0.749450  0.417272  0.417210  1
  Rh  Rh20  1  0.858095  0.428397  0.856474  1
  Rh  Rh21  1  0.856609  0.856621  0.429590  1
  Rh  Rh22  1  0.428367  0.858107  0.856464  1
  Rh  Rh23  1  0.857221  0.857181  0.857312  1
