# generated using pymatgen
data_Sr5CePa2O12
_symmetry_space_group_name_H-M   'P 1'
_cell_length_a   6.08139869
_cell_length_b   6.25082394
_cell_length_c   8.70653977
_cell_angle_alpha   89.78117491
_cell_angle_beta   89.82043394
_cell_angle_gamma   90.04403996
_symmetry_Int_Tables_number   1
_chemical_formula_structural   Sr5CePa2O12
_chemical_formula_sum   'Sr5 Ce1 Pa2 O12'
_cell_volume   330.96410763
_cell_formula_units_Z   1
loop_
 _symmetry_equiv_pos_site_id
 _symmetry_equiv_pos_as_xyz
  1  'x, y, z'
loop_
 _atom_site_type_symbol
 _atom_site_label
 _atom_site_symmetry_multiplicity
 _atom_site_fract_x
 _atom_site_fract_y
 _atom_site_fract_z
 _atom_site_occupancy
  Sr  Sr0  1  0.000000  0.000000  0.000000  1
  Sr  Sr1  1  0.984483  0.451028  0.243155  1
  Sr  Sr2  1  0.513216  0.955155  0.246437  1
  Sr  Sr3  1  0.486784  0.044845  0.753563  1
  Sr  Sr4  1  0.015517  0.548972  0.756845  1
  Ce  Ce5  1  0.500000  0.500000  0.500000  1
  Pa  Pa6  1  0.500000  0.500000  0.000000  1
  Pa  Pa7  1  0.000000  0.000000  0.500000  1
  O  O8  1  0.883671  0.949666  0.724940  1
  O  O9  1  0.793142  0.712517  0.430965  1
  O  O10  1  0.790537  0.673164  0.053268  1
  O  O11  1  0.712133  0.206253  0.438560  1
  O  O12  1  0.670883  0.212292  0.061385  1
  O  O13  1  0.612307  0.452721  0.744956  1
  O  O14  1  0.387693  0.547279  0.255044  1
  O  O15  1  0.329117  0.787708  0.938615  1
  O  O16  1  0.287867  0.793747  0.561440  1
  O  O17  1  0.209463  0.326836  0.946732  1
  O  O18  1  0.206858  0.287483  0.569035  1
  O  O19  1  0.116329  0.050334  0.275060  1
