# generated using pymatgen
data_Dy4LuPd9
_symmetry_space_group_name_H-M   'P 1'
_cell_length_a   9.74967200
_cell_length_b   9.74967200
_cell_length_c   5.76405500
_cell_angle_alpha   90.00000000
_cell_angle_beta   90.00000000
_cell_angle_gamma   90.00000000
_symmetry_Int_Tables_number   1
_chemical_formula_structural   Dy4LuPd9
_chemical_formula_sum   'Dy8 Lu2 Pd18'
_cell_volume   547.90861216
_cell_formula_units_Z   2
loop_
 _symmetry_equiv_pos_site_id
 _symmetry_equiv_pos_as_xyz
  1  'x, y, z'
loop_
 _atom_site_type_symbol
 _atom_site_label
 _atom_site_symmetry_multiplicity
 _atom_site_fract_x
 _atom_site_fract_y
 _atom_site_fract_z
 _atom_site_occupancy
  Dy  Dy0  1  0.452569  0.808797  0.000000  1
  Dy  Dy1  1  0.547431  0.191203  0.000000  1
  Dy  Dy2  1  0.191203  0.547431  0.000000  1
  Dy  Dy3  1  0.808797  0.452569  0.000000  1
  Dy  Dy4  1  0.308797  0.047431  0.500000  1
  Dy  Dy5  1  0.691203  0.952569  0.500000  1
  Dy  Dy6  1  0.952569  0.691203  0.500000  1
  Dy  Dy7  1  0.047431  0.308797  0.500000  1
  Lu  Lu8  1  0.500000  0.500000  0.500000  1
  Lu  Lu9  1  0.000000  0.000000  0.000000  1
  Pd  Pd10  1  0.189873  0.810127  0.250033  1
  Pd  Pd11  1  0.810127  0.189873  0.749967  1
  Pd  Pd12  1  0.810127  0.189873  0.250033  1
  Pd  Pd13  1  0.189873  0.810127  0.749967  1
  Pd  Pd14  1  0.439444  0.778692  0.500000  1
  Pd  Pd15  1  0.560556  0.221308  0.500000  1
  Pd  Pd16  1  0.221308  0.560556  0.500000  1
  Pd  Pd17  1  0.778692  0.439444  0.500000  1
  Pd  Pd18  1  0.310127  0.310127  0.249967  1
  Pd  Pd19  1  0.689873  0.689873  0.750033  1
  Pd  Pd20  1  0.689873  0.689873  0.249967  1
  Pd  Pd21  1  0.310127  0.310127  0.750033  1
  Pd  Pd22  1  0.278692  0.060556  0.000000  1
  Pd  Pd23  1  0.721308  0.939444  0.000000  1
  Pd  Pd24  1  0.939444  0.721308  0.000000  1
  Pd  Pd25  1  0.060556  0.278692  0.000000  1
  Pd  Pd26  1  0.000000  0.000000  0.500000  1
  Pd  Pd27  1  0.500000  0.500000  0.000000  1
