# generated using pymatgen
data_Ti(MoW4)3
_symmetry_space_group_name_H-M   'P 1'
_cell_length_a   6.35946974
_cell_length_b   6.35946974
_cell_length_c   6.36043776
_cell_angle_alpha   90.08815814
_cell_angle_beta   90.08815814
_cell_angle_gamma   89.91224943
_symmetry_Int_Tables_number   1
_chemical_formula_structural   Ti(MoW4)3
_chemical_formula_sum   'Ti1 Mo3 W12'
_cell_volume   257.23335507
_cell_formula_units_Z   1
loop_
 _symmetry_equiv_pos_site_id
 _symmetry_equiv_pos_as_xyz
  1  'x, y, z'
loop_
 _atom_site_type_symbol
 _atom_site_label
 _atom_site_symmetry_multiplicity
 _atom_site_fract_x
 _atom_site_fract_y
 _atom_site_fract_z
 _atom_site_occupancy
  Ti  Ti0  1  0.000527  0.000527  0.001524  1
  Mo  Mo1  1  0.250230  0.250230  0.250141  1
  Mo  Mo2  1  0.749936  0.249975  0.250106  1
  Mo  Mo3  1  0.249975  0.749936  0.250106  1
  W  W4  1  0.499842  0.000160  0.000414  1
  W  W5  1  0.000160  0.499842  0.000414  1
  W  W6  1  0.499695  0.499695  0.000744  1
  W  W7  1  0.749640  0.749640  0.250428  1
  W  W8  1  0.000144  0.000144  0.499545  1
  W  W9  1  0.499715  0.000243  0.499159  1
  W  W10  1  0.000243  0.499715  0.499159  1
  W  W11  1  0.499692  0.499692  0.499119  1
  W  W12  1  0.250189  0.250189  0.749760  1
  W  W13  1  0.749842  0.250227  0.749701  1
  W  W14  1  0.250227  0.749842  0.749701  1
  W  W15  1  0.749938  0.749938  0.749976  1
