# generated using pymatgen
data_Rb3SmI6
_symmetry_space_group_name_H-M   'P 1'
_cell_length_a   10.42859700
_cell_length_b   10.42859700
_cell_length_c   8.77357900
_cell_angle_alpha   90.00000000
_cell_angle_beta   90.00000000
_cell_angle_gamma   90.00000000
_symmetry_Int_Tables_number   1
_chemical_formula_structural   Rb3SmI6
_chemical_formula_sum   'Rb6 Sm2 I12'
_cell_volume   954.17615878
_cell_formula_units_Z   2
loop_
 _symmetry_equiv_pos_site_id
 _symmetry_equiv_pos_as_xyz
  1  'x, y, z'
loop_
 _atom_site_type_symbol
 _atom_site_label
 _atom_site_symmetry_multiplicity
 _atom_site_fract_x
 _atom_site_fract_y
 _atom_site_fract_z
 _atom_site_occupancy
  Rb  Rb0  1  0.000000  0.000000  0.500000  1
  Rb  Rb1  1  0.000000  0.000000  0.000000  1
  Rb  Rb2  1  0.233599  0.587260  0.500000  1
  Rb  Rb3  1  0.766401  0.412740  0.500000  1
  Rb  Rb4  1  0.412740  0.233599  0.000000  1
  Rb  Rb5  1  0.587260  0.766401  0.000000  1
  Sm  Sm6  1  0.500000  0.000000  0.500000  1
  Sm  Sm7  1  0.000000  0.500000  0.000000  1
  I  I8  1  0.701754  0.059444  0.750951  1
  I  I9  1  0.298246  0.940556  0.750951  1
  I  I10  1  0.940556  0.701754  0.250951  1
  I  I11  1  0.059444  0.298246  0.250951  1
  I  I12  1  0.298246  0.940556  0.249049  1
  I  I13  1  0.701754  0.059444  0.249049  1
  I  I14  1  0.059444  0.298246  0.749049  1
  I  I15  1  0.940556  0.701754  0.749049  1
  I  I16  1  0.569687  0.712719  0.500000  1
  I  I17  1  0.430313  0.287281  0.500000  1
  I  I18  1  0.287281  0.569687  0.000000  1
  I  I19  1  0.712719  0.430313  0.000000  1
