# generated using pymatgen
data_YTm7Sc12Ga7Si9
_symmetry_space_group_name_H-M   'P 1'
_cell_length_a   7.13221473
_cell_length_b   7.38682723
_cell_length_c   14.20353969
_cell_angle_alpha   90.02761458
_cell_angle_beta   89.92391441
_cell_angle_gamma   90.06379086
_symmetry_Int_Tables_number   1
_chemical_formula_structural   YTm7Sc12Ga7Si9
_chemical_formula_sum   'Y1 Tm7 Sc12 Ga7 Si9'
_cell_volume   748.30429584
_cell_formula_units_Z   1
loop_
 _symmetry_equiv_pos_site_id
 _symmetry_equiv_pos_as_xyz
  1  'x, y, z'
loop_
 _atom_site_type_symbol
 _atom_site_label
 _atom_site_symmetry_multiplicity
 _atom_site_fract_x
 _atom_site_fract_y
 _atom_site_fract_z
 _atom_site_occupancy
  Y  Y0  1  0.012194  0.173868  0.098132  1
  Tm  Tm1  1  0.989801  0.822455  0.901142  1
  Tm  Tm2  1  0.488835  0.677425  0.901605  1
  Tm  Tm3  1  0.989675  0.822859  0.599722  1
  Tm  Tm4  1  0.510215  0.322290  0.098946  1
  Tm  Tm5  1  0.009858  0.176599  0.399953  1
  Tm  Tm6  1  0.510278  0.322711  0.400179  1
  Tm  Tm7  1  0.489835  0.677060  0.599583  1
  Sc  Sc8  1  0.164450  0.502813  0.749955  1
  Sc  Sc9  1  0.836292  0.498528  0.250003  1
  Sc  Sc10  1  0.335720  0.002261  0.249228  1
  Sc  Sc11  1  0.663782  0.997716  0.749775  1
  Sc  Sc12  1  0.330497  0.173037  0.626061  1
  Sc  Sc13  1  0.668788  0.826982  0.373875  1
  Sc  Sc14  1  0.169139  0.673388  0.373876  1
  Sc  Sc15  1  0.667402  0.825211  0.126365  1
  Sc  Sc16  1  0.830501  0.326848  0.626256  1
  Sc  Sc17  1  0.330086  0.173851  0.874857  1
  Sc  Sc18  1  0.829118  0.327285  0.874167  1
  Sc  Sc19  1  0.172089  0.675344  0.124994  1
  Ga  Ga20  1  0.162334  0.463285  0.539560  1
  Ga  Ga21  1  0.837557  0.536076  0.460453  1
  Ga  Ga22  1  0.337383  0.963514  0.460602  1
  Ga  Ga23  1  0.837728  0.538727  0.039814  1
  Ga  Ga24  1  0.662356  0.036713  0.539419  1
  Ga  Ga25  1  0.161537  0.463991  0.960161  1
  Ga  Ga26  1  0.660747  0.037142  0.960806  1
  Si  Si27  1  0.031820  0.111830  0.750944  1
  Si  Si28  1  0.967453  0.886036  0.249885  1
  Si  Si29  1  0.467406  0.611652  0.249551  1
  Si  Si30  1  0.532053  0.387925  0.750271  1
  Si  Si31  1  0.284713  0.872249  0.750742  1
  Si  Si32  1  0.714746  0.127949  0.249485  1
  Si  Si33  1  0.215507  0.372183  0.249888  1
  Si  Si34  1  0.784566  0.628445  0.750523  1
  Si  Si35  1  0.343536  0.963753  0.039222  1
