# generated using pymatgen
data_Pa7N12
_symmetry_space_group_name_H-M   'P 1'
_cell_length_a   6.60438226
_cell_length_b   6.61091961
_cell_length_c   6.60956800
_cell_angle_alpha   99.44368249
_cell_angle_beta   99.41813189
_cell_angle_gamma   99.33468057
_symmetry_Int_Tables_number   1
_chemical_formula_structural   Pa7N12
_chemical_formula_sum   'Pa7 N12'
_cell_volume   275.48216048
_cell_formula_units_Z   1
loop_
 _symmetry_equiv_pos_site_id
 _symmetry_equiv_pos_as_xyz
  1  'x, y, z'
loop_
 _atom_site_type_symbol
 _atom_site_label
 _atom_site_symmetry_multiplicity
 _atom_site_fract_x
 _atom_site_fract_y
 _atom_site_fract_z
 _atom_site_occupancy
  Pa  Pa0  1  0.863492  0.702645  0.401589  1
  Pa  Pa1  1  0.401751  0.863555  0.702648  1
  Pa  Pa2  1  0.702705  0.401600  0.863655  1
  Pa  Pa3  1  0.136508  0.297355  0.598411  1
  Pa  Pa4  1  0.598249  0.136445  0.297352  1
  Pa  Pa5  1  0.297295  0.598400  0.136345  1
  Pa  Pa6  1  0.000000  0.000000  0.000000  1
  N  N7  1  0.071118  0.937435  0.678742  1
  N  N8  1  0.678751  0.071135  0.937559  1
  N  N9  1  0.937437  0.678865  0.071085  1
  N  N10  1  0.928882  0.062565  0.321258  1
  N  N11  1  0.321249  0.928865  0.062441  1
  N  N12  1  0.062563  0.321135  0.928915  1
  N  N13  1  0.563859  0.823495  0.409218  1
  N  N14  1  0.176620  0.590533  0.436049  1
  N  N15  1  0.590676  0.436108  0.176584  1
  N  N16  1  0.436141  0.176505  0.590782  1
  N  N17  1  0.823380  0.409467  0.563951  1
  N  N18  1  0.409324  0.563892  0.823416  1
