# generated using pymatgen
data_Zr6Zn23Pd
_symmetry_space_group_name_H-M   'P 1'
_cell_length_a   8.81268944
_cell_length_b   8.81061552
_cell_length_c   8.81350847
_cell_angle_alpha   119.98205370
_cell_angle_beta   90.03612705
_cell_angle_gamma   119.98382116
_symmetry_Int_Tables_number   1
_chemical_formula_structural   Zr6Zn23Pd
_chemical_formula_sum   'Zr6 Zn23 Pd1'
_cell_volume   483.98906244
_cell_formula_units_Z   1
loop_
 _symmetry_equiv_pos_site_id
 _symmetry_equiv_pos_as_xyz
  1  'x, y, z'
loop_
 _atom_site_type_symbol
 _atom_site_label
 _atom_site_symmetry_multiplicity
 _atom_site_fract_x
 _atom_site_fract_y
 _atom_site_fract_z
 _atom_site_occupancy
  Zr  Zr0  1  0.281481  0.000011  0.281484  1
  Zr  Zr1  1  0.718447  0.000000  0.281559  1
  Zr  Zr2  1  0.281507  0.563005  0.281509  1
  Zr  Zr3  1  0.281553  0.000000  0.718441  1
  Zr  Zr4  1  0.718519  0.999989  0.718516  1
  Zr  Zr5  1  0.718493  0.436995  0.718491  1
  Zn  Zn6  1  0.499999  0.000000  0.000000  1
  Zn  Zn7  1  0.000000  0.499999  0.000000  1
  Zn  Zn8  1  0.499999  0.499999  0.000000  1
  Zn  Zn9  1  0.343599  0.687241  0.030867  1
  Zn  Zn10  1  0.370881  0.247273  0.123655  1
  Zn  Zn11  1  0.876385  0.247242  0.123636  1
  Zn  Zn12  1  0.876382  0.752779  0.123643  1
  Zn  Zn13  1  0.656354  0.312736  0.343628  1
  Zn  Zn14  1  0.030885  0.687246  0.343598  1
  Zn  Zn15  1  0.656362  0.687258  0.343639  1
  Zn  Zn16  1  0.123653  0.247282  0.370913  1
  Zn  Zn17  1  0.000000  0.000000  0.499999  1
  Zn  Zn18  1  0.000000  0.499999  0.499999  1
  Zn  Zn19  1  0.499999  0.499999  0.499999  1
  Zn  Zn20  1  0.500000  0.000000  0.500000  1
  Zn  Zn21  1  0.876347  0.752718  0.629087  1
  Zn  Zn22  1  0.343646  0.687264  0.656372  1
  Zn  Zn23  1  0.343638  0.312742  0.656361  1
  Zn  Zn24  1  0.969115  0.312754  0.656402  1
  Zn  Zn25  1  0.123618  0.247221  0.876357  1
  Zn  Zn26  1  0.123615  0.752758  0.876364  1
  Zn  Zn27  1  0.629119  0.752727  0.876345  1
  Zn  Zn28  1  0.656401  0.312759  0.969133  1
  Pd  Pd29  1  0.000000  0.000000  0.000000  1
