# generated using pymatgen
data_Hf6Ti3Al13Pt6Rh
_symmetry_space_group_name_H-M   'P 1'
_cell_length_a   8.80014815
_cell_length_b   8.80014759
_cell_length_c   8.80014703
_cell_angle_alpha   59.79321102
_cell_angle_beta   59.79321235
_cell_angle_gamma   59.79321324
_symmetry_Int_Tables_number   1
_chemical_formula_structural   Hf6Ti3Al13Pt6Rh
_chemical_formula_sum   'Hf6 Ti3 Al13 Pt6 Rh1'
_cell_volume   479.63546977
_cell_formula_units_Z   1
loop_
 _symmetry_equiv_pos_site_id
 _symmetry_equiv_pos_as_xyz
  1  'x, y, z'
loop_
 _atom_site_type_symbol
 _atom_site_label
 _atom_site_symmetry_multiplicity
 _atom_site_fract_x
 _atom_site_fract_y
 _atom_site_fract_z
 _atom_site_occupancy
  Hf  Hf0  1  0.683850  0.683850  0.314888  1
  Hf  Hf1  1  0.315841  0.682903  0.315841  1
  Hf  Hf2  1  0.682903  0.315841  0.315841  1
  Hf  Hf3  1  0.315841  0.315841  0.682903  1
  Hf  Hf4  1  0.683850  0.314888  0.683850  1
  Hf  Hf5  1  0.314888  0.683850  0.683850  1
  Ti  Ti6  1  0.880683  0.880683  0.356644  1
  Ti  Ti7  1  0.880683  0.356644  0.880683  1
  Ti  Ti8  1  0.356644  0.880683  0.880683  1
  Al  Al9  1  0.883336  0.883336  0.883336  1
  Al  Al10  1  0.118906  0.118906  0.644119  1
  Al  Al11  1  0.118906  0.644119  0.118906  1
  Al  Al12  1  0.644119  0.118906  0.118906  1
  Al  Al13  1  0.120033  0.120033  0.120033  1
  Al  Al14  1  0.665256  0.665256  0.003881  1
  Al  Al15  1  0.665256  0.003881  0.665256  1
  Al  Al16  1  0.003881  0.665256  0.665256  1
  Al  Al17  1  0.663225  0.663225  0.663225  1
  Al  Al18  1  0.335216  0.335216  0.994610  1
  Al  Al19  1  0.335216  0.994610  0.335216  1
  Al  Al20  1  0.994610  0.335216  0.335216  1
  Al  Al21  1  0.334552  0.334552  0.334552  1
  Pt  Pt22  1  0.999049  0.999049  0.501434  1
  Pt  Pt23  1  0.500306  0.999090  0.500306  1
  Pt  Pt24  1  0.999090  0.500306  0.500306  1
  Pt  Pt25  1  0.500306  0.500306  0.999090  1
  Pt  Pt26  1  0.999049  0.501434  0.999049  1
  Pt  Pt27  1  0.501434  0.999049  0.999049  1
  Rh  Rh28  1  0.003072  0.003072  0.003072  1
