# generated using pymatgen
data_MgTa5(ReSi)6
_symmetry_space_group_name_H-M   'P 1'
_cell_length_a   7.66084299
_cell_length_b   7.57175094
_cell_length_c   7.66084367
_cell_angle_alpha   126.08121153
_cell_angle_beta   128.75677170
_cell_angle_gamma   77.84562326
_symmetry_Int_Tables_number   1
_chemical_formula_structural   MgTa5(ReSi)6
_chemical_formula_sum   'Mg1 Ta5 Re6 Si6'
_cell_volume   271.09892527
_cell_formula_units_Z   1
loop_
 _symmetry_equiv_pos_site_id
 _symmetry_equiv_pos_as_xyz
  1  'x, y, z'
loop_
 _atom_site_type_symbol
 _atom_site_label
 _atom_site_symmetry_multiplicity
 _atom_site_fract_x
 _atom_site_fract_y
 _atom_site_fract_z
 _atom_site_occupancy
  Mg  Mg0  1  0.551331  0.101176  0.049846  1
  Ta  Ta1  1  0.449528  0.490009  0.540481  1
  Ta  Ta2  1  0.949963  0.494095  0.044132  1
  Ta  Ta3  1  0.049807  0.096004  0.546197  1
  Ta  Ta4  1  0.748700  0.898236  0.649535  1
  Ta  Ta5  1  0.245824  0.892962  0.147138  1
  Re  Re6  1  0.499890  0.240046  0.737610  1
  Re  Re7  1  0.002435  0.240046  0.240155  1
  Re  Re8  1  0.123430  0.756385  0.620630  1
  Re  Re9  1  0.878244  0.498501  0.632919  1
  Re  Re10  1  0.635755  0.756385  0.132956  1
  Re  Re11  1  0.365582  0.498501  0.120257  1
  Si  Si12  1  0.748020  0.495132  0.247112  1
  Si  Si13  1  0.254074  0.501996  0.747922  1
  Si  Si14  1  0.335660  0.829789  0.501474  1
  Si  Si15  1  0.664363  0.161573  0.492495  1
  Si  Si16  1  0.828315  0.829789  0.994130  1
  Si  Si17  1  0.169077  0.161573  0.997209  1
