# generated using pymatgen
data_Dy4HoEr5Ru4
_symmetry_space_group_name_H-M   'P 1'
_cell_length_a   6.31070351
_cell_length_b   7.25043763
_cell_length_c   8.42792351
_cell_angle_alpha   96.75927159
_cell_angle_beta   112.03422514
_cell_angle_gamma   89.91802231
_symmetry_Int_Tables_number   1
_chemical_formula_structural   Dy4HoEr5Ru4
_chemical_formula_sum   'Dy4 Ho1 Er5 Ru4'
_cell_volume   354.58969293
_cell_formula_units_Z   1
loop_
 _symmetry_equiv_pos_site_id
 _symmetry_equiv_pos_as_xyz
  1  'x, y, z'
loop_
 _atom_site_type_symbol
 _atom_site_label
 _atom_site_symmetry_multiplicity
 _atom_site_fract_x
 _atom_site_fract_y
 _atom_site_fract_z
 _atom_site_occupancy
  Dy  Dy0  1  0.790753  0.583835  0.812780  1
  Dy  Dy1  1  0.977406  0.916051  0.187114  1
  Dy  Dy2  1  0.209467  0.415999  0.187166  1
  Dy  Dy3  1  0.022417  0.084116  0.812885  1
  Ho  Ho4  1  0.205515  0.685049  0.565544  1
  Er  Er5  1  0.640152  0.815412  0.434617  1
  Er  Er6  1  0.794447  0.315018  0.434370  1
  Er  Er7  1  0.359823  0.184687  0.565254  1
  Er  Er8  1  0.419865  0.749769  0.000090  1
  Er  Er9  1  0.580255  0.250252  0.000196  1
  Ru  Ru10  1  0.601814  0.924563  0.779131  1
  Ru  Ru11  1  0.822122  0.576159  0.220563  1
  Ru  Ru12  1  0.398478  0.075593  0.221013  1
  Ru  Ru13  1  0.177487  0.423496  0.779280  1
