# generated using pymatgen
data_Nd3GdCdPt
_symmetry_space_group_name_H-M   'P 1'
_cell_length_a   10.05287377
_cell_length_b   10.05287358
_cell_length_c   10.05287300
_cell_angle_alpha   59.99999861
_cell_angle_beta   59.99999924
_cell_angle_gamma   60.00000266
_symmetry_Int_Tables_number   1
_chemical_formula_structural   Nd3GdCdPt
_chemical_formula_sum   'Nd12 Gd4 Cd4 Pt4'
_cell_volume   718.38234463
_cell_formula_units_Z   4
loop_
 _symmetry_equiv_pos_site_id
 _symmetry_equiv_pos_as_xyz
  1  'x, y, z'
loop_
 _atom_site_type_symbol
 _atom_site_label
 _atom_site_symmetry_multiplicity
 _atom_site_fract_x
 _atom_site_fract_y
 _atom_site_fract_z
 _atom_site_occupancy
  Nd  Nd0  1  0.807334  0.192666  0.192666  1
  Nd  Nd1  1  0.192666  0.807334  0.807334  1
  Nd  Nd2  1  0.192666  0.807334  0.192666  1
  Nd  Nd3  1  0.807334  0.192666  0.807334  1
  Nd  Nd4  1  0.192666  0.192666  0.807334  1
  Nd  Nd5  1  0.807334  0.807334  0.192666  1
  Nd  Nd6  1  0.936630  0.563370  0.563370  1
  Nd  Nd7  1  0.563370  0.936630  0.936630  1
  Nd  Nd8  1  0.563370  0.936630  0.563370  1
  Nd  Nd9  1  0.936630  0.563370  0.936630  1
  Nd  Nd10  1  0.563370  0.563370  0.936630  1
  Nd  Nd11  1  0.936630  0.936630  0.563370  1
  Gd  Gd12  1  0.348244  0.348244  0.348244  1
  Gd  Gd13  1  0.348244  0.348244  0.955270  1
  Gd  Gd14  1  0.348244  0.955270  0.348244  1
  Gd  Gd15  1  0.955270  0.348244  0.348244  1
  Cd  Cd16  1  0.580424  0.580424  0.580424  1
  Cd  Cd17  1  0.580424  0.580424  0.258731  1
  Cd  Cd18  1  0.580424  0.258731  0.580424  1
  Cd  Cd19  1  0.258731  0.580424  0.580424  1
  Pt  Pt20  1  0.144165  0.144165  0.144165  1
  Pt  Pt21  1  0.144165  0.144165  0.567508  1
  Pt  Pt22  1  0.144165  0.567508  0.144165  1
  Pt  Pt23  1  0.567508  0.144165  0.144165  1
