# generated using pymatgen
data_Ho6AuO12
_symmetry_space_group_name_H-M   'P 1'
_cell_length_a   6.47194616
_cell_length_b   6.47194671
_cell_length_c   6.47194593
_cell_angle_alpha   98.90316939
_cell_angle_beta   98.90317132
_cell_angle_gamma   98.90316748
_symmetry_Int_Tables_number   1
_chemical_formula_structural   Ho6AuO12
_chemical_formula_sum   'Ho6 Au1 O12'
_cell_volume   260.11818726
_cell_formula_units_Z   1
loop_
 _symmetry_equiv_pos_site_id
 _symmetry_equiv_pos_as_xyz
  1  'x, y, z'
loop_
 _atom_site_type_symbol
 _atom_site_label
 _atom_site_symmetry_multiplicity
 _atom_site_fract_x
 _atom_site_fract_y
 _atom_site_fract_z
 _atom_site_occupancy
  Ho  Ho0  1  0.140732  0.303488  0.609867  1
  Ho  Ho1  1  0.390133  0.859268  0.696512  1
  Ho  Ho2  1  0.696512  0.390133  0.859268  1
  Ho  Ho3  1  0.303488  0.609867  0.140732  1
  Ho  Ho4  1  0.609867  0.140732  0.303488  1
  Ho  Ho5  1  0.859268  0.696512  0.390133  1
  Au  Au6  1  0.000000  0.000000  0.000000  1
  O  O7  1  0.061744  0.309271  0.951965  1
  O  O8  1  0.048035  0.938256  0.690729  1
  O  O9  1  0.411936  0.562373  0.821691  1
  O  O10  1  0.178309  0.588064  0.437627  1
  O  O11  1  0.690729  0.048035  0.938256  1
  O  O12  1  0.437627  0.178309  0.588064  1
  O  O13  1  0.562373  0.821691  0.411936  1
  O  O14  1  0.309271  0.951965  0.061744  1
  O  O15  1  0.821691  0.411936  0.562373  1
  O  O16  1  0.588064  0.437627  0.178309  1
  O  O17  1  0.951965  0.061744  0.309271  1
  O  O18  1  0.938256  0.690729  0.048035  1
