# generated using pymatgen
data_Nd5P4S
_symmetry_space_group_name_H-M   'P 1'
_cell_length_a   16.96067193
_cell_length_b   16.96067193
_cell_length_c   16.96067174
_cell_angle_alpha   14.15795497
_cell_angle_beta   14.15795403
_cell_angle_gamma   14.15795914
_symmetry_Int_Tables_number   1
_chemical_formula_structural   Nd5P4S
_chemical_formula_sum   'Nd5 P4 S1'
_cell_volume   254.07523573
_cell_formula_units_Z   1
loop_
 _symmetry_equiv_pos_site_id
 _symmetry_equiv_pos_as_xyz
  1  'x, y, z'
loop_
 _atom_site_type_symbol
 _atom_site_label
 _atom_site_symmetry_multiplicity
 _atom_site_fract_x
 _atom_site_fract_y
 _atom_site_fract_z
 _atom_site_occupancy
  Nd  Nd0  1  0.601042  0.601042  0.601042  1
  Nd  Nd1  1  0.398958  0.398958  0.398958  1
  Nd  Nd2  1  0.000000  0.000000  0.000000  1
  Nd  Nd3  1  0.201853  0.201853  0.201853  1
  Nd  Nd4  1  0.798147  0.798147  0.798147  1
  P  P5  1  0.101243  0.101243  0.101243  1
  P  P6  1  0.700469  0.700469  0.700469  1
  P  P7  1  0.299531  0.299531  0.299531  1
  P  P8  1  0.898757  0.898757  0.898757  1
  S  S9  1  0.500000  0.500000  0.500000  1
