# generated using pymatgen
data_PrTh2In3IrRh2
_symmetry_space_group_name_H-M   'P 1'
_cell_length_a   7.65559331
_cell_length_b   7.76110869
_cell_length_c   4.01661100
_cell_angle_alpha   90.00000000
_cell_angle_beta   90.00000000
_cell_angle_gamma   119.46217219
_symmetry_Int_Tables_number   1
_chemical_formula_structural   PrTh2In3IrRh2
_chemical_formula_sum   'Pr1 Th2 In3 Ir1 Rh2'
_cell_volume   207.78838513
_cell_formula_units_Z   1
loop_
 _symmetry_equiv_pos_site_id
 _symmetry_equiv_pos_as_xyz
  1  'x, y, z'
loop_
 _atom_site_type_symbol
 _atom_site_label
 _atom_site_symmetry_multiplicity
 _atom_site_fract_x
 _atom_site_fract_y
 _atom_site_fract_z
 _atom_site_occupancy
  Pr  Pr0  1  0.586548  0.997759  0.500000  1
  Th  Th1  1  0.999938  0.587032  0.500000  1
  Th  Th2  1  0.410991  0.416120  0.500000  1
  In  In3  1  0.751689  0.763139  0.000000  1
  In  In4  1  0.987511  0.236029  0.000000  1
  In  In5  1  0.262402  0.000208  0.000000  1
  Ir  Ir6  1  0.309684  0.638214  0.000000  1
  Rh  Rh7  1  0.020574  0.999860  0.500000  1
  Rh  Rh8  1  0.670662  0.361638  0.000000  1
