# generated using pymatgen
data_Ho2CoSi5IrRh
_symmetry_space_group_name_H-M   'P 1'
_cell_length_a   8.01198091
_cell_length_b   8.01198097
_cell_length_c   8.01198030
_cell_angle_alpha   138.30655516
_cell_angle_beta   104.86753085
_cell_angle_gamma   89.81095624
_symmetry_Int_Tables_number   1
_chemical_formula_structural   Ho2CoSi5IrRh
_chemical_formula_sum   'Ho4 Co2 Si10 Ir2 Rh2'
_cell_volume   316.13380815
_cell_formula_units_Z   2
loop_
 _symmetry_equiv_pos_site_id
 _symmetry_equiv_pos_as_xyz
  1  'x, y, z'
loop_
 _atom_site_type_symbol
 _atom_site_label
 _atom_site_symmetry_multiplicity
 _atom_site_fract_x
 _atom_site_fract_y
 _atom_site_fract_z
 _atom_site_occupancy
  Ho  Ho0  1  0.599750  0.867357  0.732394  1
  Ho  Ho1  1  0.135361  0.367727  0.767633  1
  Ho  Ho2  1  0.865036  0.632643  0.232394  1
  Ho  Ho3  1  0.399906  0.132273  0.267633  1
  Co  Co4  1  0.472040  0.362092  0.109950  1
  Co  Co5  1  0.747859  0.137908  0.609950  1
  Si  Si6  1  0.774763  0.034383  0.265563  1
  Si  Si7  1  0.231180  0.990800  0.765563  1
  Si  Si8  1  0.774763  0.509200  0.740380  1
  Si  Si9  1  0.940684  0.108036  0.832649  1
  Si  Si10  1  0.048814  0.893283  0.155531  1
  Si  Si11  1  0.510084  0.250000  0.760084  1
  Si  Si12  1  0.510084  0.750000  0.260084  1
  Si  Si13  1  0.724612  0.391964  0.332649  1
  Si  Si14  1  0.262247  0.606717  0.655531  1
  Si  Si15  1  0.231180  0.465617  0.240380  1
  Ir  Ir16  1  0.995034  0.250000  0.245034  1
  Ir  Ir17  1  0.995034  0.750000  0.745034  1
  Rh  Rh18  1  0.252413  0.861631  0.390783  1
  Rh  Rh19  1  0.529153  0.638369  0.890783  1
