# generated using pymatgen
data_LiTb2YCd3Pd2
_symmetry_space_group_name_H-M   'P 1'
_cell_length_a   7.77398600
_cell_length_b   7.78143692
_cell_length_c   3.77159000
_cell_angle_alpha   90.00000000
_cell_angle_beta   90.00000000
_cell_angle_gamma   119.96833887
_symmetry_Int_Tables_number   1
_chemical_formula_structural   LiTb2YCd3Pd2
_chemical_formula_sum   'Li1 Tb2 Y1 Cd3 Pd2'
_cell_volume   197.65014219
_cell_formula_units_Z   1
loop_
 _symmetry_equiv_pos_site_id
 _symmetry_equiv_pos_as_xyz
  1  'x, y, z'
loop_
 _atom_site_type_symbol
 _atom_site_label
 _atom_site_symmetry_multiplicity
 _atom_site_fract_x
 _atom_site_fract_y
 _atom_site_fract_z
 _atom_site_occupancy
  Li  Li0  1  0.999953  0.000000  0.000000  1
  Tb  Tb1  1  0.000014  0.579433  0.000000  1
  Tb  Tb2  1  0.420581  0.420567  0.000000  1
  Y  Y3  1  0.579611  0.000000  0.000000  1
  Cd  Cd4  1  0.248060  0.000000  0.500000  1
  Cd  Cd5  1  0.999836  0.247713  0.500000  1
  Cd  Cd6  1  0.752123  0.752287  0.500000  1
  Pd  Pd7  1  0.333096  0.666370  0.500000  1
  Pd  Pd8  1  0.666727  0.333630  0.500000  1
