# generated using pymatgen
data_Y3ErTh4(ReB6)4
_symmetry_space_group_name_H-M   'P 1'
_cell_length_a   3.77015800
_cell_length_b   9.26888606
_cell_length_c   11.69949007
_cell_angle_alpha   90.01286382
_cell_angle_beta   90.00000000
_cell_angle_gamma   90.00000000
_symmetry_Int_Tables_number   1
_chemical_formula_structural   Y3ErTh4(ReB6)4
_chemical_formula_sum   'Y3 Er1 Th4 Re4 B24'
_cell_volume   408.84059985
_cell_formula_units_Z   1
loop_
 _symmetry_equiv_pos_site_id
 _symmetry_equiv_pos_as_xyz
  1  'x, y, z'
loop_
 _atom_site_type_symbol
 _atom_site_label
 _atom_site_symmetry_multiplicity
 _atom_site_fract_x
 _atom_site_fract_y
 _atom_site_fract_z
 _atom_site_occupancy
  Y  Y0  1  0.000000  0.944958  0.372775  1
  Y  Y1  1  0.000000  0.055027  0.627295  1
  Y  Y2  1  0.000000  0.445073  0.126966  1
  Er  Er3  1  0.000000  0.555120  0.872515  1
  Th  Th4  1  0.000000  0.322572  0.414398  1
  Th  Th5  1  0.000000  0.677406  0.585738  1
  Th  Th6  1  0.000000  0.822392  0.085494  1
  Th  Th7  1  0.000000  0.177647  0.914352  1
  Re  Re8  1  0.000000  0.639336  0.319894  1
  Re  Re9  1  0.000000  0.361005  0.680467  1
  Re  Re10  1  0.000000  0.139389  0.180061  1
  Re  Re11  1  0.000000  0.860040  0.819980  1
  B  B12  1  0.500000  0.556439  0.429600  1
  B  B13  1  0.500000  0.443594  0.570519  1
  B  B14  1  0.500000  0.056418  0.070387  1
  B  B15  1  0.500000  0.943450  0.929567  1
  B  B16  1  0.500000  0.749592  0.416855  1
  B  B17  1  0.500000  0.250454  0.583191  1
  B  B18  1  0.500000  0.249642  0.083130  1
  B  B19  1  0.500000  0.749850  0.916786  1
  B  B20  1  0.500000  0.791035  0.266461  1
  B  B21  1  0.500000  0.209106  0.733574  1
  B  B22  1  0.500000  0.291063  0.233511  1
  B  B23  1  0.500000  0.708495  0.766668  1
  B  B24  1  0.500000  0.631017  0.186071  1
  B  B25  1  0.500000  0.369436  0.814104  1
  B  B26  1  0.500000  0.131060  0.313884  1
  B  B27  1  0.500000  0.868843  0.686190  1
  B  B28  1  0.500000  0.985567  0.213963  1
  B  B29  1  0.500000  0.014357  0.786062  1
  B  B30  1  0.500000  0.485558  0.286013  1
  B  B31  1  0.500000  0.514660  0.714370  1
  B  B32  1  0.500000  0.603074  0.027711  1
  B  B33  1  0.500000  0.397329  0.971408  1
  B  B34  1  0.500000  0.103328  0.471755  1
  B  B35  1  0.500000  0.896669  0.528288  1
