# generated using pymatgen
data_Yb2CuNi6
_symmetry_space_group_name_H-M   'P 1'
_cell_length_a   4.88721796
_cell_length_b   4.88721715
_cell_length_c   12.26721172
_cell_angle_alpha   78.50990163
_cell_angle_beta   78.50990504
_cell_angle_gamma   59.99998605
_symmetry_Int_Tables_number   1
_chemical_formula_structural   Yb2CuNi6
_chemical_formula_sum   'Yb4 Cu2 Ni12'
_cell_volume   246.94267485
_cell_formula_units_Z   2
loop_
 _symmetry_equiv_pos_site_id
 _symmetry_equiv_pos_as_xyz
  1  'x, y, z'
loop_
 _atom_site_type_symbol
 _atom_site_label
 _atom_site_symmetry_multiplicity
 _atom_site_fract_x
 _atom_site_fract_y
 _atom_site_fract_z
 _atom_site_occupancy
  Yb  Yb0  1  0.948780  0.948780  0.153661  1
  Yb  Yb1  1  0.051220  0.051220  0.846339  1
  Yb  Yb2  1  0.852073  0.852073  0.443780  1
  Yb  Yb3  1  0.147927  0.147927  0.556220  1
  Cu  Cu4  1  0.722374  0.722374  0.832877  1
  Cu  Cu5  1  0.277626  0.277626  0.167123  1
  Ni  Ni6  1  0.500000  0.500000  0.500000  1
  Ni  Ni7  1  0.611524  0.611524  0.165428  1
  Ni  Ni8  1  0.388476  0.388476  0.834572  1
  Ni  Ni9  1  0.000000  0.500000  0.000000  1
  Ni  Ni10  1  0.500000  0.000000  0.000000  1
  Ni  Ni11  1  0.500000  0.500000  0.000000  1
  Ni  Ni12  1  0.388944  0.388944  0.332984  1
  Ni  Ni13  1  0.889129  0.388944  0.332984  1
  Ni  Ni14  1  0.388944  0.889129  0.332984  1
  Ni  Ni15  1  0.611056  0.611056  0.667016  1
  Ni  Ni16  1  0.110871  0.611056  0.667016  1
  Ni  Ni17  1  0.611056  0.110871  0.667016  1
