# generated using pymatgen
data_Zr6Ti4Al12Ru6Au
_symmetry_space_group_name_H-M   'P 1'
_cell_length_a   8.83391411
_cell_length_b   8.80877761
_cell_length_c   8.80877711
_cell_angle_alpha   60.11523306
_cell_angle_beta   59.90556014
_cell_angle_gamma   59.90555839
_symmetry_Int_Tables_number   1
_chemical_formula_structural   Zr6Ti4Al12Ru6Au
_chemical_formula_sum   'Zr6 Ti4 Al12 Ru6 Au1'
_cell_volume   484.42185014
_cell_formula_units_Z   1
loop_
 _symmetry_equiv_pos_site_id
 _symmetry_equiv_pos_as_xyz
  1  'x, y, z'
loop_
 _atom_site_type_symbol
 _atom_site_label
 _atom_site_symmetry_multiplicity
 _atom_site_fract_x
 _atom_site_fract_y
 _atom_site_fract_z
 _atom_site_occupancy
  Zr  Zr0  1  0.705586  0.697037  0.302857  1
  Zr  Zr1  1  0.294519  0.697037  0.302857  1
  Zr  Zr2  1  0.692767  0.307233  0.307233  1
  Zr  Zr3  1  0.294519  0.302857  0.697037  1
  Zr  Zr4  1  0.705586  0.302857  0.697037  1
  Zr  Zr5  1  0.307560  0.692440  0.692440  1
  Ti  Ti6  1  0.879654  0.880645  0.360047  1
  Ti  Ti7  1  0.879654  0.360047  0.880645  1
  Ti  Ti8  1  0.358035  0.874797  0.874797  1
  Ti  Ti9  1  0.892374  0.874797  0.874797  1
  Al  Al10  1  0.119473  0.118949  0.642104  1
  Al  Al11  1  0.119473  0.642104  0.118949  1
  Al  Al12  1  0.645007  0.123302  0.123302  1
  Al  Al13  1  0.108389  0.123302  0.123302  1
  Al  Al14  1  0.665231  0.659066  0.010471  1
  Al  Al15  1  0.665231  0.010471  0.659066  1
  Al  Al16  1  0.005968  0.664055  0.664055  1
  Al  Al17  1  0.665920  0.664055  0.664055  1
  Al  Al18  1  0.331746  0.341198  0.995310  1
  Al  Al19  1  0.331746  0.995310  0.341198  1
  Al  Al20  1  0.998142  0.333875  0.333875  1
  Al  Al21  1  0.334110  0.333875  0.333875  1
  Ru  Ru22  1  0.000442  0.999558  0.999558  1
  Ru  Ru23  1  0.998886  0.997534  0.502476  1
  Ru  Ru24  1  0.501104  0.997534  0.502476  1
  Ru  Ru25  1  0.998574  0.501426  0.501426  1
  Ru  Ru26  1  0.501104  0.502476  0.997534  1
  Ru  Ru27  1  0.998886  0.502476  0.997534  1
  Au  Au28  1  0.500310  0.999690  0.999690  1
