# generated using pymatgen
data_Pr4Hg2IrAu3
_symmetry_space_group_name_H-M   'P 1'
_cell_length_a   8.11449238
_cell_length_b   8.11449222
_cell_length_c   3.89809100
_cell_angle_alpha   90.00000000
_cell_angle_beta   90.00000000
_cell_angle_gamma   90.05728525
_symmetry_Int_Tables_number   1
_chemical_formula_structural   Pr4Hg2IrAu3
_chemical_formula_sum   'Pr4 Hg2 Ir1 Au3'
_cell_volume   256.66961630
_cell_formula_units_Z   1
loop_
 _symmetry_equiv_pos_site_id
 _symmetry_equiv_pos_as_xyz
  1  'x, y, z'
loop_
 _atom_site_type_symbol
 _atom_site_label
 _atom_site_symmetry_multiplicity
 _atom_site_fract_x
 _atom_site_fract_y
 _atom_site_fract_z
 _atom_site_occupancy
  Pr  Pr0  1  0.672615  0.172615  0.500000  1
  Pr  Pr1  1  0.311075  0.811075  0.500000  1
  Pr  Pr2  1  0.180289  0.347539  0.500000  1
  Pr  Pr3  1  0.847539  0.680289  0.500000  1
  Hg  Hg4  1  0.001770  0.996596  0.000000  1
  Hg  Hg5  1  0.496596  0.501770  0.000000  1
  Ir  Ir6  1  0.122706  0.622706  0.000000  1
  Au  Au7  1  0.873831  0.373831  0.000000  1
  Au  Au8  1  0.622477  0.871102  0.000000  1
  Au  Au9  1  0.371102  0.122477  0.000000  1
