# generated using pymatgen
data_Er6Zn18PRh5
_symmetry_space_group_name_H-M   'P 1'
_cell_length_a   8.95619141
_cell_length_b   8.96620830
_cell_length_c   8.95632000
_cell_angle_alpha   59.96073834
_cell_angle_beta   60.03589218
_cell_angle_gamma   59.96321715
_symmetry_Int_Tables_number   1
_chemical_formula_structural   Er6Zn18PRh5
_chemical_formula_sum   'Er6 Zn18 P1 Rh5'
_cell_volume   508.41047936
_cell_formula_units_Z   1
loop_
 _symmetry_equiv_pos_site_id
 _symmetry_equiv_pos_as_xyz
  1  'x, y, z'
loop_
 _atom_site_type_symbol
 _atom_site_label
 _atom_site_symmetry_multiplicity
 _atom_site_fract_x
 _atom_site_fract_y
 _atom_site_fract_z
 _atom_site_occupancy
  Er  Er0  1  0.713560  0.279493  0.286489  1
  Er  Er1  1  0.714879  0.285088  0.714875  1
  Er  Er2  1  0.713532  0.720522  0.286420  1
  Er  Er3  1  0.286440  0.720507  0.713511  1
  Er  Er4  1  0.285121  0.714912  0.285125  1
  Er  Er5  1  0.286468  0.279478  0.713580  1
  Zn  Zn6  1  0.624381  0.125640  0.124359  1
  Zn  Zn7  1  0.125651  0.627255  0.125640  1
  Zn  Zn8  1  0.124371  0.125633  0.624369  1
  Zn  Zn9  1  0.125639  0.121461  0.125642  1
  Zn  Zn10  1  0.375619  0.874360  0.875641  1
  Zn  Zn11  1  0.874349  0.372745  0.874360  1
  Zn  Zn12  1  0.875629  0.874367  0.375631  1
  Zn  Zn13  1  0.874361  0.878539  0.874358  1
  Zn  Zn14  1  0.000000  0.500000  0.000000  1
  Zn  Zn15  1  0.000000  0.000000  0.000000  1
  Zn  Zn16  1  0.998835  0.333643  0.333876  1
  Zn  Zn17  1  0.330467  0.005987  0.330464  1
  Zn  Zn18  1  0.333889  0.333643  0.998824  1
  Zn  Zn19  1  0.330472  0.333086  0.330456  1
  Zn  Zn20  1  0.001165  0.666357  0.666124  1
  Zn  Zn21  1  0.669533  0.994013  0.669536  1
  Zn  Zn22  1  0.666111  0.666357  0.001176  1
  Zn  Zn23  1  0.669528  0.666914  0.669544  1
  P  P24  1  0.500000  0.500000  0.500000  1
  Rh  Rh25  1  0.500000  0.000000  0.000000  1
  Rh  Rh26  1  0.500000  0.000000  0.500000  1
  Rh  Rh27  1  0.500000  0.500000  0.000000  1
  Rh  Rh28  1  0.000000  0.500000  0.500000  1
  Rh  Rh29  1  0.000000  0.000000  0.500000  1
