# generated using pymatgen
data_TmLu9(Tl3Se)2
_symmetry_space_group_name_H-M   'P 1'
_cell_length_a   8.92771900
_cell_length_b   8.92771857
_cell_length_c   6.57118000
_cell_angle_alpha   90.00000000
_cell_angle_beta   90.00000000
_cell_angle_gamma   119.95547038
_symmetry_Int_Tables_number   1
_chemical_formula_structural   TmLu9(Tl3Se)2
_chemical_formula_sum   'Tm1 Lu9 Tl6 Se2'
_cell_volume   453.78454068
_cell_formula_units_Z   1
loop_
 _symmetry_equiv_pos_site_id
 _symmetry_equiv_pos_as_xyz
  1  'x, y, z'
loop_
 _atom_site_type_symbol
 _atom_site_label
 _atom_site_symmetry_multiplicity
 _atom_site_fract_x
 _atom_site_fract_y
 _atom_site_fract_z
 _atom_site_occupancy
  Tm  Tm0  1  0.747101  0.747101  0.750000  1
  Lu  Lu1  1  0.666383  0.332828  0.000062  1
  Lu  Lu2  1  0.332828  0.666383  0.000062  1
  Lu  Lu3  1  0.332828  0.666383  0.499938  1
  Lu  Lu4  1  0.666383  0.332828  0.499938  1
  Lu  Lu5  1  0.252449  0.999304  0.750000  1
  Lu  Lu6  1  0.999304  0.252449  0.750000  1
  Lu  Lu7  1  0.253897  0.253897  0.250000  1
  Lu  Lu8  1  0.747219  0.000126  0.250000  1
  Lu  Lu9  1  0.000126  0.747219  0.250000  1
  Tl  Tl10  1  0.397538  0.397538  0.750000  1
  Tl  Tl11  1  0.601777  0.000287  0.750000  1
  Tl  Tl12  1  0.000287  0.601777  0.750000  1
  Tl  Tl13  1  0.602051  0.602051  0.250000  1
  Tl  Tl14  1  0.397799  0.999655  0.250000  1
  Tl  Tl15  1  0.999655  0.397799  0.250000  1
  Se  Se16  1  0.001187  0.001187  0.000713  1
  Se  Se17  1  0.001187  0.001187  0.499287  1
