# generated using pymatgen
data_Lu3Sn3GeIr2
_symmetry_space_group_name_H-M   'P 1'
_cell_length_a   7.32391700
_cell_length_b   7.32391660
_cell_length_c   4.13862500
_cell_angle_alpha   90.00000000
_cell_angle_beta   90.00000000
_cell_angle_gamma   120.00000513
_symmetry_Int_Tables_number   1
_chemical_formula_structural   Lu3Sn3GeIr2
_chemical_formula_sum   'Lu3 Sn3 Ge1 Ir2'
_cell_volume   192.25316138
_cell_formula_units_Z   1
loop_
 _symmetry_equiv_pos_site_id
 _symmetry_equiv_pos_as_xyz
  1  'x, y, z'
loop_
 _atom_site_type_symbol
 _atom_site_label
 _atom_site_symmetry_multiplicity
 _atom_site_fract_x
 _atom_site_fract_y
 _atom_site_fract_z
 _atom_site_occupancy
  Lu  Lu0  1  0.982832  0.396176  0.500000  1
  Lu  Lu1  1  0.603824  0.586656  0.500000  1
  Lu  Lu2  1  0.413344  0.017168  0.500000  1
  Sn  Sn3  1  0.988723  0.740658  0.000000  1
  Sn  Sn4  1  0.259342  0.248066  0.000000  1
  Sn  Sn5  1  0.751934  0.011277  0.000000  1
  Ge  Ge6  1  0.333333  0.666667  0.000000  1
  Ir  Ir7  1  0.666667  0.333333  0.000000  1
  Ir  Ir8  1  0.000000  0.000000  0.500000  1
