# generated using pymatgen
data_Ba3Er2IrO9
_symmetry_space_group_name_H-M   'P 1'
_cell_length_a   6.04820308
_cell_length_b   8.56076809
_cell_length_c   10.46188122
_cell_angle_alpha   65.84911113
_cell_angle_beta   73.19836919
_cell_angle_gamma   89.99999220
_symmetry_Int_Tables_number   1
_chemical_formula_structural   Ba3Er2IrO9
_chemical_formula_sum   'Ba6 Er4 Ir2 O18'
_cell_volume   468.81753839
_cell_formula_units_Z   2
loop_
 _symmetry_equiv_pos_site_id
 _symmetry_equiv_pos_as_xyz
  1  'x, y, z'
loop_
 _atom_site_type_symbol
 _atom_site_label
 _atom_site_symmetry_multiplicity
 _atom_site_fract_x
 _atom_site_fract_y
 _atom_site_fract_z
 _atom_site_occupancy
  Ba  Ba0  1  0.500000  0.261328  0.000000  1
  Ba  Ba1  1  0.837884  0.579981  0.324231  1
  Ba  Ba2  1  0.162116  0.904214  0.675769  1
  Ba  Ba3  1  0.500000  0.738672  0.000000  1
  Ba  Ba4  1  0.837884  0.095786  0.324231  1
  Ba  Ba5  1  0.162116  0.420019  0.675769  1
  Er  Er6  1  0.000000  0.000000  0.000000  1
  Er  Er7  1  0.328978  0.328978  0.342043  1
  Er  Er8  1  0.671022  0.671022  0.657957  1
  Er  Er9  1  0.000000  0.500000  0.000000  1
  Ir  Ir10  1  0.334452  0.834452  0.331093  1
  Ir  Ir11  1  0.665548  0.165548  0.668907  1
  O  O12  1  0.000000  0.246778  0.000000  1
  O  O13  1  0.330853  0.599848  0.338291  1
  O  O14  1  0.669147  0.938140  0.661709  1
  O  O15  1  0.161646  0.410725  0.178551  1
  O  O16  1  0.491325  0.759303  0.481394  1
  O  O17  1  0.819030  0.088527  0.822944  1
  O  O18  1  0.340197  0.589275  0.821449  1
  O  O19  1  0.641975  0.911473  0.177056  1
  O  O20  1  0.972720  0.240697  0.518606  1
  O  O21  1  0.000000  0.753222  0.000000  1
  O  O22  1  0.330853  0.061860  0.338291  1
  O  O23  1  0.669147  0.400152  0.661709  1
  O  O24  1  0.838354  0.589275  0.821449  1
  O  O25  1  0.180970  0.911473  0.177056  1
  O  O26  1  0.508675  0.240697  0.518606  1
  O  O27  1  0.659803  0.410725  0.178551  1
  O  O28  1  0.027280  0.759303  0.481394  1
  O  O29  1  0.358025  0.088527  0.822944  1
