# generated using pymatgen
data_Ca4Pr13Nd3Sn16
_symmetry_space_group_name_H-M   'P 1'
_cell_length_a   8.12636907
_cell_length_b   8.52501028
_cell_length_c   16.14401800
_cell_angle_alpha   90.03877962
_cell_angle_beta   89.99255457
_cell_angle_gamma   90.03201671
_symmetry_Int_Tables_number   1
_chemical_formula_structural   Ca4Pr13Nd3Sn16
_chemical_formula_sum   'Ca4 Pr13 Nd3 Sn16'
_cell_volume   1118.41482752
_cell_formula_units_Z   1
loop_
 _symmetry_equiv_pos_site_id
 _symmetry_equiv_pos_as_xyz
  1  'x, y, z'
loop_
 _atom_site_type_symbol
 _atom_site_label
 _atom_site_symmetry_multiplicity
 _atom_site_fract_x
 _atom_site_fract_y
 _atom_site_fract_z
 _atom_site_occupancy
  Ca  Ca0  1  0.163476  0.496005  0.749812  1
  Ca  Ca1  1  0.662978  0.005198  0.749881  1
  Ca  Ca2  1  0.836795  0.504532  0.250753  1
  Ca  Ca3  1  0.336823  0.993874  0.250338  1
  Pr  Pr4  1  0.165369  0.327231  0.124063  1
  Pr  Pr5  1  0.665857  0.171503  0.124665  1
  Pr  Pr6  1  0.165827  0.327312  0.375934  1
  Pr  Pr7  1  0.335297  0.828434  0.624696  1
  Pr  Pr8  1  0.835588  0.673203  0.875020  1
  Pr  Pr9  1  0.490827  0.317587  0.903828  1
  Pr  Pr10  1  0.991358  0.184409  0.596451  1
  Pr  Pr11  1  0.509481  0.683300  0.404191  1
  Pr  Pr12  1  0.008886  0.815649  0.096062  1
  Pr  Pr13  1  0.508764  0.681347  0.095943  1
  Pr  Pr14  1  0.008236  0.817765  0.404462  1
  Pr  Pr15  1  0.491822  0.318058  0.595864  1
  Pr  Pr16  1  0.990330  0.183294  0.903166  1
  Nd  Nd17  1  0.332646  0.829057  0.874767  1
  Nd  Nd18  1  0.833593  0.671576  0.624464  1
  Nd  Nd19  1  0.666498  0.170941  0.375762  1
  Sn  Sn20  1  0.325247  0.034962  0.037049  1
  Sn  Sn21  1  0.823871  0.462710  0.462788  1
  Sn  Sn22  1  0.677427  0.963329  0.537608  1
  Sn  Sn23  1  0.176532  0.538105  0.962059  1
  Sn  Sn24  1  0.671654  0.962681  0.961974  1
  Sn  Sn25  1  0.173391  0.538195  0.537700  1
  Sn  Sn26  1  0.327741  0.037211  0.462604  1
  Sn  Sn27  1  0.824241  0.462241  0.036712  1
  Sn  Sn28  1  0.531222  0.605337  0.750080  1
  Sn  Sn29  1  0.030914  0.896677  0.749542  1
  Sn  Sn30  1  0.469259  0.395157  0.250682  1
  Sn  Sn31  1  0.968454  0.102814  0.250720  1
  Sn  Sn32  1  0.292632  0.141303  0.749999  1
  Sn  Sn33  1  0.792097  0.360678  0.749858  1
  Sn  Sn34  1  0.707233  0.858789  0.250287  1
  Sn  Sn35  1  0.207634  0.639541  0.250215  1
