# generated using pymatgen
data_Tb4Ho(TcO6)2
_symmetry_space_group_name_H-M   'P 1'
_cell_length_a   6.85196956
_cell_length_b   6.85196960
_cell_length_c   7.54664702
_cell_angle_alpha   73.76209510
_cell_angle_beta   73.76209388
_cell_angle_gamma   49.10071097
_symmetry_Int_Tables_number   1
_chemical_formula_structural   Tb4Ho(TcO6)2
_chemical_formula_sum   'Tb4 Ho1 Tc2 O12'
_cell_volume   254.84140647
_cell_formula_units_Z   1
loop_
 _symmetry_equiv_pos_site_id
 _symmetry_equiv_pos_as_xyz
  1  'x, y, z'
loop_
 _atom_site_type_symbol
 _atom_site_label
 _atom_site_symmetry_multiplicity
 _atom_site_fract_x
 _atom_site_fract_y
 _atom_site_fract_z
 _atom_site_occupancy
  Tb  Tb0  1  0.315907  0.315907  0.824432  1
  Tb  Tb1  1  0.684093  0.684093  0.175568  1
  Tb  Tb2  1  0.695259  0.695259  0.642761  1
  Tb  Tb3  1  0.304741  0.304741  0.357239  1
  Ho  Ho4  1  0.000000  0.000000  0.500000  1
  Tc  Tc5  1  0.213539  0.786461  0.000000  1
  Tc  Tc6  1  0.786461  0.213539  0.000000  1
  O  O7  1  0.498820  0.498820  0.176538  1
  O  O8  1  0.501180  0.501180  0.823462  1
  O  O9  1  0.001297  0.001297  0.204349  1
  O  O10  1  0.998703  0.998703  0.795651  1
  O  O11  1  0.913373  0.415244  0.916120  1
  O  O12  1  0.584756  0.086627  0.083880  1
  O  O13  1  0.086627  0.584756  0.083880  1
  O  O14  1  0.596488  0.098130  0.573172  1
  O  O15  1  0.901870  0.403512  0.426828  1
  O  O16  1  0.403512  0.901870  0.426828  1
  O  O17  1  0.098130  0.596488  0.573172  1
  O  O18  1  0.415244  0.913373  0.916120  1
