# generated using pymatgen
data_Dy3Sn2SbRh3
_symmetry_space_group_name_H-M   'P 1'
_cell_length_a   7.53684393
_cell_length_b   7.53684435
_cell_length_c   3.86913000
_cell_angle_alpha   90.00000000
_cell_angle_beta   90.00000000
_cell_angle_gamma   119.75005281
_symmetry_Int_Tables_number   1
_chemical_formula_structural   Dy3Sn2SbRh3
_chemical_formula_sum   'Dy3 Sn2 Sb1 Rh3'
_cell_volume   190.81448960
_cell_formula_units_Z   1
loop_
 _symmetry_equiv_pos_site_id
 _symmetry_equiv_pos_as_xyz
  1  'x, y, z'
loop_
 _atom_site_type_symbol
 _atom_site_label
 _atom_site_symmetry_multiplicity
 _atom_site_fract_x
 _atom_site_fract_y
 _atom_site_fract_z
 _atom_site_occupancy
  Dy  Dy0  1  0.403877  0.403877  0.500000  1
  Dy  Dy1  1  0.594468  0.001979  0.500000  1
  Dy  Dy2  1  0.001979  0.594468  0.500000  1
  Sn  Sn3  1  0.262980  0.001421  0.000000  1
  Sn  Sn4  1  0.001421  0.262980  0.000000  1
  Sb  Sb5  1  0.738570  0.738570  0.000000  1
  Rh  Rh6  1  0.666414  0.334732  0.000000  1
  Rh  Rh7  1  0.334732  0.666414  0.000000  1
  Rh  Rh8  1  0.995559  0.995559  0.500000  1
