# generated using pymatgen
data_Yb3Nb2NiO9
_symmetry_space_group_name_H-M   'P 1'
_cell_length_a   5.64913648
_cell_length_b   5.64913840
_cell_length_c   13.66052900
_cell_angle_alpha   89.09065576
_cell_angle_beta   89.09064531
_cell_angle_gamma   58.52623949
_symmetry_Int_Tables_number   1
_chemical_formula_structural   Yb3Nb2NiO9
_chemical_formula_sum   'Yb6 Nb4 Ni2 O18'
_cell_volume   371.74704721
_cell_formula_units_Z   2
loop_
 _symmetry_equiv_pos_site_id
 _symmetry_equiv_pos_as_xyz
  1  'x, y, z'
loop_
 _atom_site_type_symbol
 _atom_site_label
 _atom_site_symmetry_multiplicity
 _atom_site_fract_x
 _atom_site_fract_y
 _atom_site_fract_z
 _atom_site_occupancy
  Yb  Yb0  1  0.962295  0.978547  0.740356  1
  Yb  Yb1  1  0.646242  0.621008  0.409926  1
  Yb  Yb2  1  0.299686  0.299323  0.075138  1
  Yb  Yb3  1  0.978547  0.962295  0.240356  1
  Yb  Yb4  1  0.621008  0.646242  0.909926  1
  Yb  Yb5  1  0.299323  0.299686  0.575138  1
  Nb  Nb6  1  0.674521  0.662776  0.161317  1
  Nb  Nb7  1  0.321253  0.347347  0.841378  1
  Nb  Nb8  1  0.662776  0.674521  0.661317  1
  Nb  Nb9  1  0.347347  0.321253  0.341378  1
  Ni  Ni10  1  0.004970  0.995759  0.500442  1
  Ni  Ni11  1  0.995759  0.004970  0.000442  1
  O  O12  1  0.749816  0.938051  0.596219  1
  O  O13  1  0.436430  0.611543  0.258856  1
  O  O14  1  0.083739  0.281779  0.922769  1
  O  O15  1  0.737768  0.164382  0.382558  1
  O  O16  1  0.404797  0.828051  0.059134  1
  O  O17  1  0.075899  0.496730  0.721825  1
  O  O18  1  0.237410  0.597159  0.447359  1
  O  O19  1  0.884655  0.286992  0.117367  1
  O  O20  1  0.553507  0.961175  0.783309  1
  O  O21  1  0.286992  0.884655  0.617367  1
  O  O22  1  0.961175  0.553507  0.283309  1
  O  O23  1  0.597159  0.237410  0.947359  1
  O  O24  1  0.828051  0.404797  0.559134  1
  O  O25  1  0.496730  0.075899  0.221825  1
  O  O26  1  0.164382  0.737768  0.882558  1
  O  O27  1  0.281779  0.083739  0.422769  1
  O  O28  1  0.938051  0.749816  0.096219  1
  O  O29  1  0.611543  0.436430  0.758856  1
