# generated using pymatgen
data_Tb12Pr4Cd4OsPd3
_symmetry_space_group_name_H-M   'P 1'
_cell_length_a   9.83421926
_cell_length_b   9.84132867
_cell_length_c   9.84132817
_cell_angle_alpha   59.73016839
_cell_angle_beta   59.45129185
_cell_angle_gamma   59.45129694
_symmetry_Int_Tables_number   1
_chemical_formula_structural   Tb12Pr4Cd4OsPd3
_chemical_formula_sum   'Tb12 Pr4 Cd4 Os1 Pd3'
_cell_volume   666.50233400
_cell_formula_units_Z   1
loop_
 _symmetry_equiv_pos_site_id
 _symmetry_equiv_pos_as_xyz
  1  'x, y, z'
loop_
 _atom_site_type_symbol
 _atom_site_label
 _atom_site_symmetry_multiplicity
 _atom_site_fract_x
 _atom_site_fract_y
 _atom_site_fract_z
 _atom_site_occupancy
  Tb  Tb0  1  0.354560  0.352304  0.352304  1
  Tb  Tb1  1  0.347700  0.350287  0.950406  1
  Tb  Tb2  1  0.347700  0.950406  0.350287  1
  Tb  Tb3  1  0.949784  0.347504  0.347504  1
  Tb  Tb4  1  0.819940  0.185861  0.185861  1
  Tb  Tb5  1  0.186904  0.811189  0.811189  1
  Tb  Tb6  1  0.187287  0.817974  0.187732  1
  Tb  Tb7  1  0.810169  0.184946  0.810861  1
  Tb  Tb8  1  0.187287  0.187732  0.817974  1
  Tb  Tb9  1  0.810169  0.810861  0.184946  1
  Tb  Tb10  1  0.939208  0.559010  0.559010  1
  Tb  Tb11  1  0.549249  0.944410  0.944410  1
  Pr  Pr12  1  0.566414  0.934350  0.566459  1
  Pr  Pr13  1  0.937919  0.558592  0.935541  1
  Pr  Pr14  1  0.566414  0.566459  0.934350  1
  Pr  Pr15  1  0.937919  0.935541  0.558592  1
  Cd  Cd16  1  0.583371  0.577551  0.577551  1
  Cd  Cd17  1  0.577290  0.584535  0.258114  1
  Cd  Cd18  1  0.577290  0.258114  0.584535  1
  Cd  Cd19  1  0.258794  0.578291  0.578291  1
  Os  Os20  1  0.148106  0.141220  0.141220  1
  Pd  Pd21  1  0.143359  0.147973  0.570900  1
  Pd  Pd22  1  0.143359  0.570900  0.147973  1
  Pd  Pd23  1  0.569809  0.143992  0.143992  1
