# generated using pymatgen
data_La4YTh2Ir3
_symmetry_space_group_name_H-M   'P 1'
_cell_length_a   6.42291633
_cell_length_b   10.16085105
_cell_length_c   10.16085014
_cell_angle_alpha   120.84867365
_cell_angle_beta   90.32888130
_cell_angle_gamma   89.67111638
_symmetry_Int_Tables_number   1
_chemical_formula_structural   La4YTh2Ir3
_chemical_formula_sum   'La8 Y2 Th4 Ir6'
_cell_volume   569.29278544
_cell_formula_units_Z   2
loop_
 _symmetry_equiv_pos_site_id
 _symmetry_equiv_pos_as_xyz
  1  'x, y, z'
loop_
 _atom_site_type_symbol
 _atom_site_label
 _atom_site_symmetry_multiplicity
 _atom_site_fract_x
 _atom_site_fract_y
 _atom_site_fract_z
 _atom_site_occupancy
  La  La0  1  0.742313  0.252520  0.126175  1
  La  La1  1  0.742313  0.873825  0.747480  1
  La  La2  1  0.439821  0.536876  0.463124  1
  La  La3  1  0.442357  0.925444  0.461372  1
  La  La4  1  0.442357  0.538628  0.074556  1
  La  La5  1  0.938959  0.461049  0.538951  1
  La  La6  1  0.940395  0.078020  0.539139  1
  La  La7  1  0.940395  0.460861  0.921980  1
  Y  Y8  1  0.463694  0.333988  0.666012  1
  Y  Y9  1  0.974375  0.667378  0.332622  1
  Th  Th10  1  0.249427  0.127195  0.872805  1
  Th  Th11  1  0.247642  0.746650  0.873169  1
  Th  Th12  1  0.247642  0.126831  0.253350  1
  Th  Th13  1  0.745831  0.871980  0.128020  1
  Ir  Ir14  1  0.190261  0.818215  0.181785  1
  Ir  Ir15  1  0.200581  0.364598  0.181469  1
  Ir  Ir16  1  0.200581  0.818531  0.635402  1
  Ir  Ir17  1  0.678603  0.188030  0.811970  1
  Ir  Ir18  1  0.687227  0.631879  0.822499  1
  Ir  Ir19  1  0.687227  0.177501  0.368121  1
