# generated using pymatgen
data_DyHo3OsRu7
_symmetry_space_group_name_H-M   'P 1'
_cell_length_a   5.35063223
_cell_length_b   5.21026665
_cell_length_c   8.94345903
_cell_angle_alpha   90.00785624
_cell_angle_beta   89.99197087
_cell_angle_gamma   120.50103579
_symmetry_Int_Tables_number   1
_chemical_formula_structural   DyHo3OsRu7
_chemical_formula_sum   'Dy1 Ho3 Os1 Ru7'
_cell_volume   214.82574698
_cell_formula_units_Z   1
loop_
 _symmetry_equiv_pos_site_id
 _symmetry_equiv_pos_as_xyz
  1  'x, y, z'
loop_
 _atom_site_type_symbol
 _atom_site_label
 _atom_site_symmetry_multiplicity
 _atom_site_fract_x
 _atom_site_fract_y
 _atom_site_fract_z
 _atom_site_occupancy
  Dy  Dy0  1  0.670581  0.339099  0.566202  1
  Ho  Ho1  1  0.334326  0.670500  0.432815  1
  Ho  Ho2  1  0.334345  0.670665  0.067003  1
  Ho  Ho3  1  0.670756  0.339432  0.933745  1
  Os  Os4  1  0.162821  0.325413  0.750366  1
  Ru  Ru5  1  0.007575  0.013386  0.499974  1
  Ru  Ru6  1  0.007513  0.013429  0.999985  1
  Ru  Ru7  1  0.169303  0.821210  0.750382  1
  Ru  Ru8  1  0.647762  0.818970  0.750340  1
  Ru  Ru9  1  0.824780  0.650741  0.249685  1
  Ru  Ru10  1  0.832232  0.166684  0.249747  1
  Ru  Ru11  1  0.338007  0.170471  0.249756  1
