# generated using pymatgen
data_Eu4Hf2TaWO14
_symmetry_space_group_name_H-M   'P 1'
_cell_length_a   7.58965031
_cell_length_b   7.57015610
_cell_length_c   7.57015635
_cell_angle_alpha   59.79271613
_cell_angle_beta   60.01485775
_cell_angle_gamma   60.01485967
_symmetry_Int_Tables_number   1
_chemical_formula_structural   Eu4Hf2TaWO14
_chemical_formula_sum   'Eu4 Hf2 Ta1 W1 O14'
_cell_volume   307.13455841
_cell_formula_units_Z   1
loop_
 _symmetry_equiv_pos_site_id
 _symmetry_equiv_pos_as_xyz
  1  'x, y, z'
loop_
 _atom_site_type_symbol
 _atom_site_label
 _atom_site_symmetry_multiplicity
 _atom_site_fract_x
 _atom_site_fract_y
 _atom_site_fract_z
 _atom_site_occupancy
  Eu  Eu0  1  0.625000  0.125000  0.125000  1
  Eu  Eu1  1  0.125000  0.625000  0.125000  1
  Eu  Eu2  1  0.125000  0.125000  0.625000  1
  Eu  Eu3  1  0.125000  0.125000  0.125000  1
  Hf  Hf4  1  0.625000  0.125000  0.625000  1
  Hf  Hf5  1  0.625000  0.625000  0.125000  1
  Ta  Ta6  1  0.125000  0.625000  0.625000  1
  W  W7  1  0.625000  0.625000  0.625000  1
  O  O8  1  0.249423  0.251337  0.251337  1
  O  O9  1  0.000577  0.998663  0.998663  1
  O  O10  1  0.705414  0.687704  0.310441  1
  O  O11  1  0.296916  0.308671  0.693003  1
  O  O12  1  0.705414  0.310441  0.687704  1
  O  O13  1  0.296916  0.693003  0.308671  1
  O  O14  1  0.307444  0.690218  0.690218  1
  O  O15  1  0.703528  0.293721  0.293721  1
  O  O16  1  0.544586  0.562296  0.939559  1
  O  O17  1  0.953084  0.941329  0.556997  1
  O  O18  1  0.544586  0.939559  0.562296  1
  O  O19  1  0.953084  0.556997  0.941329  1
  O  O20  1  0.942556  0.559782  0.559782  1
  O  O21  1  0.546472  0.956279  0.956279  1
