# generated using pymatgen
data_Zr10GaSn4Sb3
_symmetry_space_group_name_H-M   'P 1'
_cell_length_a   8.77246308
_cell_length_b   8.76508107
_cell_length_c   5.94714711
_cell_angle_alpha   89.97825359
_cell_angle_beta   90.01086384
_cell_angle_gamma   119.97216051
_symmetry_Int_Tables_number   1
_chemical_formula_structural   Zr10GaSn4Sb3
_chemical_formula_sum   'Zr10 Ga1 Sn4 Sb3'
_cell_volume   396.13072772
_cell_formula_units_Z   1
loop_
 _symmetry_equiv_pos_site_id
 _symmetry_equiv_pos_as_xyz
  1  'x, y, z'
loop_
 _atom_site_type_symbol
 _atom_site_label
 _atom_site_symmetry_multiplicity
 _atom_site_fract_x
 _atom_site_fract_y
 _atom_site_fract_z
 _atom_site_occupancy
  Zr  Zr0  1  0.665737  0.332685  0.000917  1
  Zr  Zr1  1  0.334263  0.666949  0.000917  1
  Zr  Zr2  1  0.334156  0.666778  0.498810  1
  Zr  Zr3  1  0.665844  0.332621  0.498810  1
  Zr  Zr4  1  0.727033  0.728041  0.740177  1
  Zr  Zr5  1  0.272967  0.001008  0.740177  1
  Zr  Zr6  1  0.000000  0.271408  0.739948  1
  Zr  Zr7  1  0.274819  0.274562  0.259901  1
  Zr  Zr8  1  0.725181  0.999743  0.259901  1
  Zr  Zr9  1  0.000000  0.725463  0.260729  1
  Ga  Ga10  1  0.000000  0.999396  0.498382  1
  Sn  Sn11  1  0.000000  0.610190  0.752639  1
  Sn  Sn12  1  0.612827  0.612280  0.247705  1
  Sn  Sn13  1  0.387173  0.999453  0.247705  1
  Sn  Sn14  1  0.000000  0.388720  0.247411  1
  Sb  Sb15  1  0.000000  0.999260  0.002123  1
  Sb  Sb16  1  0.391418  0.391431  0.751874  1
  Sb  Sb17  1  0.608582  0.000013  0.751874  1
