# generated using pymatgen
data_Ca6SnPbO2
_symmetry_space_group_name_H-M   'P 1'
_cell_length_a   6.87491345
_cell_length_b   9.74298500
_cell_length_c   6.87514011
_cell_angle_alpha   90.00000000
_cell_angle_beta   90.03120229
_cell_angle_gamma   90.00000000
_symmetry_Int_Tables_number   1
_chemical_formula_structural   Ca6SnPbO2
_chemical_formula_sum   'Ca12 Sn2 Pb2 O4'
_cell_volume   460.51179495
_cell_formula_units_Z   2
loop_
 _symmetry_equiv_pos_site_id
 _symmetry_equiv_pos_as_xyz
  1  'x, y, z'
loop_
 _atom_site_type_symbol
 _atom_site_label
 _atom_site_symmetry_multiplicity
 _atom_site_fract_x
 _atom_site_fract_y
 _atom_site_fract_z
 _atom_site_occupancy
  Ca  Ca0  1  0.500319  0.250000  0.000568  1
  Ca  Ca1  1  0.749487  0.500347  0.250359  1
  Ca  Ca2  1  0.749487  0.999653  0.250359  1
  Ca  Ca3  1  0.250320  0.500351  0.250447  1
  Ca  Ca4  1  0.250320  0.999649  0.250447  1
  Ca  Ca5  1  0.000367  0.250000  0.499507  1
  Ca  Ca6  1  0.999633  0.750000  0.500493  1
  Ca  Ca7  1  0.749680  0.000351  0.749553  1
  Ca  Ca8  1  0.749680  0.499649  0.749553  1
  Ca  Ca9  1  0.250513  0.000346  0.749641  1
  Ca  Ca10  1  0.250513  0.499653  0.749641  1
  Ca  Ca11  1  0.499681  0.750000  0.999433  1
  Sn  Sn12  1  0.499877  0.750000  0.499996  1
  Sn  Sn13  1  0.500124  0.250000  0.500005  1
  Pb  Pb14  1  0.000026  0.250000  0.000017  1
  Pb  Pb15  1  0.999974  0.750000  0.999983  1
  O  O16  1  0.500000  0.000000  0.000000  1
  O  O17  1  0.500000  0.500000  0.000000  1
  O  O18  1  0.000000  0.000000  0.500000  1
  O  O19  1  0.000000  0.500000  0.500000  1
