# generated using pymatgen
data_Pr3Th(InPd2)2
_symmetry_space_group_name_H-M   'P 1'
_cell_length_a   7.96959231
_cell_length_b   7.96959208
_cell_length_c   3.87624400
_cell_angle_alpha   90.00000000
_cell_angle_beta   90.00000000
_cell_angle_gamma   91.26354040
_symmetry_Int_Tables_number   1
_chemical_formula_structural   Pr3Th(InPd2)2
_chemical_formula_sum   'Pr3 Th1 In2 Pd4'
_cell_volume   246.13744657
_cell_formula_units_Z   1
loop_
 _symmetry_equiv_pos_site_id
 _symmetry_equiv_pos_as_xyz
  1  'x, y, z'
loop_
 _atom_site_type_symbol
 _atom_site_label
 _atom_site_symmetry_multiplicity
 _atom_site_fract_x
 _atom_site_fract_y
 _atom_site_fract_z
 _atom_site_occupancy
  Pr  Pr0  1  0.823520  0.673491  0.500000  1
  Pr  Pr1  1  0.173491  0.323520  0.500000  1
  Pr  Pr2  1  0.676818  0.176818  0.500000  1
  Th  Th3  1  0.327394  0.827394  0.500000  1
  In  In4  1  0.998104  0.998605  0.000000  1
  In  In5  1  0.498605  0.498104  0.000000  1
  Pd  Pd6  1  0.369805  0.117397  0.000000  1
  Pd  Pd7  1  0.878670  0.378670  0.000000  1
  Pd  Pd8  1  0.136195  0.636195  0.000000  1
  Pd  Pd9  1  0.617397  0.869805  0.000000  1
