# generated using pymatgen
data_Sr3YbTc2O9
_symmetry_space_group_name_H-M   'P 1'
_cell_length_a   5.85209635
_cell_length_b   5.85148731
_cell_length_c   14.15920371
_cell_angle_alpha   89.91878385
_cell_angle_beta   89.94636579
_cell_angle_gamma   60.00433662
_symmetry_Int_Tables_number   1
_chemical_formula_structural   Sr3YbTc2O9
_chemical_formula_sum   'Sr6 Yb2 Tc4 O18'
_cell_volume   419.91919047
_cell_formula_units_Z   2
loop_
 _symmetry_equiv_pos_site_id
 _symmetry_equiv_pos_as_xyz
  1  'x, y, z'
loop_
 _atom_site_type_symbol
 _atom_site_label
 _atom_site_symmetry_multiplicity
 _atom_site_fract_x
 _atom_site_fract_y
 _atom_site_fract_z
 _atom_site_occupancy
  Sr  Sr0  1  0.000140  0.999744  0.249631  1
  Sr  Sr1  1  0.666542  0.667222  0.388706  1
  Sr  Sr2  1  0.667068  0.664848  0.107771  1
  Sr  Sr3  1  0.332932  0.335152  0.892229  1
  Sr  Sr4  1  0.333458  0.332778  0.611294  1
  Sr  Sr5  1  0.999860  0.000256  0.750369  1
  Yb  Yb6  1  0.000000  0.000000  0.500000  1
  Yb  Yb7  1  0.000000  0.000000  0.000000  1
  Tc  Tc8  1  0.665945  0.668496  0.838590  1
  Tc  Tc9  1  0.666742  0.666162  0.662413  1
  Tc  Tc10  1  0.333258  0.333838  0.337587  1
  Tc  Tc11  1  0.334055  0.331504  0.161410  1
  O  O12  1  0.572158  0.990470  0.750080  1
  O  O13  1  0.889208  0.755754  0.592824  1
  O  O14  1  0.889224  0.758384  0.907420  1
  O  O15  1  0.353717  0.887809  0.593236  1
  O  O16  1  0.353750  0.892298  0.907880  1
  O  O17  1  0.989254  0.437630  0.750985  1
  O  O18  1  0.437987  0.571996  0.751191  1
  O  O19  1  0.245590  0.641239  0.090228  1
  O  O20  1  0.242432  0.647664  0.406198  1
  O  O21  1  0.757568  0.352336  0.593802  1
  O  O22  1  0.754410  0.358761  0.909772  1
  O  O23  1  0.562013  0.428004  0.248809  1
  O  O24  1  0.010746  0.562370  0.249015  1
  O  O25  1  0.646250  0.107702  0.092120  1
  O  O26  1  0.646283  0.112191  0.406764  1
  O  O27  1  0.110776  0.241616  0.092580  1
  O  O28  1  0.110792  0.244246  0.407176  1
  O  O29  1  0.427842  0.009530  0.249920  1
