# generated using pymatgen
data_Lu4Zn2B4Ir9Rh
_symmetry_space_group_name_H-M   'P 1'
_cell_length_a   9.55036615
_cell_length_b   9.54632715
_cell_length_c   3.11169900
_cell_angle_alpha   90.00000000
_cell_angle_beta   90.00000000
_cell_angle_gamma   89.97982599
_symmetry_Int_Tables_number   1
_chemical_formula_structural   Lu4Zn2B4Ir9Rh
_chemical_formula_sum   'Lu4 Zn2 B4 Ir9 Rh1'
_cell_volume   283.69644186
_cell_formula_units_Z   1
loop_
 _symmetry_equiv_pos_site_id
 _symmetry_equiv_pos_as_xyz
  1  'x, y, z'
loop_
 _atom_site_type_symbol
 _atom_site_label
 _atom_site_symmetry_multiplicity
 _atom_site_fract_x
 _atom_site_fract_y
 _atom_site_fract_z
 _atom_site_occupancy
  Lu  Lu0  1  0.677522  0.177427  0.000000  1
  Lu  Lu1  1  0.322460  0.822777  0.000000  1
  Lu  Lu2  1  0.177485  0.321737  0.000000  1
  Lu  Lu3  1  0.822767  0.677260  0.000000  1
  Zn  Zn4  1  0.000846  0.000351  0.000000  1
  Zn  Zn5  1  0.499837  0.499984  0.000000  1
  B  B6  1  0.125189  0.625028  0.000000  1
  B  B7  1  0.874754  0.374715  0.000000  1
  B  B8  1  0.625196  0.874650  0.000000  1
  B  B9  1  0.376625  0.125798  0.000000  1
  Ir  Ir10  1  0.780820  0.931892  0.500000  1
  Ir  Ir11  1  0.067989  0.780943  0.500000  1
  Ir  Ir12  1  0.718814  0.432486  0.500000  1
  Ir  Ir13  1  0.931384  0.218793  0.500000  1
  Ir  Ir14  1  0.280882  0.567911  0.500000  1
  Ir  Ir15  1  0.567982  0.719255  0.500000  1
  Ir  Ir16  1  0.431037  0.280674  0.500000  1
  Ir  Ir17  1  0.499223  0.000313  0.500000  1
  Ir  Ir18  1  0.000255  0.499458  0.500000  1
  Rh  Rh19  1  0.218934  0.068548  0.500000  1
