# generated using pymatgen
data_UFe2SiP
_symmetry_space_group_name_H-M   'P 1'
_cell_length_a   5.39003249
_cell_length_b   5.39003250
_cell_length_c   5.39003232
_cell_angle_alpha   137.82897519
_cell_angle_beta   137.82897359
_cell_angle_gamma   61.16502791
_symmetry_Int_Tables_number   1
_chemical_formula_structural   UFe2SiP
_chemical_formula_sum   'U1 Fe2 Si1 P1'
_cell_volume   69.79324903
_cell_formula_units_Z   1
loop_
 _symmetry_equiv_pos_site_id
 _symmetry_equiv_pos_as_xyz
  1  'x, y, z'
loop_
 _atom_site_type_symbol
 _atom_site_label
 _atom_site_symmetry_multiplicity
 _atom_site_fract_x
 _atom_site_fract_y
 _atom_site_fract_z
 _atom_site_occupancy
  U  U0  1  0.005205  0.005205  0.000000  1
  Fe  Fe1  1  0.246069  0.746069  0.500000  1
  Fe  Fe2  1  0.746069  0.246069  0.500000  1
  Si  Si3  1  0.374945  0.374945  0.000000  1
  P  P4  1  0.627712  0.627712  0.000000  1
