# generated using pymatgen
data_LiEr2Tm2Sc5Si8
_symmetry_space_group_name_H-M   'P 1'
_cell_length_a   6.95693103
_cell_length_b   7.36050159
_cell_length_c   13.94005009
_cell_angle_alpha   90.00869995
_cell_angle_beta   90.00991480
_cell_angle_gamma   89.95196837
_symmetry_Int_Tables_number   1
_chemical_formula_structural   LiEr2Tm2Sc5Si8
_chemical_formula_sum   'Li2 Er4 Tm4 Sc10 Si16'
_cell_volume   713.82093124
_cell_formula_units_Z   2
loop_
 _symmetry_equiv_pos_site_id
 _symmetry_equiv_pos_as_xyz
  1  'x, y, z'
loop_
 _atom_site_type_symbol
 _atom_site_label
 _atom_site_symmetry_multiplicity
 _atom_site_fract_x
 _atom_site_fract_y
 _atom_site_fract_z
 _atom_site_occupancy
  Li  Li0  1  0.159783  0.506299  0.749983  1
  Li  Li1  1  0.840203  0.493660  0.250013  1
  Er  Er2  1  0.010082  0.184536  0.098004  1
  Er  Er3  1  0.989945  0.815527  0.902008  1
  Er  Er4  1  0.485278  0.674895  0.902953  1
  Er  Er5  1  0.989969  0.815524  0.597980  1
  Tm  Tm6  1  0.514675  0.325031  0.097128  1
  Tm  Tm7  1  0.010147  0.184619  0.401933  1
  Tm  Tm8  1  0.514685  0.325018  0.402897  1
  Tm  Tm9  1  0.485304  0.674948  0.597112  1
  Sc  Sc10  1  0.341146  0.003968  0.250036  1
  Sc  Sc11  1  0.658831  0.996150  0.749973  1
  Sc  Sc12  1  0.326535  0.181204  0.626235  1
  Sc  Sc13  1  0.673457  0.818833  0.373737  1
  Sc  Sc14  1  0.166068  0.674727  0.373103  1
  Sc  Sc15  1  0.673457  0.818827  0.126296  1
  Sc  Sc16  1  0.833973  0.325229  0.626865  1
  Sc  Sc17  1  0.326548  0.181179  0.873744  1
  Sc  Sc18  1  0.833976  0.325225  0.873093  1
  Sc  Sc19  1  0.166051  0.674702  0.126916  1
  Si  Si20  1  0.029315  0.100365  0.749975  1
  Si  Si21  1  0.970720  0.899781  0.250059  1
  Si  Si22  1  0.466623  0.610766  0.250017  1
  Si  Si23  1  0.533459  0.389114  0.749952  1
  Si  Si24  1  0.287291  0.876784  0.749937  1
  Si  Si25  1  0.712722  0.123382  0.250076  1
  Si  Si26  1  0.220120  0.371078  0.250063  1
  Si  Si27  1  0.779868  0.628747  0.749920  1
  Si  Si28  1  0.161164  0.461410  0.533433  1
  Si  Si29  1  0.838831  0.538292  0.466478  1
  Si  Si30  1  0.342011  0.967114  0.461220  1
  Si  Si31  1  0.838874  0.538413  0.033499  1
  Si  Si32  1  0.657865  0.032985  0.538726  1
  Si  Si33  1  0.160994  0.461453  0.966579  1
  Si  Si34  1  0.657878  0.033105  0.961284  1
  Si  Si35  1  0.342151  0.967111  0.038772  1
