# generated using pymatgen
data_Sr4Y3F17
_symmetry_space_group_name_H-M   'P 1'
_cell_length_a   9.09609215
_cell_length_b   9.11229744
_cell_length_c   9.17299500
_cell_angle_alpha   73.01971052
_cell_angle_beta   72.87304309
_cell_angle_gamma   73.07708681
_symmetry_Int_Tables_number   1
_chemical_formula_structural   Sr4Y3F17
_chemical_formula_sum   'Sr8 Y6 F34'
_cell_volume   677.20394716
_cell_formula_units_Z   2
loop_
 _symmetry_equiv_pos_site_id
 _symmetry_equiv_pos_as_xyz
  1  'x, y, z'
loop_
 _atom_site_type_symbol
 _atom_site_label
 _atom_site_symmetry_multiplicity
 _atom_site_fract_x
 _atom_site_fract_y
 _atom_site_fract_z
 _atom_site_occupancy
  Sr  Sr0  1  0.898838  0.039208  0.309940  1
  Sr  Sr1  1  0.267288  0.259971  0.263506  1
  Sr  Sr2  1  0.045851  0.302056  0.899949  1
  Sr  Sr3  1  0.698967  0.094805  0.964025  1
  Sr  Sr4  1  0.310007  0.893849  0.052302  1
  Sr  Sr5  1  0.950310  0.685639  0.110188  1
  Sr  Sr6  1  0.741272  0.733707  0.735628  1
  Sr  Sr7  1  0.108890  0.942695  0.689956  1
  Y  Y8  1  0.465416  0.156244  0.612549  1
  Y  Y9  1  0.608311  0.470271  0.168336  1
  Y  Y10  1  0.844807  0.387095  0.535426  1
  Y  Y11  1  0.181948  0.611341  0.461383  1
  Y  Y12  1  0.385983  0.536141  0.840814  1
  Y  Y13  1  0.528361  0.820725  0.390670  1
  F  F14  1  0.991126  0.004714  0.008629  1
  F  F15  1  0.456542  0.023834  0.169999  1
  F  F16  1  0.139288  0.137152  0.137950  1
  F  F17  1  0.352752  0.041413  0.488289  1
  F  F18  1  0.022181  0.168875  0.453372  1
  F  F19  1  0.252929  0.077439  0.791854  1
  F  F20  1  0.786636  0.254617  0.093872  1
  F  F21  1  0.492506  0.348765  0.039982  1
  F  F22  1  0.169779  0.450758  0.021452  1
  F  F23  1  0.538837  0.258260  0.348243  1
  F  F24  1  0.696561  0.211373  0.586846  1
  F  F25  1  0.257052  0.344402  0.540824  1
  F  F26  1  0.049580  0.485075  0.353689  1
  F  F27  1  0.393206  0.309305  0.788284  1
  F  F28  1  0.915659  0.206206  0.747941  1
  F  F29  1  0.339439  0.547160  0.233415  1
  F  F30  1  0.798838  0.419406  0.297789  1
  F  F31  1  0.197378  0.615641  0.700741  1
  F  F32  1  0.465073  0.565496  0.451951  1
  F  F33  1  0.650967  0.460588  0.739007  1
  F  F34  1  0.081310  0.784563  0.255422  1
  F  F35  1  0.601162  0.717659  0.174574  1
  F  F36  1  0.964278  0.508002  0.649527  1
  F  F37  1  0.747408  0.651364  0.460030  1
  F  F38  1  0.277206  0.834559  0.385156  1
  F  F39  1  0.447463  0.752227  0.658163  1
  F  F40  1  0.830426  0.542353  0.976825  1
  F  F41  1  0.514642  0.648214  0.951865  1
  F  F42  1  0.207672  0.746329  0.925044  1
  F  F43  1  0.744296  0.909439  0.219857  1
  F  F44  1  0.977702  0.826773  0.547023  1
  F  F45  1  0.648226  0.952183  0.514378  1
  F  F46  1  0.866766  0.857492  0.864373  1
  F  F47  1  0.549864  0.981621  0.829965  1
