# generated using pymatgen
data_Er4MgBiRu2
_symmetry_space_group_name_H-M   'P 1'
_cell_length_a   9.11488899
_cell_length_b   9.11488882
_cell_length_c   9.11488789
_cell_angle_alpha   132.97493475
_cell_angle_beta   132.97493383
_cell_angle_gamma   68.69351842
_symmetry_Int_Tables_number   1
_chemical_formula_structural   Er4MgBiRu2
_chemical_formula_sum   'Er8 Mg2 Bi2 Ru4'
_cell_volume   398.05218461
_cell_formula_units_Z   2
loop_
 _symmetry_equiv_pos_site_id
 _symmetry_equiv_pos_as_xyz
  1  'x, y, z'
loop_
 _atom_site_type_symbol
 _atom_site_label
 _atom_site_symmetry_multiplicity
 _atom_site_fract_x
 _atom_site_fract_y
 _atom_site_fract_z
 _atom_site_occupancy
  Er  Er0  1  0.794941  0.294941  0.841935  1
  Er  Er1  1  0.205059  0.705059  0.158065  1
  Er  Er2  1  0.453004  0.953004  0.158065  1
  Er  Er3  1  0.294941  0.453004  0.500000  1
  Er  Er4  1  0.046996  0.205059  0.500000  1
  Er  Er5  1  0.546996  0.046996  0.841935  1
  Er  Er6  1  0.705059  0.546996  0.500000  1
  Er  Er7  1  0.953004  0.794941  0.500000  1
  Mg  Mg8  1  0.000000  0.000000  0.000000  1
  Mg  Mg9  1  0.500000  0.500000  0.000000  1
  Bi  Bi10  1  0.250000  0.250000  0.000000  1
  Bi  Bi11  1  0.750000  0.750000  0.000000  1
  Ru  Ru12  1  0.131764  0.631764  0.763530  1
  Ru  Ru13  1  0.868236  0.368236  0.236470  1
  Ru  Ru14  1  0.631764  0.868236  0.500000  1
  Ru  Ru15  1  0.368236  0.131764  0.500000  1
