# generated using pymatgen
data_Zr(AlCu)6
_symmetry_space_group_name_H-M   'P 1'
_cell_length_a   6.53070540
_cell_length_b   6.53070499
_cell_length_c   6.53070446
_cell_angle_alpha   134.25909257
_cell_angle_beta   99.19904656
_cell_angle_gamma   98.17696880
_symmetry_Int_Tables_number   1
_chemical_formula_structural   Zr(AlCu)6
_chemical_formula_sum   'Zr1 Al6 Cu6'
_cell_volume   183.79231330
_cell_formula_units_Z   1
loop_
 _symmetry_equiv_pos_site_id
 _symmetry_equiv_pos_as_xyz
  1  'x, y, z'
loop_
 _atom_site_type_symbol
 _atom_site_label
 _atom_site_symmetry_multiplicity
 _atom_site_fract_x
 _atom_site_fract_y
 _atom_site_fract_z
 _atom_site_occupancy
  Zr  Zr0  1  0.000000  0.000000  0.000000  1
  Al  Al1  1  0.344053  0.000000  0.344053  1
  Al  Al2  1  0.655947  0.000000  0.655947  1
  Al  Al3  1  0.657083  0.657083  0.000000  1
  Al  Al4  1  0.342917  0.342917  0.000000  1
  Al  Al5  1  0.185946  0.685946  0.500000  1
  Al  Al6  1  0.814054  0.314054  0.500000  1
  Cu  Cu7  1  0.761654  0.500000  0.261654  1
  Cu  Cu8  1  0.238346  0.500000  0.738346  1
  Cu  Cu9  1  0.000000  0.000000  0.500000  1
  Cu  Cu10  1  0.000000  0.500000  0.000000  1
  Cu  Cu11  1  0.500000  0.000000  0.000000  1
  Cu  Cu12  1  0.500000  0.500000  0.500000  1
