# generated using pymatgen
data_YbGaBO4
_symmetry_space_group_name_H-M   'P 1'
_cell_length_a   5.83787700
_cell_length_b   8.39301332
_cell_length_c   8.76711128
_cell_angle_alpha   118.59822546
_cell_angle_beta   90.00000000
_cell_angle_gamma   90.00000000
_symmetry_Int_Tables_number   1
_chemical_formula_structural   YbGaBO4
_chemical_formula_sum   'Yb4 Ga4 B4 O16'
_cell_volume   377.15754467
_cell_formula_units_Z   4
loop_
 _symmetry_equiv_pos_site_id
 _symmetry_equiv_pos_as_xyz
  1  'x, y, z'
loop_
 _atom_site_type_symbol
 _atom_site_label
 _atom_site_symmetry_multiplicity
 _atom_site_fract_x
 _atom_site_fract_y
 _atom_site_fract_z
 _atom_site_occupancy
  Yb  Yb0  1  0.598364  0.450759  0.182037  1
  Yb  Yb1  1  0.098363  0.731278  0.182037  1
  Yb  Yb2  1  0.098363  0.268722  0.817962  1
  Yb  Yb3  1  0.598364  0.549241  0.817962  1
  Ga  Ga4  1  0.374435  0.185844  0.406219  1
  Ga  Ga5  1  0.874436  0.220375  0.406219  1
  Ga  Ga6  1  0.874436  0.779625  0.593780  1
  Ga  Ga7  1  0.374435  0.814156  0.593780  1
  B  B8  1  0.140727  0.347095  0.211181  1
  B  B9  1  0.640728  0.864086  0.211181  1
  B  B10  1  0.640728  0.135914  0.788820  1
  B  B11  1  0.140727  0.652905  0.788820  1
  O  O12  1  0.176511  0.431577  0.112669  1
  O  O13  1  0.676511  0.681091  0.112669  1
  O  O14  1  0.336038  0.281144  0.252908  1
  O  O15  1  0.836039  0.971764  0.252908  1
  O  O16  1  0.920386  0.328650  0.262738  1
  O  O17  1  0.420385  0.934088  0.262738  1
  O  O18  1  0.619538  0.691834  0.458185  1
  O  O19  1  0.119537  0.766351  0.458185  1
  O  O20  1  0.119537  0.233650  0.541816  1
  O  O21  1  0.619538  0.308166  0.541816  1
  O  O22  1  0.420385  0.065912  0.737263  1
  O  O23  1  0.920386  0.671350  0.737263  1
  O  O24  1  0.836039  0.028236  0.747091  1
  O  O25  1  0.336038  0.718855  0.747091  1
  O  O26  1  0.676511  0.318909  0.887332  1
  O  O27  1  0.176511  0.568424  0.887332  1
