# generated using pymatgen
data_Ho14Er2MgCo4Ag3
_symmetry_space_group_name_H-M   'P 1'
_cell_length_a   9.39781094
_cell_length_b   9.41364629
_cell_length_c   9.40536400
_cell_angle_alpha   60.02909988
_cell_angle_beta   59.97341011
_cell_angle_gamma   60.02111779
_symmetry_Int_Tables_number   1
_chemical_formula_structural   Ho14Er2MgCo4Ag3
_chemical_formula_sum   'Ho14 Er2 Mg1 Co4 Ag3'
_cell_volume   588.46751045
_cell_formula_units_Z   1
loop_
 _symmetry_equiv_pos_site_id
 _symmetry_equiv_pos_as_xyz
  1  'x, y, z'
loop_
 _atom_site_type_symbol
 _atom_site_label
 _atom_site_symmetry_multiplicity
 _atom_site_fract_x
 _atom_site_fract_y
 _atom_site_fract_z
 _atom_site_occupancy
  Ho  Ho0  1  0.596075  0.595537  0.594443  1
  Ho  Ho1  1  0.596075  0.595537  0.213944  1
  Ho  Ho2  1  0.596295  0.213698  0.595003  1
  Ho  Ho3  1  0.203667  0.599364  0.598484  1
  Ho  Ho4  1  0.059268  0.438767  0.439624  1
  Ho  Ho5  1  0.435429  0.063167  0.064133  1
  Ho  Ho6  1  0.435429  0.063167  0.437270  1
  Ho  Ho7  1  0.059268  0.438767  0.062341  1
  Ho  Ho8  1  0.435081  0.436361  0.064278  1
  Ho  Ho9  1  0.059355  0.061569  0.439539  1
  Ho  Ho10  1  0.184380  0.813704  0.813140  1
  Ho  Ho11  1  0.813003  0.186716  0.187003  1
  Ho  Ho12  1  0.813003  0.186716  0.813278  1
  Ho  Ho13  1  0.184380  0.813704  0.188776  1
  Er  Er14  1  0.812147  0.813247  0.187303  1
  Er  Er15  1  0.185442  0.189263  0.812648  1
  Mg  Mg16  1  0.538273  0.820301  0.820713  1
  Co  Co17  1  0.389211  0.392009  0.391870  1
  Co  Co18  1  0.389211  0.392009  0.826911  1
  Co  Co19  1  0.389749  0.827115  0.391569  1
  Co  Co20  1  0.827023  0.391711  0.390633  1
  Ag  Ag21  1  0.832657  0.832583  0.832754  1
  Ag  Ag22  1  0.832657  0.832583  0.502007  1
  Ag  Ag23  1  0.832929  0.502405  0.832334  1
