# generated using pymatgen
data_Pr3(IrO5)2
_symmetry_space_group_name_H-M   'P 1'
_cell_length_a   5.59731426
_cell_length_b   5.59731163
_cell_length_c   7.02016886
_cell_angle_alpha   72.69410931
_cell_angle_beta   72.69410061
_cell_angle_gamma   91.09513677
_symmetry_Int_Tables_number   1
_chemical_formula_structural   Pr3(IrO5)2
_chemical_formula_sum   'Pr3 Ir2 O10'
_cell_volume   199.07682312
_cell_formula_units_Z   1
loop_
 _symmetry_equiv_pos_site_id
 _symmetry_equiv_pos_as_xyz
  1  'x, y, z'
loop_
 _atom_site_type_symbol
 _atom_site_label
 _atom_site_symmetry_multiplicity
 _atom_site_fract_x
 _atom_site_fract_y
 _atom_site_fract_z
 _atom_site_occupancy
  Pr  Pr0  1  0.000000  0.000000  0.500000  1
  Pr  Pr1  1  0.747988  0.252011  0.000000  1
  Pr  Pr2  1  0.252012  0.747989  0.000000  1
  Ir  Ir3  1  0.631573  0.631573  0.317101  1
  Ir  Ir4  1  0.368427  0.368427  0.682899  1
  O  O5  1  0.397375  0.888158  0.280821  1
  O  O6  1  0.602625  0.111842  0.719179  1
  O  O7  1  0.111842  0.602625  0.719178  1
  O  O8  1  0.888158  0.397375  0.280822  1
  O  O9  1  0.646335  0.646335  0.595998  1
  O  O10  1  0.353665  0.353665  0.404002  1
  O  O11  1  0.670651  0.670652  0.025221  1
  O  O12  1  0.329349  0.329348  0.974779  1
  O  O13  1  0.905974  0.905974  0.214039  1
  O  O14  1  0.094026  0.094026  0.785961  1
