# generated using pymatgen
data_Cs3Tm(PS4)2
_symmetry_space_group_name_H-M   'P 1'
_cell_length_a   9.96012591
_cell_length_b   6.96060000
_cell_length_c   12.04021800
_cell_angle_alpha   90.00000000
_cell_angle_beta   88.47692266
_cell_angle_gamma   90.00000000
_symmetry_Int_Tables_number   1
_chemical_formula_structural   Cs3Tm(PS4)2
_chemical_formula_sum   'Cs6 Tm2 P4 S16'
_cell_volume   834.43477082
_cell_formula_units_Z   2
loop_
 _symmetry_equiv_pos_site_id
 _symmetry_equiv_pos_as_xyz
  1  'x, y, z'
loop_
 _atom_site_type_symbol
 _atom_site_label
 _atom_site_symmetry_multiplicity
 _atom_site_fract_x
 _atom_site_fract_y
 _atom_site_fract_z
 _atom_site_occupancy
  Cs  Cs0  1  0.364913  0.802145  0.087062  1
  Cs  Cs1  1  0.396272  0.308605  0.343111  1
  Cs  Cs2  1  0.837544  0.308899  0.433195  1
  Cs  Cs3  1  0.162456  0.808899  0.566806  1
  Cs  Cs4  1  0.603728  0.808605  0.656889  1
  Cs  Cs5  1  0.635088  0.302145  0.912938  1
  Tm  Tm6  1  0.890100  0.788055  0.141632  1
  Tm  Tm7  1  0.109900  0.288055  0.858368  1
  P  P8  1  0.080292  0.329293  0.146464  1
  P  P9  1  0.645477  0.808317  0.306122  1
  P  P10  1  0.354523  0.308316  0.693878  1
  P  P11  1  0.919708  0.829293  0.853536  1
  S  S12  1  0.937627  0.398954  0.031940  1
  S  S13  1  0.255411  0.305462  0.053174  1
  S  S14  1  0.675530  0.038626  0.200758  1
  S  S15  1  0.670870  0.566753  0.206642  1
  S  S16  1  0.049081  0.083878  0.238404  1
  S  S17  1  0.080775  0.563522  0.251314  1
  S  S18  1  0.462250  0.811993  0.383024  1
  S  S19  1  0.807659  0.807778  0.407101  1
  S  S20  1  0.192342  0.307777  0.592899  1
  S  S21  1  0.537749  0.311992  0.616976  1
  S  S22  1  0.919225  0.063521  0.748686  1
  S  S23  1  0.950919  0.583878  0.761596  1
  S  S24  1  0.329130  0.066754  0.793358  1
  S  S25  1  0.324470  0.538624  0.799242  1
  S  S26  1  0.744588  0.805463  0.946826  1
  S  S27  1  0.062373  0.898954  0.968059  1
