# generated using pymatgen
data_Np2NiB8Ir
_symmetry_space_group_name_H-M   'P 1'
_cell_length_a   6.89685863
_cell_length_b   6.89685789
_cell_length_c   6.89685784
_cell_angle_alpha   111.38621212
_cell_angle_beta   113.66856977
_cell_angle_gamma   103.52690330
_symmetry_Int_Tables_number   1
_chemical_formula_structural   Np2NiB8Ir
_chemical_formula_sum   'Np4 Ni2 B16 Ir2'
_cell_volume   250.41972135
_cell_formula_units_Z   2
loop_
 _symmetry_equiv_pos_site_id
 _symmetry_equiv_pos_as_xyz
  1  'x, y, z'
loop_
 _atom_site_type_symbol
 _atom_site_label
 _atom_site_symmetry_multiplicity
 _atom_site_fract_x
 _atom_site_fract_y
 _atom_site_fract_z
 _atom_site_occupancy
  Np  Np0  1  0.799895  0.799895  0.000000  1
  Np  Np1  1  0.200105  0.200105  0.000000  1
  Np  Np2  1  0.753536  0.253536  0.500000  1
  Np  Np3  1  0.246464  0.746464  0.500000  1
  Ni  Ni4  1  0.500000  0.743089  0.243089  1
  Ni  Ni5  1  0.500000  0.256911  0.756911  1
  B  B6  1  0.272251  0.107303  0.379554  1
  B  B7  1  0.727749  0.892697  0.620446  1
  B  B8  1  0.272251  0.892697  0.164950  1
  B  B9  1  0.727749  0.107303  0.835050  1
  B  B10  1  0.110537  0.732321  0.842858  1
  B  B11  1  0.889463  0.267679  0.157142  1
  B  B12  1  0.110537  0.267679  0.378215  1
  B  B13  1  0.889463  0.732321  0.621785  1
  B  B14  1  0.116124  0.108982  0.532108  1
  B  B15  1  0.576872  0.584016  0.467892  1
  B  B16  1  0.116124  0.584016  0.007143  1
  B  B17  1  0.576872  0.108982  0.992857  1
  B  B18  1  0.883876  0.891018  0.467892  1
  B  B19  1  0.423128  0.415984  0.532108  1
  B  B20  1  0.883876  0.415984  0.992857  1
  B  B21  1  0.423128  0.891018  0.007143  1
  Ir  Ir22  1  0.278996  0.500000  0.778996  1
  Ir  Ir23  1  0.721004  0.500000  0.221004  1
