# generated using pymatgen
data_Dy16Er4Ir11Ru
_symmetry_space_group_name_H-M   'P 1'
_cell_length_a   10.84382700
_cell_length_b   10.84382700
_cell_length_c   6.37849000
_cell_angle_alpha   90.00000000
_cell_angle_beta   90.00000000
_cell_angle_gamma   90.00000000
_symmetry_Int_Tables_number   1
_chemical_formula_structural   Dy16Er4Ir11Ru
_chemical_formula_sum   'Dy16 Er4 Ir11 Ru1'
_cell_volume   750.03760720
_cell_formula_units_Z   1
loop_
 _symmetry_equiv_pos_site_id
 _symmetry_equiv_pos_as_xyz
  1  'x, y, z'
loop_
 _atom_site_type_symbol
 _atom_site_label
 _atom_site_symmetry_multiplicity
 _atom_site_fract_x
 _atom_site_fract_y
 _atom_site_fract_z
 _atom_site_occupancy
  Dy  Dy0  1  0.291981  0.086900  0.376406  1
  Dy  Dy1  1  0.292330  0.913003  0.879379  1
  Dy  Dy2  1  0.707670  0.086997  0.879379  1
  Dy  Dy3  1  0.708019  0.913100  0.376406  1
  Dy  Dy4  1  0.586997  0.792330  0.879379  1
  Dy  Dy5  1  0.586900  0.208019  0.376406  1
  Dy  Dy6  1  0.413100  0.791981  0.376406  1
  Dy  Dy7  1  0.413003  0.207670  0.879379  1
  Dy  Dy8  1  0.209483  0.411920  0.622351  1
  Dy  Dy9  1  0.209451  0.587902  0.121952  1
  Dy  Dy10  1  0.790549  0.412098  0.121952  1
  Dy  Dy11  1  0.790517  0.588080  0.622351  1
  Dy  Dy12  1  0.912098  0.709451  0.121952  1
  Dy  Dy13  1  0.911920  0.290517  0.622351  1
  Dy  Dy14  1  0.088080  0.709483  0.622351  1
  Dy  Dy15  1  0.087902  0.290549  0.121952  1
  Er  Er16  1  0.000000  0.000000  0.499193  1
  Er  Er17  1  0.000000  0.000000  0.999371  1
  Er  Er18  1  0.500000  0.500000  0.999371  1
  Er  Er19  1  0.500000  0.500000  0.499193  1
  Ir  Ir20  1  0.847619  0.153179  0.249961  1
  Ir  Ir21  1  0.847631  0.847219  0.749708  1
  Ir  Ir22  1  0.152369  0.152781  0.749708  1
  Ir  Ir23  1  0.152381  0.846821  0.249961  1
  Ir  Ir24  1  0.652781  0.347631  0.749708  1
  Ir  Ir25  1  0.653179  0.652381  0.249961  1
  Ir  Ir26  1  0.346821  0.347619  0.249961  1
  Ir  Ir27  1  0.347219  0.652369  0.749708  1
  Ir  Ir28  1  0.500000  0.000000  0.622835  1
  Ir  Ir29  1  0.000000  0.500000  0.878630  1
  Ir  Ir30  1  0.000000  0.500000  0.378761  1
  Ru  Ru31  1  0.500000  0.000000  0.123616  1
