# generated using pymatgen
data_LiDy4Al17Pd6
_symmetry_space_group_name_H-M   'P 1'
_cell_length_a   7.61287800
_cell_length_b   7.61287752
_cell_length_c   9.46158600
_cell_angle_alpha   90.00000000
_cell_angle_beta   90.00000000
_cell_angle_gamma   119.33210378
_symmetry_Int_Tables_number   1
_chemical_formula_structural   LiDy4Al17Pd6
_chemical_formula_sum   'Li1 Dy4 Al17 Pd6'
_cell_volume   478.05293772
_cell_formula_units_Z   1
loop_
 _symmetry_equiv_pos_site_id
 _symmetry_equiv_pos_as_xyz
  1  'x, y, z'
loop_
 _atom_site_type_symbol
 _atom_site_label
 _atom_site_symmetry_multiplicity
 _atom_site_fract_x
 _atom_site_fract_y
 _atom_site_fract_z
 _atom_site_occupancy
  Li  Li0  1  0.129397  0.129397  0.250000  1
  Dy  Dy1  1  0.994882  0.664890  0.250000  1
  Dy  Dy2  1  0.007421  0.329994  0.750000  1
  Dy  Dy3  1  0.664890  0.994882  0.250000  1
  Dy  Dy4  1  0.329994  0.007421  0.750000  1
  Al  Al5  1  0.866776  0.866776  0.750000  1
  Al  Al6  1  0.001537  0.328784  0.080459  1
  Al  Al7  1  0.000404  0.664877  0.924064  1
  Al  Al8  1  0.000404  0.664877  0.575936  1
  Al  Al9  1  0.328784  0.001537  0.419541  1
  Al  Al10  1  0.001537  0.328784  0.419541  1
  Al  Al11  1  0.664877  0.000404  0.575936  1
  Al  Al12  1  0.664877  0.000404  0.924064  1
  Al  Al13  1  0.328784  0.001537  0.080459  1
  Al  Al14  1  0.334669  0.334669  0.547674  1
  Al  Al15  1  0.671198  0.671199  0.439742  1
  Al  Al16  1  0.671198  0.671199  0.060258  1
  Al  Al17  1  0.334669  0.334669  0.952326  1
  Al  Al18  1  0.340207  0.542501  0.250000  1
  Al  Al19  1  0.659275  0.451891  0.750000  1
  Al  Al20  1  0.542501  0.340207  0.250000  1
  Al  Al21  1  0.451891  0.659275  0.750000  1
  Pd  Pd22  1  0.675232  0.329568  0.000251  1
  Pd  Pd23  1  0.329568  0.675232  0.000251  1
  Pd  Pd24  1  0.329568  0.675232  0.499749  1
  Pd  Pd25  1  0.675232  0.329568  0.499749  1
  Pd  Pd26  1  0.000114  0.000114  0.993956  1
  Pd  Pd27  1  0.000114  0.000114  0.506044  1
