# generated using pymatgen
data_Dy20Cd3Co2Ag3
_symmetry_space_group_name_H-M   'P 1'
_cell_length_a   9.57531200
_cell_length_b   9.57531335
_cell_length_c   9.60451300
_cell_angle_alpha   90.00000000
_cell_angle_beta   90.00000000
_cell_angle_gamma   119.99999534
_symmetry_Int_Tables_number   1
_chemical_formula_structural   Dy20Cd3Co2Ag3
_chemical_formula_sum   'Dy20 Cd3 Co2 Ag3'
_cell_volume   762.62656586
_cell_formula_units_Z   1
loop_
 _symmetry_equiv_pos_site_id
 _symmetry_equiv_pos_as_xyz
  1  'x, y, z'
loop_
 _atom_site_type_symbol
 _atom_site_label
 _atom_site_symmetry_multiplicity
 _atom_site_fract_x
 _atom_site_fract_y
 _atom_site_fract_z
 _atom_site_occupancy
  Dy  Dy0  1  0.000000  0.000000  0.472547  1
  Dy  Dy1  1  0.000000  0.000000  0.027453  1
  Dy  Dy2  1  0.541753  0.458247  0.250000  1
  Dy  Dy3  1  0.541753  0.083504  0.250000  1
  Dy  Dy4  1  0.916496  0.458247  0.250000  1
  Dy  Dy5  1  0.457155  0.542845  0.750000  1
  Dy  Dy6  1  0.457155  0.914311  0.750000  1
  Dy  Dy7  1  0.085689  0.542845  0.750000  1
  Dy  Dy8  1  0.212252  0.787748  0.436866  1
  Dy  Dy9  1  0.212252  0.424504  0.436866  1
  Dy  Dy10  1  0.575496  0.787748  0.436866  1
  Dy  Dy11  1  0.788861  0.211139  0.563429  1
  Dy  Dy12  1  0.788861  0.577721  0.563429  1
  Dy  Dy13  1  0.422279  0.211139  0.563429  1
  Dy  Dy14  1  0.788861  0.211139  0.936571  1
  Dy  Dy15  1  0.788861  0.577721  0.936571  1
  Dy  Dy16  1  0.422279  0.211139  0.936571  1
  Dy  Dy17  1  0.212252  0.787748  0.063134  1
  Dy  Dy18  1  0.212252  0.424504  0.063134  1
  Dy  Dy19  1  0.575496  0.787748  0.063134  1
  Cd  Cd20  1  0.110870  0.889130  0.750000  1
  Cd  Cd21  1  0.110870  0.221738  0.750000  1
  Cd  Cd22  1  0.778262  0.889130  0.750000  1
  Co  Co23  1  0.333333  0.666667  0.250000  1
  Co  Co24  1  0.666667  0.333333  0.750000  1
  Ag  Ag25  1  0.875257  0.124743  0.250000  1
  Ag  Ag26  1  0.875257  0.750513  0.250000  1
  Ag  Ag27  1  0.249487  0.124743  0.250000  1
