# generated using pymatgen
data_Nd2Lu(InIr6)3
_symmetry_space_group_name_H-M   'P 1'
_cell_length_a   5.20320700
_cell_length_b   8.95147042
_cell_length_c   8.95147042
_cell_angle_alpha   89.84283688
_cell_angle_beta   90.00000000
_cell_angle_gamma   90.00000000
_symmetry_Int_Tables_number   1
_chemical_formula_structural   Nd2Lu(InIr6)3
_chemical_formula_sum   'Nd2 Lu1 In3 Ir18'
_cell_volume   416.92528247
_cell_formula_units_Z   1
loop_
 _symmetry_equiv_pos_site_id
 _symmetry_equiv_pos_as_xyz
  1  'x, y, z'
loop_
 _atom_site_type_symbol
 _atom_site_label
 _atom_site_symmetry_multiplicity
 _atom_site_fract_x
 _atom_site_fract_y
 _atom_site_fract_z
 _atom_site_occupancy
  Nd  Nd0  1  0.000000  0.499553  0.503433  1
  Nd  Nd1  1  0.000000  0.003433  0.999553  1
  Lu  Lu2  1  0.000000  0.618666  0.118666  1
  In  In3  1  0.000000  0.378310  0.878310  1
  In  In4  1  0.000000  0.878843  0.620655  1
  In  In5  1  0.000000  0.120655  0.378843  1
  Ir  Ir6  1  0.757105  0.180416  0.680416  1
  Ir  Ir7  1  0.756085  0.821196  0.321196  1
  Ir  Ir8  1  0.756034  0.319240  0.180522  1
  Ir  Ir9  1  0.756034  0.680522  0.819240  1
  Ir  Ir10  1  0.243915  0.821196  0.321196  1
  Ir  Ir11  1  0.242895  0.180416  0.680416  1
  Ir  Ir12  1  0.243966  0.680522  0.819240  1
  Ir  Ir13  1  0.243966  0.319240  0.180522  1
  Ir  Ir14  1  0.500000  0.703445  0.555924  1
  Ir  Ir15  1  0.500000  0.296749  0.441914  1
  Ir  Ir16  1  0.500000  0.793785  0.059013  1
  Ir  Ir17  1  0.500000  0.203497  0.942776  1
  Ir  Ir18  1  0.500000  0.559013  0.293785  1
  Ir  Ir19  1  0.500000  0.442776  0.703497  1
  Ir  Ir20  1  0.500000  0.055924  0.203445  1
  Ir  Ir21  1  0.500000  0.941914  0.796749  1
  Ir  Ir22  1  0.500000  0.001622  0.501622  1
  Ir  Ir23  1  0.500000  0.499069  0.999069  1
