# generated using pymatgen
data_Nd4Al10Ga14PdRh
_symmetry_space_group_name_H-M   'P 1'
_cell_length_a   6.05717110
_cell_length_b   6.05699416
_cell_length_c   15.80180002
_cell_angle_alpha   89.98805999
_cell_angle_beta   90.30404934
_cell_angle_gamma   90.02309697
_symmetry_Int_Tables_number   1
_chemical_formula_structural   Nd4Al10Ga14PdRh
_chemical_formula_sum   'Nd4 Al10 Ga14 Pd1 Rh1'
_cell_volume   579.73216663
_cell_formula_units_Z   1
loop_
 _symmetry_equiv_pos_site_id
 _symmetry_equiv_pos_as_xyz
  1  'x, y, z'
loop_
 _atom_site_type_symbol
 _atom_site_label
 _atom_site_symmetry_multiplicity
 _atom_site_fract_x
 _atom_site_fract_y
 _atom_site_fract_z
 _atom_site_occupancy
  Nd  Nd0  1  0.752204  0.250650  0.248683  1
  Nd  Nd1  1  0.252271  0.749170  0.247555  1
  Nd  Nd2  1  0.248485  0.749586  0.752087  1
  Nd  Nd3  1  0.748619  0.250352  0.750841  1
  Al  Al4  1  0.502700  0.002419  0.913017  1
  Al  Al5  1  0.996910  0.003312  0.913326  1
  Al  Al6  1  0.502601  0.497625  0.913303  1
  Al  Al7  1  0.996986  0.496700  0.913071  1
  Al  Al8  1  0.502861  0.003297  0.086585  1
  Al  Al9  1  0.997183  0.002462  0.086788  1
  Al  Al10  1  0.503047  0.496559  0.086749  1
  Al  Al11  1  0.997388  0.497798  0.086602  1
  Al  Al12  1  0.582932  0.080846  0.433397  1
  Al  Al13  1  0.084194  0.917851  0.432992  1
  Ga  Ga14  1  0.250475  0.250060  0.187692  1
  Ga  Ga15  1  0.750529  0.749916  0.187689  1
  Ga  Ga16  1  0.748939  0.749922  0.812341  1
  Ga  Ga17  1  0.248943  0.250209  0.812367  1
  Ga  Ga18  1  0.252390  0.246751  0.344098  1
  Ga  Ga19  1  0.752419  0.753410  0.344088  1
  Ga  Ga20  1  0.748644  0.748845  0.655717  1
  Ga  Ga21  1  0.248632  0.251019  0.655727  1
  Ga  Ga22  1  0.419264  0.582389  0.430871  1
  Ga  Ga23  1  0.920335  0.418789  0.431339  1
  Ga  Ga24  1  0.415900  0.919407  0.568977  1
  Ga  Ga25  1  0.917136  0.079532  0.568508  1
  Ga  Ga26  1  0.578604  0.418244  0.567483  1
  Ga  Ga27  1  0.079551  0.582825  0.568091  1
  Pd  Pd28  1  0.249921  0.750071  0.999995  1
  Rh  Rh29  1  0.749936  0.249982  0.000021  1
