# generated using pymatgen
data_Tb5FeTcO12
_symmetry_space_group_name_H-M   'P 1'
_cell_length_a   6.84645535
_cell_length_b   6.84645534
_cell_length_c   7.37281565
_cell_angle_alpha   74.32949851
_cell_angle_beta   74.32950875
_cell_angle_gamma   51.28726900
_symmetry_Int_Tables_number   1
_chemical_formula_structural   Tb5FeTcO12
_chemical_formula_sum   'Tb5 Fe1 Tc1 O12'
_cell_volume   257.27491123
_cell_formula_units_Z   1
loop_
 _symmetry_equiv_pos_site_id
 _symmetry_equiv_pos_as_xyz
  1  'x, y, z'
loop_
 _atom_site_type_symbol
 _atom_site_label
 _atom_site_symmetry_multiplicity
 _atom_site_fract_x
 _atom_site_fract_y
 _atom_site_fract_z
 _atom_site_occupancy
  Tb  Tb0  1  0.316817  0.291457  0.359478  1
  Tb  Tb1  1  0.708543  0.683183  0.640522  1
  Tb  Tb2  1  0.310453  0.309842  0.828284  1
  Tb  Tb3  1  0.690158  0.689547  0.171716  1
  Tb  Tb4  1  0.008740  0.991260  0.500000  1
  Fe  Fe5  1  0.745294  0.254706  0.000000  1
  Tc  Tc6  1  0.230349  0.769651  0.000000  1
  O  O7  1  0.901635  0.432859  0.917744  1
  O  O8  1  0.419939  0.896985  0.918067  1
  O  O9  1  0.103015  0.580061  0.081933  1
  O  O10  1  0.567141  0.098365  0.082256  1
  O  O11  1  0.102686  0.593753  0.571450  1
  O  O12  1  0.600164  0.089271  0.578608  1
  O  O13  1  0.910729  0.399836  0.421392  1
  O  O14  1  0.406247  0.897314  0.428550  1
  O  O15  1  0.004328  0.995580  0.815983  1
  O  O16  1  0.004420  0.995672  0.184017  1
  O  O17  1  0.484150  0.514807  0.813584  1
  O  O18  1  0.485193  0.515850  0.186416  1
