# generated using pymatgen
data_CeVP3Ir4
_symmetry_space_group_name_H-M   'P 1'
_cell_length_a   3.93086000
_cell_length_b   7.27511031
_cell_length_c   9.58191400
_cell_angle_alpha   79.23510489
_cell_angle_beta   90.00000000
_cell_angle_gamma   90.00000000
_symmetry_Int_Tables_number   1
_chemical_formula_structural   CeVP3Ir4
_chemical_formula_sum   'Ce2 V2 P6 Ir8'
_cell_volume   269.19600469
_cell_formula_units_Z   2
loop_
 _symmetry_equiv_pos_site_id
 _symmetry_equiv_pos_as_xyz
  1  'x, y, z'
loop_
 _atom_site_type_symbol
 _atom_site_label
 _atom_site_symmetry_multiplicity
 _atom_site_fract_x
 _atom_site_fract_y
 _atom_site_fract_z
 _atom_site_occupancy
  Ce  Ce0  1  0.250000  0.805556  0.786843  1
  Ce  Ce1  1  0.750000  0.194439  0.213153  1
  V  V2  1  0.250000  0.310332  0.723773  1
  V  V3  1  0.750000  0.689676  0.276268  1
  P  P4  1  0.250000  0.259006  0.969214  1
  P  P5  1  0.750000  0.741011  0.030751  1
  P  P6  1  0.250000  0.432040  0.335642  1
  P  P7  1  0.750000  0.567952  0.664368  1
  P  P8  1  0.250000  0.899895  0.338707  1
  P  P9  1  0.750000  0.100094  0.661305  1
  Ir  Ir10  1  0.250000  0.531889  0.098372  1
  Ir  Ir11  1  0.750000  0.468132  0.901602  1
  Ir  Ir12  1  0.250000  0.929530  0.099223  1
  Ir  Ir13  1  0.750000  0.070474  0.900724  1
  Ir  Ir14  1  0.250000  0.625937  0.496538  1
  Ir  Ir15  1  0.750000  0.374059  0.503495  1
  Ir  Ir16  1  0.250000  0.131832  0.470024  1
  Ir  Ir17  1  0.750000  0.868149  0.530001  1
