# generated using pymatgen
data_Rb2ZnAs2O7
_symmetry_space_group_name_H-M   'P 1'
_cell_length_a   7.47441311
_cell_length_b   7.47441262
_cell_length_c   8.75354318
_cell_angle_alpha   78.71844512
_cell_angle_beta   78.71844082
_cell_angle_gamma   108.20144987
_symmetry_Int_Tables_number   1
_chemical_formula_structural   Rb2ZnAs2O7
_chemical_formula_sum   'Rb4 Zn2 As4 O14'
_cell_volume   437.94539416
_cell_formula_units_Z   2
loop_
 _symmetry_equiv_pos_site_id
 _symmetry_equiv_pos_as_xyz
  1  'x, y, z'
loop_
 _atom_site_type_symbol
 _atom_site_label
 _atom_site_symmetry_multiplicity
 _atom_site_fract_x
 _atom_site_fract_y
 _atom_site_fract_z
 _atom_site_occupancy
  Rb  Rb0  1  0.262367  0.184370  0.527137  1
  Rb  Rb1  1  0.184370  0.262367  0.027137  1
  Rb  Rb2  1  0.815630  0.737633  0.972863  1
  Rb  Rb3  1  0.737633  0.815630  0.472863  1
  Zn  Zn4  1  0.743779  0.256221  0.750000  1
  Zn  Zn5  1  0.256221  0.743779  0.250000  1
  As  As6  1  0.393685  0.838524  0.865364  1
  As  As7  1  0.161476  0.606315  0.634636  1
  As  As8  1  0.606315  0.161476  0.134636  1
  As  As9  1  0.838524  0.393685  0.365364  1
  O  O10  1  0.312058  0.625559  0.450967  1
  O  O11  1  0.969095  0.638745  0.269253  1
  O  O12  1  0.245604  0.966990  0.865606  1
  O  O13  1  0.033010  0.754396  0.634394  1
  O  O14  1  0.340694  0.659305  0.750000  1
  O  O15  1  0.030905  0.361255  0.730747  1
  O  O16  1  0.659306  0.340695  0.250000  1
  O  O17  1  0.638745  0.969095  0.769253  1
  O  O18  1  0.625559  0.312058  0.950967  1
  O  O19  1  0.754396  0.033010  0.134394  1
  O  O20  1  0.687942  0.374441  0.549033  1
  O  O21  1  0.966990  0.245604  0.365606  1
  O  O22  1  0.361255  0.030905  0.230747  1
  O  O23  1  0.374441  0.687942  0.049033  1
