# generated using pymatgen
data_In2NiSnIr2
_symmetry_space_group_name_H-M   'P 1'
_cell_length_a   5.47533496
_cell_length_b   5.73346720
_cell_length_c   4.37928100
_cell_angle_alpha   90.00000000
_cell_angle_beta   90.00000000
_cell_angle_gamma   121.57505075
_symmetry_Int_Tables_number   1
_chemical_formula_structural   In2NiSnIr2
_chemical_formula_sum   'In2 Ni1 Sn1 Ir2'
_cell_volume   117.12443394
_cell_formula_units_Z   1
loop_
 _symmetry_equiv_pos_site_id
 _symmetry_equiv_pos_as_xyz
  1  'x, y, z'
loop_
 _atom_site_type_symbol
 _atom_site_label
 _atom_site_symmetry_multiplicity
 _atom_site_fract_x
 _atom_site_fract_y
 _atom_site_fract_z
 _atom_site_occupancy
  In  In0  1  0.000333  0.000145  0.000000  1
  In  In1  1  0.332565  0.666271  0.500000  1
  Ni  Ni2  1  0.000624  0.500308  0.000000  1
  Sn  Sn3  1  0.664067  0.332065  0.500000  1
  Ir  Ir4  1  0.501206  0.499704  0.000000  1
  Ir  Ir5  1  0.501206  0.001506  0.000000  1
