# generated using pymatgen
data_Pr3Nd2Dy3(CdIr)2
_symmetry_space_group_name_H-M   'P 1'
_cell_length_a   9.86769428
_cell_length_b   9.86769369
_cell_length_c   9.86769500
_cell_angle_alpha   59.99999897
_cell_angle_beta   60.00000093
_cell_angle_gamma   59.99999866
_symmetry_Int_Tables_number   1
_chemical_formula_structural   Pr3Nd2Dy3(CdIr)2
_chemical_formula_sum   'Pr6 Nd4 Dy6 Cd4 Ir4'
_cell_volume   679.41019656
_cell_formula_units_Z   2
loop_
 _symmetry_equiv_pos_site_id
 _symmetry_equiv_pos_as_xyz
  1  'x, y, z'
loop_
 _atom_site_type_symbol
 _atom_site_label
 _atom_site_symmetry_multiplicity
 _atom_site_fract_x
 _atom_site_fract_y
 _atom_site_fract_z
 _atom_site_occupancy
  Pr  Pr0  1  0.940500  0.559500  0.559500  1
  Pr  Pr1  1  0.559500  0.940500  0.940500  1
  Pr  Pr2  1  0.559500  0.940500  0.559500  1
  Pr  Pr3  1  0.940500  0.559500  0.940500  1
  Pr  Pr4  1  0.559500  0.559500  0.940500  1
  Pr  Pr5  1  0.940500  0.940500  0.559500  1
  Nd  Nd6  1  0.349945  0.349945  0.349945  1
  Nd  Nd7  1  0.349945  0.349945  0.950163  1
  Nd  Nd8  1  0.349945  0.950163  0.349945  1
  Nd  Nd9  1  0.950163  0.349945  0.349945  1
  Dy  Dy10  1  0.813539  0.186461  0.186461  1
  Dy  Dy11  1  0.186461  0.813539  0.813539  1
  Dy  Dy12  1  0.186461  0.813539  0.186461  1
  Dy  Dy13  1  0.813539  0.186461  0.813539  1
  Dy  Dy14  1  0.186461  0.186461  0.813539  1
  Dy  Dy15  1  0.813539  0.813539  0.186461  1
  Cd  Cd16  1  0.579731  0.579731  0.579731  1
  Cd  Cd17  1  0.579731  0.579731  0.260804  1
  Cd  Cd18  1  0.579731  0.260804  0.579731  1
  Cd  Cd19  1  0.260804  0.579731  0.579731  1
  Ir  Ir20  1  0.139603  0.139603  0.139603  1
  Ir  Ir21  1  0.139603  0.139603  0.581190  1
  Ir  Ir22  1  0.139603  0.581190  0.139603  1
  Ir  Ir23  1  0.581190  0.139603  0.139603  1
