# generated using pymatgen
data_Hf6Ti6Ge5As
_symmetry_space_group_name_H-M   'P 1'
_cell_length_a   7.98150584
_cell_length_b   7.98282576
_cell_length_c   7.97866588
_cell_angle_alpha   127.51900679
_cell_angle_beta   124.49860443
_cell_angle_gamma   79.96313960
_symmetry_Int_Tables_number   1
_chemical_formula_structural   Hf6Ti6Ge5As
_chemical_formula_sum   'Hf6 Ti6 Ge5 As1'
_cell_volume   320.77352045
_cell_formula_units_Z   1
loop_
 _symmetry_equiv_pos_site_id
 _symmetry_equiv_pos_as_xyz
  1  'x, y, z'
loop_
 _atom_site_type_symbol
 _atom_site_label
 _atom_site_symmetry_multiplicity
 _atom_site_fract_x
 _atom_site_fract_y
 _atom_site_fract_z
 _atom_site_occupancy
  Hf  Hf0  1  0.453747  0.660660  0.706819  1
  Hf  Hf1  1  0.546480  0.254056  0.207456  1
  Hf  Hf2  1  0.749261  0.846149  0.596886  1
  Hf  Hf3  1  0.250389  0.847292  0.096937  1
  Hf  Hf4  1  0.047597  0.254030  0.706771  1
  Hf  Hf5  1  0.952963  0.658846  0.206157  1
  Ti  Ti6  1  0.500003  0.503091  0.002833  1
  Ti  Ti7  1  0.999944  0.502827  0.502684  1
  Ti  Ti8  1  0.122554  0.252714  0.126012  1
  Ti  Ti9  1  0.877275  0.003910  0.131059  1
  Ti  Ti10  1  0.373136  0.003341  0.625932  1
  Ti  Ti11  1  0.626793  0.252721  0.630232  1
  Ge  Ge12  1  0.251854  0.254952  0.503349  1
  Ge  Ge13  1  0.748041  0.251445  0.002997  1
  Ge  Ge14  1  0.332867  0.586447  0.252787  1
  Ge  Ge15  1  0.667083  0.920137  0.253948  1
  Ge  Ge16  1  0.166387  0.920081  0.752720  1
  As  As17  1  0.833627  0.586897  0.754022  1
