# generated using pymatgen
data_Tb4Sm4Sc12Si15As
_symmetry_space_group_name_H-M   'P 1'
_cell_length_a   7.18392528
_cell_length_b   7.41477014
_cell_length_c   14.04762461
_cell_angle_alpha   90.09849923
_cell_angle_beta   88.98790480
_cell_angle_gamma   90.21549960
_symmetry_Int_Tables_number   1
_chemical_formula_structural   Tb4Sm4Sc12Si15As
_chemical_formula_sum   'Tb4 Sm4 Sc12 Si15 As1'
_cell_volume   748.15393843
_cell_formula_units_Z   1
loop_
 _symmetry_equiv_pos_site_id
 _symmetry_equiv_pos_as_xyz
  1  'x, y, z'
loop_
 _atom_site_type_symbol
 _atom_site_label
 _atom_site_symmetry_multiplicity
 _atom_site_fract_x
 _atom_site_fract_y
 _atom_site_fract_z
 _atom_site_occupancy
  Tb  Tb0  1  0.511922  0.325947  0.098893  1
  Tb  Tb1  1  0.005814  0.178746  0.402609  1
  Tb  Tb2  1  0.503524  0.322122  0.401754  1
  Tb  Tb3  1  0.500206  0.676109  0.597261  1
  Sm  Sm4  1  0.011448  0.174197  0.097978  1
  Sm  Sm5  1  0.988675  0.826755  0.902387  1
  Sm  Sm6  1  0.489121  0.673220  0.903540  1
  Sm  Sm7  1  0.992978  0.822432  0.595031  1
  Sc  Sc8  1  0.164973  0.499742  0.749408  1
  Sc  Sc9  1  0.834564  0.499115  0.253362  1
  Sc  Sc10  1  0.335122  0.999632  0.251695  1
  Sc  Sc11  1  0.665477  0.000507  0.748764  1
  Sc  Sc12  1  0.340882  0.171053  0.626451  1
  Sc  Sc13  1  0.660397  0.827285  0.373414  1
  Sc  Sc14  1  0.158208  0.671402  0.377424  1
  Sc  Sc15  1  0.667888  0.824061  0.126527  1
  Sc  Sc16  1  0.839284  0.328997  0.621490  1
  Sc  Sc17  1  0.332405  0.176088  0.873697  1
  Sc  Sc18  1  0.832033  0.323556  0.874498  1
  Sc  Sc19  1  0.167949  0.676220  0.125637  1
  Si  Si20  1  0.037292  0.121798  0.748533  1
  Si  Si21  1  0.963137  0.880296  0.250951  1
  Si  Si22  1  0.459319  0.618578  0.249231  1
  Si  Si23  1  0.540294  0.379928  0.749902  1
  Si  Si24  1  0.291468  0.874808  0.749161  1
  Si  Si25  1  0.710037  0.125716  0.250441  1
  Si  Si26  1  0.210771  0.376556  0.250778  1
  Si  Si27  1  0.790742  0.621864  0.749140  1
  Si  Si28  1  0.811857  0.539240  0.455758  1
  Si  Si29  1  0.335641  0.963194  0.460188  1
  Si  Si30  1  0.843535  0.535478  0.040138  1
  Si  Si31  1  0.663248  0.038522  0.539167  1
  Si  Si32  1  0.153533  0.464009  0.960468  1
  Si  Si33  1  0.653190  0.037989  0.960799  1
  Si  Si34  1  0.347199  0.966837  0.040900  1
  As  As35  1  0.185867  0.458001  0.542625  1
