# generated using pymatgen
data_Zr6Al4Zn2O
_symmetry_space_group_name_H-M   'P 1'
_cell_length_a   8.61996913
_cell_length_b   8.61996997
_cell_length_c   8.61996900
_cell_angle_alpha   59.99999990
_cell_angle_beta   59.99999668
_cell_angle_gamma   59.99999879
_symmetry_Int_Tables_number   1
_chemical_formula_structural   Zr6Al4Zn2O
_chemical_formula_sum   'Zr12 Al8 Zn4 O2'
_cell_volume   452.89982687
_cell_formula_units_Z   2
loop_
 _symmetry_equiv_pos_site_id
 _symmetry_equiv_pos_as_xyz
  1  'x, y, z'
loop_
 _atom_site_type_symbol
 _atom_site_label
 _atom_site_symmetry_multiplicity
 _atom_site_fract_x
 _atom_site_fract_y
 _atom_site_fract_z
 _atom_site_occupancy
  Zr  Zr0  1  0.191490  0.808510  0.191490  1
  Zr  Zr1  1  0.441490  0.058510  0.441490  1
  Zr  Zr2  1  0.441490  0.058510  0.058510  1
  Zr  Zr3  1  0.441490  0.441490  0.058510  1
  Zr  Zr4  1  0.191490  0.808510  0.808510  1
  Zr  Zr5  1  0.058510  0.441490  0.058510  1
  Zr  Zr6  1  0.808510  0.808510  0.191490  1
  Zr  Zr7  1  0.058510  0.441490  0.441490  1
  Zr  Zr8  1  0.191490  0.191490  0.808510  1
  Zr  Zr9  1  0.808510  0.191490  0.191490  1
  Zr  Zr10  1  0.808510  0.191490  0.808510  1
  Zr  Zr11  1  0.058510  0.058510  0.441490  1
  Al  Al12  1  0.833220  0.500342  0.833220  1
  Al  Al13  1  0.416780  0.416780  0.749658  1
  Al  Al14  1  0.749658  0.416780  0.416780  1
  Al  Al15  1  0.416780  0.416780  0.416780  1
  Al  Al16  1  0.833220  0.833220  0.500342  1
  Al  Al17  1  0.416780  0.749658  0.416780  1
  Al  Al18  1  0.833220  0.833220  0.833220  1
  Al  Al19  1  0.500342  0.833220  0.833220  1
  Zn  Zn20  1  0.625000  0.125000  0.625000  1
  Zn  Zn21  1  0.625000  0.625000  0.125000  1
  Zn  Zn22  1  0.125000  0.625000  0.625000  1
  Zn  Zn23  1  0.625000  0.625000  0.625000  1
  O  O24  1  0.000000  0.000000  0.000000  1
  O  O25  1  0.250000  0.250000  0.250000  1
