# generated using pymatgen
data_Tb4PrY2FeI12
_symmetry_space_group_name_H-M   'P 1'
_cell_length_a   9.83154458
_cell_length_b   9.80248359
_cell_length_c   9.84605953
_cell_angle_alpha   106.80195155
_cell_angle_beta   106.84174081
_cell_angle_gamma   107.18395373
_symmetry_Int_Tables_number   1
_chemical_formula_structural   Tb4PrY2FeI12
_chemical_formula_sum   'Tb4 Pr1 Y2 Fe1 I12'
_cell_volume   791.47977879
_cell_formula_units_Z   1
loop_
 _symmetry_equiv_pos_site_id
 _symmetry_equiv_pos_as_xyz
  1  'x, y, z'
loop_
 _atom_site_type_symbol
 _atom_site_label
 _atom_site_symmetry_multiplicity
 _atom_site_fract_x
 _atom_site_fract_y
 _atom_site_fract_z
 _atom_site_occupancy
  Tb  Tb0  1  0.293509  0.023677  0.093868  1
  Tb  Tb1  1  0.911271  0.724723  0.978939  1
  Tb  Tb2  1  0.977529  0.904774  0.706739  1
  Tb  Tb3  1  0.705848  0.977894  0.905549  1
  Pr  Pr4  1  0.092165  0.288300  0.021411  1
  Y  Y5  1  0.500383  0.498360  0.501911  1
  Y  Y6  1  0.021163  0.091996  0.291662  1
  Fe  Fe7  1  0.000824  0.003570  0.998978  1
  I  I8  1  0.470855  0.386338  0.167242  1
  I  I9  1  0.162702  0.461911  0.392529  1
  I  I10  1  0.384491  0.158879  0.461599  1
  I  I11  1  0.540927  0.615787  0.840683  1
  I  I12  1  0.839843  0.538710  0.619829  1
  I  I13  1  0.614854  0.836787  0.537312  1
  I  I14  1  0.764649  0.315052  0.924577  1
  I  I15  1  0.927330  0.772613  0.315479  1
  I  I16  1  0.320074  0.927090  0.775251  1
  I  I17  1  0.223424  0.685448  0.072024  1
  I  I18  1  0.069067  0.218458  0.670095  1
  I  I19  1  0.679090  0.069633  0.224323  1
