# generated using pymatgen
data_DyTm2CoSn3Ir2
_symmetry_space_group_name_H-M   'P 1'
_cell_length_a   7.62441492
_cell_length_b   7.60661094
_cell_length_c   3.64078800
_cell_angle_alpha   90.00000000
_cell_angle_beta   90.00000000
_cell_angle_gamma   119.92279027
_symmetry_Int_Tables_number   1
_chemical_formula_structural   DyTm2CoSn3Ir2
_chemical_formula_sum   'Dy1 Tm2 Co1 Sn3 Ir2'
_cell_volume   183.00422305
_cell_formula_units_Z   1
loop_
 _symmetry_equiv_pos_site_id
 _symmetry_equiv_pos_as_xyz
  1  'x, y, z'
loop_
 _atom_site_type_symbol
 _atom_site_label
 _atom_site_symmetry_multiplicity
 _atom_site_fract_x
 _atom_site_fract_y
 _atom_site_fract_z
 _atom_site_occupancy
  Dy  Dy0  1  0.000000  0.404091  0.500000  1
  Tm  Tm1  1  0.596083  0.595979  0.500000  1
  Tm  Tm2  1  0.403917  0.999897  0.500000  1
  Co  Co3  1  0.000000  0.999770  0.500000  1
  Sn  Sn4  1  0.000000  0.743599  0.000000  1
  Sn  Sn5  1  0.258024  0.256772  0.000000  1
  Sn  Sn6  1  0.741976  0.998748  0.000000  1
  Ir  Ir7  1  0.335421  0.668282  0.000000  1
  Ir  Ir8  1  0.664579  0.332861  0.000000  1
