# generated using pymatgen
data_LaTh3(ZnRh)4
_symmetry_space_group_name_H-M   'P 1'
_cell_length_a   3.97537900
_cell_length_b   7.51352700
_cell_length_c   16.61790200
_cell_angle_alpha   90.00000000
_cell_angle_beta   90.00000000
_cell_angle_gamma   90.00000000
_symmetry_Int_Tables_number   1
_chemical_formula_structural   LaTh3(ZnRh)4
_chemical_formula_sum   'La2 Th6 Zn8 Rh8'
_cell_volume   496.36206664
_cell_formula_units_Z   2
loop_
 _symmetry_equiv_pos_site_id
 _symmetry_equiv_pos_as_xyz
  1  'x, y, z'
loop_
 _atom_site_type_symbol
 _atom_site_label
 _atom_site_symmetry_multiplicity
 _atom_site_fract_x
 _atom_site_fract_y
 _atom_site_fract_z
 _atom_site_occupancy
  La  La0  1  0.750000  0.448452  0.214933  1
  La  La1  1  0.750000  0.948452  0.285067  1
  Th  Th2  1  0.750000  0.326303  0.440120  1
  Th  Th3  1  0.250000  0.054792  0.715497  1
  Th  Th4  1  0.250000  0.554792  0.784503  1
  Th  Th5  1  0.250000  0.671672  0.560615  1
  Th  Th6  1  0.750000  0.826303  0.059880  1
  Th  Th7  1  0.250000  0.171672  0.939385  1
  Zn  Zn8  1  0.250000  0.120379  0.150874  1
  Zn  Zn9  1  0.250000  0.994132  0.440755  1
  Zn  Zn10  1  0.750000  0.880494  0.847372  1
  Zn  Zn11  1  0.750000  0.002960  0.560406  1
  Zn  Zn12  1  0.250000  0.494132  0.059245  1
  Zn  Zn13  1  0.750000  0.380494  0.652628  1
  Zn  Zn14  1  0.750000  0.502960  0.939594  1
  Zn  Zn15  1  0.250000  0.620379  0.349126  1
  Rh  Rh16  1  0.750000  0.253171  0.813838  1
  Rh  Rh17  1  0.250000  0.253794  0.322295  1
  Rh  Rh18  1  0.250000  0.752792  0.937218  1
  Rh  Rh19  1  0.250000  0.252792  0.562782  1
  Rh  Rh20  1  0.250000  0.753794  0.177705  1
  Rh  Rh21  1  0.750000  0.741058  0.441793  1
  Rh  Rh22  1  0.750000  0.241058  0.058207  1
  Rh  Rh23  1  0.750000  0.753171  0.686162  1
