# generated using pymatgen
data_Pu5ReMoC7
_symmetry_space_group_name_H-M   'P 1'
_cell_length_a   8.46714158
_cell_length_b   8.46714121
_cell_length_c   3.41147400
_cell_angle_alpha   90.00000000
_cell_angle_beta   90.00000000
_cell_angle_gamma   124.95606017
_symmetry_Int_Tables_number   1
_chemical_formula_structural   Pu5ReMoC7
_chemical_formula_sum   'Pu5 Re1 Mo1 C7'
_cell_volume   200.45330888
_cell_formula_units_Z   1
loop_
 _symmetry_equiv_pos_site_id
 _symmetry_equiv_pos_as_xyz
  1  'x, y, z'
loop_
 _atom_site_type_symbol
 _atom_site_label
 _atom_site_symmetry_multiplicity
 _atom_site_fract_x
 _atom_site_fract_y
 _atom_site_fract_z
 _atom_site_occupancy
  Pu  Pu0  1  0.499043  0.500957  0.000000  1
  Pu  Pu1  1  0.061874  0.320995  0.500000  1
  Pu  Pu2  1  0.939247  0.679747  0.500000  1
  Pu  Pu3  1  0.679005  0.938126  0.500000  1
  Pu  Pu4  1  0.320253  0.060753  0.500000  1
  Re  Re5  1  0.289527  0.710473  0.000000  1
  Mo  Mo6  1  0.712470  0.287530  0.000000  1
  C  C7  1  0.623792  0.376208  0.500000  1
  C  C8  1  0.372789  0.627211  0.500000  1
  C  C9  1  0.999800  0.000200  0.000000  1
  C  C10  1  0.174550  0.173835  0.000000  1
  C  C11  1  0.826165  0.825450  0.000000  1
  C  C12  1  0.003189  0.501703  0.000000  1
  C  C13  1  0.498297  0.996811  0.000000  1
