# generated using pymatgen
data_YEr7Mn(B8Os)3
_symmetry_space_group_name_H-M   'P 1'
_cell_length_a   3.61562500
_cell_length_b   9.09605022
_cell_length_c   11.47533700
_cell_angle_alpha   90.03125377
_cell_angle_beta   90.00000000
_cell_angle_gamma   90.00000000
_symmetry_Int_Tables_number   1
_chemical_formula_structural   YEr7Mn(B8Os)3
_chemical_formula_sum   'Y1 Er7 Mn1 B24 Os3'
_cell_volume   377.39975529
_cell_formula_units_Z   1
loop_
 _symmetry_equiv_pos_site_id
 _symmetry_equiv_pos_as_xyz
  1  'x, y, z'
loop_
 _atom_site_type_symbol
 _atom_site_label
 _atom_site_symmetry_multiplicity
 _atom_site_fract_x
 _atom_site_fract_y
 _atom_site_fract_z
 _atom_site_occupancy
  Y  Y0  1  0.000000  0.325218  0.412471  1
  Er  Er1  1  0.000000  0.676807  0.581993  1
  Er  Er2  1  0.000000  0.819836  0.088627  1
  Er  Er3  1  0.000000  0.178439  0.915071  1
  Er  Er4  1  0.000000  0.939344  0.371660  1
  Er  Er5  1  0.000000  0.056517  0.627001  1
  Er  Er6  1  0.000000  0.446232  0.130337  1
  Er  Er7  1  0.000000  0.556859  0.872674  1
  Mn  Mn8  1  0.000000  0.637740  0.320924  1
  B  B9  1  0.500000  0.554272  0.431703  1
  B  B10  1  0.500000  0.447324  0.566510  1
  B  B11  1  0.500000  0.053402  0.067028  1
  B  B12  1  0.500000  0.947001  0.933448  1
  B  B13  1  0.500000  0.745864  0.417838  1
  B  B14  1  0.500000  0.251932  0.580180  1
  B  B15  1  0.500000  0.249055  0.080766  1
  B  B16  1  0.500000  0.752053  0.920126  1
  B  B17  1  0.500000  0.789038  0.266557  1
  B  B18  1  0.500000  0.209078  0.733876  1
  B  B19  1  0.500000  0.291341  0.233947  1
  B  B20  1  0.500000  0.709179  0.765891  1
  B  B21  1  0.500000  0.631437  0.186955  1
  B  B22  1  0.500000  0.368992  0.815011  1
  B  B23  1  0.500000  0.130245  0.314369  1
  B  B24  1  0.500000  0.868592  0.684800  1
  B  B25  1  0.500000  0.981395  0.212787  1
  B  B26  1  0.500000  0.017974  0.787318  1
  B  B27  1  0.500000  0.485320  0.288041  1
  B  B28  1  0.500000  0.518037  0.712506  1
  B  B29  1  0.500000  0.606799  0.030064  1
  B  B30  1  0.500000  0.394057  0.971107  1
  B  B31  1  0.500000  0.105412  0.470150  1
  B  B32  1  0.500000  0.892803  0.529124  1
  Os  Os33  1  0.000000  0.362278  0.679580  1
  Os  Os34  1  0.000000  0.137205  0.178213  1
  Os  Os35  1  0.000000  0.862919  0.821347  1
