# generated using pymatgen
data_Ti18NbSi16Au
_symmetry_space_group_name_H-M   'P 1'
_cell_length_a   6.73014328
_cell_length_b   6.73014270
_cell_length_c   12.18706670
_cell_angle_alpha   89.66118512
_cell_angle_beta   90.33881608
_cell_angle_gamma   89.97322041
_symmetry_Int_Tables_number   1
_chemical_formula_structural   Ti18NbSi16Au
_chemical_formula_sum   'Ti18 Nb1 Si16 Au1'
_cell_volume   551.99167644
_cell_formula_units_Z   1
loop_
 _symmetry_equiv_pos_site_id
 _symmetry_equiv_pos_as_xyz
  1  'x, y, z'
loop_
 _atom_site_type_symbol
 _atom_site_label
 _atom_site_symmetry_multiplicity
 _atom_site_fract_x
 _atom_site_fract_y
 _atom_site_fract_z
 _atom_site_occupancy
  Ti  Ti0  1  0.996386  0.146312  0.622942  1
  Ti  Ti1  1  0.355693  0.496200  0.870561  1
  Ti  Ti2  1  0.648659  0.504568  0.370517  1
  Ti  Ti3  1  0.496200  0.355693  0.129439  1
  Ti  Ti4  1  0.504568  0.648659  0.629483  1
  Ti  Ti5  1  0.003676  0.852156  0.119909  1
  Ti  Ti6  1  0.146312  0.996386  0.377058  1
  Ti  Ti7  1  0.852156  0.003676  0.880091  1
  Ti  Ti8  1  0.999502  0.349180  0.217631  1
  Ti  Ti9  1  0.153459  0.501860  0.468142  1
  Ti  Ti10  1  0.840213  0.498490  0.970633  1
  Ti  Ti11  1  0.501860  0.153459  0.531858  1
  Ti  Ti12  1  0.498490  0.840213  0.029367  1
  Ti  Ti13  1  0.995900  0.656327  0.718407  1
  Ti  Ti14  1  0.349180  0.999502  0.782369  1
  Ti  Ti15  1  0.656327  0.995900  0.281593  1
  Ti  Ti16  1  0.328262  0.671354  0.249319  1
  Ti  Ti17  1  0.671354  0.328262  0.750681  1
  Nb  Nb18  1  0.828826  0.828826  0.500000  1
  Si  Si19  1  0.043669  0.304506  0.811022  1
  Si  Si20  1  0.206137  0.556881  0.062995  1
  Si  Si21  1  0.799722  0.451531  0.564266  1
  Si  Si22  1  0.556881  0.206137  0.937005  1
  Si  Si23  1  0.451531  0.799722  0.435734  1
  Si  Si24  1  0.956840  0.698055  0.311006  1
  Si  Si25  1  0.304506  0.043669  0.188978  1
  Si  Si26  1  0.698055  0.956840  0.688994  1
  Si  Si27  1  0.295044  0.356112  0.672828  1
  Si  Si28  1  0.133433  0.778137  0.917345  1
  Si  Si29  1  0.857906  0.208773  0.422053  1
  Si  Si30  1  0.778137  0.133433  0.082655  1
  Si  Si31  1  0.208773  0.857906  0.577947  1
  Si  Si32  1  0.705287  0.644425  0.172573  1
  Si  Si33  1  0.356112  0.295044  0.327172  1
  Si  Si34  1  0.644425  0.705287  0.827427  1
  Au  Au35  1  0.176520  0.176520  0.000000  1
