# generated using pymatgen
data_LuZr(Al3Ni)6
_symmetry_space_group_name_H-M   'P 1'
_cell_length_a   9.98095166
_cell_length_b   9.98095310
_cell_length_c   9.98095276
_cell_angle_alpha   42.43082886
_cell_angle_beta   42.43082657
_cell_angle_gamma   42.43083013
_symmetry_Int_Tables_number   1
_chemical_formula_structural   LuZr(Al3Ni)6
_chemical_formula_sum   'Lu1 Zr1 Al18 Ni6'
_cell_volume   409.78453669
_cell_formula_units_Z   1
loop_
 _symmetry_equiv_pos_site_id
 _symmetry_equiv_pos_as_xyz
  1  'x, y, z'
loop_
 _atom_site_type_symbol
 _atom_site_label
 _atom_site_symmetry_multiplicity
 _atom_site_fract_x
 _atom_site_fract_y
 _atom_site_fract_z
 _atom_site_occupancy
  Lu  Lu0  1  0.832987  0.832987  0.832987  1
  Zr  Zr1  1  0.167038  0.167038  0.167038  1
  Al  Al2  1  0.103347  0.432449  0.766424  1
  Al  Al3  1  0.432449  0.766424  0.103347  1
  Al  Al4  1  0.564876  0.897735  0.234987  1
  Al  Al5  1  0.947488  0.947488  0.947488  1
  Al  Al6  1  0.052619  0.052619  0.052619  1
  Al  Al7  1  0.291080  0.715261  0.493705  1
  Al  Al8  1  0.897735  0.234987  0.564876  1
  Al  Al9  1  0.387780  0.387780  0.387780  1
  Al  Al10  1  0.493705  0.291080  0.715261  1
  Al  Al11  1  0.234987  0.564876  0.897735  1
  Al  Al12  1  0.718411  0.718411  0.718411  1
  Al  Al13  1  0.612542  0.612542  0.612542  1
  Al  Al14  1  0.333267  0.000769  0.666011  1
  Al  Al15  1  0.715261  0.493705  0.291080  1
  Al  Al16  1  0.666011  0.333267  0.000769  1
  Al  Al17  1  0.281103  0.281103  0.281103  1
  Al  Al18  1  0.000769  0.666011  0.333267  1
  Al  Al19  1  0.766424  0.103347  0.432449  1
  Ni  Ni20  1  0.419362  0.078199  0.758866  1
  Ni  Ni21  1  0.581634  0.240563  0.921497  1
  Ni  Ni22  1  0.078199  0.758866  0.419362  1
  Ni  Ni23  1  0.758866  0.419362  0.078199  1
  Ni  Ni24  1  0.921497  0.581634  0.240563  1
  Ni  Ni25  1  0.240563  0.921497  0.581634  1
