# generated using pymatgen
data_Th5ZrNb2(Ni4As3)4
_symmetry_space_group_name_H-M   'P 1'
_cell_length_a   12.83261682
_cell_length_b   12.80780129
_cell_length_c   3.99360400
_cell_angle_alpha   90.00000000
_cell_angle_beta   90.00000000
_cell_angle_gamma   119.93605385
_symmetry_Int_Tables_number   1
_chemical_formula_structural   Th5ZrNb2(Ni4As3)4
_chemical_formula_sum   'Th5 Zr1 Nb2 Ni16 As12'
_cell_volume   568.80698493
_cell_formula_units_Z   1
loop_
 _symmetry_equiv_pos_site_id
 _symmetry_equiv_pos_as_xyz
  1  'x, y, z'
loop_
 _atom_site_type_symbol
 _atom_site_label
 _atom_site_symmetry_multiplicity
 _atom_site_fract_x
 _atom_site_fract_y
 _atom_site_fract_z
 _atom_site_occupancy
  Th  Th0  1  0.188659  0.190325  0.500000  1
  Th  Th1  1  0.811341  0.001667  0.500000  1
  Th  Th2  1  0.000000  0.813644  0.500000  1
  Th  Th3  1  0.334870  0.666930  0.000000  1
  Th  Th4  1  0.665130  0.332059  0.000000  1
  Zr  Zr5  1  0.000000  0.428078  0.000000  1
  Nb  Nb6  1  0.570825  0.569965  0.000000  1
  Nb  Nb7  1  0.429175  0.999141  0.000000  1
  Ni  Ni8  1  0.724501  0.722562  0.500000  1
  Ni  Ni9  1  0.275499  0.998061  0.500000  1
  Ni  Ni10  1  0.000000  0.275047  0.500000  1
  Ni  Ni11  1  0.188982  0.375048  0.000000  1
  Ni  Ni12  1  0.624002  0.809949  0.000000  1
  Ni  Ni13  1  0.190635  0.817090  0.000000  1
  Ni  Ni14  1  0.809365  0.626457  0.000000  1
  Ni  Ni15  1  0.811018  0.186065  0.000000  1
  Ni  Ni16  1  0.375998  0.185948  0.000000  1
  Ni  Ni17  1  0.369414  0.487977  0.500000  1
  Ni  Ni18  1  0.512383  0.878654  0.500000  1
  Ni  Ni19  1  0.121243  0.634827  0.500000  1
  Ni  Ni20  1  0.878757  0.513584  0.500000  1
  Ni  Ni21  1  0.630586  0.118562  0.500000  1
  Ni  Ni22  1  0.487617  0.366271  0.500000  1
  Ni  Ni23  1  0.000000  0.000191  0.000000  1
  As  As24  1  0.818340  0.820641  0.000000  1
  As  As25  1  0.181660  0.002301  0.000000  1
  As  As26  1  0.000000  0.181035  0.000000  1
  As  As27  1  0.172837  0.475207  0.500000  1
  As  As28  1  0.526826  0.694223  0.500000  1
  As  As29  1  0.306328  0.830752  0.500000  1
  As  As30  1  0.693672  0.524424  0.500000  1
  As  As31  1  0.827163  0.302369  0.500000  1
  As  As32  1  0.473174  0.167397  0.500000  1
  As  As33  1  0.373453  0.371732  0.000000  1
  As  As34  1  0.626547  0.998279  0.000000  1
  As  As35  1  0.000000  0.633533  0.000000  1
