# generated using pymatgen
data_Y2(ErBi)3
_symmetry_space_group_name_H-M   'P 1'
_cell_length_a   8.24906700
_cell_length_b   9.47428200
_cell_length_c   12.05814600
_cell_angle_alpha   90.00000000
_cell_angle_beta   90.00000000
_cell_angle_gamma   90.00000000
_symmetry_Int_Tables_number   1
_chemical_formula_structural   Y2(ErBi)3
_chemical_formula_sum   'Y8 Er12 Bi12'
_cell_volume   942.39218567
_cell_formula_units_Z   4
loop_
 _symmetry_equiv_pos_site_id
 _symmetry_equiv_pos_as_xyz
  1  'x, y, z'
loop_
 _atom_site_type_symbol
 _atom_site_label
 _atom_site_symmetry_multiplicity
 _atom_site_fract_x
 _atom_site_fract_y
 _atom_site_fract_z
 _atom_site_occupancy
  Y  Y0  1  0.186264  0.750000  0.718915  1
  Y  Y1  1  0.686264  0.750000  0.781085  1
  Y  Y2  1  0.813736  0.250000  0.281085  1
  Y  Y3  1  0.313736  0.250000  0.218915  1
  Y  Y4  1  0.353833  0.750000  0.215346  1
  Y  Y5  1  0.853833  0.750000  0.284654  1
  Y  Y6  1  0.646167  0.250000  0.784654  1
  Y  Y7  1  0.146167  0.250000  0.715346  1
  Er  Er8  1  0.026148  0.750000  0.989100  1
  Er  Er9  1  0.526148  0.750000  0.510900  1
  Er  Er10  1  0.973852  0.250000  0.010900  1
  Er  Er11  1  0.473852  0.250000  0.489100  1
  Er  Er12  1  0.306158  0.436283  0.939941  1
  Er  Er13  1  0.806158  0.063717  0.560059  1
  Er  Er14  1  0.693842  0.936283  0.060059  1
  Er  Er15  1  0.193842  0.563717  0.439941  1
  Er  Er16  1  0.693842  0.563717  0.060059  1
  Er  Er17  1  0.193842  0.936283  0.439941  1
  Er  Er18  1  0.306158  0.063717  0.939941  1
  Er  Er19  1  0.806158  0.436283  0.560059  1
  Bi  Bi20  1  0.433828  0.003679  0.673535  1
  Bi  Bi21  1  0.933828  0.496321  0.826465  1
  Bi  Bi22  1  0.566172  0.503679  0.326465  1
  Bi  Bi23  1  0.066172  0.996321  0.173535  1
  Bi  Bi24  1  0.566172  0.996321  0.326465  1
  Bi  Bi25  1  0.066172  0.503679  0.173535  1
  Bi  Bi26  1  0.433828  0.496321  0.673535  1
  Bi  Bi27  1  0.933828  0.003679  0.826465  1
  Bi  Bi28  1  0.409551  0.750000  0.958217  1
  Bi  Bi29  1  0.909551  0.750000  0.541783  1
  Bi  Bi30  1  0.590449  0.250000  0.041783  1
  Bi  Bi31  1  0.090449  0.250000  0.458217  1
