# generated using pymatgen
data_Cs2Sn(TeO4)3
_symmetry_space_group_name_H-M   'P 1'
_cell_length_a   7.35013823
_cell_length_b   7.35013866
_cell_length_c   7.34995474
_cell_angle_alpha   60.17180067
_cell_angle_beta   60.17179814
_cell_angle_gamma   60.16888953
_symmetry_Int_Tables_number   1
_chemical_formula_structural   Cs2Sn(TeO4)3
_chemical_formula_sum   'Cs2 Sn1 Te3 O12'
_cell_volume   281.86277369
_cell_formula_units_Z   1
loop_
 _symmetry_equiv_pos_site_id
 _symmetry_equiv_pos_as_xyz
  1  'x, y, z'
loop_
 _atom_site_type_symbol
 _atom_site_label
 _atom_site_symmetry_multiplicity
 _atom_site_fract_x
 _atom_site_fract_y
 _atom_site_fract_z
 _atom_site_occupancy
  Cs  Cs0  1  0.121019  0.130639  0.624814  1
  Cs  Cs1  1  0.869361  0.878981  0.375186  1
  Sn  Sn2  1  0.497124  0.502876  0.000000  1
  Te  Te3  1  0.497670  0.002358  0.999983  1
  Te  Te4  1  0.997642  0.502330  0.000017  1
  Te  Te5  1  0.497679  0.502321  0.500000  1
  O  O6  1  0.817379  0.822056  0.925916  1
  O  O7  1  0.423293  0.427549  0.336933  1
  O  O8  1  0.423076  0.839745  0.924818  1
  O  O9  1  0.817253  0.427995  0.319626  1
  O  O10  1  0.834183  0.428074  0.925592  1
  O  O11  1  0.423699  0.821959  0.319627  1
  O  O12  1  0.177944  0.182621  0.074084  1
  O  O13  1  0.572451  0.576707  0.663067  1
  O  O14  1  0.571926  0.165817  0.074408  1
  O  O15  1  0.178041  0.576301  0.680373  1
  O  O16  1  0.160255  0.576924  0.075182  1
  O  O17  1  0.572005  0.182747  0.680374  1
