# generated using pymatgen
data_Dy5Ho11(InRu)4
_symmetry_space_group_name_H-M   'P 1'
_cell_length_a   9.65608118
_cell_length_b   9.61400606
_cell_length_c   9.61400474
_cell_angle_alpha   59.75928930
_cell_angle_beta   59.85512539
_cell_angle_gamma   59.85512671
_symmetry_Int_Tables_number   1
_chemical_formula_structural   Dy5Ho11(InRu)4
_chemical_formula_sum   'Dy5 Ho11 In4 Ru4'
_cell_volume   628.56084785
_cell_formula_units_Z   1
loop_
 _symmetry_equiv_pos_site_id
 _symmetry_equiv_pos_as_xyz
  1  'x, y, z'
loop_
 _atom_site_type_symbol
 _atom_site_label
 _atom_site_symmetry_multiplicity
 _atom_site_fract_x
 _atom_site_fract_y
 _atom_site_fract_z
 _atom_site_occupancy
  Dy  Dy0  1  0.806957  0.193043  0.193043  1
  Dy  Dy1  1  0.808544  0.190853  0.808135  1
  Dy  Dy2  1  0.192468  0.808135  0.190853  1
  Dy  Dy3  1  0.808544  0.808135  0.190853  1
  Dy  Dy4  1  0.192468  0.190853  0.808135  1
  Ho  Ho5  1  0.597824  0.598056  0.598056  1
  Ho  Ho6  1  0.597032  0.598919  0.207017  1
  Ho  Ho7  1  0.597032  0.207017  0.598919  1
  Ho  Ho8  1  0.206063  0.598056  0.598056  1
  Ho  Ho9  1  0.059112  0.440888  0.440888  1
  Ho  Ho10  1  0.441406  0.058594  0.058594  1
  Ho  Ho11  1  0.442451  0.058518  0.440181  1
  Ho  Ho12  1  0.058850  0.440181  0.058518  1
  Ho  Ho13  1  0.442451  0.440181  0.058518  1
  Ho  Ho14  1  0.058850  0.058518  0.440181  1
  Ho  Ho15  1  0.192631  0.807369  0.807369  1
  In  In16  1  0.833354  0.832032  0.832032  1
  In  In17  1  0.832513  0.831941  0.503033  1
  In  In18  1  0.832513  0.503033  0.831941  1
  In  In19  1  0.502580  0.832032  0.832032  1
  Ru  Ru20  1  0.387600  0.389892  0.389892  1
  Ru  Ru21  1  0.388071  0.392248  0.831611  1
  Ru  Ru22  1  0.388071  0.831611  0.392248  1
  Ru  Ru23  1  0.832616  0.389892  0.389892  1
