# generated using pymatgen
data_Sm3Tm(AuO3)4
_symmetry_space_group_name_H-M   'P 1'
_cell_length_a   3.90378707
_cell_length_b   5.63463900
_cell_length_c   12.96244457
_cell_angle_alpha   90.00000000
_cell_angle_beta   90.24974277
_cell_angle_gamma   90.00000000
_symmetry_Int_Tables_number   1
_chemical_formula_structural   Sm3Tm(AuO3)4
_chemical_formula_sum   'Sm3 Tm1 Au4 O12'
_cell_volume   285.12480744
_cell_formula_units_Z   1
loop_
 _symmetry_equiv_pos_site_id
 _symmetry_equiv_pos_as_xyz
  1  'x, y, z'
loop_
 _atom_site_type_symbol
 _atom_site_label
 _atom_site_symmetry_multiplicity
 _atom_site_fract_x
 _atom_site_fract_y
 _atom_site_fract_z
 _atom_site_occupancy
  Sm  Sm0  1  0.260771  0.750000  0.076906  1
  Sm  Sm1  1  0.262048  0.250000  0.425760  1
  Sm  Sm2  1  0.738364  0.250000  0.920674  1
  Tm  Tm3  1  0.736964  0.750000  0.576184  1
  Au  Au4  1  0.063028  0.750000  0.827023  1
  Au  Au5  1  0.068119  0.250000  0.667383  1
  Au  Au6  1  0.935773  0.250000  0.170753  1
  Au  Au7  1  0.935582  0.750000  0.333399  1
  O  O8  1  0.194433  0.500007  0.252478  1
  O  O9  1  0.803094  0.996123  0.744021  1
  O  O10  1  0.803094  0.503877  0.744021  1
  O  O11  1  0.194433  0.999993  0.252478  1
  O  O12  1  0.743808  0.498386  0.075337  1
  O  O13  1  0.742615  0.505183  0.429832  1
  O  O14  1  0.256024  0.998552  0.922547  1
  O  O15  1  0.259702  0.991191  0.576743  1
  O  O16  1  0.742615  0.994817  0.429832  1
  O  O17  1  0.743808  0.001614  0.075337  1
  O  O18  1  0.259702  0.508809  0.576743  1
  O  O19  1  0.256024  0.501448  0.922547  1
