# generated using pymatgen
data_Pr2B4Ir3Rh
_symmetry_space_group_name_H-M   'P 1'
_cell_length_a   7.08334824
_cell_length_b   6.10650094
_cell_length_c   5.58139649
_cell_angle_alpha   74.45546008
_cell_angle_beta   56.15622434
_cell_angle_gamma   50.37636226
_symmetry_Int_Tables_number   1
_chemical_formula_structural   Pr2B4Ir3Rh
_chemical_formula_sum   'Pr2 B4 Ir3 Rh1'
_cell_volume   153.00472329
_cell_formula_units_Z   1
loop_
 _symmetry_equiv_pos_site_id
 _symmetry_equiv_pos_as_xyz
  1  'x, y, z'
loop_
 _atom_site_type_symbol
 _atom_site_label
 _atom_site_symmetry_multiplicity
 _atom_site_fract_x
 _atom_site_fract_y
 _atom_site_fract_z
 _atom_site_occupancy
  Pr  Pr0  1  0.501663  0.501663  0.498337  1
  Pr  Pr1  1  0.751856  0.751856  0.748144  1
  B  B2  1  0.190452  0.814746  0.168964  1
  B  B3  1  0.066486  0.428271  0.078252  1
  B  B4  1  0.814746  0.190452  0.825837  1
  B  B5  1  0.428271  0.066486  0.426990  1
  Ir  Ir6  1  0.130702  0.130702  0.869298  1
  Ir  Ir7  1  0.379506  0.379506  0.120494  1
  Ir  Ir8  1  0.117081  0.117081  0.382919  1
  Rh  Rh9  1  0.869236  0.869236  0.130764  1
