# generated using pymatgen
data_HoEr15(In3Cu)2
_symmetry_space_group_name_H-M   'P 1'
_cell_length_a   10.48462700
_cell_length_b   10.48352144
_cell_length_c   6.81698801
_cell_angle_alpha   90.00455723
_cell_angle_beta   90.00000000
_cell_angle_gamma   120.00348539
_symmetry_Int_Tables_number   1
_chemical_formula_structural   HoEr15(In3Cu)2
_chemical_formula_sum   'Ho1 Er15 In6 Cu2'
_cell_volume   648.88551320
_cell_formula_units_Z   1
loop_
 _symmetry_equiv_pos_site_id
 _symmetry_equiv_pos_as_xyz
  1  'x, y, z'
loop_
 _atom_site_type_symbol
 _atom_site_label
 _atom_site_symmetry_multiplicity
 _atom_site_fract_x
 _atom_site_fract_y
 _atom_site_fract_z
 _atom_site_occupancy
  Ho  Ho0  1  0.526393  0.052785  0.796424  1
  Er  Er1  1  0.947171  0.473546  0.796452  1
  Er  Er2  1  0.526375  0.473546  0.796452  1
  Er  Er3  1  0.473575  0.947149  0.296464  1
  Er  Er4  1  0.052810  0.526415  0.296421  1
  Er  Er5  1  0.473605  0.526415  0.296421  1
  Er  Er6  1  0.824606  0.649211  0.506820  1
  Er  Er7  1  0.350816  0.175475  0.506728  1
  Er  Er8  1  0.824660  0.175475  0.506728  1
  Er  Er9  1  0.175427  0.350855  0.006842  1
  Er  Er10  1  0.649132  0.824450  0.006898  1
  Er  Er11  1  0.175318  0.824450  0.006898  1
  Er  Er12  1  0.666728  0.333456  0.168684  1
  Er  Er13  1  0.333274  0.666549  0.668516  1
  Er  Er14  1  0.999985  0.999970  0.774918  1
  Er  Er15  1  0.000020  0.000040  0.274902  1
  In  In16  1  0.836277  0.672556  0.031534  1
  In  In17  1  0.327300  0.163768  0.031606  1
  In  In18  1  0.836466  0.163768  0.031606  1
  In  In19  1  0.163713  0.327424  0.531599  1
  In  In20  1  0.672614  0.836268  0.531515  1
  In  In21  1  0.163656  0.836268  0.531515  1
  Cu  Cu22  1  0.666734  0.333468  0.569951  1
  Cu  Cu23  1  0.333345  0.666691  0.070012  1
