# generated using pymatgen
data_Y3Th(Ga8Pd3)3
_symmetry_space_group_name_H-M   'P 1'
_cell_length_a   7.56120357
_cell_length_b   7.60908513
_cell_length_c   13.44207306
_cell_angle_alpha   84.95154901
_cell_angle_beta   100.36881654
_cell_angle_gamma   119.73831136
_symmetry_Int_Tables_number   1
_chemical_formula_structural   Y3Th(Ga8Pd3)3
_chemical_formula_sum   'Y3 Th1 Ga24 Pd9'
_cell_volume   660.55379169
_cell_formula_units_Z   1
loop_
 _symmetry_equiv_pos_site_id
 _symmetry_equiv_pos_as_xyz
  1  'x, y, z'
loop_
 _atom_site_type_symbol
 _atom_site_label
 _atom_site_symmetry_multiplicity
 _atom_site_fract_x
 _atom_site_fract_y
 _atom_site_fract_z
 _atom_site_occupancy
  Y  Y0  1  0.562746  0.168735  0.190468  1
  Y  Y1  1  0.771048  0.502980  0.810387  1
  Y  Y2  1  0.229215  0.497064  0.190373  1
  Th  Th3  1  0.437574  0.831034  0.809496  1
  Ga  Ga4  1  0.480487  0.169804  0.941837  1
  Ga  Ga5  1  0.520568  0.833601  0.062906  1
  Ga  Ga6  1  0.021263  0.165581  0.557630  1
  Ga  Ga7  1  0.978093  0.834324  0.440990  1
  Ga  Ga8  1  0.353842  0.832864  0.554806  1
  Ga  Ga9  1  0.646539  0.168161  0.443134  1
  Ga  Ga10  1  0.614243  0.834876  0.325957  1
  Ga  Ga11  1  0.384660  0.168560  0.671461  1
  Ga  Ga12  1  0.054907  0.492612  0.670884  1
  Ga  Ga13  1  0.940421  0.503503  0.326069  1
  Ga  Ga14  1  0.732867  0.837784  0.669022  1
  Ga  Ga15  1  0.270129  0.162924  0.327366  1
  Ga  Ga16  1  0.142146  0.497078  0.942351  1
  Ga  Ga17  1  0.854939  0.498846  0.060257  1
  Ga  Ga18  1  0.817383  0.832127  0.948709  1
  Ga  Ga19  1  0.187046  0.168152  0.055222  1
  Ga  Ga20  1  0.312548  0.499340  0.442283  1
  Ga  Ga21  1  0.687324  0.500112  0.556861  1
  Ga  Ga22  1  0.102688  0.836518  0.182817  1
  Ga  Ga23  1  0.900864  0.166797  0.817564  1
  Ga  Ga24  1  0.308998  0.366758  0.816484  1
  Ga  Ga25  1  0.691567  0.629593  0.184087  1
  Ga  Ga26  1  0.099192  0.959254  0.816964  1
  Ga  Ga27  1  0.897775  0.040817  0.183950  1
  Pd  Pd28  1  0.385452  0.504377  0.637543  1
  Pd  Pd29  1  0.613932  0.496648  0.361843  1
  Pd  Pd30  1  0.172052  0.830638  0.999640  1
  Pd  Pd31  1  0.828145  0.168423  0.001342  1
  Pd  Pd32  1  0.290631  0.833077  0.360764  1
  Pd  Pd33  1  0.708429  0.166200  0.638268  1
  Pd  Pd34  1  0.049753  0.828875  0.637321  1
  Pd  Pd35  1  0.951161  0.171139  0.362344  1
  Pd  Pd36  1  0.499370  0.500825  0.000601  1
