# generated using pymatgen
data_Dy3In3HgPtRh
_symmetry_space_group_name_H-M   'P 1'
_cell_length_a   7.88445000
_cell_length_b   7.88445037
_cell_length_c   3.80416900
_cell_angle_alpha   90.00000000
_cell_angle_beta   90.00000000
_cell_angle_gamma   119.99999005
_symmetry_Int_Tables_number   1
_chemical_formula_structural   Dy3In3HgPtRh
_chemical_formula_sum   'Dy3 In3 Hg1 Pt1 Rh1'
_cell_volume   204.80158086
_cell_formula_units_Z   1
loop_
 _symmetry_equiv_pos_site_id
 _symmetry_equiv_pos_as_xyz
  1  'x, y, z'
loop_
 _atom_site_type_symbol
 _atom_site_label
 _atom_site_symmetry_multiplicity
 _atom_site_fract_x
 _atom_site_fract_y
 _atom_site_fract_z
 _atom_site_occupancy
  Dy  Dy0  1  0.023761  0.610567  0.500000  1
  Dy  Dy1  1  0.586805  0.976239  0.500000  1
  Dy  Dy2  1  0.389433  0.413195  0.500000  1
  In  In3  1  0.999378  0.254577  0.000000  1
  In  In4  1  0.255199  0.000622  0.000000  1
  In  In5  1  0.745423  0.744801  0.000000  1
  Hg  Hg6  1  0.666667  0.333333  0.000000  1
  Pt  Pt7  1  0.333333  0.666667  0.000000  1
  Rh  Rh8  1  0.000000  0.000000  0.500000  1
