# generated using pymatgen
data_Y2HoSn2Rh3Pb
_symmetry_space_group_name_H-M   'P 1'
_cell_length_a   7.75561939
_cell_length_b   7.73200835
_cell_length_c   3.74025900
_cell_angle_alpha   90.00000000
_cell_angle_beta   90.00000000
_cell_angle_gamma   119.85655199
_symmetry_Int_Tables_number   1
_chemical_formula_structural   Y2HoSn2Rh3Pb
_chemical_formula_sum   'Y2 Ho1 Sn2 Rh3 Pb1'
_cell_volume   194.52125389
_cell_formula_units_Z   1
loop_
 _symmetry_equiv_pos_site_id
 _symmetry_equiv_pos_as_xyz
  1  'x, y, z'
loop_
 _atom_site_type_symbol
 _atom_site_label
 _atom_site_symmetry_multiplicity
 _atom_site_fract_x
 _atom_site_fract_y
 _atom_site_fract_z
 _atom_site_occupancy
  Y  Y0  1  0.996605  0.401282  0.000000  1
  Y  Y1  1  0.601304  0.601353  0.000000  1
  Ho  Ho2  1  0.401782  0.996156  0.000000  1
  Sn  Sn3  1  0.000715  0.733675  0.500000  1
  Sn  Sn4  1  0.733187  0.000264  0.500000  1
  Rh  Rh5  1  0.672425  0.332351  0.500000  1
  Rh  Rh6  1  0.336743  0.679590  0.500000  1
  Rh  Rh7  1  0.989989  0.988502  0.000000  1
  Pb  Pb8  1  0.267248  0.266827  0.500000  1
