# generated using pymatgen
data_Ac2Lu(Zn3Ir2)3
_symmetry_space_group_name_H-M   'P 1'
_cell_length_a   9.27250900
_cell_length_b   9.27250708
_cell_length_c   4.32197800
_cell_angle_alpha   90.00000000
_cell_angle_beta   90.00000000
_cell_angle_gamma   119.99999615
_symmetry_Int_Tables_number   1
_chemical_formula_structural   Ac2Lu(Zn3Ir2)3
_chemical_formula_sum   'Ac2 Lu1 Zn9 Ir6'
_cell_volume   321.81600378
_cell_formula_units_Z   1
loop_
 _symmetry_equiv_pos_site_id
 _symmetry_equiv_pos_as_xyz
  1  'x, y, z'
loop_
 _atom_site_type_symbol
 _atom_site_label
 _atom_site_symmetry_multiplicity
 _atom_site_fract_x
 _atom_site_fract_y
 _atom_site_fract_z
 _atom_site_occupancy
  Ac  Ac0  1  0.333333  0.666667  0.000000  1
  Ac  Ac1  1  0.666667  0.333333  0.000000  1
  Lu  Lu2  1  0.000000  0.000000  0.500000  1
  Zn  Zn3  1  0.500000  0.000000  0.500000  1
  Zn  Zn4  1  0.500000  0.500000  0.500000  1
  Zn  Zn5  1  0.000000  0.500000  0.500000  1
  Zn  Zn6  1  0.282822  0.000000  0.000000  1
  Zn  Zn7  1  0.282822  0.282822  0.000000  1
  Zn  Zn8  1  0.000000  0.717178  0.000000  1
  Zn  Zn9  1  0.000000  0.282822  0.000000  1
  Zn  Zn10  1  0.717178  0.717178  0.000000  1
  Zn  Zn11  1  0.717178  0.000000  0.000000  1
  Ir  Ir12  1  0.177753  0.355505  0.500000  1
  Ir  Ir13  1  0.822247  0.177753  0.500000  1
  Ir  Ir14  1  0.355505  0.177753  0.500000  1
  Ir  Ir15  1  0.644495  0.822247  0.500000  1
  Ir  Ir16  1  0.177753  0.822247  0.500000  1
  Ir  Ir17  1  0.822247  0.644495  0.500000  1
