# generated using pymatgen
data_Sc8Ta11CrSi16
_symmetry_space_group_name_H-M   'P 1'
_cell_length_a   6.86776765
_cell_length_b   6.87258055
_cell_length_c   12.65907772
_cell_angle_alpha   90.22743163
_cell_angle_beta   89.85394133
_cell_angle_gamma   89.97860997
_symmetry_Int_Tables_number   1
_chemical_formula_structural   Sc8Ta11CrSi16
_chemical_formula_sum   'Sc8 Ta11 Cr1 Si16'
_cell_volume   597.49274206
_cell_formula_units_Z   1
loop_
 _symmetry_equiv_pos_site_id
 _symmetry_equiv_pos_as_xyz
  1  'x, y, z'
loop_
 _atom_site_type_symbol
 _atom_site_label
 _atom_site_symmetry_multiplicity
 _atom_site_fract_x
 _atom_site_fract_y
 _atom_site_fract_z
 _atom_site_occupancy
  Sc  Sc0  1  0.998570  0.660642  0.032531  1
  Sc  Sc1  1  0.840054  0.502401  0.280834  1
  Sc  Sc2  1  0.159166  0.501038  0.780685  1
  Sc  Sc3  1  0.501201  0.841554  0.717414  1
  Sc  Sc4  1  0.498883  0.158457  0.220553  1
  Sc  Sc5  1  0.000740  0.342540  0.528951  1
  Sc  Sc6  1  0.659126  0.000561  0.970173  1
  Sc  Sc7  1  0.340210  0.000975  0.469202  1
  Ta  Ta8  1  0.328775  0.328888  0.000111  1
  Ta  Ta9  1  0.171275  0.830855  0.251222  1
  Ta  Ta10  1  0.828735  0.171365  0.748608  1
  Ta  Ta11  1  0.673259  0.668562  0.499095  1
  Ta  Ta12  1  0.004652  0.151060  0.126583  1
  Ta  Ta13  1  0.349257  0.504306  0.376596  1
  Ta  Ta14  1  0.651261  0.493905  0.876965  1
  Ta  Ta15  1  0.509473  0.345538  0.621271  1
  Ta  Ta16  1  0.495351  0.653597  0.125154  1
  Ta  Ta17  1  0.995585  0.848655  0.627182  1
  Ta  Ta18  1  0.151140  0.006106  0.873661  1
  Cr  Cr19  1  0.846316  0.990507  0.373497  1
  Si  Si20  1  0.301223  0.956231  0.064201  1
  Si  Si21  1  0.549376  0.804765  0.316670  1
  Si  Si22  1  0.456732  0.197737  0.812988  1
  Si  Si23  1  0.801416  0.543960  0.685993  1
  Si  Si24  1  0.198724  0.455019  0.187702  1
  Si  Si25  1  0.703448  0.040486  0.558178  1
  Si  Si26  1  0.956050  0.302921  0.936388  1
  Si  Si27  1  0.040687  0.708319  0.434985  1
  Si  Si28  1  0.703560  0.360360  0.073103  1
  Si  Si29  1  0.126139  0.199900  0.324112  1
  Si  Si30  1  0.859292  0.795990  0.821472  1
  Si  Si31  1  0.205567  0.140344  0.677231  1
  Si  Si32  1  0.796727  0.863537  0.183208  1
  Si  Si33  1  0.294318  0.637189  0.570483  1
  Si  Si34  1  0.360494  0.705709  0.928747  1
  Si  Si35  1  0.643218  0.286020  0.424247  1
