# generated using pymatgen
data_Y10Sn7Te
_symmetry_space_group_name_H-M   'P 1'
_cell_length_a   8.14002500
_cell_length_b   8.20373392
_cell_length_c   15.43811511
_cell_angle_alpha   90.85251272
_cell_angle_beta   90.00000000
_cell_angle_gamma   90.00000000
_symmetry_Int_Tables_number   1
_chemical_formula_structural   Y10Sn7Te
_chemical_formula_sum   'Y20 Sn14 Te2'
_cell_volume   1030.82158463
_cell_formula_units_Z   2
loop_
 _symmetry_equiv_pos_site_id
 _symmetry_equiv_pos_as_xyz
  1  'x, y, z'
loop_
 _atom_site_type_symbol
 _atom_site_label
 _atom_site_symmetry_multiplicity
 _atom_site_fract_x
 _atom_site_fract_y
 _atom_site_fract_z
 _atom_site_occupancy
  Y  Y0  1  0.376253  0.837504  0.879156  1
  Y  Y1  1  0.876253  0.662496  0.620844  1
  Y  Y2  1  0.625570  0.157910  0.376907  1
  Y  Y3  1  0.125570  0.342090  0.123093  1
  Y  Y4  1  0.627781  0.161993  0.121010  1
  Y  Y5  1  0.127781  0.338007  0.378990  1
  Y  Y6  1  0.374452  0.837492  0.622498  1
  Y  Y7  1  0.874452  0.662508  0.877502  1
  Y  Y8  1  0.542410  0.337910  0.893907  1
  Y  Y9  1  0.042410  0.162090  0.606093  1
  Y  Y10  1  0.459206  0.679773  0.396565  1
  Y  Y11  1  0.959206  0.820227  0.103435  1
  Y  Y12  1  0.471689  0.664861  0.101316  1
  Y  Y13  1  0.971689  0.835139  0.398684  1
  Y  Y14  1  0.524902  0.316603  0.602435  1
  Y  Y15  1  0.024902  0.183397  0.897565  1
  Y  Y16  1  0.204166  0.501063  0.749090  1
  Y  Y17  1  0.704166  0.998937  0.750910  1
  Y  Y18  1  0.795312  0.499924  0.246066  1
  Y  Y19  1  0.295312  0.000076  0.253934  1
  Sn  Sn20  1  0.718153  0.968886  0.542018  1
  Sn  Sn21  1  0.218153  0.531114  0.957982  1
  Sn  Sn22  1  0.717541  0.969102  0.957002  1
  Sn  Sn23  1  0.217541  0.530898  0.542998  1
  Sn  Sn24  1  0.290325  0.035191  0.458276  1
  Sn  Sn25  1  0.790325  0.464809  0.041724  1
  Sn  Sn26  1  0.571147  0.623301  0.747955  1
  Sn  Sn27  1  0.071147  0.876699  0.752045  1
  Sn  Sn28  1  0.430378  0.376500  0.250599  1
  Sn  Sn29  1  0.930378  0.123500  0.249401  1
  Sn  Sn30  1  0.339246  0.146350  0.753301  1
  Sn  Sn31  1  0.839246  0.353650  0.746699  1
  Sn  Sn32  1  0.658474  0.852359  0.249369  1
  Sn  Sn33  1  0.158474  0.647641  0.250631  1
  Te  Te34  1  0.272996  0.024411  0.047403  1
  Te  Te35  1  0.772996  0.475589  0.452597  1
