# generated using pymatgen
data_LiLuB14
_symmetry_space_group_name_H-M   'P 1'
_cell_length_a   7.21573522
_cell_length_b   7.21573441
_cell_length_c   7.21573464
_cell_angle_alpha   131.99809719
_cell_angle_beta   110.93460585
_cell_angle_gamma   88.48675997
_symmetry_Int_Tables_number   1
_chemical_formula_structural   LiLuB14
_chemical_formula_sum   'Li2 Lu2 B28'
_cell_volume   248.23590092
_cell_formula_units_Z   2
loop_
 _symmetry_equiv_pos_site_id
 _symmetry_equiv_pos_as_xyz
  1  'x, y, z'
loop_
 _atom_site_type_symbol
 _atom_site_label
 _atom_site_symmetry_multiplicity
 _atom_site_fract_x
 _atom_site_fract_y
 _atom_site_fract_z
 _atom_site_occupancy
  Li  Li0  1  0.000000  0.000000  0.500000  1
  Li  Li1  1  0.000000  0.500000  0.000000  1
  Lu  Lu2  1  0.622071  0.250000  0.372071  1
  Lu  Lu3  1  0.377929  0.750000  0.627929  1
  B  B4  1  0.639277  0.666224  0.973055  1
  B  B5  1  0.360723  0.333776  0.026945  1
  B  B6  1  0.193169  0.166224  0.026945  1
  B  B7  1  0.806831  0.833776  0.973055  1
  B  B8  1  0.777171  0.150496  0.626675  1
  B  B9  1  0.222829  0.849504  0.373325  1
  B  B10  1  0.023821  0.650496  0.373325  1
  B  B11  1  0.976179  0.349504  0.626675  1
  B  B12  1  0.914508  0.088887  0.825620  1
  B  B13  1  0.085492  0.911113  0.174380  1
  B  B14  1  0.763267  0.588887  0.174380  1
  B  B15  1  0.236733  0.411113  0.825620  1
  B  B16  1  0.399680  0.402353  0.681185  1
  B  B17  1  0.600320  0.281505  0.002673  1
  B  B18  1  0.221168  0.902353  0.002673  1
  B  B19  1  0.778832  0.781505  0.681185  1
  B  B20  1  0.600320  0.597647  0.318815  1
  B  B21  1  0.399680  0.718495  0.997327  1
  B  B22  1  0.778832  0.097647  0.997327  1
  B  B23  1  0.221168  0.218495  0.318815  1
  B  B24  1  0.034216  0.830425  0.703672  1
  B  B25  1  0.965784  0.669457  0.796209  1
  B  B26  1  0.626752  0.330425  0.796209  1
  B  B27  1  0.373248  0.169457  0.703672  1
  B  B28  1  0.965784  0.169575  0.296328  1
  B  B29  1  0.034216  0.330543  0.203791  1
  B  B30  1  0.373248  0.669575  0.203791  1
  B  B31  1  0.626752  0.830543  0.296328  1
