# generated using pymatgen
data_Ho9TmTl8RuPt3
_symmetry_space_group_name_H-M   'P 1'
_cell_length_a   3.62729200
_cell_length_b   8.18680987
_cell_length_c   18.37565237
_cell_angle_alpha   90.10701718
_cell_angle_beta   90.00000000
_cell_angle_gamma   90.00000000
_symmetry_Int_Tables_number   1
_chemical_formula_structural   Ho9TmTl8RuPt3
_chemical_formula_sum   'Ho9 Tm1 Tl8 Ru1 Pt3'
_cell_volume   545.68150108
_cell_formula_units_Z   1
loop_
 _symmetry_equiv_pos_site_id
 _symmetry_equiv_pos_as_xyz
  1  'x, y, z'
loop_
 _atom_site_type_symbol
 _atom_site_label
 _atom_site_symmetry_multiplicity
 _atom_site_fract_x
 _atom_site_fract_y
 _atom_site_fract_z
 _atom_site_occupancy
  Ho  Ho0  1  0.000000  0.885204  0.586287  1
  Ho  Ho1  1  0.000000  0.385033  0.913366  1
  Ho  Ho2  1  0.000000  0.617104  0.088320  1
  Ho  Ho3  1  0.000000  0.232862  0.223056  1
  Ho  Ho4  1  0.000000  0.757068  0.778688  1
  Ho  Ho5  1  0.000000  0.256818  0.721492  1
  Ho  Ho6  1  0.000000  0.751685  0.278754  1
  Ho  Ho7  1  0.000000  0.999552  0.000420  1
  Ho  Ho8  1  0.000000  0.500638  0.499163  1
  Tm  Tm9  1  0.000000  0.114219  0.410203  1
  Tl  Tl10  1  0.500000  0.420647  0.352152  1
  Tl  Tl11  1  0.500000  0.576228  0.646762  1
  Tl  Tl12  1  0.500000  0.076245  0.853092  1
  Tl  Tl13  1  0.500000  0.929602  0.149404  1
  Tl  Tl14  1  0.500000  0.292589  0.065259  1
  Tl  Tl15  1  0.500000  0.708436  0.934937  1
  Tl  Tl16  1  0.500000  0.208841  0.565005  1
  Tl  Tl17  1  0.500000  0.795463  0.432093  1
  Ru  Ru18  1  0.500000  0.020155  0.305010  1
  Pt  Pt19  1  0.500000  0.975275  0.695931  1
  Pt  Pt20  1  0.500000  0.475830  0.804088  1
  Pt  Pt21  1  0.500000  0.520508  0.196520  1
