# generated using pymatgen
data_NdUTcB6
_symmetry_space_group_name_H-M   'P 1'
_cell_length_a   3.69933500
_cell_length_b   9.39018400
_cell_length_c   11.52129200
_cell_angle_alpha   90.00000000
_cell_angle_beta   90.00000000
_cell_angle_gamma   90.00000000
_symmetry_Int_Tables_number   1
_chemical_formula_structural   NdUTcB6
_chemical_formula_sum   'Nd4 U4 Tc4 B24'
_cell_volume   400.22014726
_cell_formula_units_Z   4
loop_
 _symmetry_equiv_pos_site_id
 _symmetry_equiv_pos_as_xyz
  1  'x, y, z'
loop_
 _atom_site_type_symbol
 _atom_site_label
 _atom_site_symmetry_multiplicity
 _atom_site_fract_x
 _atom_site_fract_y
 _atom_site_fract_z
 _atom_site_occupancy
  Nd  Nd0  1  0.000000  0.337469  0.408269  1
  Nd  Nd1  1  0.000000  0.662531  0.591731  1
  Nd  Nd2  1  0.000000  0.837469  0.091731  1
  Nd  Nd3  1  0.000000  0.162531  0.908269  1
  U  U4  1  0.000000  0.957371  0.396343  1
  U  U5  1  0.000000  0.042629  0.603657  1
  U  U6  1  0.000000  0.457371  0.103657  1
  U  U7  1  0.000000  0.542629  0.896343  1
  Tc  Tc8  1  0.000000  0.647814  0.316916  1
  Tc  Tc9  1  0.000000  0.352186  0.683084  1
  Tc  Tc10  1  0.000000  0.147814  0.183084  1
  Tc  Tc11  1  0.000000  0.852186  0.816916  1
  B  B12  1  0.500000  0.555720  0.428035  1
  B  B13  1  0.500000  0.444280  0.571965  1
  B  B14  1  0.500000  0.055720  0.071965  1
  B  B15  1  0.500000  0.944280  0.928035  1
  B  B16  1  0.500000  0.745478  0.420941  1
  B  B17  1  0.500000  0.254522  0.579059  1
  B  B18  1  0.500000  0.245478  0.079059  1
  B  B19  1  0.500000  0.754522  0.920941  1
  B  B20  1  0.500000  0.802528  0.275132  1
  B  B21  1  0.500000  0.197472  0.724868  1
  B  B22  1  0.500000  0.302528  0.224868  1
  B  B23  1  0.500000  0.697472  0.775132  1
  B  B24  1  0.500000  0.643996  0.187988  1
  B  B25  1  0.500000  0.356004  0.812012  1
  B  B26  1  0.500000  0.143996  0.312012  1
  B  B27  1  0.500000  0.856004  0.687988  1
  B  B28  1  0.500000  0.992503  0.220874  1
  B  B29  1  0.500000  0.007497  0.779126  1
  B  B30  1  0.500000  0.492503  0.279126  1
  B  B31  1  0.500000  0.507497  0.720874  1
  B  B32  1  0.500000  0.636425  0.037278  1
  B  B33  1  0.500000  0.363575  0.962722  1
  B  B34  1  0.500000  0.136425  0.462722  1
  B  B35  1  0.500000  0.863575  0.537278  1
