# generated using pymatgen
data_Pr2YHo3CoI10
_symmetry_space_group_name_H-M   'P 1'
_cell_length_a   7.79366833
_cell_length_b   9.79643292
_cell_length_c   9.82389709
_cell_angle_alpha   106.74455813
_cell_angle_beta   95.97082736
_cell_angle_gamma   105.27838460
_symmetry_Int_Tables_number   1
_chemical_formula_structural   Pr2YHo3CoI10
_chemical_formula_sum   'Pr2 Y1 Ho3 Co1 I10'
_cell_volume   679.59515042
_cell_formula_units_Z   1
loop_
 _symmetry_equiv_pos_site_id
 _symmetry_equiv_pos_as_xyz
  1  'x, y, z'
loop_
 _atom_site_type_symbol
 _atom_site_label
 _atom_site_symmetry_multiplicity
 _atom_site_fract_x
 _atom_site_fract_y
 _atom_site_fract_z
 _atom_site_occupancy
  Pr  Pr0  1  0.884077  0.956384  0.231493  1
  Pr  Pr1  1  0.114346  0.042690  0.767700  1
  Y  Y2  1  0.342557  0.122340  0.160692  1
  Ho  Ho3  1  0.029357  0.720770  0.916255  1
  Ho  Ho4  1  0.970022  0.278993  0.083102  1
  Ho  Ho5  1  0.661364  0.879003  0.840940  1
  Co  Co6  1  0.999823  0.999813  0.999930  1
  I  I7  1  0.654129  0.554932  0.732429  1
  I  I8  1  0.344213  0.446988  0.267611  1
  I  I9  1  0.732235  0.911305  0.545162  1
  I  I10  1  0.265199  0.087737  0.455784  1
  I  I11  1  0.082121  0.379266  0.825900  1
  I  I12  1  0.917761  0.620697  0.173880  1
  I  I13  1  0.446184  0.814786  0.087671  1
  I  I14  1  0.553888  0.182962  0.909718  1
  I  I15  1  0.230417  0.739515  0.662640  1
  I  I16  1  0.772305  0.261820  0.339093  1
