# generated using pymatgen
data_NdHo5Zn4IrPd12
_symmetry_space_group_name_H-M   'P 1'
_cell_length_a   8.24691688
_cell_length_b   8.24691716
_cell_length_c   8.24691668
_cell_angle_alpha   109.30490744
_cell_angle_beta   109.55443153
_cell_angle_gamma   109.55444339
_symmetry_Int_Tables_number   1
_chemical_formula_structural   NdHo5Zn4IrPd12
_chemical_formula_sum   'Nd1 Ho5 Zn4 Ir1 Pd12'
_cell_volume   431.76781104
_cell_formula_units_Z   1
loop_
 _symmetry_equiv_pos_site_id
 _symmetry_equiv_pos_as_xyz
  1  'x, y, z'
loop_
 _atom_site_type_symbol
 _atom_site_label
 _atom_site_symmetry_multiplicity
 _atom_site_fract_x
 _atom_site_fract_y
 _atom_site_fract_z
 _atom_site_occupancy
  Nd  Nd0  1  0.000000  0.709547  0.709547  1
  Ho  Ho1  1  0.704592  0.705425  0.000833  1
  Ho  Ho2  1  0.295408  0.000833  0.296240  1
  Ho  Ho3  1  0.000000  0.298989  0.298989  1
  Ho  Ho4  1  0.295408  0.296240  0.000833  1
  Ho  Ho5  1  0.704592  0.000833  0.705425  1
  Zn  Zn6  1  0.000000  0.999940  0.495867  1
  Zn  Zn7  1  0.000000  0.495867  0.999940  1
  Zn  Zn8  1  0.504072  0.999940  0.999940  1
  Zn  Zn9  1  0.495928  0.495867  0.495867  1
  Ir  Ir10  1  0.000000  0.009248  0.009248  1
  Pd  Pd11  1  0.335879  0.335398  0.671277  1
  Pd  Pd12  1  0.664121  0.999518  0.335398  1
  Pd  Pd13  1  0.000000  0.667331  0.330412  1
  Pd  Pd14  1  0.664121  0.335398  0.999518  1
  Pd  Pd15  1  0.335879  0.671277  0.335398  1
  Pd  Pd16  1  0.000000  0.330412  0.667331  1
  Pd  Pd17  1  0.337754  0.662549  0.000303  1
  Pd  Pd18  1  0.337754  0.000303  0.662549  1
  Pd  Pd19  1  0.663081  0.330412  0.330412  1
  Pd  Pd20  1  0.662246  0.662549  0.324795  1
  Pd  Pd21  1  0.662246  0.324795  0.662549  1
  Pd  Pd22  1  0.336919  0.667331  0.667331  1
