# generated using pymatgen
data_Dy6Al19Si5Os8
_symmetry_space_group_name_H-M   'P 1'
_cell_length_a   8.70506500
_cell_length_b   8.69009423
_cell_length_c   9.58554300
_cell_angle_alpha   90.00000000
_cell_angle_beta   90.00000000
_cell_angle_gamma   120.05700034
_symmetry_Int_Tables_number   1
_chemical_formula_structural   Dy6Al19Si5Os8
_chemical_formula_sum   'Dy6 Al19 Si5 Os8'
_cell_volume   627.61616631
_cell_formula_units_Z   1
loop_
 _symmetry_equiv_pos_site_id
 _symmetry_equiv_pos_as_xyz
  1  'x, y, z'
loop_
 _atom_site_type_symbol
 _atom_site_label
 _atom_site_symmetry_multiplicity
 _atom_site_fract_x
 _atom_site_fract_y
 _atom_site_fract_z
 _atom_site_occupancy
  Dy  Dy0  1  0.194405  0.388811  0.250000  1
  Dy  Dy1  1  0.806136  0.612272  0.750000  1
  Dy  Dy2  1  0.609057  0.806682  0.250000  1
  Dy  Dy3  1  0.388912  0.194831  0.750000  1
  Dy  Dy4  1  0.197624  0.806682  0.250000  1
  Dy  Dy5  1  0.805919  0.194831  0.750000  1
  Al  Al6  1  0.164721  0.329442  0.577903  1
  Al  Al7  1  0.834699  0.669397  0.422286  1
  Al  Al8  1  0.669846  0.835289  0.576621  1
  Al  Al9  1  0.834699  0.669397  0.077714  1
  Al  Al10  1  0.329154  0.165429  0.422525  1
  Al  Al11  1  0.164721  0.329442  0.922097  1
  Al  Al12  1  0.165442  0.835289  0.576621  1
  Al  Al13  1  0.329154  0.165429  0.077475  1
  Al  Al14  1  0.836277  0.165429  0.422525  1
  Al  Al15  1  0.669846  0.835289  0.923379  1
  Al  Al16  1  0.836277  0.165429  0.077475  1
  Al  Al17  1  0.165442  0.835289  0.923379  1
  Al  Al18  1  0.437079  0.874158  0.750000  1
  Al  Al19  1  0.872918  0.433524  0.250000  1
  Al  Al20  1  0.127629  0.564480  0.750000  1
  Al  Al21  1  0.560606  0.433524  0.250000  1
  Al  Al22  1  0.436851  0.564480  0.750000  1
  Al  Al23  1  0.999803  0.999607  0.250000  1
  Al  Al24  1  0.000392  0.000783  0.750000  1
  Si  Si25  1  0.332608  0.665216  0.037571  1
  Si  Si26  1  0.667237  0.334473  0.960967  1
  Si  Si27  1  0.667237  0.334473  0.539033  1
  Si  Si28  1  0.332608  0.665216  0.462429  1
  Si  Si29  1  0.563765  0.127530  0.250000  1
  Os  Os30  1  0.500885  0.001770  0.005925  1
  Os  Os31  1  0.999003  0.498984  0.000612  1
  Os  Os32  1  0.500885  0.001770  0.494075  1
  Os  Os33  1  0.499982  0.498984  0.000612  1
  Os  Os34  1  0.999003  0.498984  0.499388  1
  Os  Os35  1  0.499982  0.498984  0.499388  1
  Os  Os36  1  0.999600  0.999200  0.999905  1
  Os  Os37  1  0.999600  0.999200  0.500095  1
