# generated using pymatgen
data_LiHo2Co2P6Rh7
_symmetry_space_group_name_H-M   'P 1'
_cell_length_a   3.83665600
_cell_length_b   10.68839200
_cell_length_c   12.43395800
_cell_angle_alpha   90.00000000
_cell_angle_beta   90.00000000
_cell_angle_gamma   90.00000000
_symmetry_Int_Tables_number   1
_chemical_formula_structural   LiHo2Co2P6Rh7
_chemical_formula_sum   'Li2 Ho4 Co4 P12 Rh14'
_cell_volume   509.88781179
_cell_formula_units_Z   2
loop_
 _symmetry_equiv_pos_site_id
 _symmetry_equiv_pos_as_xyz
  1  'x, y, z'
loop_
 _atom_site_type_symbol
 _atom_site_label
 _atom_site_symmetry_multiplicity
 _atom_site_fract_x
 _atom_site_fract_y
 _atom_site_fract_z
 _atom_site_occupancy
  Li  Li0  1  0.250000  0.704098  0.987310  1
  Li  Li1  1  0.250000  0.795902  0.487310  1
  Ho  Ho2  1  0.250000  0.582478  0.708858  1
  Ho  Ho3  1  0.250000  0.917522  0.208858  1
  Ho  Ho4  1  0.750000  0.422050  0.294488  1
  Ho  Ho5  1  0.750000  0.077950  0.794488  1
  Co  Co6  1  0.250000  0.461265  0.934211  1
  Co  Co7  1  0.250000  0.038735  0.434211  1
  Co  Co8  1  0.750000  0.535565  0.063168  1
  Co  Co9  1  0.750000  0.964435  0.563168  1
  P  P10  1  0.250000  0.427627  0.106797  1
  P  P11  1  0.250000  0.072373  0.606797  1
  P  P12  1  0.750000  0.573431  0.890417  1
  P  P13  1  0.750000  0.926569  0.390417  1
  P  P14  1  0.250000  0.268257  0.869947  1
  P  P15  1  0.250000  0.231743  0.369947  1
  P  P16  1  0.750000  0.730558  0.133836  1
  P  P17  1  0.750000  0.769442  0.633836  1
  P  P18  1  0.250000  0.602157  0.389481  1
  P  P19  1  0.250000  0.897843  0.889481  1
  P  P20  1  0.750000  0.400920  0.610233  1
  P  P21  1  0.750000  0.099080  0.110233  1
  Rh  Rh22  1  0.750000  0.287619  0.011526  1
  Rh  Rh23  1  0.750000  0.212381  0.511526  1
  Rh  Rh24  1  0.250000  0.406422  0.480890  1
  Rh  Rh25  1  0.250000  0.093578  0.980890  1
  Rh  Rh26  1  0.750000  0.594522  0.521949  1
  Rh  Rh27  1  0.750000  0.905478  0.021949  1
  Rh  Rh28  1  0.250000  0.232038  0.177399  1
  Rh  Rh29  1  0.250000  0.267962  0.677399  1
  Rh  Rh30  1  0.750000  0.774358  0.825774  1
  Rh  Rh31  1  0.750000  0.725642  0.325774  1
  Rh  Rh32  1  0.250000  0.881179  0.694070  1
  Rh  Rh33  1  0.250000  0.618821  0.194070  1
  Rh  Rh34  1  0.750000  0.115935  0.299648  1
  Rh  Rh35  1  0.750000  0.384065  0.799648  1
