# generated using pymatgen
data_LuPa(WC2)2
_symmetry_space_group_name_H-M   'P 1'
_cell_length_a   3.31410700
_cell_length_b   5.71637400
_cell_length_c   10.86761200
_cell_angle_alpha   90.00000000
_cell_angle_beta   90.00000000
_cell_angle_gamma   90.00000000
_symmetry_Int_Tables_number   1
_chemical_formula_structural   LuPa(WC2)2
_chemical_formula_sum   'Lu2 Pa2 W4 C8'
_cell_volume   205.88337832
_cell_formula_units_Z   2
loop_
 _symmetry_equiv_pos_site_id
 _symmetry_equiv_pos_as_xyz
  1  'x, y, z'
loop_
 _atom_site_type_symbol
 _atom_site_label
 _atom_site_symmetry_multiplicity
 _atom_site_fract_x
 _atom_site_fract_y
 _atom_site_fract_z
 _atom_site_occupancy
  Lu  Lu0  1  0.750000  0.414389  0.639477  1
  Lu  Lu1  1  0.750000  0.914389  0.860523  1
  Pa  Pa2  1  0.250000  0.585926  0.362236  1
  Pa  Pa3  1  0.250000  0.085926  0.137764  1
  W  W4  1  0.250000  0.905370  0.614028  1
  W  W5  1  0.250000  0.405370  0.885972  1
  W  W6  1  0.750000  0.087925  0.398613  1
  W  W7  1  0.750000  0.587925  0.101387  1
  C  C8  1  0.250000  0.662555  0.748363  1
  C  C9  1  0.250000  0.162555  0.751637  1
  C  C10  1  0.750000  0.339841  0.255331  1
  C  C11  1  0.750000  0.839841  0.244669  1
  C  C12  1  0.250000  0.238511  0.490643  1
  C  C13  1  0.250000  0.738511  0.009357  1
  C  C14  1  0.750000  0.765484  0.512588  1
  C  C15  1  0.750000  0.265484  0.987412  1
