# generated using pymatgen
data_Tb2Dy2V3TcB16
_symmetry_space_group_name_H-M   'P 1'
_cell_length_a   3.50705200
_cell_length_b   5.99160300
_cell_length_c   11.59933820
_cell_angle_alpha   89.98707132
_cell_angle_beta   90.00000000
_cell_angle_gamma   90.00000000
_symmetry_Int_Tables_number   1
_chemical_formula_structural   Tb2Dy2V3TcB16
_chemical_formula_sum   'Tb2 Dy2 V3 Tc1 B16'
_cell_volume   243.73530175
_cell_formula_units_Z   1
loop_
 _symmetry_equiv_pos_site_id
 _symmetry_equiv_pos_as_xyz
  1  'x, y, z'
loop_
 _atom_site_type_symbol
 _atom_site_label
 _atom_site_symmetry_multiplicity
 _atom_site_fract_x
 _atom_site_fract_y
 _atom_site_fract_z
 _atom_site_occupancy
  Tb  Tb0  1  0.000000  0.626018  0.348122  1
  Tb  Tb1  1  0.000000  0.375207  0.651184  1
  Dy  Dy2  1  0.000000  0.123271  0.150257  1
  Dy  Dy3  1  0.000000  0.876080  0.848946  1
  V  V4  1  0.000000  0.872586  0.581857  1
  V  V5  1  0.000000  0.626775  0.083767  1
  V  V6  1  0.000000  0.373500  0.917680  1
  Tc  Tc7  1  0.000000  0.127334  0.417166  1
  B  B8  1  0.500000  0.475549  0.192214  1
  B  B9  1  0.500000  0.524195  0.807876  1
  B  B10  1  0.500000  0.976685  0.307855  1
  B  B11  1  0.500000  0.023083  0.692183  1
  B  B12  1  0.500000  0.283656  0.315211  1
  B  B13  1  0.500000  0.716016  0.685177  1
  B  B14  1  0.500000  0.785334  0.185508  1
  B  B15  1  0.500000  0.214459  0.814580  1
  B  B16  1  0.500000  0.364206  0.467965  1
  B  B17  1  0.500000  0.635561  0.532257  1
  B  B18  1  0.500000  0.864237  0.032628  1
  B  B19  1  0.500000  0.135743  0.967323  1
  B  B20  1  0.500000  0.385471  0.047392  1
  B  B21  1  0.500000  0.614993  0.952668  1
  B  B22  1  0.500000  0.886310  0.452951  1
  B  B23  1  0.500000  0.113732  0.547232  1
