# generated using pymatgen
data_DyEr9(Bi2As)2
_symmetry_space_group_name_H-M   'P 1'
_cell_length_a   8.00397957
_cell_length_b   9.07090900
_cell_length_c   12.00783467
_cell_angle_alpha   90.00000000
_cell_angle_beta   90.15820999
_cell_angle_gamma   90.00000000
_symmetry_Int_Tables_number   1
_chemical_formula_structural   DyEr9(Bi2As)2
_chemical_formula_sum   'Dy2 Er18 Bi8 As4'
_cell_volume   871.80594387
_cell_formula_units_Z   2
loop_
 _symmetry_equiv_pos_site_id
 _symmetry_equiv_pos_as_xyz
  1  'x, y, z'
loop_
 _atom_site_type_symbol
 _atom_site_label
 _atom_site_symmetry_multiplicity
 _atom_site_fract_x
 _atom_site_fract_y
 _atom_site_fract_z
 _atom_site_occupancy
  Dy  Dy0  1  0.654713  0.750000  0.712388  1
  Dy  Dy1  1  0.345287  0.250000  0.287612  1
  Er  Er2  1  0.153421  0.250000  0.788926  1
  Er  Er3  1  0.846579  0.750000  0.211074  1
  Er  Er4  1  0.133015  0.750000  0.793867  1
  Er  Er5  1  0.866985  0.250000  0.206133  1
  Er  Er6  1  0.632963  0.250000  0.706720  1
  Er  Er7  1  0.367037  0.750000  0.293280  1
  Er  Er8  1  0.536454  0.750000  0.999507  1
  Er  Er9  1  0.463546  0.250000  0.000493  1
  Er  Er10  1  0.037655  0.250000  0.500065  1
  Er  Er11  1  0.962345  0.750000  0.499935  1
  Er  Er12  1  0.816318  0.443304  0.936338  1
  Er  Er13  1  0.183682  0.556696  0.063662  1
  Er  Er14  1  0.316559  0.556428  0.563823  1
  Er  Er15  1  0.183682  0.943304  0.063662  1
  Er  Er16  1  0.683441  0.443572  0.436177  1
  Er  Er17  1  0.816318  0.056696  0.936338  1
  Er  Er18  1  0.683441  0.056428  0.436177  1
  Er  Er19  1  0.316559  0.943572  0.563823  1
  Bi  Bi20  1  0.925193  0.010017  0.672725  1
  Bi  Bi21  1  0.074807  0.989983  0.327275  1
  Bi  Bi22  1  0.423438  0.991188  0.827466  1
  Bi  Bi23  1  0.074807  0.510017  0.327275  1
  Bi  Bi24  1  0.576562  0.008812  0.172534  1
  Bi  Bi25  1  0.925193  0.489983  0.672725  1
  Bi  Bi26  1  0.576562  0.491188  0.172534  1
  Bi  Bi27  1  0.423438  0.508812  0.827466  1
  As  As28  1  0.913990  0.750000  0.979991  1
  As  As29  1  0.086010  0.250000  0.020009  1
  As  As30  1  0.415186  0.250000  0.519800  1
  As  As31  1  0.584814  0.750000  0.480200  1
