# generated using pymatgen
data_La3MgIn2IrAu2
_symmetry_space_group_name_H-M   'P 1'
_cell_length_a   7.89235441
_cell_length_b   7.87623363
_cell_length_c   4.20985700
_cell_angle_alpha   90.00000000
_cell_angle_beta   90.00000000
_cell_angle_gamma   120.49972178
_symmetry_Int_Tables_number   1
_chemical_formula_structural   La3MgIn2IrAu2
_chemical_formula_sum   'La3 Mg1 In2 Ir1 Au2'
_cell_volume   225.48317653
_cell_formula_units_Z   1
loop_
 _symmetry_equiv_pos_site_id
 _symmetry_equiv_pos_as_xyz
  1  'x, y, z'
loop_
 _atom_site_type_symbol
 _atom_site_label
 _atom_site_symmetry_multiplicity
 _atom_site_fract_x
 _atom_site_fract_y
 _atom_site_fract_z
 _atom_site_occupancy
  La  La0  1  0.574831  0.981283  0.000000  1
  La  La1  1  0.021513  0.593369  0.000000  1
  La  La2  1  0.403242  0.422673  0.000000  1
  Mg  Mg3  1  0.754732  0.756278  0.500000  1
  In  In4  1  0.249858  0.999927  0.500000  1
  In  In5  1  0.001693  0.249459  0.500000  1
  Ir  Ir6  1  0.338648  0.669742  0.500000  1
  Au  Au7  1  0.668606  0.341776  0.500000  1
  Au  Au8  1  0.986875  0.985495  0.000000  1
