# generated using pymatgen
data_Tm17Sc3(IrPt2)4
_symmetry_space_group_name_H-M   'P 1'
_cell_length_a   10.84477500
_cell_length_b   10.84477500
_cell_length_c   6.21226700
_cell_angle_alpha   90.00000000
_cell_angle_beta   90.00000000
_cell_angle_gamma   90.00000000
_symmetry_Int_Tables_number   1
_chemical_formula_structural   Tm17Sc3(IrPt2)4
_chemical_formula_sum   'Tm17 Sc3 Ir4 Pt8'
_cell_volume   730.61940914
_cell_formula_units_Z   1
loop_
 _symmetry_equiv_pos_site_id
 _symmetry_equiv_pos_as_xyz
  1  'x, y, z'
loop_
 _atom_site_type_symbol
 _atom_site_label
 _atom_site_symmetry_multiplicity
 _atom_site_fract_x
 _atom_site_fract_y
 _atom_site_fract_z
 _atom_site_occupancy
  Tm  Tm0  1  0.291715  0.085920  0.373921  1
  Tm  Tm1  1  0.291631  0.914373  0.873590  1
  Tm  Tm2  1  0.708369  0.085627  0.873590  1
  Tm  Tm3  1  0.708285  0.914080  0.373921  1
  Tm  Tm4  1  0.586159  0.793561  0.872666  1
  Tm  Tm5  1  0.587155  0.204903  0.372422  1
  Tm  Tm6  1  0.412845  0.795097  0.372422  1
  Tm  Tm7  1  0.413841  0.206439  0.872666  1
  Tm  Tm8  1  0.204903  0.412845  0.627578  1
  Tm  Tm9  1  0.206439  0.586159  0.127334  1
  Tm  Tm10  1  0.793561  0.413841  0.127334  1
  Tm  Tm11  1  0.795097  0.587155  0.627578  1
  Tm  Tm12  1  0.914373  0.708369  0.126410  1
  Tm  Tm13  1  0.914080  0.291715  0.626079  1
  Tm  Tm14  1  0.085920  0.708285  0.626079  1
  Tm  Tm15  1  0.085627  0.291631  0.126410  1
  Tm  Tm16  1  0.500000  0.500000  0.500000  1
  Sc  Sc17  1  0.000000  0.000000  0.500000  1
  Sc  Sc18  1  0.000000  0.000000  0.000000  1
  Sc  Sc19  1  0.500000  0.500000  0.000000  1
  Ir  Ir20  1  0.500000  0.000000  0.119136  1
  Ir  Ir21  1  0.500000  0.000000  0.619470  1
  Ir  Ir22  1  0.000000  0.500000  0.880864  1
  Ir  Ir23  1  0.000000  0.500000  0.380530  1
  Pt  Pt24  1  0.851233  0.148800  0.249866  1
  Pt  Pt25  1  0.851200  0.851233  0.750134  1
  Pt  Pt26  1  0.148800  0.148767  0.750134  1
  Pt  Pt27  1  0.148767  0.851200  0.249866  1
  Pt  Pt28  1  0.651759  0.347521  0.753934  1
  Pt  Pt29  1  0.652479  0.651759  0.246066  1
  Pt  Pt30  1  0.347521  0.348241  0.246066  1
  Pt  Pt31  1  0.348241  0.652479  0.753934  1
