# generated using pymatgen
data_TbDyY2(Ga3Ir)6
_symmetry_space_group_name_H-M   'P 1'
_cell_length_a   7.60160636
_cell_length_b   7.60137731
_cell_length_c   9.50602000
_cell_angle_alpha   90.00000000
_cell_angle_beta   90.00000000
_cell_angle_gamma   119.92229842
_symmetry_Int_Tables_number   1
_chemical_formula_structural   TbDyY2(Ga3Ir)6
_chemical_formula_sum   'Tb1 Dy1 Y2 Ga18 Ir6'
_cell_volume   476.06530392
_cell_formula_units_Z   1
loop_
 _symmetry_equiv_pos_site_id
 _symmetry_equiv_pos_as_xyz
  1  'x, y, z'
loop_
 _atom_site_type_symbol
 _atom_site_label
 _atom_site_symmetry_multiplicity
 _atom_site_fract_x
 _atom_site_fract_y
 _atom_site_fract_z
 _atom_site_occupancy
  Tb  Tb0  1  0.668914  0.997128  0.250000  1
  Dy  Dy1  1  0.331113  0.002986  0.750000  1
  Y  Y2  1  0.997073  0.668920  0.250000  1
  Y  Y3  1  0.003025  0.331135  0.750000  1
  Ga  Ga4  1  0.127866  0.128049  0.250000  1
  Ga  Ga5  1  0.872232  0.871963  0.750000  1
  Ga  Ga6  1  0.999359  0.334379  0.080402  1
  Ga  Ga7  1  0.000771  0.665776  0.919590  1
  Ga  Ga8  1  0.000771  0.665776  0.580410  1
  Ga  Ga9  1  0.334327  0.999383  0.419816  1
  Ga  Ga10  1  0.999359  0.334379  0.419598  1
  Ga  Ga11  1  0.665471  0.000569  0.580298  1
  Ga  Ga12  1  0.665471  0.000569  0.919702  1
  Ga  Ga13  1  0.334327  0.999383  0.080184  1
  Ga  Ga14  1  0.332465  0.332314  0.564599  1
  Ga  Ga15  1  0.667560  0.667554  0.435430  1
  Ga  Ga16  1  0.667560  0.667554  0.064570  1
  Ga  Ga17  1  0.332465  0.332314  0.935401  1
  Ga  Ga18  1  0.339646  0.546609  0.250000  1
  Ga  Ga19  1  0.660247  0.453322  0.750000  1
  Ga  Ga20  1  0.546256  0.339037  0.250000  1
  Ga  Ga21  1  0.453742  0.661017  0.750000  1
  Ir  Ir22  1  0.671187  0.328669  0.999914  1
  Ir  Ir23  1  0.328678  0.671234  0.999919  1
  Ir  Ir24  1  0.328678  0.671234  0.500081  1
  Ir  Ir25  1  0.671187  0.328669  0.500086  1
  Ir  Ir26  1  0.000124  0.000041  0.999901  1
  Ir  Ir27  1  0.000124  0.000041  0.500099  1
