# generated using pymatgen
data_Y2ZrScIr2
_symmetry_space_group_name_H-M   'P 1'
_cell_length_a   4.51053300
_cell_length_b   7.07303100
_cell_length_c   8.39890500
_cell_angle_alpha   90.00000000
_cell_angle_beta   90.00000000
_cell_angle_gamma   90.00000000
_symmetry_Int_Tables_number   1
_chemical_formula_structural   Y2ZrScIr2
_chemical_formula_sum   'Y4 Zr2 Sc2 Ir4'
_cell_volume   267.95143984
_cell_formula_units_Z   2
loop_
 _symmetry_equiv_pos_site_id
 _symmetry_equiv_pos_as_xyz
  1  'x, y, z'
loop_
 _atom_site_type_symbol
 _atom_site_label
 _atom_site_symmetry_multiplicity
 _atom_site_fract_x
 _atom_site_fract_y
 _atom_site_fract_z
 _atom_site_occupancy
  Y  Y0  1  0.250000  0.015289  0.325184  1
  Y  Y1  1  0.250000  0.515289  0.174816  1
  Y  Y2  1  0.750000  0.986087  0.677847  1
  Y  Y3  1  0.750000  0.486087  0.822153  1
  Zr  Zr4  1  0.250000  0.139551  0.929856  1
  Zr  Zr5  1  0.250000  0.639551  0.570144  1
  Sc  Sc6  1  0.750000  0.856232  0.074082  1
  Sc  Sc7  1  0.750000  0.356232  0.425918  1
  Ir  Ir8  1  0.250000  0.265635  0.599526  1
  Ir  Ir9  1  0.250000  0.765635  0.900474  1
  Ir  Ir10  1  0.750000  0.737207  0.408135  1
  Ir  Ir11  1  0.750000  0.237207  0.091865  1
