# generated using pymatgen
data_Sm2YGa3(Ni3Sn)3
_symmetry_space_group_name_H-M   'P 1'
_cell_length_a   4.08555400
_cell_length_b   9.18391681
_cell_length_c   9.18391664
_cell_angle_alpha   59.98656447
_cell_angle_beta   90.00000000
_cell_angle_gamma   90.00000000
_symmetry_Int_Tables_number   1
_chemical_formula_structural   Sm2YGa3(Ni3Sn)3
_chemical_formula_sum   'Sm2 Y1 Ga3 Ni9 Sn3'
_cell_volume   298.38614117
_cell_formula_units_Z   1
loop_
 _symmetry_equiv_pos_site_id
 _symmetry_equiv_pos_as_xyz
  1  'x, y, z'
loop_
 _atom_site_type_symbol
 _atom_site_label
 _atom_site_symmetry_multiplicity
 _atom_site_fract_x
 _atom_site_fract_y
 _atom_site_fract_z
 _atom_site_occupancy
  Sm  Sm0  1  0.500000  0.333373  0.333250  1
  Sm  Sm1  1  0.500000  0.666750  0.666627  1
  Y  Y2  1  0.000000  0.999923  0.000077  1
  Ga  Ga3  1  0.500000  0.741565  0.258435  1
  Ga  Ga4  1  0.500000  0.258438  0.000059  1
  Ga  Ga5  1  0.500000  0.999941  0.741562  1
  Ni  Ni6  1  0.000000  0.207010  0.159189  1
  Ni  Ni7  1  0.000000  0.159204  0.633836  1
  Ni  Ni8  1  0.000000  0.633866  0.206909  1
  Ni  Ni9  1  0.000000  0.840811  0.792990  1
  Ni  Ni10  1  0.000000  0.366164  0.840796  1
  Ni  Ni11  1  0.000000  0.793091  0.366134  1
  Ni  Ni12  1  0.500000  0.278577  0.721423  1
  Ni  Ni13  1  0.500000  0.721217  0.000075  1
  Ni  Ni14  1  0.500000  0.999925  0.278783  1
  Sn  Sn15  1  0.000000  0.468430  0.531570  1
  Sn  Sn16  1  0.000000  0.531602  0.999987  1
  Sn  Sn17  1  0.000000  0.000013  0.468398  1
