# generated using pymatgen
data_Lu7ScV11Si16Os
_symmetry_space_group_name_H-M   'P 1'
_cell_length_a   6.72592823
_cell_length_b   6.72685531
_cell_length_c   12.45542438
_cell_angle_alpha   89.98911367
_cell_angle_beta   90.01487360
_cell_angle_gamma   89.70466590
_symmetry_Int_Tables_number   1
_chemical_formula_structural   Lu7ScV11Si16Os
_chemical_formula_sum   'Lu7 Sc1 V11 Si16 Os1'
_cell_volume   563.53001476
_cell_formula_units_Z   1
loop_
 _symmetry_equiv_pos_site_id
 _symmetry_equiv_pos_as_xyz
  1  'x, y, z'
loop_
 _atom_site_type_symbol
 _atom_site_label
 _atom_site_symmetry_multiplicity
 _atom_site_fract_x
 _atom_site_fract_y
 _atom_site_fract_z
 _atom_site_occupancy
  Lu  Lu0  1  0.000403  0.663058  0.029089  1
  Lu  Lu1  1  0.836523  0.498914  0.280455  1
  Lu  Lu2  1  0.163462  0.498165  0.779637  1
  Lu  Lu3  1  0.499152  0.836453  0.720218  1
  Lu  Lu4  1  0.498455  0.163206  0.220173  1
  Lu  Lu5  1  0.001342  0.336001  0.529070  1
  Lu  Lu6  1  0.663085  0.000507  0.971020  1
  Sc  Sc7  1  0.338866  0.997732  0.470058  1
  V  V8  1  0.171456  0.833352  0.248040  1
  V  V9  1  0.833165  0.170722  0.751888  1
  V  V10  1  0.668617  0.669379  0.499954  1
  V  V11  1  0.001354  0.153789  0.128173  1
  V  V12  1  0.342801  0.506509  0.375121  1
  V  V13  1  0.666551  0.493784  0.874210  1
  V  V14  1  0.504829  0.343021  0.624439  1
  V  V15  1  0.493519  0.666943  0.126150  1
  V  V16  1  0.992238  0.842254  0.624767  1
  V  V17  1  0.154003  0.001170  0.872045  1
  V  V18  1  0.840944  0.993228  0.374811  1
  Si  Si19  1  0.286691  0.962711  0.062709  1
  Si  Si20  1  0.537690  0.793124  0.317107  1
  Si  Si21  1  0.459691  0.209219  0.815418  1
  Si  Si22  1  0.791095  0.538867  0.684186  1
  Si  Si23  1  0.209043  0.458990  0.184733  1
  Si  Si24  1  0.706490  0.040359  0.564555  1
  Si  Si25  1  0.962611  0.286756  0.937329  1
  Si  Si26  1  0.042865  0.712541  0.434598  1
  Si  Si27  1  0.699431  0.377514  0.067400  1
  Si  Si28  1  0.129351  0.198345  0.319025  1
  Si  Si29  1  0.873339  0.796727  0.815761  1
  Si  Si30  1  0.202174  0.125965  0.681442  1
  Si  Si31  1  0.796492  0.873214  0.184463  1
  Si  Si32  1  0.298561  0.629612  0.565609  1
  Si  Si33  1  0.377489  0.699360  0.932694  1
  Si  Si34  1  0.623565  0.295789  0.433543  1
  Os  Os35  1  0.332656  0.332718  0.000109  1
