# generated using pymatgen
data_Eu7ErP6
_symmetry_space_group_name_H-M   'P 1'
_cell_length_a   7.75617796
_cell_length_b   7.75617811
_cell_length_c   7.67787800
_cell_angle_alpha   109.26685218
_cell_angle_beta   109.26685256
_cell_angle_gamma   109.67481286
_symmetry_Int_Tables_number   1
_chemical_formula_structural   Eu7ErP6
_chemical_formula_sum   'Eu7 Er1 P6'
_cell_volume   356.45442907
_cell_formula_units_Z   1
loop_
 _symmetry_equiv_pos_site_id
 _symmetry_equiv_pos_as_xyz
  1  'x, y, z'
loop_
 _atom_site_type_symbol
 _atom_site_label
 _atom_site_symmetry_multiplicity
 _atom_site_fract_x
 _atom_site_fract_y
 _atom_site_fract_z
 _atom_site_occupancy
  Eu  Eu0  1  0.633528  0.634097  0.633051  1
  Eu  Eu1  1  0.003024  0.369989  0.500652  1
  Eu  Eu2  1  0.366965  0.496976  0.997628  1
  Eu  Eu3  1  0.000569  0.866472  0.499522  1
  Eu  Eu4  1  0.865903  0.499431  0.998954  1
  Eu  Eu5  1  0.500000  0.000000  0.868183  1
  Eu  Eu6  1  0.130011  0.133035  0.130664  1
  Er  Er7  1  0.500000  0.000000  0.373147  1
  P  P8  1  0.863016  0.121944  0.736935  1
  P  P9  1  0.378056  0.241072  0.614991  1
  P  P10  1  0.133725  0.755990  0.887356  1
  P  P11  1  0.744010  0.877735  0.131366  1
  P  P12  1  0.258928  0.636984  0.373919  1
  P  P13  1  0.622265  0.366275  0.253631  1
