# generated using pymatgen
data_Hf18TiFe2Mo7
_symmetry_space_group_name_H-M   'P 1'
_cell_length_a   8.36696900
_cell_length_b   8.71380845
_cell_length_c   8.71380887
_cell_angle_alpha   119.98936412
_cell_angle_beta   89.99906078
_cell_angle_gamma   90.00094038
_symmetry_Int_Tables_number   1
_chemical_formula_structural   Hf18TiFe2Mo7
_chemical_formula_sum   'Hf18 Ti1 Fe2 Mo7'
_cell_volume   550.25166524
_cell_formula_units_Z   1
loop_
 _symmetry_equiv_pos_site_id
 _symmetry_equiv_pos_as_xyz
  1  'x, y, z'
loop_
 _atom_site_type_symbol
 _atom_site_label
 _atom_site_symmetry_multiplicity
 _atom_site_fract_x
 _atom_site_fract_y
 _atom_site_fract_z
 _atom_site_occupancy
  Hf  Hf0  1  0.558375  0.797511  0.595020  1
  Hf  Hf1  1  0.558406  0.797505  0.202495  1
  Hf  Hf2  1  0.558375  0.404980  0.202489  1
  Hf  Hf3  1  0.441625  0.202489  0.404980  1
  Hf  Hf4  1  0.441594  0.202495  0.797505  1
  Hf  Hf5  1  0.441625  0.595020  0.797511  1
  Hf  Hf6  1  0.059566  0.202395  0.404797  1
  Hf  Hf7  1  0.059597  0.202408  0.797592  1
  Hf  Hf8  1  0.059566  0.595203  0.797605  1
  Hf  Hf9  1  0.940434  0.797605  0.595203  1
  Hf  Hf10  1  0.940403  0.797592  0.202408  1
  Hf  Hf11  1  0.940434  0.404797  0.202395  1
  Hf  Hf12  1  0.750214  0.458800  0.917651  1
  Hf  Hf13  1  0.750210  0.458822  0.541178  1
  Hf  Hf14  1  0.750214  0.082349  0.541200  1
  Hf  Hf15  1  0.249786  0.541200  0.082349  1
  Hf  Hf16  1  0.249790  0.541178  0.458822  1
  Hf  Hf17  1  0.249786  0.917651  0.458800  1
  Ti  Ti18  1  0.500000  0.000000  0.000000  1
  Fe  Fe19  1  0.750833  0.666639  0.333361  1
  Fe  Fe20  1  0.249167  0.333361  0.666639  1
  Mo  Mo21  1  0.749713  0.113345  0.226732  1
  Mo  Mo22  1  0.749717  0.113361  0.886639  1
  Mo  Mo23  1  0.749713  0.773268  0.886655  1
  Mo  Mo24  1  0.250287  0.886655  0.773268  1
  Mo  Mo25  1  0.250283  0.886639  0.113361  1
  Mo  Mo26  1  0.250287  0.226732  0.113345  1
  Mo  Mo27  1  0.000000  0.000000  0.000000  1
