# generated using pymatgen
data_TbDyHoTaO7
_symmetry_space_group_name_H-M   'P 1'
_cell_length_a   6.50575786
_cell_length_b   6.50575754
_cell_length_c   7.47896900
_cell_angle_alpha   89.97971570
_cell_angle_beta   89.97971118
_cell_angle_gamma   108.49844599
_symmetry_Int_Tables_number   1
_chemical_formula_structural   TbDyHoTaO7
_chemical_formula_sum   'Tb2 Dy2 Ho2 Ta2 O14'
_cell_volume   300.19119304
_cell_formula_units_Z   2
loop_
 _symmetry_equiv_pos_site_id
 _symmetry_equiv_pos_as_xyz
  1  'x, y, z'
loop_
 _atom_site_type_symbol
 _atom_site_label
 _atom_site_symmetry_multiplicity
 _atom_site_fract_x
 _atom_site_fract_y
 _atom_site_fract_z
 _atom_site_occupancy
  Tb  Tb0  1  0.461874  0.461393  0.000418  1
  Tb  Tb1  1  0.538607  0.538126  0.499582  1
  Dy  Dy2  1  0.999981  0.464754  0.740855  1
  Dy  Dy3  1  0.535246  0.000019  0.759145  1
  Ho  Ho4  1  0.000290  0.535305  0.240630  1
  Ho  Ho5  1  0.464695  0.999710  0.259370  1
  Ta  Ta6  1  0.002571  0.002651  0.499427  1
  Ta  Ta7  1  0.997349  0.997429  0.000573  1
  O  O8  1  0.931792  0.068208  0.750000  1
  O  O9  1  0.640528  0.359472  0.750000  1
  O  O10  1  0.306934  0.048225  0.544397  1
  O  O11  1  0.951775  0.693066  0.955603  1
  O  O12  1  0.630181  0.369819  0.250000  1
  O  O13  1  0.918098  0.671614  0.523418  1
  O  O14  1  0.328386  0.081902  0.976582  1
  O  O15  1  0.081621  0.328238  0.025066  1
  O  O16  1  0.671762  0.918379  0.474934  1
  O  O17  1  0.370357  0.629643  0.750000  1
  O  O18  1  0.694064  0.954329  0.046698  1
  O  O19  1  0.045671  0.305936  0.453302  1
  O  O20  1  0.358352  0.641648  0.250000  1
  O  O21  1  0.069868  0.930132  0.250000  1
