# generated using pymatgen
data_NaTc6SbO24
_symmetry_space_group_name_H-M   'P 1'
_cell_length_a   10.57898717
_cell_length_b   10.57898622
_cell_length_c   10.57898624
_cell_angle_alpha   48.98196487
_cell_angle_beta   48.98197568
_cell_angle_gamma   48.98197410
_symmetry_Int_Tables_number   1
_chemical_formula_structural   NaTc6SbO24
_chemical_formula_sum   'Na1 Tc6 Sb1 O24'
_cell_volume   618.82205607
_cell_formula_units_Z   1
loop_
 _symmetry_equiv_pos_site_id
 _symmetry_equiv_pos_as_xyz
  1  'x, y, z'
loop_
 _atom_site_type_symbol
 _atom_site_label
 _atom_site_symmetry_multiplicity
 _atom_site_fract_x
 _atom_site_fract_y
 _atom_site_fract_z
 _atom_site_occupancy
  Na  Na0  1  0.500000  0.500000  0.500000  1
  Tc  Tc1  1  0.595218  0.920376  0.238783  1
  Tc  Tc2  1  0.238783  0.595218  0.920376  1
  Tc  Tc3  1  0.920376  0.238783  0.595218  1
  Tc  Tc4  1  0.761217  0.404782  0.079624  1
  Tc  Tc5  1  0.079624  0.761217  0.404782  1
  Tc  Tc6  1  0.404782  0.079624  0.761217  1
  Sb  Sb7  1  0.000000  0.000000  0.000000  1
  O  O8  1  0.823636  0.884072  0.173289  1
  O  O9  1  0.173289  0.823636  0.884072  1
  O  O10  1  0.884072  0.173289  0.823636  1
  O  O11  1  0.700251  0.384926  0.285727  1
  O  O12  1  0.285727  0.700251  0.384926  1
  O  O13  1  0.384926  0.285727  0.700251  1
  O  O14  1  0.176364  0.115928  0.826711  1
  O  O15  1  0.826711  0.176364  0.115928  1
  O  O16  1  0.115928  0.826711  0.176364  1
  O  O17  1  0.299749  0.615074  0.714273  1
  O  O18  1  0.714273  0.299749  0.615074  1
  O  O19  1  0.615074  0.714273  0.299749  1
  O  O20  1  0.440441  0.981810  0.420724  1
  O  O21  1  0.420724  0.440441  0.981810  1
  O  O22  1  0.981810  0.420724  0.440441  1
  O  O23  1  0.936815  0.475642  0.919497  1
  O  O24  1  0.919497  0.936815  0.475642  1
  O  O25  1  0.475642  0.919497  0.936815  1
  O  O26  1  0.559559  0.018190  0.579276  1
  O  O27  1  0.579276  0.559559  0.018190  1
  O  O28  1  0.018190  0.579276  0.559559  1
  O  O29  1  0.063185  0.524358  0.080503  1
  O  O30  1  0.080503  0.063185  0.524358  1
  O  O31  1  0.524358  0.080503  0.063185  1
