# generated using pymatgen
data_Nd3ZnRh8
_symmetry_space_group_name_H-M   'P 1'
_cell_length_a   5.40604000
_cell_length_b   5.40603952
_cell_length_c   17.33044900
_cell_angle_alpha   90.00000000
_cell_angle_beta   90.00000000
_cell_angle_gamma   119.99999068
_symmetry_Int_Tables_number   1
_chemical_formula_structural   Nd3ZnRh8
_chemical_formula_sum   'Nd6 Zn2 Rh16'
_cell_volume   438.63063273
_cell_formula_units_Z   2
loop_
 _symmetry_equiv_pos_site_id
 _symmetry_equiv_pos_as_xyz
  1  'x, y, z'
loop_
 _atom_site_type_symbol
 _atom_site_label
 _atom_site_symmetry_multiplicity
 _atom_site_fract_x
 _atom_site_fract_y
 _atom_site_fract_z
 _atom_site_occupancy
  Nd  Nd0  1  0.333333  0.666667  0.540506  1
  Nd  Nd1  1  0.666667  0.333333  0.040506  1
  Nd  Nd2  1  0.666667  0.333333  0.459494  1
  Nd  Nd3  1  0.333333  0.666667  0.959494  1
  Nd  Nd4  1  0.333333  0.666667  0.750000  1
  Nd  Nd5  1  0.666667  0.333333  0.250000  1
  Zn  Zn6  1  0.000000  0.000000  0.250000  1
  Zn  Zn7  1  0.000000  0.000000  0.750000  1
  Rh  Rh8  1  0.167600  0.335199  0.126571  1
  Rh  Rh9  1  0.832400  0.664801  0.626571  1
  Rh  Rh10  1  0.664801  0.832400  0.126571  1
  Rh  Rh11  1  0.167600  0.832400  0.126571  1
  Rh  Rh12  1  0.832400  0.167600  0.626571  1
  Rh  Rh13  1  0.335199  0.167600  0.626571  1
  Rh  Rh14  1  0.832400  0.664801  0.873429  1
  Rh  Rh15  1  0.832400  0.167600  0.873429  1
  Rh  Rh16  1  0.335199  0.167600  0.873429  1
  Rh  Rh17  1  0.664801  0.832400  0.373429  1
  Rh  Rh18  1  0.167600  0.832400  0.373429  1
  Rh  Rh19  1  0.167600  0.335199  0.373429  1
  Rh  Rh20  1  0.333333  0.666667  0.250000  1
  Rh  Rh21  1  0.666667  0.333333  0.750000  1
  Rh  Rh22  1  0.000000  0.000000  0.000000  1
  Rh  Rh23  1  0.000000  0.000000  0.500000  1
