# generated using pymatgen
data_Tb15Dy(TmSn4)4
_symmetry_space_group_name_H-M   'P 1'
_cell_length_a   8.02485900
_cell_length_b   8.18720200
_cell_length_c   15.48699100
_cell_angle_alpha   90.00112218
_cell_angle_beta   90.00131538
_cell_angle_gamma   90.00250214
_symmetry_Int_Tables_number   1
_chemical_formula_structural   Tb15Dy(TmSn4)4
_chemical_formula_sum   'Tb15 Dy1 Tm4 Sn16'
_cell_volume   1017.51298878
_cell_formula_units_Z   1
loop_
 _symmetry_equiv_pos_site_id
 _symmetry_equiv_pos_as_xyz
  1  'x, y, z'
loop_
 _atom_site_type_symbol
 _atom_site_label
 _atom_site_symmetry_multiplicity
 _atom_site_fract_x
 _atom_site_fract_y
 _atom_site_fract_z
 _atom_site_occupancy
  Tb  Tb0  1  0.866921  0.662859  0.622047  1
  Tb  Tb1  1  0.633074  0.162857  0.377956  1
  Tb  Tb2  1  0.133074  0.337144  0.122039  1
  Tb  Tb3  1  0.633079  0.162866  0.122048  1
  Tb  Tb4  1  0.133073  0.337141  0.377956  1
  Tb  Tb5  1  0.366927  0.837140  0.622053  1
  Tb  Tb6  1  0.866931  0.662859  0.877957  1
  Tb  Tb7  1  0.519848  0.320446  0.902626  1
  Tb  Tb8  1  0.019850  0.179543  0.597376  1
  Tb  Tb9  1  0.480153  0.679546  0.402626  1
  Tb  Tb10  1  0.980148  0.820450  0.097376  1
  Tb  Tb11  1  0.480144  0.679550  0.097361  1
  Tb  Tb12  1  0.980152  0.820456  0.402624  1
  Tb  Tb13  1  0.519850  0.320457  0.597377  1
  Tb  Tb14  1  0.019861  0.179539  0.902623  1
  Dy  Dy15  1  0.366914  0.837147  0.877949  1
  Tm  Tm16  1  0.198337  0.502659  0.750010  1
  Tm  Tm17  1  0.698305  0.997356  0.750006  1
  Tm  Tm18  1  0.801676  0.497365  0.250000  1
  Tm  Tm19  1  0.301677  0.002634  0.249999  1
  Sn  Sn20  1  0.293096  0.035799  0.042541  1
  Sn  Sn21  1  0.793082  0.464162  0.457423  1
  Sn  Sn22  1  0.706921  0.964161  0.542577  1
  Sn  Sn23  1  0.206957  0.535899  0.957410  1
  Sn  Sn24  1  0.706857  0.964144  0.957414  1
  Sn  Sn25  1  0.206919  0.535839  0.542576  1
  Sn  Sn26  1  0.293081  0.035839  0.457422  1
  Sn  Sn27  1  0.793079  0.464161  0.042577  1
  Sn  Sn28  1  0.563779  0.618279  0.750016  1
  Sn  Sn29  1  0.063853  0.881748  0.750018  1
  Sn  Sn30  1  0.436187  0.381753  0.249998  1
  Sn  Sn31  1  0.936186  0.118247  0.249999  1
  Sn  Sn32  1  0.328886  0.148346  0.750016  1
  Sn  Sn33  1  0.828883  0.351615  0.750002  1
  Sn  Sn34  1  0.671123  0.851617  0.250000  1
  Sn  Sn35  1  0.171119  0.648379  0.250000  1
