# generated using pymatgen
data_Pr3NbIn2Ir3
_symmetry_space_group_name_H-M   'P 1'
_cell_length_a   7.50612848
_cell_length_b   7.23793942
_cell_length_c   4.35801200
_cell_angle_alpha   90.00000000
_cell_angle_beta   90.00000000
_cell_angle_gamma   118.82494621
_symmetry_Int_Tables_number   1
_chemical_formula_structural   Pr3NbIn2Ir3
_chemical_formula_sum   'Pr3 Nb1 In2 Ir3'
_cell_volume   207.42995636
_cell_formula_units_Z   1
loop_
 _symmetry_equiv_pos_site_id
 _symmetry_equiv_pos_as_xyz
  1  'x, y, z'
loop_
 _atom_site_type_symbol
 _atom_site_label
 _atom_site_symmetry_multiplicity
 _atom_site_fract_x
 _atom_site_fract_y
 _atom_site_fract_z
 _atom_site_occupancy
  Pr  Pr0  1  0.583357  0.584720  0.000000  1
  Pr  Pr1  1  0.416643  0.001363  0.000000  1
  Pr  Pr2  1  0.000000  0.402609  0.000000  1
  Nb  Nb3  1  0.000000  0.758563  0.500000  1
  In  In4  1  0.246094  0.246203  0.500000  1
  In  In5  1  0.753906  0.000108  0.500000  1
  Ir  Ir6  1  0.000000  0.957836  0.000000  1
  Ir  Ir7  1  0.693652  0.371125  0.500000  1
  Ir  Ir8  1  0.306348  0.677474  0.500000  1
