# generated using pymatgen
data_ThNp7(B6Ru)4
_symmetry_space_group_name_H-M   'P 1'
_cell_length_a   3.59488200
_cell_length_b   9.37729820
_cell_length_c   11.40715189
_cell_angle_alpha   90.09469384
_cell_angle_beta   90.00000000
_cell_angle_gamma   90.00000000
_symmetry_Int_Tables_number   1
_chemical_formula_structural   ThNp7(B6Ru)4
_chemical_formula_sum   'Th1 Np7 B24 Ru4'
_cell_volume   384.53776506
_cell_formula_units_Z   1
loop_
 _symmetry_equiv_pos_site_id
 _symmetry_equiv_pos_as_xyz
  1  'x, y, z'
loop_
 _atom_site_type_symbol
 _atom_site_label
 _atom_site_symmetry_multiplicity
 _atom_site_fract_x
 _atom_site_fract_y
 _atom_site_fract_z
 _atom_site_occupancy
  Th  Th0  1  0.000000  0.338239  0.407008  1
  Np  Np1  1  0.000000  0.662400  0.595144  1
  Np  Np2  1  0.000000  0.838255  0.092793  1
  Np  Np3  1  0.000000  0.162041  0.906597  1
  Np  Np4  1  0.000000  0.957404  0.401285  1
  Np  Np5  1  0.000000  0.038636  0.599954  1
  Np  Np6  1  0.000000  0.460357  0.097790  1
  Np  Np7  1  0.000000  0.540839  0.900544  1
  B  B8  1  0.500000  0.556558  0.432476  1
  B  B9  1  0.500000  0.449891  0.571293  1
  B  B10  1  0.500000  0.051649  0.067335  1
  B  B11  1  0.500000  0.947840  0.932030  1
  B  B12  1  0.500000  0.744460  0.423459  1
  B  B13  1  0.500000  0.254730  0.579075  1
  B  B14  1  0.500000  0.242441  0.075069  1
  B  B15  1  0.500000  0.757321  0.923381  1
  B  B16  1  0.500000  0.807304  0.273749  1
  B  B17  1  0.500000  0.193153  0.726782  1
  B  B18  1  0.500000  0.305340  0.222297  1
  B  B19  1  0.500000  0.693799  0.774708  1
  B  B20  1  0.500000  0.648832  0.187811  1
  B  B21  1  0.500000  0.352817  0.811427  1
  B  B22  1  0.500000  0.143969  0.310264  1
  B  B23  1  0.500000  0.852801  0.689164  1
  B  B24  1  0.500000  0.988436  0.219789  1
  B  B25  1  0.500000  0.010706  0.779763  1
  B  B26  1  0.500000  0.492579  0.276564  1
  B  B27  1  0.500000  0.511621  0.721880  1
  B  B28  1  0.500000  0.645308  0.039539  1
  B  B29  1  0.500000  0.355398  0.959451  1
  B  B30  1  0.500000  0.138781  0.461470  1
  B  B31  1  0.500000  0.854522  0.540808  1
  Ru  Ru32  1  0.000000  0.649212  0.318725  1
  Ru  Ru33  1  0.000000  0.353070  0.681314  1
  Ru  Ru34  1  0.000000  0.146556  0.179633  1
  Ru  Ru35  1  0.000000  0.852736  0.819631  1
