# generated using pymatgen
data_Lu6Al24NiRu7
_symmetry_space_group_name_H-M   'P 1'
_cell_length_a   8.71730764
_cell_length_b   8.75628989
_cell_length_c   9.51172609
_cell_angle_alpha   89.99999954
_cell_angle_beta   89.65678494
_cell_angle_gamma   120.14802493
_symmetry_Int_Tables_number   1
_chemical_formula_structural   Lu6Al24NiRu7
_chemical_formula_sum   'Lu6 Al24 Ni1 Ru7'
_cell_volume   627.81591955
_cell_formula_units_Z   1
loop_
 _symmetry_equiv_pos_site_id
 _symmetry_equiv_pos_as_xyz
  1  'x, y, z'
loop_
 _atom_site_type_symbol
 _atom_site_label
 _atom_site_symmetry_multiplicity
 _atom_site_fract_x
 _atom_site_fract_y
 _atom_site_fract_z
 _atom_site_occupancy
  Lu  Lu0  1  0.802190  0.611199  0.748931  1
  Lu  Lu1  1  0.197810  0.809010  0.251069  1
  Lu  Lu2  1  0.608268  0.804135  0.249594  1
  Lu  Lu3  1  0.391732  0.195865  0.750406  1
  Lu  Lu4  1  0.802190  0.190990  0.748931  1
  Lu  Lu5  1  0.197810  0.388801  0.251069  1
  Al  Al6  1  0.332873  0.666436  0.480078  1
  Al  Al7  1  0.669833  0.334917  0.978872  1
  Al  Al8  1  0.667127  0.333564  0.519922  1
  Al  Al9  1  0.330167  0.665083  0.021128  1
  Al  Al10  1  0.161111  0.325438  0.578738  1
  Al  Al11  1  0.673479  0.836740  0.578049  1
  Al  Al12  1  0.161111  0.835673  0.578738  1
  Al  Al13  1  0.837663  0.163239  0.078231  1
  Al  Al14  1  0.838889  0.164327  0.421262  1
  Al  Al15  1  0.837663  0.674424  0.078231  1
  Al  Al16  1  0.326825  0.163413  0.078278  1
  Al  Al17  1  0.673175  0.836587  0.921722  1
  Al  Al18  1  0.162337  0.325576  0.921769  1
  Al  Al19  1  0.838889  0.674562  0.421262  1
  Al  Al20  1  0.000820  0.000411  0.250055  1
  Al  Al21  1  0.999180  0.999589  0.749945  1
  Al  Al22  1  0.562873  0.123330  0.249333  1
  Al  Al23  1  0.437127  0.560457  0.750667  1
  Al  Al24  1  0.118128  0.559064  0.752958  1
  Al  Al25  1  0.881872  0.440936  0.247042  1
  Al  Al26  1  0.562873  0.439543  0.249333  1
  Al  Al27  1  0.437127  0.876670  0.750667  1
  Al  Al28  1  0.162337  0.836761  0.921769  1
  Al  Al29  1  0.326521  0.163260  0.421951  1
  Ni  Ni30  1  0.000000  0.500000  0.000000  1
  Ru  Ru31  1  0.000000  0.000000  0.500000  1
  Ru  Ru32  1  0.000000  0.000000  0.000000  1
  Ru  Ru33  1  0.500000  0.000000  0.500000  1
  Ru  Ru34  1  0.500000  0.500000  0.000000  1
  Ru  Ru35  1  0.000000  0.500000  0.500000  1
  Ru  Ru36  1  0.500000  0.500000  0.500000  1
  Ru  Ru37  1  0.500000  0.000000  0.000000  1
