# generated using pymatgen
data_Ho2Er(Ga2Ni3)3
_symmetry_space_group_name_H-M   'P 1'
_cell_length_a   8.73646200
_cell_length_b   8.73646234
_cell_length_c   4.08201000
_cell_angle_alpha   90.00000000
_cell_angle_beta   90.00000000
_cell_angle_gamma   119.99999114
_symmetry_Int_Tables_number   1
_chemical_formula_structural   Ho2Er(Ga2Ni3)3
_chemical_formula_sum   'Ho2 Er1 Ga6 Ni9'
_cell_volume   269.82111717
_cell_formula_units_Z   1
loop_
 _symmetry_equiv_pos_site_id
 _symmetry_equiv_pos_as_xyz
  1  'x, y, z'
loop_
 _atom_site_type_symbol
 _atom_site_label
 _atom_site_symmetry_multiplicity
 _atom_site_fract_x
 _atom_site_fract_y
 _atom_site_fract_z
 _atom_site_occupancy
  Ho  Ho0  1  0.666667  0.333333  0.500000  1
  Ho  Ho1  1  0.333333  0.666667  0.500000  1
  Er  Er2  1  0.000000  0.000000  0.000000  1
  Ga  Ga3  1  0.483617  0.483617  0.000000  1
  Ga  Ga4  1  0.516383  0.000000  0.000000  1
  Ga  Ga5  1  0.000000  0.516383  0.000000  1
  Ga  Ga6  1  0.729255  0.729255  0.500000  1
  Ga  Ga7  1  0.270745  0.000000  0.500000  1
  Ga  Ga8  1  0.000000  0.270745  0.500000  1
  Ni  Ni9  1  0.824489  0.196479  0.000000  1
  Ni  Ni10  1  0.803521  0.628010  0.000000  1
  Ni  Ni11  1  0.371990  0.175511  0.000000  1
  Ni  Ni12  1  0.196479  0.824489  0.000000  1
  Ni  Ni13  1  0.628010  0.803521  0.000000  1
  Ni  Ni14  1  0.175511  0.371990  0.000000  1
  Ni  Ni15  1  0.294759  0.294759  0.500000  1
  Ni  Ni16  1  0.705241  0.000000  0.500000  1
  Ni  Ni17  1  0.000000  0.705241  0.500000  1
