# generated using pymatgen
data_Ta5Ti7Al8(PdC)4
_symmetry_space_group_name_H-M   'P 1'
_cell_length_a   8.28394457
_cell_length_b   8.28043805
_cell_length_c   8.28732075
_cell_angle_alpha   60.00985578
_cell_angle_beta   59.85486897
_cell_angle_gamma   60.03651615
_symmetry_Int_Tables_number   1
_chemical_formula_structural   Ta5Ti7Al8(PdC)4
_chemical_formula_sum   'Ta5 Ti7 Al8 Pd4 C4'
_cell_volume   401.66386955
_cell_formula_units_Z   1
loop_
 _symmetry_equiv_pos_site_id
 _symmetry_equiv_pos_as_xyz
  1  'x, y, z'
loop_
 _atom_site_type_symbol
 _atom_site_label
 _atom_site_symmetry_multiplicity
 _atom_site_fract_x
 _atom_site_fract_y
 _atom_site_fract_z
 _atom_site_occupancy
  Ta  Ta0  1  0.934105  0.932843  0.566410  1
  Ta  Ta1  1  0.685806  0.316809  0.315330  1
  Ta  Ta2  1  0.315437  0.683559  0.684345  1
  Ta  Ta3  1  0.683415  0.681283  0.317163  1
  Ta  Ta4  1  0.684069  0.316677  0.682554  1
  Ti  Ti5  1  0.316151  0.684673  0.315685  1
  Ti  Ti6  1  0.567139  0.934412  0.564303  1
  Ti  Ti7  1  0.567300  0.933547  0.934248  1
  Ti  Ti8  1  0.934876  0.567676  0.564582  1
  Ti  Ti9  1  0.934435  0.567029  0.934127  1
  Ti  Ti10  1  0.315173  0.316432  0.685359  1
  Ti  Ti11  1  0.565300  0.565735  0.935225  1
  Al  Al12  1  0.915157  0.255832  0.914685  1
  Al  Al13  1  0.333431  0.332770  0.998009  1
  Al  Al14  1  0.000665  0.333382  0.333191  1
  Al  Al15  1  0.333439  0.336082  0.335628  1
  Al  Al16  1  0.255194  0.915488  0.914700  1
  Al  Al17  1  0.914394  0.914363  0.917317  1
  Al  Al18  1  0.914504  0.914547  0.253323  1
  Al  Al19  1  0.333666  0.996938  0.333231  1
  Pd  Pd20  1  0.125485  0.624926  0.124368  1
  Pd  Pd21  1  0.124845  0.124770  0.625431  1
  Pd  Pd22  1  0.624005  0.125636  0.125300  1
  Pd  Pd23  1  0.123955  0.124433  0.125262  1
  C  C24  1  0.619614  0.124203  0.627811  1
  C  C25  1  0.623793  0.627893  0.120846  1
  C  C26  1  0.127308  0.620374  0.624149  1
  C  C27  1  0.627342  0.627688  0.627418  1
