# generated using pymatgen
data_Eu9Lu(Pb3Cl)2
_symmetry_space_group_name_H-M   'P 1'
_cell_length_a   9.67255300
_cell_length_b   9.67255308
_cell_length_c   7.05487200
_cell_angle_alpha   90.00000000
_cell_angle_beta   90.00000000
_cell_angle_gamma   119.99999630
_symmetry_Int_Tables_number   1
_chemical_formula_structural   Eu9Lu(Pb3Cl)2
_chemical_formula_sum   'Eu9 Lu1 Pb6 Cl2'
_cell_volume   571.61290655
_cell_formula_units_Z   1
loop_
 _symmetry_equiv_pos_site_id
 _symmetry_equiv_pos_as_xyz
  1  'x, y, z'
loop_
 _atom_site_type_symbol
 _atom_site_label
 _atom_site_symmetry_multiplicity
 _atom_site_fract_x
 _atom_site_fract_y
 _atom_site_fract_z
 _atom_site_occupancy
  Eu  Eu0  1  0.252723  0.999937  0.246012  1
  Eu  Eu1  1  0.747214  0.999937  0.753988  1
  Eu  Eu2  1  0.000063  0.252786  0.246012  1
  Eu  Eu3  1  0.000063  0.747277  0.753988  1
  Eu  Eu4  1  0.747214  0.747277  0.246012  1
  Eu  Eu5  1  0.252723  0.252786  0.753988  1
  Eu  Eu6  1  0.666667  0.333333  0.000000  1
  Eu  Eu7  1  0.666667  0.333333  0.500000  1
  Eu  Eu8  1  0.333333  0.666667  0.500000  1
  Lu  Lu9  1  0.333333  0.666667  0.000000  1
  Pb  Pb10  1  0.588779  0.990981  0.236869  1
  Pb  Pb11  1  0.402202  0.990981  0.763131  1
  Pb  Pb12  1  0.009019  0.597798  0.236869  1
  Pb  Pb13  1  0.009019  0.411221  0.763131  1
  Pb  Pb14  1  0.402202  0.411221  0.236869  1
  Pb  Pb15  1  0.588779  0.597798  0.763131  1
  Cl  Cl16  1  0.000000  0.000000  0.000000  1
  Cl  Cl17  1  0.000000  0.000000  0.500000  1
