# generated using pymatgen
data_Er2Lu3Os2
_symmetry_space_group_name_H-M   'P 1'
_cell_length_a   6.24099242
_cell_length_b   7.32133827
_cell_length_c   8.24934169
_cell_angle_alpha   97.08164252
_cell_angle_beta   112.22669233
_cell_angle_gamma   89.99999950
_symmetry_Int_Tables_number   1
_chemical_formula_structural   Er2Lu3Os2
_chemical_formula_sum   'Er4 Lu6 Os4'
_cell_volume   345.81595506
_cell_formula_units_Z   2
loop_
 _symmetry_equiv_pos_site_id
 _symmetry_equiv_pos_as_xyz
  1  'x, y, z'
loop_
 _atom_site_type_symbol
 _atom_site_label
 _atom_site_symmetry_multiplicity
 _atom_site_fract_x
 _atom_site_fract_y
 _atom_site_fract_z
 _atom_site_occupancy
  Er  Er0  1  0.527701  0.082021  0.817648  1
  Er  Er1  1  0.472299  0.917979  0.182352  1
  Er  Er2  1  0.710052  0.417979  0.182352  1
  Er  Er3  1  0.289948  0.582021  0.817648  1
  Lu  Lu4  1  0.296958  0.318840  0.436634  1
  Lu  Lu5  1  0.703042  0.681160  0.563366  1
  Lu  Lu6  1  0.860324  0.181160  0.563366  1
  Lu  Lu7  1  0.139676  0.818840  0.436634  1
  Lu  Lu8  1  0.081668  0.250000  0.000000  1
  Lu  Lu9  1  0.918332  0.750000  0.000000  1
  Os  Os10  1  0.320076  0.578919  0.219838  1
  Os  Os11  1  0.679924  0.421081  0.780162  1
  Os  Os12  1  0.100238  0.921081  0.780162  1
  Os  Os13  1  0.899762  0.078919  0.219838  1
