# generated using pymatgen
data_Sc6Zn20GePd3
_symmetry_space_group_name_H-M   'P 1'
_cell_length_a   8.81658271
_cell_length_b   8.81658201
_cell_length_c   8.84066100
_cell_angle_alpha   59.90962593
_cell_angle_beta   59.90962856
_cell_angle_gamma   60.18076954
_symmetry_Int_Tables_number   1
_chemical_formula_structural   Sc6Zn20GePd3
_chemical_formula_sum   'Sc6 Zn20 Ge1 Pd3'
_cell_volume   485.91897728
_cell_formula_units_Z   1
loop_
 _symmetry_equiv_pos_site_id
 _symmetry_equiv_pos_as_xyz
  1  'x, y, z'
loop_
 _atom_site_type_symbol
 _atom_site_label
 _atom_site_symmetry_multiplicity
 _atom_site_fract_x
 _atom_site_fract_y
 _atom_site_fract_z
 _atom_site_occupancy
  Sc  Sc0  1  0.714543  0.285457  0.285457  1
  Sc  Sc1  1  0.285457  0.714543  0.714543  1
  Sc  Sc2  1  0.285457  0.714543  0.285457  1
  Sc  Sc3  1  0.714543  0.285457  0.714543  1
  Sc  Sc4  1  0.281507  0.281507  0.718493  1
  Sc  Sc5  1  0.718493  0.718493  0.281507  1
  Zn  Zn6  1  0.120160  0.120160  0.126883  1
  Zn  Zn7  1  0.879840  0.879840  0.873117  1
  Zn  Zn8  1  0.120160  0.120160  0.632798  1
  Zn  Zn9  1  0.126883  0.632798  0.120160  1
  Zn  Zn10  1  0.879840  0.879840  0.367202  1
  Zn  Zn11  1  0.873117  0.367202  0.879840  1
  Zn  Zn12  1  0.632798  0.126883  0.120160  1
  Zn  Zn13  1  0.367202  0.873117  0.879840  1
  Zn  Zn14  1  0.500000  0.000000  0.000000  1
  Zn  Zn15  1  0.000000  0.500000  0.500000  1
  Zn  Zn16  1  0.000000  0.500000  0.000000  1
  Zn  Zn17  1  0.500000  0.000000  0.500000  1
  Zn  Zn18  1  0.335845  0.335845  0.339900  1
  Zn  Zn19  1  0.664155  0.664155  0.660100  1
  Zn  Zn20  1  0.335845  0.335845  0.988412  1
  Zn  Zn21  1  0.339900  0.988412  0.335845  1
  Zn  Zn22  1  0.664155  0.664155  0.011588  1
  Zn  Zn23  1  0.660100  0.011588  0.664155  1
  Zn  Zn24  1  0.988412  0.339900  0.335845  1
  Zn  Zn25  1  0.011588  0.660100  0.664155  1
  Ge  Ge26  1  0.500000  0.500000  0.500000  1
  Pd  Pd27  1  0.000000  0.000000  0.500000  1
  Pd  Pd28  1  0.500000  0.500000  0.000000  1
  Pd  Pd29  1  0.000000  0.000000  0.000000  1
