# generated using pymatgen
data_HoEr3MoOsC4
_symmetry_space_group_name_H-M   'P 1'
_cell_length_a   5.05742700
_cell_length_b   6.55897229
_cell_length_c   9.83585404
_cell_angle_alpha   89.10290121
_cell_angle_beta   90.00000000
_cell_angle_gamma   90.00000000
_symmetry_Int_Tables_number   1
_chemical_formula_structural   HoEr3MoOsC4
_chemical_formula_sum   'Ho2 Er6 Mo2 Os2 C8'
_cell_volume   326.23027152
_cell_formula_units_Z   2
loop_
 _symmetry_equiv_pos_site_id
 _symmetry_equiv_pos_as_xyz
  1  'x, y, z'
loop_
 _atom_site_type_symbol
 _atom_site_label
 _atom_site_symmetry_multiplicity
 _atom_site_fract_x
 _atom_site_fract_y
 _atom_site_fract_z
 _atom_site_occupancy
  Ho  Ho0  1  0.750000  0.968775  0.716722  1
  Ho  Ho1  1  0.250000  0.031225  0.283278  1
  Er  Er2  1  0.250000  0.678312  0.558077  1
  Er  Er3  1  0.750000  0.321688  0.441923  1
  Er  Er4  1  0.750000  0.824787  0.058441  1
  Er  Er5  1  0.250000  0.175213  0.941559  1
  Er  Er6  1  0.250000  0.537732  0.219147  1
  Er  Er7  1  0.750000  0.462268  0.780853  1
  Mo  Mo8  1  0.250000  0.715870  0.868555  1
  Mo  Mo9  1  0.750000  0.284130  0.131445  1
  Os  Os10  1  0.750000  0.779527  0.367662  1
  Os  Os11  1  0.250000  0.220473  0.632338  1
  C  C12  1  0.250000  0.449220  0.757306  1
  C  C13  1  0.750000  0.550780  0.242694  1
  C  C14  1  0.750000  0.046616  0.260292  1
  C  C15  1  0.250000  0.953384  0.739708  1
  C  C16  1  0.250000  0.824778  0.053899  1
  C  C17  1  0.750000  0.175222  0.946101  1
  C  C18  1  0.750000  0.674629  0.550907  1
  C  C19  1  0.250000  0.325371  0.449093  1
