# generated using pymatgen
data_Ta9NbO25
_symmetry_space_group_name_H-M   'P 1'
_cell_length_a   3.85436738
_cell_length_b   11.48503770
_cell_length_c   11.48503872
_cell_angle_alpha   88.38652605
_cell_angle_beta   80.34009982
_cell_angle_gamma   80.34009799
_symmetry_Int_Tables_number   1
_chemical_formula_structural   Ta9NbO25
_chemical_formula_sum   'Ta9 Nb1 O25'
_cell_volume   494.09931901
_cell_formula_units_Z   1
loop_
 _symmetry_equiv_pos_site_id
 _symmetry_equiv_pos_as_xyz
  1  'x, y, z'
loop_
 _atom_site_type_symbol
 _atom_site_label
 _atom_site_symmetry_multiplicity
 _atom_site_fract_x
 _atom_site_fract_y
 _atom_site_fract_z
 _atom_site_occupancy
  Ta  Ta0  1  0.778756  0.119522  0.320302  1
  Ta  Ta1  1  0.872175  0.801474  0.440780  1
  Ta  Ta2  1  0.114430  0.198526  0.559219  1
  Ta  Ta3  1  0.687046  0.440781  0.198526  1
  Ta  Ta4  1  0.326353  0.559219  0.801474  1
  Ta  Ta5  1  0.900942  0.320301  0.880477  1
  Ta  Ta6  1  0.101720  0.679699  0.119523  1
  Ta  Ta7  1  0.218583  0.880478  0.679698  1
  Ta  Ta8  1  0.000000  0.000000  0.000000  1
  Nb  Nb9  1  0.250000  0.500000  0.500000  1
  O  O10  1  0.915021  0.638872  0.515674  1
  O  O11  1  0.569305  0.515674  0.361128  1
  O  O12  1  0.446107  0.484326  0.638872  1
  O  O13  1  0.069569  0.361128  0.484326  1
  O  O14  1  0.500000  0.000000  0.000000  1
  O  O15  1  0.247046  0.139282  0.363635  1
  O  O16  1  0.389320  0.363636  0.860718  1
  O  O17  1  0.613673  0.636364  0.139282  1
  O  O18  1  0.749962  0.860718  0.636364  1
  O  O19  1  0.822957  0.963310  0.389944  1
  O  O20  1  0.984724  0.736785  0.290302  1
  O  O21  1  0.724973  0.290303  0.263215  1
  O  O22  1  0.278491  0.709697  0.736785  1
  O  O23  1  0.011813  0.263215  0.709697  1
  O  O24  1  0.948872  0.166528  0.936121  1
  O  O25  1  0.115008  0.936121  0.833472  1
  O  O26  1  0.884600  0.063879  0.166528  1
  O  O27  1  0.787097  0.389944  0.036690  1
  O  O28  1  0.345896  0.811754  0.488784  1
  O  O29  1  0.165320  0.488784  0.188246  1
  O  O30  1  0.842351  0.511216  0.811753  1
  O  O31  1  0.646434  0.188246  0.511216  1
  O  O32  1  0.176212  0.036690  0.610056  1
  O  O33  1  0.213732  0.610056  0.963310  1
  O  O34  1  0.051520  0.833472  0.063879  1
