# generated using pymatgen
data_Ca3Si3Ag
_symmetry_space_group_name_H-M   'P 1'
_cell_length_a   5.76001637
_cell_length_b   5.76001592
_cell_length_c   13.96236800
_cell_angle_alpha   70.57085274
_cell_angle_beta   70.57085433
_cell_angle_gamma   45.08919919
_symmetry_Int_Tables_number   1
_chemical_formula_structural   Ca3Si3Ag
_chemical_formula_sum   'Ca6 Si6 Ag2'
_cell_volume   306.05289756
_cell_formula_units_Z   2
loop_
 _symmetry_equiv_pos_site_id
 _symmetry_equiv_pos_as_xyz
  1  'x, y, z'
loop_
 _atom_site_type_symbol
 _atom_site_label
 _atom_site_symmetry_multiplicity
 _atom_site_fract_x
 _atom_site_fract_y
 _atom_site_fract_z
 _atom_site_occupancy
  Ca  Ca0  1  0.604175  0.604175  0.076205  1
  Ca  Ca1  1  0.395825  0.395825  0.923795  1
  Ca  Ca2  1  0.532321  0.532321  0.623402  1
  Ca  Ca3  1  0.467679  0.467679  0.376598  1
  Ca  Ca4  1  0.257682  0.257682  0.225023  1
  Ca  Ca5  1  0.742318  0.742318  0.774977  1
  Si  Si6  1  0.963476  0.963476  0.225198  1
  Si  Si7  1  0.036524  0.036524  0.774802  1
  Si  Si8  1  0.882305  0.882305  0.543068  1
  Si  Si9  1  0.117695  0.117695  0.456932  1
  Si  Si10  1  0.101169  0.101169  0.924750  1
  Si  Si11  1  0.898831  0.898831  0.075250  1
  Ag  Ag12  1  0.752554  0.752554  0.398669  1
  Ag  Ag13  1  0.247446  0.247446  0.601331  1
