# generated using pymatgen
data_Dy3Er7In6
_symmetry_space_group_name_H-M   'P 1'
_cell_length_a   9.10744226
_cell_length_b   9.10744219
_cell_length_c   9.10515504
_cell_angle_alpha   96.39050962
_cell_angle_beta   96.42637315
_cell_angle_gamma   140.97083247
_symmetry_Int_Tables_number   1
_chemical_formula_structural   Dy3Er7In6
_chemical_formula_sum   'Dy3 Er7 In6'
_cell_volume   448.24815266
_cell_formula_units_Z   1
loop_
 _symmetry_equiv_pos_site_id
 _symmetry_equiv_pos_as_xyz
  1  'x, y, z'
loop_
 _atom_site_type_symbol
 _atom_site_label
 _atom_site_symmetry_multiplicity
 _atom_site_fract_x
 _atom_site_fract_y
 _atom_site_fract_z
 _atom_site_occupancy
  Dy  Dy0  1  0.781747  0.918301  0.700049  1
  Dy  Dy1  1  0.417749  0.281963  0.699713  1
  Dy  Dy2  1  0.082618  0.782099  0.864717  1
  Er  Er3  1  0.717846  0.418404  0.136250  1
  Er  Er4  1  0.282573  0.582089  0.864662  1
  Er  Er5  1  0.582103  0.717642  0.299744  1
  Er  Er6  1  0.217533  0.082091  0.299624  1
  Er  Er7  1  0.917821  0.217838  0.135658  1
  Er  Er8  1  0.749863  0.249698  0.499525  1
  Er  Er9  1  0.249827  0.749661  0.499525  1
  In  In10  1  0.837938  0.660691  0.498629  1
  In  In11  1  0.338684  0.838206  0.176890  1
  In  In12  1  0.750324  0.750783  0.001233  1
  In  In13  1  0.662004  0.161587  0.823591  1
  In  In14  1  0.160921  0.338037  0.498958  1
  In  In15  1  0.250450  0.250908  0.001233  1
