# generated using pymatgen
data_LiGd4Ho3(ReB6)4
_symmetry_space_group_name_H-M   'P 1'
_cell_length_a   3.65680200
_cell_length_b   9.13064105
_cell_length_c   11.51495406
_cell_angle_alpha   89.98787905
_cell_angle_beta   90.00000000
_cell_angle_gamma   90.00000000
_symmetry_Int_Tables_number   1
_chemical_formula_structural   LiGd4Ho3(ReB6)4
_chemical_formula_sum   'Li1 Gd4 Ho3 Re4 B24'
_cell_volume   384.47217611
_cell_formula_units_Z   1
loop_
 _symmetry_equiv_pos_site_id
 _symmetry_equiv_pos_as_xyz
  1  'x, y, z'
loop_
 _atom_site_type_symbol
 _atom_site_label
 _atom_site_symmetry_multiplicity
 _atom_site_fract_x
 _atom_site_fract_y
 _atom_site_fract_z
 _atom_site_occupancy
  Li  Li0  1  0.000000  0.943787  0.370953  1
  Gd  Gd1  1  0.000000  0.321593  0.413089  1
  Gd  Gd2  1  0.000000  0.679129  0.584320  1
  Gd  Gd3  1  0.000000  0.824221  0.089951  1
  Gd  Gd4  1  0.000000  0.176532  0.915745  1
  Ho  Ho5  1  0.000000  0.055136  0.625584  1
  Ho  Ho6  1  0.000000  0.442227  0.132023  1
  Ho  Ho7  1  0.000000  0.556416  0.870291  1
  Re  Re8  1  0.000000  0.644923  0.322206  1
  Re  Re9  1  0.000000  0.360038  0.678049  1
  Re  Re10  1  0.000000  0.135000  0.185717  1
  Re  Re11  1  0.000000  0.860758  0.818811  1
  B  B12  1  0.500000  0.556482  0.432849  1
  B  B13  1  0.500000  0.447618  0.566812  1
  B  B14  1  0.500000  0.053313  0.068442  1
  B  B15  1  0.500000  0.946704  0.932499  1
  B  B16  1  0.500000  0.757050  0.416794  1
  B  B17  1  0.500000  0.250144  0.581312  1
  B  B18  1  0.500000  0.248727  0.083093  1
  B  B19  1  0.500000  0.750879  0.918351  1
  B  B20  1  0.500000  0.796099  0.265091  1
  B  B21  1  0.500000  0.206923  0.734141  1
  B  B22  1  0.500000  0.290415  0.236812  1
  B  B23  1  0.500000  0.707889  0.764710  1
  B  B24  1  0.500000  0.632340  0.185952  1
  B  B25  1  0.500000  0.368899  0.814234  1
  B  B26  1  0.500000  0.124679  0.317377  1
  B  B27  1  0.500000  0.869962  0.684558  1
  B  B28  1  0.500000  0.979643  0.213999  1
  B  B29  1  0.500000  0.018227  0.786645  1
  B  B30  1  0.500000  0.483124  0.288998  1
  B  B31  1  0.500000  0.517415  0.712031  1
  B  B32  1  0.500000  0.599423  0.028192  1
  B  B33  1  0.500000  0.400571  0.973448  1
  B  B34  1  0.500000  0.089016  0.467884  1
  B  B35  1  0.500000  0.904698  0.519035  1
