# generated using pymatgen
data_DyEr3(Si2Rh)2
_symmetry_space_group_name_H-M   'P 1'
_cell_length_a   5.65996544
_cell_length_b   5.65996610
_cell_length_c   10.01086280
_cell_angle_alpha   63.73574245
_cell_angle_beta   63.73573815
_cell_angle_gamma   43.40789382
_symmetry_Int_Tables_number   1
_chemical_formula_structural   DyEr3(Si2Rh)2
_chemical_formula_sum   'Dy1 Er3 Si4 Rh2'
_cell_volume   193.78016349
_cell_formula_units_Z   1
loop_
 _symmetry_equiv_pos_site_id
 _symmetry_equiv_pos_as_xyz
  1  'x, y, z'
loop_
 _atom_site_type_symbol
 _atom_site_label
 _atom_site_symmetry_multiplicity
 _atom_site_fract_x
 _atom_site_fract_y
 _atom_site_fract_z
 _atom_site_occupancy
  Dy  Dy0  1  0.814434  0.814434  0.108865  1
  Er  Er1  1  0.000334  0.000334  0.325983  1
  Er  Er2  1  0.185280  0.185280  0.889621  1
  Er  Er3  1  0.998692  0.998692  0.674620  1
  Si  Si4  1  0.361484  0.361484  0.565551  1
  Si  Si5  1  0.488985  0.488985  0.878566  1
  Si  Si6  1  0.638220  0.638220  0.435506  1
  Si  Si7  1  0.512453  0.512453  0.120173  1
  Rh  Rh8  1  0.725912  0.725912  0.628767  1
  Rh  Rh9  1  0.274205  0.274205  0.372347  1
