# generated using pymatgen
data_Li6TcN4
_symmetry_space_group_name_H-M   'P 1'
_cell_length_a   6.67140000
_cell_length_b   6.67140000
_cell_length_c   4.89990800
_cell_angle_alpha   90.00000000
_cell_angle_beta   90.00000000
_cell_angle_gamma   90.00000000
_symmetry_Int_Tables_number   1
_chemical_formula_structural   Li6TcN4
_chemical_formula_sum   'Li12 Tc2 N8'
_cell_volume   218.08303731
_cell_formula_units_Z   2
loop_
 _symmetry_equiv_pos_site_id
 _symmetry_equiv_pos_as_xyz
  1  'x, y, z'
loop_
 _atom_site_type_symbol
 _atom_site_label
 _atom_site_symmetry_multiplicity
 _atom_site_fract_x
 _atom_site_fract_y
 _atom_site_fract_z
 _atom_site_occupancy
  Li  Li0  1  0.000000  0.500000  0.599343  1
  Li  Li1  1  0.500000  0.000000  0.900657  1
  Li  Li2  1  0.500000  0.000000  0.400657  1
  Li  Li3  1  0.000000  0.500000  0.099343  1
  Li  Li4  1  0.213448  0.213448  0.500000  1
  Li  Li5  1  0.786552  0.786552  0.500000  1
  Li  Li6  1  0.713448  0.713448  0.000000  1
  Li  Li7  1  0.286552  0.286552  0.000000  1
  Li  Li8  1  0.786552  0.213448  0.500000  1
  Li  Li9  1  0.213448  0.786552  0.500000  1
  Li  Li10  1  0.286552  0.713448  0.000000  1
  Li  Li11  1  0.713448  0.286552  0.000000  1
  Tc  Tc12  1  0.500000  0.500000  0.500000  1
  Tc  Tc13  1  0.000000  0.000000  0.000000  1
  N  N14  1  0.254029  0.500000  0.311186  1
  N  N15  1  0.745971  0.500000  0.311186  1
  N  N16  1  0.754029  0.000000  0.188814  1
  N  N17  1  0.245971  0.000000  0.188814  1
  N  N18  1  0.500000  0.254029  0.688814  1
  N  N19  1  0.500000  0.745971  0.688814  1
  N  N20  1  0.000000  0.754029  0.811186  1
  N  N21  1  0.000000  0.245971  0.811186  1
