# generated using pymatgen
data_Eu2HoThPt4
_symmetry_space_group_name_H-M   'P 1'
_cell_length_a   4.52195100
_cell_length_b   5.77940648
_cell_length_c   7.48298402
_cell_angle_alpha   90.23001959
_cell_angle_beta   90.00000000
_cell_angle_gamma   90.00000000
_symmetry_Int_Tables_number   1
_chemical_formula_structural   Eu2HoThPt4
_chemical_formula_sum   'Eu2 Ho1 Th1 Pt4'
_cell_volume   195.56017222
_cell_formula_units_Z   1
loop_
 _symmetry_equiv_pos_site_id
 _symmetry_equiv_pos_as_xyz
  1  'x, y, z'
loop_
 _atom_site_type_symbol
 _atom_site_label
 _atom_site_symmetry_multiplicity
 _atom_site_fract_x
 _atom_site_fract_y
 _atom_site_fract_z
 _atom_site_occupancy
  Eu  Eu0  1  0.250000  0.140143  0.180994  1
  Eu  Eu1  1  0.750000  0.643939  0.314313  1
  Ho  Ho2  1  0.750000  0.860961  0.821753  1
  Th  Th3  1  0.250000  0.360287  0.682543  1
  Pt  Pt4  1  0.250000  0.843829  0.568543  1
  Pt  Pt5  1  0.250000  0.651998  0.019147  1
  Pt  Pt6  1  0.750000  0.153727  0.476925  1
  Pt  Pt7  1  0.750000  0.345117  0.935783  1
