# generated using pymatgen
data_Pm4Tc3(TeO8)3
_symmetry_space_group_name_H-M   'P 1'
_cell_length_a   7.14480901
_cell_length_b   7.03629365
_cell_length_c   11.70803003
_cell_angle_alpha   78.37363143
_cell_angle_beta   78.16615922
_cell_angle_gamma   111.25215056
_symmetry_Int_Tables_number   1
_chemical_formula_structural   Pm4Tc3(TeO8)3
_chemical_formula_sum   'Pm4 Tc3 Te3 O24'
_cell_volume   511.76961453
_cell_formula_units_Z   1
loop_
 _symmetry_equiv_pos_site_id
 _symmetry_equiv_pos_as_xyz
  1  'x, y, z'
loop_
 _atom_site_type_symbol
 _atom_site_label
 _atom_site_symmetry_multiplicity
 _atom_site_fract_x
 _atom_site_fract_y
 _atom_site_fract_z
 _atom_site_occupancy
  Pm  Pm0  1  0.184792  0.457398  0.591115  1
  Pm  Pm1  1  0.826053  0.574311  0.406965  1
  Pm  Pm2  1  0.571296  0.813414  0.904939  1
  Pm  Pm3  1  0.429142  0.182969  0.101618  1
  Tc  Tc4  1  0.300927  0.003250  0.462460  1
  Tc  Tc5  1  0.605966  0.399120  0.749446  1
  Tc  Tc6  1  0.389387  0.610705  0.249152  1
  Te  Te7  1  0.001775  0.297652  0.956370  1
  Te  Te8  1  0.000094  0.701357  0.045982  1
  Te  Te9  1  0.698353  0.995615  0.554184  1
  O  O10  1  0.536851  0.465598  0.612215  1
  O  O11  1  0.448734  0.525374  0.385893  1
  O  O12  1  0.520210  0.447137  0.892968  1
  O  O13  1  0.481976  0.545267  0.113414  1
  O  O14  1  0.515018  0.119280  0.785283  1
  O  O15  1  0.506122  0.889565  0.206143  1
  O  O16  1  0.881497  0.506669  0.710150  1
  O  O17  1  0.117940  0.503994  0.275788  1
  O  O18  1  0.723129  0.131973  0.960515  1
  O  O19  1  0.280033  0.869845  0.039583  1
  O  O20  1  0.895259  0.291558  0.529552  1
  O  O21  1  0.147650  0.726203  0.442858  1
  O  O22  1  0.360870  0.820508  0.581469  1
  O  O23  1  0.583143  0.177132  0.422522  1
  O  O24  1  0.175828  0.606876  0.923957  1
  O  O25  1  0.825953  0.392512  0.078641  1
  O  O26  1  0.141210  0.310787  0.800173  1
  O  O27  1  0.859604  0.694400  0.200123  1
  O  O28  1  0.703260  0.836200  0.707078  1
  O  O29  1  0.293943  0.114758  0.304999  1
  O  O30  1  0.899799  0.829872  0.936354  1
  O  O31  1  0.102024  0.169994  0.066415  1
  O  O32  1  0.169891  0.105766  0.555965  1
  O  O33  1  0.822272  0.882937  0.445714  1
