# generated using pymatgen
data_Mn8NbReRu2
_symmetry_space_group_name_H-M   'P 1'
_cell_length_a   4.68669400
_cell_length_b   4.68669221
_cell_length_c   7.69990100
_cell_angle_alpha   90.00000000
_cell_angle_beta   90.00000000
_cell_angle_gamma   120.00001261
_symmetry_Int_Tables_number   1
_chemical_formula_structural   Mn8NbReRu2
_chemical_formula_sum   'Mn8 Nb1 Re1 Ru2'
_cell_volume   146.47002304
_cell_formula_units_Z   1
loop_
 _symmetry_equiv_pos_site_id
 _symmetry_equiv_pos_as_xyz
  1  'x, y, z'
loop_
 _atom_site_type_symbol
 _atom_site_label
 _atom_site_symmetry_multiplicity
 _atom_site_fract_x
 _atom_site_fract_y
 _atom_site_fract_z
 _atom_site_occupancy
  Mn  Mn0  1  0.173649  0.347297  0.747504  1
  Mn  Mn1  1  0.826102  0.173898  0.254230  1
  Mn  Mn2  1  0.347795  0.173898  0.254230  1
  Mn  Mn3  1  0.652703  0.826351  0.747504  1
  Mn  Mn4  1  0.000000  0.000000  0.001664  1
  Mn  Mn5  1  0.000000  0.000000  0.499387  1
  Mn  Mn6  1  0.826102  0.652205  0.254230  1
  Mn  Mn7  1  0.173649  0.826351  0.747504  1
  Nb  Nb8  1  0.333333  0.666667  0.062353  1
  Re  Re9  1  0.333333  0.666667  0.436780  1
  Ru  Ru10  1  0.666667  0.333333  0.923896  1
  Ru  Ru11  1  0.666667  0.333333  0.570714  1
