# generated using pymatgen
data_Pr2Nd4Fe3(Co5P4)3
_symmetry_space_group_name_H-M   'P 1'
_cell_length_a   3.77008800
_cell_length_b   10.66795600
_cell_length_c   12.33284700
_cell_angle_alpha   90.00000000
_cell_angle_beta   90.00000000
_cell_angle_gamma   90.00000000
_symmetry_Int_Tables_number   1
_chemical_formula_structural   Pr2Nd4Fe3(Co5P4)3
_chemical_formula_sum   'Pr2 Nd4 Fe3 Co15 P12'
_cell_volume   496.01641253
_cell_formula_units_Z   1
loop_
 _symmetry_equiv_pos_site_id
 _symmetry_equiv_pos_as_xyz
  1  'x, y, z'
loop_
 _atom_site_type_symbol
 _atom_site_label
 _atom_site_symmetry_multiplicity
 _atom_site_fract_x
 _atom_site_fract_y
 _atom_site_fract_z
 _atom_site_occupancy
  Pr  Pr0  1  0.000000  0.500000  0.521059  1
  Pr  Pr1  1  0.500000  0.000000  0.478969  1
  Nd  Nd2  1  0.500000  0.817782  0.205144  1
  Nd  Nd3  1  0.500000  0.182218  0.205144  1
  Nd  Nd4  1  0.000000  0.680918  0.795258  1
  Nd  Nd5  1  0.000000  0.319082  0.795258  1
  Fe  Fe6  1  0.500000  0.500000  0.153028  1
  Fe  Fe7  1  0.000000  0.000000  0.845337  1
  Fe  Fe8  1  0.000000  0.500000  0.989578  1
  Co  Co9  1  0.500000  0.500000  0.703124  1
  Co  Co10  1  0.000000  0.000000  0.296546  1
  Co  Co11  1  0.500000  0.000000  0.012456  1
  Co  Co12  1  0.500000  0.331299  0.995634  1
  Co  Co13  1  0.500000  0.668701  0.995634  1
  Co  Co14  1  0.000000  0.165933  0.004033  1
  Co  Co15  1  0.000000  0.834067  0.004033  1
  Co  Co16  1  0.500000  0.296779  0.430124  1
  Co  Co17  1  0.500000  0.703221  0.430124  1
  Co  Co18  1  0.000000  0.203321  0.570254  1
  Co  Co19  1  0.000000  0.796679  0.570254  1
  Co  Co20  1  0.500000  0.881050  0.711006  1
  Co  Co21  1  0.500000  0.118950  0.711006  1
  Co  Co22  1  0.000000  0.619152  0.288750  1
  Co  Co23  1  0.000000  0.380848  0.288750  1
  P  P24  1  0.500000  0.500000  0.888725  1
  P  P25  1  0.000000  0.000000  0.113570  1
  P  P26  1  0.500000  0.500000  0.335871  1
  P  P27  1  0.000000  0.000000  0.662880  1
  P  P28  1  0.500000  0.304803  0.614688  1
  P  P29  1  0.500000  0.695197  0.614688  1
  P  P30  1  0.000000  0.195395  0.385499  1
  P  P31  1  0.000000  0.804605  0.385499  1
  P  P32  1  0.500000  0.848471  0.895006  1
  P  P33  1  0.500000  0.151529  0.895006  1
  P  P34  1  0.000000  0.651999  0.104035  1
  P  P35  1  0.000000  0.348001  0.104035  1
