# generated using pymatgen
data_Tm8Si12AgPt3
_symmetry_space_group_name_H-M   'P 1'
_cell_length_a   8.17863000
_cell_length_b   8.17863056
_cell_length_c   7.78814100
_cell_angle_alpha   90.00000000
_cell_angle_beta   90.00000000
_cell_angle_gamma   119.99999772
_symmetry_Int_Tables_number   1
_chemical_formula_structural   Tm8Si12AgPt3
_chemical_formula_sum   'Tm8 Si12 Ag1 Pt3'
_cell_volume   451.15481801
_cell_formula_units_Z   1
loop_
 _symmetry_equiv_pos_site_id
 _symmetry_equiv_pos_as_xyz
  1  'x, y, z'
loop_
 _atom_site_type_symbol
 _atom_site_label
 _atom_site_symmetry_multiplicity
 _atom_site_fract_x
 _atom_site_fract_y
 _atom_site_fract_z
 _atom_site_occupancy
  Tm  Tm0  1  0.513616  0.027230  0.252830  1
  Tm  Tm1  1  0.490458  0.980916  0.748733  1
  Tm  Tm2  1  0.972770  0.486384  0.252830  1
  Tm  Tm3  1  0.019084  0.509542  0.748733  1
  Tm  Tm4  1  0.513616  0.486384  0.252830  1
  Tm  Tm5  1  0.490458  0.509542  0.748733  1
  Tm  Tm6  1  0.000000  0.000000  0.248464  1
  Tm  Tm7  1  0.000000  0.000000  0.749093  1
  Si  Si8  1  0.162311  0.324620  0.996485  1
  Si  Si9  1  0.834020  0.668040  0.000108  1
  Si  Si10  1  0.675380  0.837689  0.996485  1
  Si  Si11  1  0.835310  0.670621  0.505432  1
  Si  Si12  1  0.331960  0.165980  0.000108  1
  Si  Si13  1  0.165219  0.330437  0.493324  1
  Si  Si14  1  0.162311  0.837689  0.996485  1
  Si  Si15  1  0.329379  0.164690  0.505432  1
  Si  Si16  1  0.834020  0.165980  0.000108  1
  Si  Si17  1  0.669563  0.834781  0.493324  1
  Si  Si18  1  0.835310  0.164690  0.505432  1
  Si  Si19  1  0.165219  0.834781  0.493324  1
  Ag  Ag20  1  0.333333  0.666667  0.045207  1
  Pt  Pt21  1  0.666667  0.333333  0.961827  1
  Pt  Pt22  1  0.666667  0.333333  0.537548  1
  Pt  Pt23  1  0.333333  0.666667  0.467120  1
