# generated using pymatgen
data_Pr6Co16TcP12W
_symmetry_space_group_name_H-M   'P 1'
_cell_length_a   3.78851500
_cell_length_b   10.69987400
_cell_length_c   12.45388400
_cell_angle_alpha   90.00000000
_cell_angle_beta   90.00000000
_cell_angle_gamma   90.00000000
_symmetry_Int_Tables_number   1
_chemical_formula_structural   Pr6Co16TcP12W
_chemical_formula_sum   'Pr6 Co16 Tc1 P12 W1'
_cell_volume   504.83852696
_cell_formula_units_Z   1
loop_
 _symmetry_equiv_pos_site_id
 _symmetry_equiv_pos_as_xyz
  1  'x, y, z'
loop_
 _atom_site_type_symbol
 _atom_site_label
 _atom_site_symmetry_multiplicity
 _atom_site_fract_x
 _atom_site_fract_y
 _atom_site_fract_z
 _atom_site_occupancy
  Pr  Pr0  1  0.000000  0.500000  0.522714  1
  Pr  Pr1  1  0.500000  0.000000  0.477006  1
  Pr  Pr2  1  0.500000  0.817838  0.205347  1
  Pr  Pr3  1  0.500000  0.182162  0.205347  1
  Pr  Pr4  1  0.000000  0.680990  0.793790  1
  Pr  Pr5  1  0.000000  0.319010  0.793790  1
  Co  Co6  1  0.500000  0.500000  0.704639  1
  Co  Co7  1  0.000000  0.000000  0.296458  1
  Co  Co8  1  0.000000  0.500000  0.988769  1
  Co  Co9  1  0.500000  0.000000  0.012237  1
  Co  Co10  1  0.500000  0.332437  0.992137  1
  Co  Co11  1  0.500000  0.667563  0.992137  1
  Co  Co12  1  0.000000  0.168052  0.008051  1
  Co  Co13  1  0.000000  0.831948  0.008051  1
  Co  Co14  1  0.500000  0.296723  0.430071  1
  Co  Co15  1  0.500000  0.703277  0.430071  1
  Co  Co16  1  0.000000  0.204228  0.568921  1
  Co  Co17  1  0.000000  0.795772  0.568921  1
  Co  Co18  1  0.500000  0.880772  0.710243  1
  Co  Co19  1  0.500000  0.119228  0.710243  1
  Co  Co20  1  0.000000  0.618004  0.290282  1
  Co  Co21  1  0.000000  0.381996  0.290282  1
  Tc  Tc22  1  0.500000  0.500000  0.154076  1
  P  P23  1  0.500000  0.500000  0.886868  1
  P  P24  1  0.000000  0.000000  0.114239  1
  P  P25  1  0.500000  0.500000  0.342260  1
  P  P26  1  0.000000  0.000000  0.655857  1
  P  P27  1  0.500000  0.305871  0.613339  1
  P  P28  1  0.500000  0.694129  0.613339  1
  P  P29  1  0.000000  0.194117  0.385938  1
  P  P30  1  0.000000  0.805883  0.385938  1
  P  P31  1  0.500000  0.846469  0.896088  1
  P  P32  1  0.500000  0.153531  0.896088  1
  P  P33  1  0.000000  0.651624  0.104949  1
  P  P34  1  0.000000  0.348376  0.104949  1
  W  W35  1  0.000000  0.000000  0.846563  1
