# generated using pymatgen
data_La2Y3Se7
_symmetry_space_group_name_H-M   'P 1'
_cell_length_a   6.89433361
_cell_length_b   6.89433430
_cell_length_c   12.34624100
_cell_angle_alpha   75.76059847
_cell_angle_beta   75.76059702
_cell_angle_gamma   34.23570837
_symmetry_Int_Tables_number   1
_chemical_formula_structural   La2Y3Se7
_chemical_formula_sum   'La2 Y3 Se7'
_cell_volume   319.03275562
_cell_formula_units_Z   1
loop_
 _symmetry_equiv_pos_site_id
 _symmetry_equiv_pos_as_xyz
  1  'x, y, z'
loop_
 _atom_site_type_symbol
 _atom_site_label
 _atom_site_symmetry_multiplicity
 _atom_site_fract_x
 _atom_site_fract_y
 _atom_site_fract_z
 _atom_site_occupancy
  La  La0  1  0.302493  0.302493  0.804788  1
  La  La1  1  0.697507  0.697507  0.195212  1
  Y  Y2  1  0.113530  0.113530  0.573646  1
  Y  Y3  1  0.886470  0.886470  0.426354  1
  Y  Y4  1  0.000000  0.000000  0.000000  1
  Se  Se5  1  0.262737  0.262737  0.356876  1
  Se  Se6  1  0.737263  0.737263  0.643124  1
  Se  Se7  1  0.972330  0.972330  0.783520  1
  Se  Se8  1  0.027670  0.027670  0.216480  1
  Se  Se9  1  0.656685  0.656685  0.950379  1
  Se  Se10  1  0.500000  0.500000  0.500000  1
  Se  Se11  1  0.343315  0.343315  0.049621  1
