# generated using pymatgen
data_HoTm5Th2(MgIr)2
_symmetry_space_group_name_H-M   'P 1'
_cell_length_a   9.72591670
_cell_length_b   9.72591711
_cell_length_c   9.72056200
_cell_angle_alpha   60.01821209
_cell_angle_beta   60.01821069
_cell_angle_gamma   59.96358444
_symmetry_Int_Tables_number   1
_chemical_formula_structural   HoTm5Th2(MgIr)2
_chemical_formula_sum   'Ho2 Tm10 Th4 Mg4 Ir4'
_cell_volume   650.18545027
_cell_formula_units_Z   2
loop_
 _symmetry_equiv_pos_site_id
 _symmetry_equiv_pos_as_xyz
  1  'x, y, z'
loop_
 _atom_site_type_symbol
 _atom_site_label
 _atom_site_symmetry_multiplicity
 _atom_site_fract_x
 _atom_site_fract_y
 _atom_site_fract_z
 _atom_site_occupancy
  Ho  Ho0  1  0.566159  0.566159  0.933841  1
  Ho  Ho1  1  0.933841  0.933841  0.566159  1
  Tm  Tm2  1  0.813424  0.186576  0.186576  1
  Tm  Tm3  1  0.186576  0.813424  0.813424  1
  Tm  Tm4  1  0.186576  0.813424  0.186576  1
  Tm  Tm5  1  0.813424  0.186576  0.813424  1
  Tm  Tm6  1  0.186679  0.186679  0.813321  1
  Tm  Tm7  1  0.813321  0.813321  0.186679  1
  Tm  Tm8  1  0.934296  0.565704  0.565704  1
  Tm  Tm9  1  0.565704  0.934296  0.934296  1
  Tm  Tm10  1  0.565704  0.934296  0.565704  1
  Tm  Tm11  1  0.934296  0.565704  0.934296  1
  Th  Th12  1  0.349109  0.349109  0.349285  1
  Th  Th13  1  0.349109  0.349109  0.952497  1
  Th  Th14  1  0.349285  0.952497  0.349109  1
  Th  Th15  1  0.952497  0.349285  0.349109  1
  Mg  Mg16  1  0.581044  0.581044  0.580777  1
  Mg  Mg17  1  0.581044  0.581044  0.257134  1
  Mg  Mg18  1  0.580777  0.257134  0.581044  1
  Mg  Mg19  1  0.257134  0.580777  0.581044  1
  Ir  Ir20  1  0.142573  0.142573  0.142194  1
  Ir  Ir21  1  0.142573  0.142573  0.572663  1
  Ir  Ir22  1  0.142194  0.572663  0.142573  1
  Ir  Ir23  1  0.572663  0.142194  0.142573  1
