# generated using pymatgen
data_Th5Mg3(Co4P3)4
_symmetry_space_group_name_H-M   'P 1'
_cell_length_a   12.34655400
_cell_length_b   12.34655401
_cell_length_c   3.84445300
_cell_angle_alpha   90.00000000
_cell_angle_beta   90.00000000
_cell_angle_gamma   119.99999462
_symmetry_Int_Tables_number   1
_chemical_formula_structural   Th5Mg3(Co4P3)4
_chemical_formula_sum   'Th5 Mg3 Co16 P12'
_cell_volume   507.52417254
_cell_formula_units_Z   1
loop_
 _symmetry_equiv_pos_site_id
 _symmetry_equiv_pos_as_xyz
  1  'x, y, z'
loop_
 _atom_site_type_symbol
 _atom_site_label
 _atom_site_symmetry_multiplicity
 _atom_site_fract_x
 _atom_site_fract_y
 _atom_site_fract_z
 _atom_site_occupancy
  Th  Th0  1  0.666667  0.333333  0.000000  1
  Th  Th1  1  0.333333  0.666667  0.000000  1
  Th  Th2  1  0.811352  0.811352  0.500000  1
  Th  Th3  1  0.188648  0.000000  0.500000  1
  Th  Th4  1  0.000000  0.188648  0.500000  1
  Mg  Mg5  1  0.435407  0.435407  0.000000  1
  Mg  Mg6  1  0.564593  0.000000  0.000000  1
  Mg  Mg7  1  0.000000  0.564593  0.000000  1
  Co  Co8  1  0.197807  0.377189  0.000000  1
  Co  Co9  1  0.179381  0.802193  0.000000  1
  Co  Co10  1  0.820619  0.622811  0.000000  1
  Co  Co11  1  0.802193  0.179381  0.000000  1
  Co  Co12  1  0.377189  0.197807  0.000000  1
  Co  Co13  1  0.125652  0.481527  0.500000  1
  Co  Co14  1  0.355875  0.874348  0.500000  1
  Co  Co15  1  0.518473  0.644125  0.500000  1
  Co  Co16  1  0.644125  0.518473  0.500000  1
  Co  Co17  1  0.874348  0.355875  0.500000  1
  Co  Co18  1  0.481527  0.125652  0.500000  1
  Co  Co19  1  0.000000  0.000000  0.000000  1
  Co  Co20  1  0.719652  0.000000  0.500000  1
  Co  Co21  1  0.000000  0.719652  0.500000  1
  Co  Co22  1  0.622811  0.820619  0.000000  1
  Co  Co23  1  0.280348  0.280348  0.500000  1
  P  P24  1  0.634082  0.634082  0.000000  1
  P  P25  1  0.365918  0.000000  0.000000  1
  P  P26  1  0.000000  0.365918  0.000000  1
  P  P27  1  0.474056  0.305844  0.500000  1
  P  P28  1  0.694156  0.168212  0.500000  1
  P  P29  1  0.831788  0.525944  0.500000  1
  P  P30  1  0.525944  0.831788  0.500000  1
  P  P31  1  0.168212  0.694156  0.500000  1
  P  P32  1  0.818130  0.000000  0.000000  1
  P  P33  1  0.000000  0.818130  0.000000  1
  P  P34  1  0.305844  0.474056  0.500000  1
  P  P35  1  0.181870  0.181870  0.000000  1
