# generated using pymatgen
data_Na2PdO3
_symmetry_space_group_name_H-M   'P 1'
_cell_length_a   5.49185020
_cell_length_b   5.49185020
_cell_length_c   5.66968324
_cell_angle_alpha   80.59112849
_cell_angle_beta   80.59112849
_cell_angle_gamma   120.00238766
_symmetry_Int_Tables_number   1
_chemical_formula_structural   Na2PdO3
_chemical_formula_sum   'Na4 Pd2 O6'
_cell_volume   139.94720466
_cell_formula_units_Z   2
loop_
 _symmetry_equiv_pos_site_id
 _symmetry_equiv_pos_as_xyz
  1  'x, y, z'
loop_
 _atom_site_type_symbol
 _atom_site_label
 _atom_site_symmetry_multiplicity
 _atom_site_fract_x
 _atom_site_fract_y
 _atom_site_fract_z
 _atom_site_occupancy
  Na  Na0  1  0.660156  0.339844  0.500000  1
  Na  Na1  1  0.339844  0.660156  0.500000  1
  Na  Na2  1  0.000000  0.000000  0.500000  1
  Na  Na3  1  0.500000  0.500000  0.000000  1
  Pd  Pd4  1  0.166950  0.833050  0.000000  1
  Pd  Pd5  1  0.833050  0.166950  0.000000  1
  O  O6  1  0.429956  0.065268  0.208776  1
  O  O7  1  0.065268  0.429956  0.208776  1
  O  O8  1  0.792659  0.792659  0.210228  1
  O  O9  1  0.570044  0.934732  0.791224  1
  O  O10  1  0.207341  0.207341  0.789772  1
  O  O11  1  0.934732  0.570044  0.791224  1
