# generated using pymatgen
data_Er4B16Ir3Os
_symmetry_space_group_name_H-M   'P 1'
_cell_length_a   3.55769500
_cell_length_b   5.95163546
_cell_length_c   11.54463004
_cell_angle_alpha   90.05666113
_cell_angle_beta   90.00000000
_cell_angle_gamma   90.00000000
_symmetry_Int_Tables_number   1
_chemical_formula_structural   Er4B16Ir3Os
_chemical_formula_sum   'Er4 B16 Ir3 Os1'
_cell_volume   244.44707447
_cell_formula_units_Z   1
loop_
 _symmetry_equiv_pos_site_id
 _symmetry_equiv_pos_as_xyz
  1  'x, y, z'
loop_
 _atom_site_type_symbol
 _atom_site_label
 _atom_site_symmetry_multiplicity
 _atom_site_fract_x
 _atom_site_fract_y
 _atom_site_fract_z
 _atom_site_occupancy
  Er  Er0  1  0.000000  0.632249  0.349391  1
  Er  Er1  1  0.000000  0.369023  0.648292  1
  Er  Er2  1  0.000000  0.130373  0.148927  1
  Er  Er3  1  0.000000  0.867254  0.852752  1
  B  B4  1  0.500000  0.791030  0.186506  1
  B  B5  1  0.500000  0.207274  0.812215  1
  B  B6  1  0.500000  0.292199  0.312375  1
  B  B7  1  0.500000  0.707294  0.687511  1
  B  B8  1  0.500000  0.864886  0.030650  1
  B  B9  1  0.500000  0.136376  0.970804  1
  B  B10  1  0.500000  0.364201  0.470327  1
  B  B11  1  0.500000  0.635946  0.530296  1
  B  B12  1  0.500000  0.887293  0.452685  1
  B  B13  1  0.500000  0.112680  0.547194  1
  B  B14  1  0.500000  0.388650  0.048235  1
  B  B15  1  0.500000  0.614139  0.954429  1
  B  B16  1  0.500000  0.975137  0.307333  1
  B  B17  1  0.500000  0.025160  0.692961  1
  B  B18  1  0.500000  0.475520  0.192715  1
  B  B19  1  0.500000  0.527961  0.808198  1
  Ir  Ir20  1  0.000000  0.353815  0.901969  1
  Ir  Ir21  1  0.000000  0.144498  0.403381  1
  Ir  Ir22  1  0.000000  0.856351  0.596933  1
  Os  Os23  1  0.000000  0.640694  0.093919  1
