# generated using pymatgen
data_YbCe3HoIr3
_symmetry_space_group_name_H-M   'P 1'
_cell_length_a   8.21640500
_cell_length_b   8.21640535
_cell_length_c   6.48175800
_cell_angle_alpha   90.00000000
_cell_angle_beta   90.00000000
_cell_angle_gamma   120.00001065
_symmetry_Int_Tables_number   1
_chemical_formula_structural   YbCe3HoIr3
_chemical_formula_sum   'Yb2 Ce6 Ho2 Ir6'
_cell_volume   378.95452090
_cell_formula_units_Z   2
loop_
 _symmetry_equiv_pos_site_id
 _symmetry_equiv_pos_as_xyz
  1  'x, y, z'
loop_
 _atom_site_type_symbol
 _atom_site_label
 _atom_site_symmetry_multiplicity
 _atom_site_fract_x
 _atom_site_fract_y
 _atom_site_fract_z
 _atom_site_occupancy
  Yb  Yb0  1  0.333333  0.666667  0.000000  1
  Yb  Yb1  1  0.666667  0.333333  0.000000  1
  Ce  Ce2  1  0.743561  0.743561  0.244901  1
  Ce  Ce3  1  0.256439  0.000000  0.244901  1
  Ce  Ce4  1  0.000000  0.256439  0.244901  1
  Ce  Ce5  1  0.256439  0.256439  0.755099  1
  Ce  Ce6  1  0.743561  0.000000  0.755099  1
  Ce  Ce7  1  0.000000  0.743561  0.755099  1
  Ho  Ho8  1  0.666667  0.333333  0.500000  1
  Ho  Ho9  1  0.333333  0.666667  0.500000  1
  Ir  Ir10  1  0.377670  0.377670  0.264499  1
  Ir  Ir11  1  0.622330  0.000000  0.264499  1
  Ir  Ir12  1  0.000000  0.622330  0.264499  1
  Ir  Ir13  1  0.622330  0.622330  0.735501  1
  Ir  Ir14  1  0.377670  0.000000  0.735501  1
  Ir  Ir15  1  0.000000  0.377670  0.735501  1
