# generated using pymatgen
data_Yb10As6HCl
_symmetry_space_group_name_H-M   'P 1'
_cell_length_a   8.41458800
_cell_length_b   8.41458853
_cell_length_c   6.56153500
_cell_angle_alpha   90.00000000
_cell_angle_beta   90.00000000
_cell_angle_gamma   120.00000580
_symmetry_Int_Tables_number   1
_chemical_formula_structural   Yb10As6HCl
_chemical_formula_sum   'Yb10 As6 H1 Cl1'
_cell_volume   402.34795335
_cell_formula_units_Z   1
loop_
 _symmetry_equiv_pos_site_id
 _symmetry_equiv_pos_as_xyz
  1  'x, y, z'
loop_
 _atom_site_type_symbol
 _atom_site_label
 _atom_site_symmetry_multiplicity
 _atom_site_fract_x
 _atom_site_fract_y
 _atom_site_fract_z
 _atom_site_occupancy
  Yb  Yb0  1  0.745159  0.745159  0.235126  1
  Yb  Yb1  1  0.745159  0.000000  0.764874  1
  Yb  Yb2  1  0.000000  0.254841  0.235126  1
  Yb  Yb3  1  0.000000  0.745159  0.764874  1
  Yb  Yb4  1  0.254841  0.254841  0.764874  1
  Yb  Yb5  1  0.254841  0.000000  0.235126  1
  Yb  Yb6  1  0.333333  0.666667  0.500000  1
  Yb  Yb7  1  0.666667  0.333333  0.000000  1
  Yb  Yb8  1  0.666667  0.333333  0.500000  1
  Yb  Yb9  1  0.333333  0.666667  0.000000  1
  As  As10  1  0.391067  0.000000  0.751781  1
  As  As11  1  0.391067  0.391067  0.248219  1
  As  As12  1  0.000000  0.608933  0.248219  1
  As  As13  1  0.000000  0.391067  0.751781  1
  As  As14  1  0.608933  0.608933  0.751781  1
  As  As15  1  0.608933  0.000000  0.248219  1
  H  H16  1  0.000000  0.000000  0.000000  1
  Cl  Cl17  1  0.000000  0.000000  0.500000  1
