# generated using pymatgen
data_YbY3Ir3RhO14
_symmetry_space_group_name_H-M   'P 1'
_cell_length_a   7.23264225
_cell_length_b   7.24743594
_cell_length_c   7.23264300
_cell_angle_alpha   60.06750159
_cell_angle_beta   60.00000115
_cell_angle_gamma   60.06750121
_symmetry_Int_Tables_number   1
_chemical_formula_structural   YbY3Ir3RhO14
_chemical_formula_sum   'Yb1 Y3 Ir3 Rh1 O14'
_cell_volume   268.35256791
_cell_formula_units_Z   1
loop_
 _symmetry_equiv_pos_site_id
 _symmetry_equiv_pos_as_xyz
  1  'x, y, z'
loop_
 _atom_site_type_symbol
 _atom_site_label
 _atom_site_symmetry_multiplicity
 _atom_site_fract_x
 _atom_site_fract_y
 _atom_site_fract_z
 _atom_site_occupancy
  Yb  Yb0  1  0.125000  0.625000  0.125000  1
  Y  Y1  1  0.625000  0.125000  0.125000  1
  Y  Y2  1  0.125000  0.125000  0.625000  1
  Y  Y3  1  0.125000  0.125000  0.125000  1
  Ir  Ir4  1  0.125000  0.625000  0.625000  1
  Ir  Ir5  1  0.625000  0.625000  0.125000  1
  Ir  Ir6  1  0.625000  0.625000  0.625000  1
  Rh  Rh7  1  0.625000  0.125000  0.625000  1
  O  O8  1  0.704633  0.707271  0.294048  1
  O  O9  1  0.286662  0.290388  0.711475  1
  O  O10  1  0.711475  0.290388  0.711475  1
  O  O11  1  0.294048  0.707271  0.294048  1
  O  O12  1  0.294048  0.707271  0.704633  1
  O  O13  1  0.711475  0.290388  0.286662  1
  O  O14  1  0.545367  0.542729  0.955952  1
  O  O15  1  0.963338  0.959612  0.538525  1
  O  O16  1  0.538525  0.959612  0.538525  1
  O  O17  1  0.955952  0.542729  0.955952  1
  O  O18  1  0.955952  0.542729  0.545367  1
  O  O19  1  0.538525  0.959612  0.963338  1
  O  O20  1  0.251043  0.246870  0.251043  1
  O  O21  1  0.998957  0.003130  0.998957  1
