# generated using pymatgen
data_TmNb3(Co4P3)2
_symmetry_space_group_name_H-M   'P 1'
_cell_length_a   11.98976800
_cell_length_b   11.98976828
_cell_length_c   3.64934600
_cell_angle_alpha   90.00000000
_cell_angle_beta   90.00000000
_cell_angle_gamma   119.99999922
_symmetry_Int_Tables_number   1
_chemical_formula_structural   TmNb3(Co4P3)2
_chemical_formula_sum   'Tm2 Nb6 Co16 P12'
_cell_volume   454.32563901
_cell_formula_units_Z   2
loop_
 _symmetry_equiv_pos_site_id
 _symmetry_equiv_pos_as_xyz
  1  'x, y, z'
loop_
 _atom_site_type_symbol
 _atom_site_label
 _atom_site_symmetry_multiplicity
 _atom_site_fract_x
 _atom_site_fract_y
 _atom_site_fract_z
 _atom_site_occupancy
  Tm  Tm0  1  0.333333  0.666667  0.000000  1
  Tm  Tm1  1  0.666667  0.333333  0.000000  1
  Nb  Nb2  1  0.821079  0.000000  0.500000  1
  Nb  Nb3  1  0.000000  0.821079  0.500000  1
  Nb  Nb4  1  0.178921  0.178921  0.500000  1
  Nb  Nb5  1  0.445009  0.000000  0.000000  1
  Nb  Nb6  1  0.000000  0.445009  0.000000  1
  Nb  Nb7  1  0.554991  0.554991  0.000000  1
  Co  Co8  1  0.272468  0.000000  0.500000  1
  Co  Co9  1  0.000000  0.272468  0.500000  1
  Co  Co10  1  0.727532  0.727532  0.500000  1
  Co  Co11  1  0.633572  0.810290  0.000000  1
  Co  Co12  1  0.189710  0.823283  0.000000  1
  Co  Co13  1  0.176717  0.366428  0.000000  1
  Co  Co14  1  0.366428  0.176717  0.000000  1
  Co  Co15  1  0.810290  0.633572  0.000000  1
  Co  Co16  1  0.823283  0.189710  0.000000  1
  Co  Co17  1  0.520156  0.873967  0.500000  1
  Co  Co18  1  0.126033  0.646189  0.500000  1
  Co  Co19  1  0.353811  0.479844  0.500000  1
  Co  Co20  1  0.479844  0.353811  0.500000  1
  Co  Co21  1  0.873967  0.520156  0.500000  1
  Co  Co22  1  0.646189  0.126033  0.500000  1
  Co  Co23  1  0.000000  0.000000  0.000000  1
  P  P24  1  0.173041  0.000000  0.000000  1
  P  P25  1  0.000000  0.173041  0.000000  1
  P  P26  1  0.826959  0.826959  0.000000  1
  P  P27  1  0.522364  0.690465  0.500000  1
  P  P28  1  0.309535  0.831898  0.500000  1
  P  P29  1  0.168102  0.477636  0.500000  1
  P  P30  1  0.477636  0.168102  0.500000  1
  P  P31  1  0.690465  0.522364  0.500000  1
  P  P32  1  0.831898  0.309535  0.500000  1
  P  P33  1  0.648285  0.000000  0.000000  1
  P  P34  1  0.000000  0.648285  0.000000  1
  P  P35  1  0.351715  0.351715  0.000000  1
