# generated using pymatgen
data_ZrU(InBr3)4
_symmetry_space_group_name_H-M   'P 1'
_cell_length_a   7.62122300
_cell_length_b   7.62122300
_cell_length_c   11.16747500
_cell_angle_alpha   90.00000000
_cell_angle_beta   90.00000000
_cell_angle_gamma   90.00000000
_symmetry_Int_Tables_number   1
_chemical_formula_structural   ZrU(InBr3)4
_chemical_formula_sum   'Zr1 U1 In4 Br12'
_cell_volume   648.64089732
_cell_formula_units_Z   1
loop_
 _symmetry_equiv_pos_site_id
 _symmetry_equiv_pos_as_xyz
  1  'x, y, z'
loop_
 _atom_site_type_symbol
 _atom_site_label
 _atom_site_symmetry_multiplicity
 _atom_site_fract_x
 _atom_site_fract_y
 _atom_site_fract_z
 _atom_site_occupancy
  Zr  Zr0  1  0.500000  0.500000  0.000000  1
  U  U1  1  0.000000  0.000000  0.500000  1
  In  In2  1  0.000000  0.500000  0.248138  1
  In  In3  1  0.000000  0.500000  0.751862  1
  In  In4  1  0.500000  0.000000  0.751862  1
  In  In5  1  0.500000  0.000000  0.248138  1
  Br  Br6  1  0.816089  0.684415  0.500000  1
  Br  Br7  1  0.197396  0.327198  0.000000  1
  Br  Br8  1  0.500000  0.500000  0.763085  1
  Br  Br9  1  0.315585  0.816089  0.500000  1
  Br  Br10  1  0.000000  0.000000  0.250946  1
  Br  Br11  1  0.802604  0.672802  0.000000  1
  Br  Br12  1  0.672802  0.197396  0.000000  1
  Br  Br13  1  0.327198  0.802604  0.000000  1
  Br  Br14  1  0.000000  0.000000  0.749054  1
  Br  Br15  1  0.183911  0.315585  0.500000  1
  Br  Br16  1  0.500000  0.500000  0.236915  1
  Br  Br17  1  0.684415  0.183911  0.500000  1
