# generated using pymatgen
data_Ba8DyY3(FeO5)4
_symmetry_space_group_name_H-M   'P 1'
_cell_length_a   6.15848701
_cell_length_b   7.94238709
_cell_length_c   12.79734978
_cell_angle_alpha   91.75200312
_cell_angle_beta   90.00711304
_cell_angle_gamma   89.99902259
_symmetry_Int_Tables_number   1
_chemical_formula_structural   Ba8DyY3(FeO5)4
_chemical_formula_sum   'Ba8 Dy1 Y3 Fe4 O20'
_cell_volume   625.66526675
_cell_formula_units_Z   1
loop_
 _symmetry_equiv_pos_site_id
 _symmetry_equiv_pos_as_xyz
  1  'x, y, z'
loop_
 _atom_site_type_symbol
 _atom_site_label
 _atom_site_symmetry_multiplicity
 _atom_site_fract_x
 _atom_site_fract_y
 _atom_site_fract_z
 _atom_site_occupancy
  Ba  Ba0  1  0.761853  0.483806  0.347572  1
  Ba  Ba1  1  0.738085  0.984041  0.847302  1
  Ba  Ba2  1  0.238464  0.515688  0.652421  1
  Ba  Ba3  1  0.261920  0.016276  0.152738  1
  Ba  Ba4  1  0.758236  0.993741  0.379176  1
  Ba  Ba5  1  0.741754  0.493396  0.878779  1
  Ba  Ba6  1  0.242215  0.006714  0.620979  1
  Ba  Ba7  1  0.258210  0.506521  0.121083  1
  Dy  Dy8  1  0.750235  0.266163  0.629323  1
  Y  Y9  1  0.749891  0.766354  0.129327  1
  Y  Y10  1  0.249931  0.733738  0.370774  1
  Y  Y11  1  0.250189  0.233651  0.870713  1
  Fe  Fe12  1  0.733085  0.742925  0.582747  1
  Fe  Fe13  1  0.766798  0.242929  0.082503  1
  Fe  Fe14  1  0.266464  0.257243  0.417418  1
  Fe  Fe15  1  0.233228  0.757102  0.917557  1
  O  O16  1  0.764761  0.971920  0.631759  1
  O  O17  1  0.734599  0.471351  0.131995  1
  O  O18  1  0.234716  0.028557  0.368012  1
  O  O19  1  0.265487  0.528625  0.867958  1
  O  O20  1  0.732565  0.061572  0.174596  1
  O  O21  1  0.766844  0.560546  0.674100  1
  O  O22  1  0.267546  0.938475  0.825512  1
  O  O23  1  0.232598  0.438544  0.325508  1
  O  O24  1  0.546881  0.746112  0.274373  1
  O  O25  1  0.953728  0.245963  0.773729  1
  O  O26  1  0.454357  0.253816  0.725942  1
  O  O27  1  0.046784  0.754029  0.225784  1
  O  O28  1  0.555165  0.222336  0.973397  1
  O  O29  1  0.945053  0.722468  0.473641  1
  O  O30  1  0.444816  0.777759  0.026661  1
  O  O31  1  0.054319  0.277544  0.526255  1
  O  O32  1  0.050900  0.232914  0.022512  1
  O  O33  1  0.449070  0.733013  0.522725  1
  O  O34  1  0.948929  0.767021  0.977313  1
  O  O35  1  0.550324  0.267143  0.477816  1
