# generated using pymatgen
data_TmNbFe12P7
_symmetry_space_group_name_H-M   'P 1'
_cell_length_a   8.86304400
_cell_length_b   8.86304428
_cell_length_c   3.59603800
_cell_angle_alpha   90.00000000
_cell_angle_beta   90.00000000
_cell_angle_gamma   120.00000644
_symmetry_Int_Tables_number   1
_chemical_formula_structural   TmNbFe12P7
_chemical_formula_sum   'Tm1 Nb1 Fe12 P7'
_cell_volume   244.63618759
_cell_formula_units_Z   1
loop_
 _symmetry_equiv_pos_site_id
 _symmetry_equiv_pos_as_xyz
  1  'x, y, z'
loop_
 _atom_site_type_symbol
 _atom_site_label
 _atom_site_symmetry_multiplicity
 _atom_site_fract_x
 _atom_site_fract_y
 _atom_site_fract_z
 _atom_site_occupancy
  Tm  Tm0  1  0.000000  0.000000  0.500000  1
  Nb  Nb1  1  0.333333  0.666667  0.000000  1
  Fe  Fe2  1  0.722373  0.959869  0.000000  1
  Fe  Fe3  1  0.237497  0.277627  0.000000  1
  Fe  Fe4  1  0.040131  0.762503  0.000000  1
  Fe  Fe5  1  0.943514  0.454025  0.000000  1
  Fe  Fe6  1  0.510512  0.056486  0.000000  1
  Fe  Fe7  1  0.545975  0.489488  0.000000  1
  Fe  Fe8  1  0.107809  0.393616  0.500000  1
  Fe  Fe9  1  0.285808  0.892191  0.500000  1
  Fe  Fe10  1  0.606384  0.714192  0.500000  1
  Fe  Fe11  1  0.766622  0.212101  0.500000  1
  Fe  Fe12  1  0.445479  0.233378  0.500000  1
  Fe  Fe13  1  0.787899  0.554521  0.500000  1
  P  P14  1  0.963043  0.218372  0.000000  1
  P  P15  1  0.255329  0.036957  0.000000  1
  P  P16  1  0.781628  0.744671  0.000000  1
  P  P17  1  0.072443  0.624316  0.500000  1
  P  P18  1  0.551873  0.927557  0.500000  1
  P  P19  1  0.375684  0.448127  0.500000  1
  P  P20  1  0.666667  0.333333  0.000000  1
