# generated using pymatgen
data_LuTa(ZnRh2)2
_symmetry_space_group_name_H-M   'P 1'
_cell_length_a   4.44641100
_cell_length_b   6.33547200
_cell_length_c   13.32809700
_cell_angle_alpha   90.00059936
_cell_angle_beta   89.99971205
_cell_angle_gamma   89.99945809
_symmetry_Int_Tables_number   1
_chemical_formula_structural   LuTa(ZnRh2)2
_chemical_formula_sum   'Lu3 Ta3 Zn6 Rh12'
_cell_volume   375.45399043
_cell_formula_units_Z   3
loop_
 _symmetry_equiv_pos_site_id
 _symmetry_equiv_pos_as_xyz
  1  'x, y, z'
loop_
 _atom_site_type_symbol
 _atom_site_label
 _atom_site_symmetry_multiplicity
 _atom_site_fract_x
 _atom_site_fract_y
 _atom_site_fract_z
 _atom_site_occupancy
  Lu  Lu0  1  0.000023  0.000000  0.998081  1
  Lu  Lu1  1  0.499931  0.499994  0.166671  1
  Lu  Lu2  1  0.999933  0.000002  0.335260  1
  Ta  Ta3  1  0.499985  0.499993  0.500352  1
  Ta  Ta4  1  0.000051  0.000005  0.666676  1
  Ta  Ta5  1  0.500050  0.500011  0.832960  1
  Zn  Zn6  1  0.000006  0.499998  0.998743  1
  Zn  Zn7  1  0.499913  0.000000  0.166646  1
  Zn  Zn8  1  0.999921  0.499998  0.334617  1
  Zn  Zn9  1  0.500002  0.999998  0.502113  1
  Zn  Zn10  1  0.000100  0.499996  0.666648  1
  Zn  Zn11  1  0.500087  0.000006  0.831201  1
  Rh  Rh12  1  0.500013  0.256899  0.991539  1
  Rh  Rh13  1  0.500018  0.743082  0.991533  1
  Rh  Rh14  1  0.999923  0.248283  0.166671  1
  Rh  Rh15  1  0.999940  0.751724  0.166672  1
  Rh  Rh16  1  0.499918  0.256873  0.341797  1
  Rh  Rh17  1  0.499938  0.743125  0.341796  1
  Rh  Rh18  1  0.999996  0.257820  0.507910  1
  Rh  Rh19  1  0.000003  0.742180  0.507914  1
  Rh  Rh20  1  0.500078  0.248218  0.666660  1
  Rh  Rh21  1  0.500047  0.751792  0.666669  1
  Rh  Rh22  1  0.000062  0.257840  0.825437  1
  Rh  Rh23  1  0.000058  0.742163  0.825432  1
