# generated using pymatgen
data_Ho11Hg9Ir4
_symmetry_space_group_name_H-M   'P 1'
_cell_length_a   12.95148200
_cell_length_b   12.95148263
_cell_length_c   3.75058900
_cell_angle_alpha   90.00000000
_cell_angle_beta   90.00000000
_cell_angle_gamma   114.70402145
_symmetry_Int_Tables_number   1
_chemical_formula_structural   Ho11Hg9Ir4
_chemical_formula_sum   'Ho11 Hg9 Ir4'
_cell_volume   571.54870977
_cell_formula_units_Z   1
loop_
 _symmetry_equiv_pos_site_id
 _symmetry_equiv_pos_as_xyz
  1  'x, y, z'
loop_
 _atom_site_type_symbol
 _atom_site_label
 _atom_site_symmetry_multiplicity
 _atom_site_fract_x
 _atom_site_fract_y
 _atom_site_fract_z
 _atom_site_occupancy
  Ho  Ho0  1  0.500000  0.500000  0.500000  1
  Ho  Ho1  1  0.795119  0.795119  0.500000  1
  Ho  Ho2  1  0.204881  0.204881  0.500000  1
  Ho  Ho3  1  0.586748  0.917627  0.500000  1
  Ho  Ho4  1  0.413252  0.082373  0.500000  1
  Ho  Ho5  1  0.917627  0.586748  0.500000  1
  Ho  Ho6  1  0.082373  0.413252  0.500000  1
  Ho  Ho7  1  0.132293  0.867707  0.500000  1
  Ho  Ho8  1  0.867707  0.132293  0.500000  1
  Ho  Ho9  1  0.333053  0.666947  0.500000  1
  Ho  Ho10  1  0.666947  0.333053  0.500000  1
  Hg  Hg11  1  0.000000  0.000000  0.000000  1
  Hg  Hg12  1  0.353537  0.869175  0.000000  1
  Hg  Hg13  1  0.646463  0.130825  0.000000  1
  Hg  Hg14  1  0.869175  0.353537  0.000000  1
  Hg  Hg15  1  0.130825  0.646463  0.000000  1
  Hg  Hg16  1  0.556893  0.710773  0.000000  1
  Hg  Hg17  1  0.443107  0.289227  0.000000  1
  Hg  Hg18  1  0.710773  0.556893  0.000000  1
  Hg  Hg19  1  0.289227  0.443107  0.000000  1
  Ir  Ir20  1  0.757896  0.949592  0.000000  1
  Ir  Ir21  1  0.242104  0.050408  0.000000  1
  Ir  Ir22  1  0.949592  0.757896  0.000000  1
  Ir  Ir23  1  0.050408  0.242104  0.000000  1
