# generated using pymatgen
data_Tb5(Hg2Rh)2
_symmetry_space_group_name_H-M   'P 1'
_cell_length_a   3.70019300
_cell_length_b   7.94156600
_cell_length_c   17.90701000
_cell_angle_alpha   90.00000000
_cell_angle_beta   90.00000000
_cell_angle_gamma   90.00000000
_symmetry_Int_Tables_number   1
_chemical_formula_structural   Tb5(Hg2Rh)2
_chemical_formula_sum   'Tb10 Hg8 Rh4'
_cell_volume   526.20334305
_cell_formula_units_Z   2
loop_
 _symmetry_equiv_pos_site_id
 _symmetry_equiv_pos_as_xyz
  1  'x, y, z'
loop_
 _atom_site_type_symbol
 _atom_site_label
 _atom_site_symmetry_multiplicity
 _atom_site_fract_x
 _atom_site_fract_y
 _atom_site_fract_z
 _atom_site_occupancy
  Tb  Tb0  1  0.000000  0.500000  0.500000  1
  Tb  Tb1  1  0.000000  0.000000  0.000000  1
  Tb  Tb2  1  0.000000  0.739850  0.283226  1
  Tb  Tb3  1  0.000000  0.260150  0.716774  1
  Tb  Tb4  1  0.000000  0.760150  0.783226  1
  Tb  Tb5  1  0.000000  0.239850  0.216774  1
  Tb  Tb6  1  0.000000  0.611710  0.088427  1
  Tb  Tb7  1  0.000000  0.388290  0.911573  1
  Tb  Tb8  1  0.000000  0.888290  0.588427  1
  Tb  Tb9  1  0.000000  0.111710  0.411573  1
  Hg  Hg10  1  0.500000  0.709133  0.936490  1
  Hg  Hg11  1  0.500000  0.290867  0.063510  1
  Hg  Hg12  1  0.500000  0.790867  0.436490  1
  Hg  Hg13  1  0.500000  0.209133  0.563510  1
  Hg  Hg14  1  0.500000  0.584069  0.646857  1
  Hg  Hg15  1  0.500000  0.415931  0.353143  1
  Hg  Hg16  1  0.500000  0.915931  0.146857  1
  Hg  Hg17  1  0.500000  0.084069  0.853143  1
  Rh  Rh18  1  0.500000  0.526547  0.197483  1
  Rh  Rh19  1  0.500000  0.473453  0.802517  1
  Rh  Rh20  1  0.500000  0.973453  0.697483  1
  Rh  Rh21  1  0.500000  0.026547  0.302517  1
