# generated using pymatgen
data_Lu2HfPa5Co12
_symmetry_space_group_name_H-M   'P 1'
_cell_length_a   5.30758700
_cell_length_b   7.31915118
_cell_length_c   8.29977900
_cell_angle_alpha   90.23427520
_cell_angle_beta   90.00000000
_cell_angle_gamma   90.00000000
_symmetry_Int_Tables_number   1
_chemical_formula_structural   Lu2HfPa5Co12
_chemical_formula_sum   'Lu2 Hf1 Pa5 Co12'
_cell_volume   322.41908245
_cell_formula_units_Z   1
loop_
 _symmetry_equiv_pos_site_id
 _symmetry_equiv_pos_as_xyz
  1  'x, y, z'
loop_
 _atom_site_type_symbol
 _atom_site_label
 _atom_site_symmetry_multiplicity
 _atom_site_fract_x
 _atom_site_fract_y
 _atom_site_fract_z
 _atom_site_occupancy
  Lu  Lu0  1  0.750000  0.442963  0.090232  1
  Lu  Lu1  1  0.250000  0.063385  0.603119  1
  Hf  Hf2  1  0.250000  0.558048  0.898359  1
  Pa  Pa3  1  0.750000  0.888404  0.861533  1
  Pa  Pa4  1  0.750000  0.394243  0.646181  1
  Pa  Pa5  1  0.250000  0.112199  0.135675  1
  Pa  Pa6  1  0.250000  0.600069  0.352833  1
  Pa  Pa7  1  0.750000  0.937108  0.400348  1
  Co  Co8  1  0.750000  0.600204  0.380737  1
  Co  Co9  1  0.750000  0.082601  0.133849  1
  Co  Co10  1  0.250000  0.419978  0.613704  1
  Co  Co11  1  0.250000  0.905160  0.883334  1
  Co  Co12  1  0.991587  0.263894  0.370592  1
  Co  Co13  1  0.498788  0.770203  0.130997  1
  Co  Co14  1  0.498416  0.731929  0.629259  1
  Co  Co15  1  0.005372  0.231794  0.869202  1
  Co  Co16  1  0.001584  0.731929  0.629259  1
  Co  Co17  1  0.494628  0.231794  0.869202  1
  Co  Co18  1  0.508413  0.263894  0.370592  1
  Co  Co19  1  0.001212  0.770203  0.130997  1
