# generated using pymatgen
data_BaHf2F10
_symmetry_space_group_name_H-M   'P 1'
_cell_length_a   8.46497177
_cell_length_b   8.46497144
_cell_length_c   8.82560680
_cell_angle_alpha   84.04812153
_cell_angle_beta   84.04812473
_cell_angle_gamma   137.34952478
_symmetry_Int_Tables_number   1
_chemical_formula_structural   BaHf2F10
_chemical_formula_sum   'Ba2 Hf4 F20'
_cell_volume   410.68288231
_cell_formula_units_Z   2
loop_
 _symmetry_equiv_pos_site_id
 _symmetry_equiv_pos_as_xyz
  1  'x, y, z'
loop_
 _atom_site_type_symbol
 _atom_site_label
 _atom_site_symmetry_multiplicity
 _atom_site_fract_x
 _atom_site_fract_y
 _atom_site_fract_z
 _atom_site_occupancy
  Ba  Ba0  1  0.430000  0.570000  0.750000  1
  Ba  Ba1  1  0.570000  0.430000  0.250000  1
  Hf  Hf2  1  0.343416  0.033192  0.902529  1
  Hf  Hf3  1  0.966808  0.656584  0.597471  1
  Hf  Hf4  1  0.656584  0.966808  0.097471  1
  Hf  Hf5  1  0.033192  0.343416  0.402529  1
  F  F6  1  0.136622  0.553733  0.573142  1
  F  F7  1  0.446267  0.863378  0.926858  1
  F  F8  1  0.863378  0.446267  0.426858  1
  F  F9  1  0.553733  0.136622  0.073142  1
  F  F10  1  0.696271  0.303729  0.750000  1
  F  F11  1  0.303729  0.696271  0.250000  1
  F  F12  1  0.199013  0.800987  0.750000  1
  F  F13  1  0.800987  0.199013  0.250000  1
  F  F14  1  0.967570  0.242293  0.937883  1
  F  F15  1  0.757707  0.032430  0.562117  1
  F  F16  1  0.032430  0.757707  0.062117  1
  F  F17  1  0.242293  0.967570  0.437883  1
  F  F18  1  0.256970  0.373595  0.498636  1
  F  F19  1  0.626405  0.743030  0.001364  1
  F  F20  1  0.743030  0.626405  0.501364  1
  F  F21  1  0.373595  0.256970  0.998636  1
  F  F22  1  0.295552  0.165957  0.740975  1
  F  F23  1  0.834043  0.704448  0.759025  1
  F  F24  1  0.704448  0.834043  0.259025  1
  F  F25  1  0.165957  0.295552  0.240975  1
