# generated using pymatgen
data_Lu20Bi11Os
_symmetry_space_group_name_H-M   'P 1'
_cell_length_a   8.01071983
_cell_length_b   9.39146700
_cell_length_c   11.81512630
_cell_angle_alpha   90.00000000
_cell_angle_beta   89.48868684
_cell_angle_gamma   90.00000000
_symmetry_Int_Tables_number   1
_chemical_formula_structural   Lu20Bi11Os
_chemical_formula_sum   'Lu20 Bi11 Os1'
_cell_volume   888.84504153
_cell_formula_units_Z   1
loop_
 _symmetry_equiv_pos_site_id
 _symmetry_equiv_pos_as_xyz
  1  'x, y, z'
loop_
 _atom_site_type_symbol
 _atom_site_label
 _atom_site_symmetry_multiplicity
 _atom_site_fract_x
 _atom_site_fract_y
 _atom_site_fract_z
 _atom_site_occupancy
  Lu  Lu0  1  0.050952  0.250000  0.506171  1
  Lu  Lu1  1  0.985054  0.750000  0.492342  1
  Lu  Lu2  1  0.478727  0.750000  0.012466  1
  Lu  Lu3  1  0.527051  0.250000  0.991806  1
  Lu  Lu4  1  0.356904  0.250000  0.304351  1
  Lu  Lu5  1  0.654342  0.750000  0.719061  1
  Lu  Lu6  1  0.146417  0.750000  0.778975  1
  Lu  Lu7  1  0.849190  0.250000  0.215343  1
  Lu  Lu8  1  0.208802  0.250000  0.768905  1
  Lu  Lu9  1  0.808634  0.750000  0.216367  1
  Lu  Lu10  1  0.313925  0.750000  0.279724  1
  Lu  Lu11  1  0.644239  0.250000  0.702562  1
  Lu  Lu12  1  0.192853  0.066766  0.064376  1
  Lu  Lu13  1  0.807807  0.933973  0.941401  1
  Lu  Lu14  1  0.315329  0.970140  0.558122  1
  Lu  Lu15  1  0.807807  0.566027  0.941401  1
  Lu  Lu16  1  0.677843  0.074800  0.446839  1
  Lu  Lu17  1  0.192853  0.433234  0.064376  1
  Lu  Lu18  1  0.677843  0.425200  0.446839  1
  Lu  Lu19  1  0.315329  0.529860  0.558122  1
  Bi  Bi20  1  0.594681  0.750000  0.459595  1
  Bi  Bi21  1  0.097018  0.750000  0.041685  1
  Bi  Bi22  1  0.911347  0.250000  0.950614  1
  Bi  Bi23  1  0.056842  0.998923  0.322082  1
  Bi  Bi24  1  0.930945  0.000406  0.675178  1
  Bi  Bi25  1  0.433677  0.991641  0.830691  1
  Bi  Bi26  1  0.930945  0.499594  0.675178  1
  Bi  Bi27  1  0.563906  0.004358  0.175384  1
  Bi  Bi28  1  0.056842  0.501077  0.322082  1
  Bi  Bi29  1  0.563906  0.495642  0.175384  1
  Bi  Bi30  1  0.433677  0.508359  0.830691  1
  Os  Os31  1  0.414316  0.250000  0.531886  1
