# generated using pymatgen
data_Ho3P6RuRh8
_symmetry_space_group_name_H-M   'P 1'
_cell_length_a   3.93171700
_cell_length_b   11.28164100
_cell_length_c   12.65917800
_cell_angle_alpha   90.00000000
_cell_angle_beta   90.00000000
_cell_angle_gamma   90.00000000
_symmetry_Int_Tables_number   1
_chemical_formula_structural   Ho3P6RuRh8
_chemical_formula_sum   'Ho6 P12 Ru2 Rh16'
_cell_volume   561.51328069
_cell_formula_units_Z   2
loop_
 _symmetry_equiv_pos_site_id
 _symmetry_equiv_pos_as_xyz
  1  'x, y, z'
loop_
 _atom_site_type_symbol
 _atom_site_label
 _atom_site_symmetry_multiplicity
 _atom_site_fract_x
 _atom_site_fract_y
 _atom_site_fract_z
 _atom_site_occupancy
  Ho  Ho0  1  0.000000  0.500000  0.520166  1
  Ho  Ho1  1  0.500000  0.000000  0.479834  1
  Ho  Ho2  1  0.500000  0.819056  0.205178  1
  Ho  Ho3  1  0.500000  0.180944  0.205178  1
  Ho  Ho4  1  0.000000  0.680944  0.794822  1
  Ho  Ho5  1  0.000000  0.319056  0.794822  1
  P  P6  1  0.500000  0.500000  0.882736  1
  P  P7  1  0.000000  0.000000  0.117264  1
  P  P8  1  0.500000  0.500000  0.349633  1
  P  P9  1  0.000000  0.000000  0.650367  1
  P  P10  1  0.500000  0.314057  0.619598  1
  P  P11  1  0.500000  0.685943  0.619598  1
  P  P12  1  0.000000  0.185943  0.380402  1
  P  P13  1  0.000000  0.814057  0.380402  1
  P  P14  1  0.500000  0.845439  0.892688  1
  P  P15  1  0.500000  0.154561  0.892688  1
  P  P16  1  0.000000  0.654561  0.107312  1
  P  P17  1  0.000000  0.345439  0.107312  1
  Ru  Ru18  1  0.000000  0.500000  0.988624  1
  Ru  Ru19  1  0.500000  0.000000  0.011376  1
  Rh  Rh20  1  0.500000  0.500000  0.163397  1
  Rh  Rh21  1  0.000000  0.000000  0.836603  1
  Rh  Rh22  1  0.500000  0.500000  0.700992  1
  Rh  Rh23  1  0.000000  0.000000  0.299008  1
  Rh  Rh24  1  0.500000  0.331780  0.992324  1
  Rh  Rh25  1  0.500000  0.668220  0.992324  1
  Rh  Rh26  1  0.000000  0.168220  0.007676  1
  Rh  Rh27  1  0.000000  0.831780  0.007676  1
  Rh  Rh28  1  0.500000  0.295432  0.431223  1
  Rh  Rh29  1  0.500000  0.704568  0.431223  1
  Rh  Rh30  1  0.000000  0.204568  0.568777  1
  Rh  Rh31  1  0.000000  0.795432  0.568777  1
  Rh  Rh32  1  0.500000  0.872298  0.711588  1
  Rh  Rh33  1  0.500000  0.127702  0.711588  1
  Rh  Rh34  1  0.000000  0.627702  0.288412  1
  Rh  Rh35  1  0.000000  0.372298  0.288412  1
