# generated using pymatgen
data_Ca4Tb3ErCd8
_symmetry_space_group_name_H-M   'P 1'
_cell_length_a   7.53085200
_cell_length_b   7.54405200
_cell_length_c   7.47101300
_cell_angle_alpha   90.00000000
_cell_angle_beta   90.00044888
_cell_angle_gamma   90.00000000
_symmetry_Int_Tables_number   1
_chemical_formula_structural   Ca4Tb3ErCd8
_chemical_formula_sum   'Ca4 Tb3 Er1 Cd8'
_cell_volume   424.45170073
_cell_formula_units_Z   1
loop_
 _symmetry_equiv_pos_site_id
 _symmetry_equiv_pos_as_xyz
  1  'x, y, z'
loop_
 _atom_site_type_symbol
 _atom_site_label
 _atom_site_symmetry_multiplicity
 _atom_site_fract_x
 _atom_site_fract_y
 _atom_site_fract_z
 _atom_site_occupancy
  Ca  Ca0  1  0.749871  0.250000  0.000306  1
  Ca  Ca1  1  0.249888  0.750000  0.499779  1
  Ca  Ca2  1  0.750105  0.250000  0.500151  1
  Ca  Ca3  1  0.250057  0.750000  0.999810  1
  Tb  Tb4  1  0.250638  0.250000  0.000007  1
  Tb  Tb5  1  0.749433  0.750000  0.000007  1
  Tb  Tb6  1  0.750650  0.750000  0.499990  1
  Er  Er7  1  0.249133  0.250000  0.499919  1
  Cd  Cd8  1  0.000582  0.499710  0.249029  1
  Cd  Cd9  1  0.000582  0.000292  0.249029  1
  Cd  Cd10  1  0.499791  0.000492  0.251617  1
  Cd  Cd11  1  0.499791  0.499508  0.251617  1
  Cd  Cd12  1  0.499478  0.499711  0.748389  1
  Cd  Cd13  1  0.499478  0.000291  0.748389  1
  Cd  Cd14  1  0.000260  0.000481  0.750981  1
  Cd  Cd15  1  0.000260  0.499519  0.750981  1
