# generated using pymatgen
data_YTlPt4
_symmetry_space_group_name_H-M   'P 1'
_cell_length_a   5.44395087
_cell_length_b   5.44395117
_cell_length_c   5.44395200
_cell_angle_alpha   60.00000714
_cell_angle_beta   60.00000528
_cell_angle_gamma   60.00000889
_symmetry_Int_Tables_number   1
_chemical_formula_structural   YTlPt4
_chemical_formula_sum   'Y1 Tl1 Pt4'
_cell_volume   114.08479805
_cell_formula_units_Z   1
loop_
 _symmetry_equiv_pos_site_id
 _symmetry_equiv_pos_as_xyz
  1  'x, y, z'
loop_
 _atom_site_type_symbol
 _atom_site_label
 _atom_site_symmetry_multiplicity
 _atom_site_fract_x
 _atom_site_fract_y
 _atom_site_fract_z
 _atom_site_occupancy
  Y  Y0  1  0.000000  0.000000  0.000000  1
  Tl  Tl1  1  0.250000  0.250000  0.250000  1
  Pt  Pt2  1  0.624694  0.624694  0.125916  1
  Pt  Pt3  1  0.624694  0.125916  0.624694  1
  Pt  Pt4  1  0.125916  0.624694  0.624694  1
  Pt  Pt5  1  0.624694  0.624694  0.624694  1
