# generated using pymatgen
data_TaNb6Si2B4W3
_symmetry_space_group_name_H-M   'P 1'
_cell_length_a   7.25130380
_cell_length_b   7.25130343
_cell_length_c   7.28255688
_cell_angle_alpha   129.52148007
_cell_angle_beta   129.52147499
_cell_angle_gamma   74.18993092
_symmetry_Int_Tables_number   1
_chemical_formula_structural   TaNb6Si2B4W3
_chemical_formula_sum   'Ta1 Nb6 Si2 B4 W3'
_cell_volume   222.13349293
_cell_formula_units_Z   1
loop_
 _symmetry_equiv_pos_site_id
 _symmetry_equiv_pos_as_xyz
  1  'x, y, z'
loop_
 _atom_site_type_symbol
 _atom_site_label
 _atom_site_symmetry_multiplicity
 _atom_site_fract_x
 _atom_site_fract_y
 _atom_site_fract_z
 _atom_site_occupancy
  Ta  Ta0  1  0.807874  0.307874  0.836118  1
  Nb  Nb1  1  0.473190  0.973190  0.166837  1
  Nb  Nb2  1  0.305995  0.471508  0.500813  1
  Nb  Nb3  1  0.028341  0.194012  0.500244  1
  Nb  Nb4  1  0.525259  0.025259  0.830191  1
  Nb  Nb5  1  0.694012  0.528341  0.500244  1
  Nb  Nb6  1  0.971508  0.805995  0.500813  1
  Si  Si7  1  0.249680  0.253625  0.001199  1
  Si  Si8  1  0.753625  0.749680  0.001199  1
  B  B9  1  0.123671  0.623671  0.749230  1
  B  B10  1  0.875631  0.375631  0.251531  1
  B  B11  1  0.615544  0.882265  0.498660  1
  B  B12  1  0.382265  0.115544  0.498660  1
  W  W13  1  0.999790  0.998977  0.000689  1
  W  W14  1  0.498977  0.499790  0.000689  1
  W  W15  1  0.194638  0.694638  0.162883  1
