# generated using pymatgen
data_ThFe4(ReTc)4
_symmetry_space_group_name_H-M   'P 1'
_cell_length_a   6.78608631
_cell_length_b   6.78608622
_cell_length_c   6.78608663
_cell_angle_alpha   97.13988951
_cell_angle_beta   97.13989172
_cell_angle_gamma   138.71315475
_symmetry_Int_Tables_number   1
_chemical_formula_structural   ThFe4(ReTc)4
_chemical_formula_sum   'Th1 Fe4 Re4 Tc4'
_cell_volume   192.96084773
_cell_formula_units_Z   1
loop_
 _symmetry_equiv_pos_site_id
 _symmetry_equiv_pos_as_xyz
  1  'x, y, z'
loop_
 _atom_site_type_symbol
 _atom_site_label
 _atom_site_symmetry_multiplicity
 _atom_site_fract_x
 _atom_site_fract_y
 _atom_site_fract_z
 _atom_site_occupancy
  Th  Th0  1  0.000000  0.000000  0.000000  1
  Fe  Fe1  1  0.500000  0.500000  0.500000  1
  Fe  Fe2  1  0.000000  0.500000  0.000000  1
  Fe  Fe3  1  0.500000  0.000000  0.000000  1
  Fe  Fe4  1  0.000000  0.000000  0.500000  1
  Re  Re5  1  0.357572  0.000000  0.357572  1
  Re  Re6  1  0.642428  0.000000  0.642428  1
  Re  Re7  1  0.000000  0.642428  0.642428  1
  Re  Re8  1  0.000000  0.357572  0.357572  1
  Tc  Tc9  1  0.280666  0.500000  0.780666  1
  Tc  Tc10  1  0.500000  0.280666  0.780666  1
  Tc  Tc11  1  0.500000  0.719334  0.219334  1
  Tc  Tc12  1  0.719334  0.500000  0.219334  1
