# generated using pymatgen
data_HoLuUTc3
_symmetry_space_group_name_H-M   'P 1'
_cell_length_a   5.74001100
_cell_length_b   5.74001218
_cell_length_c   8.23033500
_cell_angle_alpha   90.00000000
_cell_angle_beta   90.00000000
_cell_angle_gamma   119.99998741
_symmetry_Int_Tables_number   1
_chemical_formula_structural   HoLuUTc3
_chemical_formula_sum   'Ho2 Lu2 U2 Tc6'
_cell_volume   234.84090125
_cell_formula_units_Z   2
loop_
 _symmetry_equiv_pos_site_id
 _symmetry_equiv_pos_as_xyz
  1  'x, y, z'
loop_
 _atom_site_type_symbol
 _atom_site_label
 _atom_site_symmetry_multiplicity
 _atom_site_fract_x
 _atom_site_fract_y
 _atom_site_fract_z
 _atom_site_occupancy
  Ho  Ho0  1  0.333333  0.666667  0.440291  1
  Ho  Ho1  1  0.666667  0.333333  0.559709  1
  Lu  Lu2  1  0.666667  0.333333  0.940921  1
  Lu  Lu3  1  0.333333  0.666667  0.059079  1
  U  U4  1  0.000000  0.000000  0.500000  1
  U  U5  1  0.000000  0.000000  0.000000  1
  Tc  Tc6  1  0.834595  0.165405  0.249453  1
  Tc  Tc7  1  0.834595  0.669190  0.249453  1
  Tc  Tc8  1  0.330810  0.165405  0.249453  1
  Tc  Tc9  1  0.165405  0.834595  0.750547  1
  Tc  Tc10  1  0.165405  0.330810  0.750547  1
  Tc  Tc11  1  0.669190  0.834595  0.750547  1
