# generated using pymatgen
data_TmCo3P3Rh2
_symmetry_space_group_name_H-M   'P 1'
_cell_length_a   3.71444500
_cell_length_b   10.45661600
_cell_length_c   12.05500700
_cell_angle_alpha   90.00000000
_cell_angle_beta   90.00000000
_cell_angle_gamma   90.00000000
_symmetry_Int_Tables_number   1
_chemical_formula_structural   TmCo3P3Rh2
_chemical_formula_sum   'Tm4 Co12 P12 Rh8'
_cell_volume   468.22280098
_cell_formula_units_Z   4
loop_
 _symmetry_equiv_pos_site_id
 _symmetry_equiv_pos_as_xyz
  1  'x, y, z'
loop_
 _atom_site_type_symbol
 _atom_site_label
 _atom_site_symmetry_multiplicity
 _atom_site_fract_x
 _atom_site_fract_y
 _atom_site_fract_z
 _atom_site_occupancy
  Tm  Tm0  1  0.250000  0.584162  0.710276  1
  Tm  Tm1  1  0.250000  0.915838  0.210276  1
  Tm  Tm2  1  0.750000  0.415838  0.289724  1
  Tm  Tm3  1  0.750000  0.084162  0.789724  1
  Co  Co4  1  0.250000  0.221686  0.178837  1
  Co  Co5  1  0.250000  0.278314  0.678837  1
  Co  Co6  1  0.750000  0.778314  0.821163  1
  Co  Co7  1  0.750000  0.721686  0.321163  1
  Co  Co8  1  0.250000  0.883321  0.697659  1
  Co  Co9  1  0.250000  0.616679  0.197659  1
  Co  Co10  1  0.750000  0.116679  0.302341  1
  Co  Co11  1  0.750000  0.383321  0.802341  1
  Co  Co12  1  0.250000  0.463623  0.930657  1
  Co  Co13  1  0.250000  0.036377  0.430657  1
  Co  Co14  1  0.750000  0.536377  0.069343  1
  Co  Co15  1  0.750000  0.963623  0.569343  1
  P  P16  1  0.250000  0.421490  0.111556  1
  P  P17  1  0.250000  0.078510  0.611556  1
  P  P18  1  0.750000  0.578510  0.888444  1
  P  P19  1  0.750000  0.921490  0.388444  1
  P  P20  1  0.250000  0.273821  0.862248  1
  P  P21  1  0.250000  0.226179  0.362248  1
  P  P22  1  0.750000  0.726179  0.137752  1
  P  P23  1  0.750000  0.773821  0.637752  1
  P  P24  1  0.250000  0.603711  0.379223  1
  P  P25  1  0.250000  0.896289  0.879223  1
  P  P26  1  0.750000  0.396289  0.620777  1
  P  P27  1  0.750000  0.103711  0.120777  1
  Rh  Rh28  1  0.250000  0.712469  0.987767  1
  Rh  Rh29  1  0.250000  0.787531  0.487767  1
  Rh  Rh30  1  0.750000  0.287531  0.012233  1
  Rh  Rh31  1  0.750000  0.212469  0.512233  1
  Rh  Rh32  1  0.250000  0.406715  0.478922  1
  Rh  Rh33  1  0.250000  0.093285  0.978922  1
  Rh  Rh34  1  0.750000  0.593285  0.521078  1
  Rh  Rh35  1  0.750000  0.906715  0.021078  1
