# generated using pymatgen
data_Er6Al24ZnFe2Os5
_symmetry_space_group_name_H-M   'P 1'
_cell_length_a   8.84020400
_cell_length_b   8.78044313
_cell_length_c   9.43133331
_cell_angle_alpha   90.17827021
_cell_angle_beta   90.00000000
_cell_angle_gamma   120.22539411
_symmetry_Int_Tables_number   1
_chemical_formula_structural   Er6Al24ZnFe2Os5
_chemical_formula_sum   'Er6 Al24 Zn1 Fe2 Os5'
_cell_volume   632.54112202
_cell_formula_units_Z   1
loop_
 _symmetry_equiv_pos_site_id
 _symmetry_equiv_pos_as_xyz
  1  'x, y, z'
loop_
 _atom_site_type_symbol
 _atom_site_label
 _atom_site_symmetry_multiplicity
 _atom_site_fract_x
 _atom_site_fract_y
 _atom_site_fract_z
 _atom_site_occupancy
  Er  Er0  1  0.195597  0.391194  0.252615  1
  Er  Er1  1  0.804403  0.608806  0.747385  1
  Er  Er2  1  0.612594  0.802988  0.248780  1
  Er  Er3  1  0.387406  0.197012  0.751220  1
  Er  Er4  1  0.190392  0.802988  0.248780  1
  Er  Er5  1  0.809608  0.197012  0.751220  1
  Al  Al6  1  0.329818  0.659638  0.018819  1
  Al  Al7  1  0.670182  0.340362  0.981181  1
  Al  Al8  1  0.666404  0.332807  0.516625  1
  Al  Al9  1  0.333596  0.667193  0.483375  1
  Al  Al10  1  0.159457  0.318914  0.575372  1
  Al  Al11  1  0.840543  0.681086  0.424628  1
  Al  Al12  1  0.681833  0.841807  0.574575  1
  Al  Al13  1  0.839983  0.679966  0.076698  1
  Al  Al14  1  0.318167  0.158193  0.425425  1
  Al  Al15  1  0.160017  0.320034  0.923302  1
  Al  Al16  1  0.159974  0.841807  0.574575  1
  Al  Al17  1  0.313414  0.165323  0.079623  1
  Al  Al18  1  0.840026  0.158193  0.425425  1
  Al  Al19  1  0.686586  0.834677  0.920377  1
  Al  Al20  1  0.851909  0.165323  0.079623  1
  Al  Al21  1  0.148091  0.834677  0.920377  1
  Al  Al22  1  0.562456  0.124914  0.253321  1
  Al  Al23  1  0.437544  0.875086  0.746679  1
  Al  Al24  1  0.877172  0.438028  0.249050  1
  Al  Al25  1  0.122828  0.561972  0.750950  1
  Al  Al26  1  0.560856  0.438028  0.249050  1
  Al  Al27  1  0.439144  0.561972  0.750950  1
  Al  Al28  1  0.999003  0.998005  0.250858  1
  Al  Al29  1  0.000997  0.001995  0.749142  1
  Zn  Zn30  1  0.500000  0.000000  0.000000  1
  Fe  Fe31  1  0.000000  0.000000  0.000000  1
  Fe  Fe32  1  0.000000  0.000000  0.500000  1
  Os  Os33  1  0.000000  0.500000  0.000000  1
  Os  Os34  1  0.500000  0.000000  0.500000  1
  Os  Os35  1  0.500000  0.500000  0.000000  1
  Os  Os36  1  0.000000  0.500000  0.500000  1
  Os  Os37  1  0.500000  0.500000  0.500000  1
