# generated using pymatgen
data_LiDy2Tm(B6Os)2
_symmetry_space_group_name_H-M   'P 1'
_cell_length_a   3.58214800
_cell_length_b   8.97555652
_cell_length_c   11.36231447
_cell_angle_alpha   89.85186459
_cell_angle_beta   90.00000000
_cell_angle_gamma   90.00000000
_symmetry_Int_Tables_number   1
_chemical_formula_structural   LiDy2Tm(B6Os)2
_chemical_formula_sum   'Li2 Dy4 Tm2 B24 Os4'
_cell_volume   365.31732133
_cell_formula_units_Z   2
loop_
 _symmetry_equiv_pos_site_id
 _symmetry_equiv_pos_as_xyz
  1  'x, y, z'
loop_
 _atom_site_type_symbol
 _atom_site_label
 _atom_site_symmetry_multiplicity
 _atom_site_fract_x
 _atom_site_fract_y
 _atom_site_fract_z
 _atom_site_occupancy
  Li  Li0  1  0.000000  0.945105  0.375199  1
  Li  Li1  1  0.000000  0.054895  0.624802  1
  Dy  Dy2  1  0.000000  0.317144  0.415759  1
  Dy  Dy3  1  0.000000  0.682856  0.584241  1
  Dy  Dy4  1  0.000000  0.824079  0.088029  1
  Dy  Dy5  1  0.000000  0.175921  0.911971  1
  Tm  Tm6  1  0.000000  0.442837  0.130925  1
  Tm  Tm7  1  0.000000  0.557163  0.869074  1
  B  B8  1  0.500000  0.556037  0.433546  1
  B  B9  1  0.500000  0.443963  0.566454  1
  B  B10  1  0.500000  0.052974  0.068504  1
  B  B11  1  0.500000  0.947026  0.931496  1
  B  B12  1  0.500000  0.759753  0.418357  1
  B  B13  1  0.500000  0.240247  0.581643  1
  B  B14  1  0.500000  0.248454  0.082963  1
  B  B15  1  0.500000  0.751546  0.917037  1
  B  B16  1  0.500000  0.796150  0.266398  1
  B  B17  1  0.500000  0.203850  0.733602  1
  B  B18  1  0.500000  0.288556  0.237345  1
  B  B19  1  0.500000  0.711443  0.762655  1
  B  B20  1  0.500000  0.632224  0.186497  1
  B  B21  1  0.500000  0.367776  0.813503  1
  B  B22  1  0.500000  0.122482  0.319902  1
  B  B23  1  0.500000  0.877518  0.680098  1
  B  B24  1  0.500000  0.979006  0.215389  1
  B  B25  1  0.500000  0.020994  0.784611  1
  B  B26  1  0.500000  0.482713  0.289485  1
  B  B27  1  0.500000  0.517287  0.710515  1
  B  B28  1  0.500000  0.602265  0.027744  1
  B  B29  1  0.500000  0.397735  0.972256  1
  B  B30  1  0.500000  0.091307  0.474226  1
  B  B31  1  0.500000  0.908693  0.525774  1
  Os  Os32  1  0.000000  0.643227  0.322833  1
  Os  Os33  1  0.000000  0.356773  0.677167  1
  Os  Os34  1  0.000000  0.134813  0.184235  1
  Os  Os35  1  0.000000  0.865187  0.815765  1
