# generated using pymatgen
data_Ca2SnSb2Pd9
_symmetry_space_group_name_H-M   'P 1'
_cell_length_a   8.00146809
_cell_length_b   8.00146774
_cell_length_c   9.50412200
_cell_angle_alpha   90.00000000
_cell_angle_beta   90.00000000
_cell_angle_gamma   119.41642319
_symmetry_Int_Tables_number   1
_chemical_formula_structural   Ca2SnSb2Pd9
_chemical_formula_sum   'Ca4 Sn2 Sb4 Pd18'
_cell_volume   530.03667693
_cell_formula_units_Z   2
loop_
 _symmetry_equiv_pos_site_id
 _symmetry_equiv_pos_as_xyz
  1  'x, y, z'
loop_
 _atom_site_type_symbol
 _atom_site_label
 _atom_site_symmetry_multiplicity
 _atom_site_fract_x
 _atom_site_fract_y
 _atom_site_fract_z
 _atom_site_occupancy
  Ca  Ca0  1  0.327101  0.015884  0.750000  1
  Ca  Ca1  1  0.672899  0.984116  0.250000  1
  Ca  Ca2  1  0.015884  0.327101  0.750000  1
  Ca  Ca3  1  0.984116  0.672899  0.250000  1
  Sn  Sn4  1  0.000000  0.000000  0.500000  1
  Sn  Sn5  1  0.000000  0.000000  0.000000  1
  Sb  Sb6  1  0.675912  0.324088  0.000000  1
  Sb  Sb7  1  0.324088  0.675912  0.500000  1
  Sb  Sb8  1  0.324088  0.675912  0.000000  1
  Sb  Sb9  1  0.675912  0.324088  0.500000  1
  Pd  Pd10  1  0.332477  0.332477  0.964997  1
  Pd  Pd11  1  0.447521  0.649056  0.750000  1
  Pd  Pd12  1  0.552479  0.350944  0.250000  1
  Pd  Pd13  1  0.649056  0.447521  0.750000  1
  Pd  Pd14  1  0.999616  0.338614  0.081262  1
  Pd  Pd15  1  0.000384  0.661386  0.581262  1
  Pd  Pd16  1  0.338614  0.999616  0.418738  1
  Pd  Pd17  1  0.661386  0.000384  0.918738  1
  Pd  Pd18  1  0.000384  0.661386  0.918738  1
  Pd  Pd19  1  0.999616  0.338614  0.418738  1
  Pd  Pd20  1  0.661386  0.000384  0.581262  1
  Pd  Pd21  1  0.858807  0.858807  0.750000  1
  Pd  Pd22  1  0.332477  0.332477  0.535003  1
  Pd  Pd23  1  0.667523  0.667523  0.035003  1
  Pd  Pd24  1  0.338614  0.999616  0.081262  1
  Pd  Pd25  1  0.667523  0.667523  0.464997  1
  Pd  Pd26  1  0.141193  0.141193  0.250000  1
  Pd  Pd27  1  0.350944  0.552479  0.250000  1
