# generated using pymatgen
data_U2SbNO
_symmetry_space_group_name_H-M   'P 1'
_cell_length_a   6.79875234
_cell_length_b   6.79875206
_cell_length_c   6.79875242
_cell_angle_alpha   146.80279578
_cell_angle_beta   146.80279069
_cell_angle_gamma   47.65586651
_symmetry_Int_Tables_number   1
_chemical_formula_structural   U2SbNO
_chemical_formula_sum   'U2 Sb1 N1 O1'
_cell_volume   93.83616205
_cell_formula_units_Z   1
loop_
 _symmetry_equiv_pos_site_id
 _symmetry_equiv_pos_as_xyz
  1  'x, y, z'
loop_
 _atom_site_type_symbol
 _atom_site_label
 _atom_site_symmetry_multiplicity
 _atom_site_fract_x
 _atom_site_fract_y
 _atom_site_fract_z
 _atom_site_occupancy
  U  U0  1  0.345570  0.345570  0.000000  1
  U  U1  1  0.654430  0.654430  0.000000  1
  Sb  Sb2  1  0.000000  0.000000  0.000000  1
  N  N3  1  0.250000  0.750000  0.500000  1
  O  O4  1  0.750000  0.250000  0.500000  1
