# generated using pymatgen
data_LaTh2(AgSn)4
_symmetry_space_group_name_H-M   'P 1'
_cell_length_a   8.96851747
_cell_length_b   8.96851652
_cell_length_c   8.96851749
_cell_angle_alpha   149.18861044
_cell_angle_beta   131.37130373
_cell_angle_gamma   58.68155298
_symmetry_Int_Tables_number   1
_chemical_formula_structural   LaTh2(AgSn)4
_chemical_formula_sum   'La1 Th2 Ag4 Sn4'
_cell_volume   275.13008898
_cell_formula_units_Z   1
loop_
 _symmetry_equiv_pos_site_id
 _symmetry_equiv_pos_as_xyz
  1  'x, y, z'
loop_
 _atom_site_type_symbol
 _atom_site_label
 _atom_site_symmetry_multiplicity
 _atom_site_fract_x
 _atom_site_fract_y
 _atom_site_fract_z
 _atom_site_occupancy
  La  La0  1  0.628374  0.128374  0.500000  1
  Th  Th1  1  0.371953  0.871953  0.500000  1
  Th  Th2  1  0.998224  0.998224  0.000000  1
  Ag  Ag3  1  0.637626  0.331315  0.306311  1
  Ag  Ag4  1  0.361846  0.669204  0.692642  1
  Ag  Ag5  1  0.025003  0.331315  0.693689  1
  Ag  Ag6  1  0.976564  0.669204  0.307358  1
  Sn  Sn7  1  0.216009  0.216009  0.000000  1
  Sn  Sn8  1  0.785234  0.785234  0.000000  1
  Sn  Sn9  1  0.697284  0.499583  0.197701  1
  Sn  Sn10  1  0.301883  0.499583  0.802299  1
