# generated using pymatgen
data_Fe7Co(As2O5)4
_symmetry_space_group_name_H-M   'P 1'
_cell_length_a   6.33029803
_cell_length_b   9.39427428
_cell_length_c   9.52501900
_cell_angle_alpha   66.93294684
_cell_angle_beta   81.75459168
_cell_angle_gamma   78.46822830
_symmetry_Int_Tables_number   1
_chemical_formula_structural   Fe7Co(As2O5)4
_chemical_formula_sum   'Fe7 Co1 As8 O20'
_cell_volume   509.29798960
_cell_formula_units_Z   1
loop_
 _symmetry_equiv_pos_site_id
 _symmetry_equiv_pos_as_xyz
  1  'x, y, z'
loop_
 _atom_site_type_symbol
 _atom_site_label
 _atom_site_symmetry_multiplicity
 _atom_site_fract_x
 _atom_site_fract_y
 _atom_site_fract_z
 _atom_site_occupancy
  Fe  Fe0  1  0.149475  0.930682  0.629131  1
  Fe  Fe1  1  0.596112  0.413914  0.161664  1
  Fe  Fe2  1  0.894510  0.607947  0.848195  1
  Fe  Fe3  1  0.104869  0.392174  0.153336  1
  Fe  Fe4  1  0.403367  0.586891  0.839089  1
  Fe  Fe5  1  0.849254  0.070808  0.370770  1
  Fe  Fe6  1  0.680635  0.738759  0.530394  1
  Co  Co7  1  0.325300  0.262004  0.463633  1
  As  As8  1  0.788214  0.390558  0.490549  1
  As  As9  1  0.262227  0.276010  0.832930  1
  As  As10  1  0.384616  0.038738  0.250037  1
  As  As11  1  0.738640  0.722718  0.167579  1
  As  As12  1  0.213653  0.605826  0.512651  1
  As  As13  1  0.773398  0.220644  0.991183  1
  As  As14  1  0.610526  0.965996  0.747278  1
  As  As15  1  0.225737  0.780880  0.008000  1
  O  O16  1  0.823121  0.021834  0.598568  1
  O  O17  1  0.399079  0.647550  0.610121  1
  O  O18  1  0.973381  0.661326  0.614911  1
  O  O19  1  0.763966  0.608958  0.374894  1
  O  O20  1  0.824323  0.570308  0.091658  1
  O  O21  1  0.622309  0.947937  0.355492  1
  O  O22  1  0.375182  0.055360  0.637021  1
  O  O23  1  0.883803  0.231531  0.153772  1
  O  O24  1  0.028926  0.333967  0.390031  1
  O  O25  1  0.113629  0.769824  0.846424  1
  O  O26  1  0.176106  0.977398  0.399977  1
  O  O27  1  0.012601  0.195979  0.868145  1
  O  O28  1  0.683402  0.431647  0.914180  1
  O  O29  1  0.383899  0.235062  0.246461  1
  O  O30  1  0.176593  0.428278  0.909500  1
  O  O31  1  0.601203  0.349361  0.392886  1
  O  O32  1  0.613615  0.767910  0.756986  1
  O  O33  1  0.317575  0.569724  0.085495  1
  O  O34  1  0.239892  0.387638  0.624931  1
  O  O35  1  0.986866  0.803857  0.132129  1
