# generated using pymatgen
data_V3InF9
_symmetry_space_group_name_H-M   'P 1'
_cell_length_a   7.62585403
_cell_length_b   7.66528101
_cell_length_c   7.73291480
_cell_angle_alpha   89.86031019
_cell_angle_beta   89.92207217
_cell_angle_gamma   59.83046388
_symmetry_Int_Tables_number   1
_chemical_formula_structural   V3InF9
_chemical_formula_sum   'V6 In2 F18'
_cell_volume   390.79109682
_cell_formula_units_Z   2
loop_
 _symmetry_equiv_pos_site_id
 _symmetry_equiv_pos_as_xyz
  1  'x, y, z'
loop_
 _atom_site_type_symbol
 _atom_site_label
 _atom_site_symmetry_multiplicity
 _atom_site_fract_x
 _atom_site_fract_y
 _atom_site_fract_z
 _atom_site_occupancy
  V  V0  1  0.498712  0.000513  0.999690  1
  V  V1  1  0.499185  0.499848  0.999334  1
  V  V2  1  0.999677  0.999776  0.499563  1
  V  V3  1  0.999241  0.999842  0.999609  1
  V  V4  1  0.499742  0.499642  0.499499  1
  V  V5  1  0.499435  0.999726  0.499740  1
  In  In6  1  0.917792  0.541421  0.248986  1
  In  In7  1  0.079280  0.465177  0.749360  1
  F  F8  1  0.567585  0.504125  0.758791  1
  F  F9  1  0.431807  0.072738  0.259075  1
  F  F10  1  0.805006  0.285122  0.455620  1
  F  F11  1  0.209192  0.077571  0.549581  1
  F  F12  1  0.789235  0.287289  0.049658  1
  F  F13  1  0.193326  0.091127  0.956850  1
  F  F14  1  0.408930  0.287216  0.556217  1
  F  F15  1  0.589822  0.712792  0.443271  1
  F  F16  1  0.075842  0.961476  0.249717  1
  F  F17  1  0.923205  0.037757  0.749670  1
  F  F18  1  0.408253  0.303772  0.943174  1
  F  F19  1  0.589819  0.696767  0.055868  1
  F  F20  1  0.789873  0.921760  0.450381  1
  F  F21  1  0.193819  0.714302  0.542928  1
  F  F22  1  0.804859  0.908764  0.043132  1
  F  F23  1  0.209126  0.712561  0.948917  1
  F  F24  1  0.567518  0.927033  0.740531  1
  F  F25  1  0.430851  0.495668  0.240230  1
