# generated using pymatgen
data_TbNdPa2(Al3Co)6
_symmetry_space_group_name_H-M   'P 1'
_cell_length_a   7.45405607
_cell_length_b   7.44683514
_cell_length_c   9.27355300
_cell_angle_alpha   90.00000000
_cell_angle_beta   90.00000000
_cell_angle_gamma   119.18165679
_symmetry_Int_Tables_number   1
_chemical_formula_structural   TbNdPa2(Al3Co)6
_chemical_formula_sum   'Tb1 Nd1 Pa2 Al18 Co6'
_cell_volume   449.43170678
_cell_formula_units_Z   1
loop_
 _symmetry_equiv_pos_site_id
 _symmetry_equiv_pos_as_xyz
  1  'x, y, z'
loop_
 _atom_site_type_symbol
 _atom_site_label
 _atom_site_symmetry_multiplicity
 _atom_site_fract_x
 _atom_site_fract_y
 _atom_site_fract_z
 _atom_site_occupancy
  Tb  Tb0  1  0.993839  0.672237  0.250000  1
  Nd  Nd1  1  0.672038  0.994281  0.250000  1
  Pa  Pa2  1  0.006714  0.323535  0.750000  1
  Pa  Pa3  1  0.323738  0.006527  0.750000  1
  Al  Al4  1  0.662171  0.998126  0.926457  1
  Al  Al5  1  0.998876  0.662602  0.571693  1
  Al  Al6  1  0.126425  0.124899  0.250000  1
  Al  Al7  1  0.669535  0.667951  0.044996  1
  Al  Al8  1  0.337061  0.337002  0.541420  1
  Al  Al9  1  0.337061  0.337002  0.958580  1
  Al  Al10  1  0.669535  0.667951  0.455004  1
  Al  Al11  1  0.333386  0.997649  0.072801  1
  Al  Al12  1  0.999859  0.337534  0.427189  1
  Al  Al13  1  0.338215  0.554641  0.250000  1
  Al  Al14  1  0.999859  0.337534  0.072811  1
  Al  Al15  1  0.556484  0.343737  0.250000  1
  Al  Al16  1  0.659214  0.446904  0.750000  1
  Al  Al17  1  0.867582  0.866526  0.750000  1
  Al  Al18  1  0.998876  0.662602  0.928307  1
  Al  Al19  1  0.662171  0.998126  0.573543  1
  Al  Al20  1  0.333386  0.997649  0.427199  1
  Al  Al21  1  0.446752  0.657744  0.750000  1
  Co  Co22  1  0.670915  0.326437  0.505871  1
  Co  Co23  1  0.670915  0.326437  0.994129  1
  Co  Co24  1  0.325383  0.670353  0.506035  1
  Co  Co25  1  0.007318  0.006833  0.989488  1
  Co  Co26  1  0.007318  0.006833  0.510512  1
  Co  Co27  1  0.325383  0.670353  0.993965  1
