# generated using pymatgen
data_Sr8Yb5Th7Pt16
_symmetry_space_group_name_H-M   'P 1'
_cell_length_a   7.89184967
_cell_length_b   7.97333077
_cell_length_c   15.05220027
_cell_angle_alpha   90.03458967
_cell_angle_beta   89.96869596
_cell_angle_gamma   90.10605782
_symmetry_Int_Tables_number   1
_chemical_formula_structural   Sr8Yb5Th7Pt16
_chemical_formula_sum   'Sr8 Yb5 Th7 Pt16'
_cell_volume   947.14764784
_cell_formula_units_Z   1
loop_
 _symmetry_equiv_pos_site_id
 _symmetry_equiv_pos_as_xyz
  1  'x, y, z'
loop_
 _atom_site_type_symbol
 _atom_site_label
 _atom_site_symmetry_multiplicity
 _atom_site_fract_x
 _atom_site_fract_y
 _atom_site_fract_z
 _atom_site_occupancy
  Sr  Sr0  1  0.499949  0.328632  0.900873  1
  Sr  Sr1  1  0.993458  0.176023  0.599902  1
  Sr  Sr2  1  0.505230  0.676562  0.401832  1
  Sr  Sr3  1  0.002953  0.821307  0.093865  1
  Sr  Sr4  1  0.505795  0.675810  0.097024  1
  Sr  Sr5  1  0.004942  0.823664  0.401996  1
  Sr  Sr6  1  0.494698  0.323677  0.600149  1
  Sr  Sr7  1  0.993060  0.178881  0.900549  1
  Yb  Yb8  1  0.840290  0.665836  0.878284  1
  Yb  Yb9  1  0.174135  0.487359  0.752776  1
  Yb  Yb10  1  0.682821  0.011336  0.751659  1
  Yb  Yb11  1  0.819450  0.517240  0.249329  1
  Yb  Yb12  1  0.318639  0.982611  0.249410  1
  Th  Th13  1  0.339766  0.837055  0.878622  1
  Th  Th14  1  0.839409  0.660973  0.623466  1
  Th  Th15  1  0.661142  0.163022  0.378837  1
  Th  Th16  1  0.159006  0.336392  0.120730  1
  Th  Th17  1  0.661084  0.163593  0.120645  1
  Th  Th18  1  0.160369  0.337358  0.378153  1
  Th  Th19  1  0.338179  0.835742  0.622666  1
  Pt  Pt20  1  0.328005  0.049060  0.044169  1
  Pt  Pt21  1  0.831284  0.450696  0.455947  1
  Pt  Pt22  1  0.668643  0.949556  0.544016  1
  Pt  Pt23  1  0.176133  0.545995  0.958128  1
  Pt  Pt24  1  0.663790  0.960893  0.956246  1
  Pt  Pt25  1  0.168782  0.547601  0.543734  1
  Pt  Pt26  1  0.331558  0.049719  0.455876  1
  Pt  Pt27  1  0.836719  0.447826  0.046754  1
  Pt  Pt28  1  0.539002  0.645028  0.749361  1
  Pt  Pt29  1  0.046239  0.854409  0.746078  1
  Pt  Pt30  1  0.458393  0.354454  0.250352  1
  Pt  Pt31  1  0.959393  0.141590  0.250823  1
  Pt  Pt32  1  0.313665  0.112660  0.751935  1
  Pt  Pt33  1  0.803905  0.387967  0.747111  1
  Pt  Pt34  1  0.690095  0.889023  0.249313  1
  Pt  Pt35  1  0.190016  0.610451  0.249387  1
