# generated using pymatgen
data_Ca3Ge3As3Pd20
_symmetry_space_group_name_H-M   'P 1'
_cell_length_a   8.87637416
_cell_length_b   8.88565235
_cell_length_c   8.90898760
_cell_angle_alpha   59.84413762
_cell_angle_beta   59.94739280
_cell_angle_gamma   60.20848435
_symmetry_Int_Tables_number   1
_chemical_formula_structural   Ca3Ge3As3Pd20
_chemical_formula_sum   'Ca3 Ge3 As3 Pd20'
_cell_volume   496.85421524
_cell_formula_units_Z   1
loop_
 _symmetry_equiv_pos_site_id
 _symmetry_equiv_pos_as_xyz
  1  'x, y, z'
loop_
 _atom_site_type_symbol
 _atom_site_label
 _atom_site_symmetry_multiplicity
 _atom_site_fract_x
 _atom_site_fract_y
 _atom_site_fract_z
 _atom_site_occupancy
  Ca  Ca0  1  0.250275  0.249725  0.250275  1
  Ca  Ca1  1  0.750275  0.749725  0.750275  1
  Ca  Ca2  1  0.999906  0.000094  0.999906  1
  Ge  Ge3  1  0.732795  0.267205  0.732795  1
  Ge  Ge4  1  0.268048  0.266949  0.733051  1
  Ge  Ge5  1  0.733051  0.731952  0.268048  1
  As  As6  1  0.735600  0.264400  0.265125  1
  As  As7  1  0.265125  0.734875  0.735600  1
  As  As8  1  0.265305  0.734695  0.265305  1
  Pd  Pd9  1  0.384668  0.383663  0.383837  1
  Pd  Pd10  1  0.615632  0.616609  0.617181  1
  Pd  Pd11  1  0.383391  0.384368  0.849423  1
  Pd  Pd12  1  0.383837  0.847833  0.384668  1
  Pd  Pd13  1  0.616337  0.615332  0.152167  1
  Pd  Pd14  1  0.617181  0.150577  0.615632  1
  Pd  Pd15  1  0.849423  0.382819  0.383391  1
  Pd  Pd16  1  0.152167  0.616163  0.616337  1
  Pd  Pd17  1  0.349446  0.000583  0.999417  1
  Pd  Pd18  1  0.652784  0.999159  0.000841  1
  Pd  Pd19  1  0.000841  0.347216  0.652784  1
  Pd  Pd20  1  0.999417  0.650554  0.349446  1
  Pd  Pd21  1  0.999657  0.349608  0.997185  1
  Pd  Pd22  1  0.650392  0.000343  0.346450  1
  Pd  Pd23  1  0.997185  0.653550  0.999657  1
  Pd  Pd24  1  0.346450  0.002815  0.650392  1
  Pd  Pd25  1  0.000440  0.999560  0.348332  1
  Pd  Pd26  1  0.999231  0.000769  0.652811  1
  Pd  Pd27  1  0.652811  0.347189  0.999231  1
  Pd  Pd28  1  0.348332  0.651668  0.000440  1
