# generated using pymatgen
data_TaMnNb2(BRu2)2
_symmetry_space_group_name_H-M   'P 1'
_cell_length_a   9.32438800
_cell_length_b   9.32438800
_cell_length_c   3.03180900
_cell_angle_alpha   90.00000000
_cell_angle_beta   90.00000000
_cell_angle_gamma   90.00000000
_symmetry_Int_Tables_number   1
_chemical_formula_structural   TaMnNb2(BRu2)2
_chemical_formula_sum   'Ta2 Mn2 Nb4 B4 Ru8'
_cell_volume   263.59824315
_cell_formula_units_Z   2
loop_
 _symmetry_equiv_pos_site_id
 _symmetry_equiv_pos_as_xyz
  1  'x, y, z'
loop_
 _atom_site_type_symbol
 _atom_site_label
 _atom_site_symmetry_multiplicity
 _atom_site_fract_x
 _atom_site_fract_y
 _atom_site_fract_z
 _atom_site_occupancy
  Ta  Ta0  1  0.500000  0.500000  0.000000  1
  Ta  Ta1  1  0.000000  0.000000  0.000000  1
  Mn  Mn2  1  0.500000  0.000000  0.500000  1
  Mn  Mn3  1  0.000000  0.500000  0.500000  1
  Nb  Nb4  1  0.831006  0.668994  0.000000  1
  Nb  Nb5  1  0.168994  0.331006  0.000000  1
  Nb  Nb6  1  0.331006  0.831006  0.000000  1
  Nb  Nb7  1  0.668994  0.168994  0.000000  1
  B  B8  1  0.613386  0.886614  0.000000  1
  B  B9  1  0.386614  0.113386  0.000000  1
  B  B10  1  0.113386  0.613386  0.000000  1
  B  B11  1  0.886614  0.386614  0.000000  1
  Ru  Ru12  1  0.571246  0.720250  0.500000  1
  Ru  Ru13  1  0.428754  0.279750  0.500000  1
  Ru  Ru14  1  0.071246  0.779750  0.500000  1
  Ru  Ru15  1  0.928754  0.220250  0.500000  1
  Ru  Ru16  1  0.279750  0.571246  0.500000  1
  Ru  Ru17  1  0.720250  0.428754  0.500000  1
  Ru  Ru18  1  0.220250  0.071246  0.500000  1
  Ru  Ru19  1  0.779750  0.928754  0.500000  1
