# generated using pymatgen
data_Tb2U6Nb12Si7Ge9
_symmetry_space_group_name_H-M   'P 1'
_cell_length_a   7.12949902
_cell_length_b   7.13294267
_cell_length_c   13.17631771
_cell_angle_alpha   89.89753644
_cell_angle_beta   90.11226455
_cell_angle_gamma   89.75302014
_symmetry_Int_Tables_number   1
_chemical_formula_structural   Tb2U6Nb12Si7Ge9
_chemical_formula_sum   'Tb2 U6 Nb12 Si7 Ge9'
_cell_volume   670.06392350
_cell_formula_units_Z   1
loop_
 _symmetry_equiv_pos_site_id
 _symmetry_equiv_pos_as_xyz
  1  'x, y, z'
loop_
 _atom_site_type_symbol
 _atom_site_label
 _atom_site_symmetry_multiplicity
 _atom_site_fract_x
 _atom_site_fract_y
 _atom_site_fract_z
 _atom_site_occupancy
  Tb  Tb0  1  0.996857  0.333887  0.218666  1
  Tb  Tb1  1  0.002534  0.665819  0.719601  1
  U  U2  1  0.171136  0.492589  0.472639  1
  U  U3  1  0.510604  0.827720  0.028761  1
  U  U4  1  0.826129  0.510186  0.970483  1
  U  U5  1  0.490697  0.171195  0.531302  1
  U  U6  1  0.337080  0.001073  0.779460  1
  U  U7  1  0.663481  0.998000  0.279329  1
  Nb  Nb8  1  0.165636  0.164527  0.997431  1
  Nb  Nb9  1  0.834617  0.836198  0.497933  1
  Nb  Nb10  1  0.338119  0.668840  0.249703  1
  Nb  Nb11  1  0.661950  0.333594  0.750680  1
  Nb  Nb12  1  0.156240  0.000399  0.379752  1
  Nb  Nb13  1  0.841062  0.993670  0.880106  1
  Nb  Nb14  1  0.496161  0.656971  0.628307  1
  Nb  Nb15  1  0.348546  0.503035  0.874009  1
  Nb  Nb16  1  0.504315  0.344579  0.125508  1
  Nb  Nb17  1  0.657398  0.500229  0.374220  1
  Nb  Nb18  1  0.005677  0.158533  0.622491  1
  Nb  Nb19  1  0.991946  0.840192  0.121169  1
  Si  Si20  1  0.628479  0.705890  0.816468  1
  Si  Si21  1  0.203296  0.870471  0.569491  1
  Si  Si22  1  0.132223  0.796290  0.930777  1
  Si  Si23  1  0.796562  0.130870  0.068249  1
  Si  Si24  1  0.868747  0.203512  0.430714  1
  Si  Si25  1  0.296063  0.372192  0.683693  1
  Si  Si26  1  0.703497  0.627845  0.183148  1
  Ge  Ge27  1  0.293145  0.031512  0.180506  1
  Ge  Ge28  1  0.707444  0.965260  0.683117  1
  Ge  Ge29  1  0.462803  0.795859  0.435108  1
  Ge  Ge30  1  0.204101  0.536648  0.065193  1
  Ge  Ge31  1  0.537290  0.203685  0.934667  1
  Ge  Ge32  1  0.794978  0.463699  0.566028  1
  Ge  Ge33  1  0.033256  0.296183  0.816818  1
  Ge  Ge34  1  0.967121  0.702756  0.315949  1
  Ge  Ge35  1  0.370812  0.296090  0.318523  1
