# generated using pymatgen
data_Th4Si6AgRh
_symmetry_space_group_name_H-M   'P 1'
_cell_length_a   8.33100221
_cell_length_b   8.28157119
_cell_length_c   5.94975894
_cell_angle_alpha   69.45861192
_cell_angle_beta   68.56971980
_cell_angle_gamma   41.97167267
_symmetry_Int_Tables_number   1
_chemical_formula_structural   Th4Si6AgRh
_chemical_formula_sum   'Th4 Si6 Ag1 Rh1'
_cell_volume   253.46628330
_cell_formula_units_Z   1
loop_
 _symmetry_equiv_pos_site_id
 _symmetry_equiv_pos_as_xyz
  1  'x, y, z'
loop_
 _atom_site_type_symbol
 _atom_site_label
 _atom_site_symmetry_multiplicity
 _atom_site_fract_x
 _atom_site_fract_y
 _atom_site_fract_z
 _atom_site_occupancy
  Th  Th0  1  0.747209  0.747209  0.752791  1
  Th  Th1  1  0.759061  0.246373  0.753627  1
  Th  Th2  1  0.247209  0.247209  0.252791  1
  Th  Th3  1  0.246373  0.759061  0.240939  1
  Si  Si4  1  0.830909  0.337512  0.169091  1
  Si  Si5  1  0.677004  0.160135  0.322996  1
  Si  Si6  1  0.160135  0.677004  0.839865  1
  Si  Si7  1  0.337512  0.830909  0.662488  1
  Si  Si8  1  0.163382  0.163382  0.836618  1
  Si  Si9  1  0.830338  0.830338  0.169662  1
  Ag  Ag10  1  0.335494  0.335494  0.664506  1
  Rh  Rh11  1  0.665372  0.665372  0.334628  1
