# generated using pymatgen
data_LaTb2Al2Co9B4
_symmetry_space_group_name_H-M   'P 1'
_cell_length_a   5.16594005
_cell_length_b   5.16611755
_cell_length_c   9.55991400
_cell_angle_alpha   89.99967954
_cell_angle_beta   89.99991815
_cell_angle_gamma   119.99333493
_symmetry_Int_Tables_number   1
_chemical_formula_structural   LaTb2Al2Co9B4
_chemical_formula_sum   'La1 Tb2 Al2 Co9 B4'
_cell_volume   220.96700387
_cell_formula_units_Z   1
loop_
 _symmetry_equiv_pos_site_id
 _symmetry_equiv_pos_as_xyz
  1  'x, y, z'
loop_
 _atom_site_type_symbol
 _atom_site_label
 _atom_site_symmetry_multiplicity
 _atom_site_fract_x
 _atom_site_fract_y
 _atom_site_fract_z
 _atom_site_occupancy
  La  La0  1  0.999986  0.999999  0.000173  1
  Tb  Tb1  1  0.000002  0.000008  0.341655  1
  Tb  Tb2  1  0.999993  0.999997  0.658399  1
  Al  Al3  1  0.333368  0.666683  0.000027  1
  Al  Al4  1  0.666611  0.333310  0.000027  1
  Co  Co5  1  0.499997  0.000001  0.499953  1
  Co  Co6  1  0.499996  0.500002  0.499957  1
  Co  Co7  1  0.999996  0.500001  0.499949  1
  Co  Co8  1  0.499999  0.000005  0.209643  1
  Co  Co9  1  0.500000  0.500006  0.209651  1
  Co  Co10  1  0.999997  0.500004  0.209654  1
  Co  Co11  1  0.499990  0.999994  0.790340  1
  Co  Co12  1  0.499991  0.499995  0.790332  1
  Co  Co13  1  0.999992  0.499993  0.790354  1
  B  B14  1  0.333313  0.666675  0.350653  1
  B  B15  1  0.666682  0.333333  0.350653  1
  B  B16  1  0.666669  0.333339  0.649291  1
  B  B17  1  0.333317  0.666654  0.649291  1
