# generated using pymatgen
data_Sc3AlIn2NiAu2
_symmetry_space_group_name_H-M   'P 1'
_cell_length_a   7.58646409
_cell_length_b   7.58646347
_cell_length_c   6.86795310
_cell_angle_alpha   90.00778580
_cell_angle_beta   89.99221769
_cell_angle_gamma   119.98227480
_symmetry_Int_Tables_number   1
_chemical_formula_structural   Sc3AlIn2NiAu2
_chemical_formula_sum   'Sc6 Al2 In4 Ni2 Au4'
_cell_volume   342.38463512
_cell_formula_units_Z   2
loop_
 _symmetry_equiv_pos_site_id
 _symmetry_equiv_pos_as_xyz
  1  'x, y, z'
loop_
 _atom_site_type_symbol
 _atom_site_label
 _atom_site_symmetry_multiplicity
 _atom_site_fract_x
 _atom_site_fract_y
 _atom_site_fract_z
 _atom_site_occupancy
  Sc  Sc0  1  0.601289  0.992071  0.747454  1
  Sc  Sc1  1  0.008427  0.610511  0.746610  1
  Sc  Sc2  1  0.382201  0.389645  0.745298  1
  Sc  Sc3  1  0.992071  0.601289  0.252546  1
  Sc  Sc4  1  0.610511  0.008427  0.253390  1
  Sc  Sc5  1  0.389645  0.382201  0.254702  1
  Al  Al6  1  0.265942  0.999208  0.499837  1
  Al  Al7  1  0.999208  0.265942  0.500163  1
  In  In8  1  0.755613  0.755613  0.000000  1
  In  In9  1  0.249302  0.997680  0.000514  1
  In  In10  1  0.997680  0.249302  0.999486  1
  In  In11  1  0.731226  0.731226  0.500000  1
  Ni  Ni12  1  0.016242  0.016130  0.711839  1
  Ni  Ni13  1  0.016130  0.016242  0.288161  1
  Au  Au14  1  0.664916  0.334288  0.986600  1
  Au  Au15  1  0.663779  0.321532  0.511021  1
  Au  Au16  1  0.321532  0.663779  0.488979  1
  Au  Au17  1  0.334288  0.664916  0.013400  1
