# generated using pymatgen
data_NdHg3Ir2(RhO7)2
_symmetry_space_group_name_H-M   'P 1'
_cell_length_a   7.27400148
_cell_length_b   7.38249997
_cell_length_c   7.26110100
_cell_angle_alpha   60.54249804
_cell_angle_beta   60.05865429
_cell_angle_gamma   60.52456881
_symmetry_Int_Tables_number   1
_chemical_formula_structural   NdHg3Ir2(RhO7)2
_chemical_formula_sum   'Nd1 Hg3 Ir2 Rh2 O14'
_cell_volume   278.04501667
_cell_formula_units_Z   1
loop_
 _symmetry_equiv_pos_site_id
 _symmetry_equiv_pos_as_xyz
  1  'x, y, z'
loop_
 _atom_site_type_symbol
 _atom_site_label
 _atom_site_symmetry_multiplicity
 _atom_site_fract_x
 _atom_site_fract_y
 _atom_site_fract_z
 _atom_site_occupancy
  Nd  Nd0  1  0.125000  0.625000  0.125000  1
  Hg  Hg1  1  0.625000  0.125000  0.125000  1
  Hg  Hg2  1  0.125000  0.125000  0.625000  1
  Hg  Hg3  1  0.125000  0.125000  0.125000  1
  Ir  Ir4  1  0.125000  0.625000  0.625000  1
  Ir  Ir5  1  0.625000  0.125000  0.625000  1
  Rh  Rh6  1  0.625000  0.625000  0.125000  1
  Rh  Rh7  1  0.625000  0.625000  0.625000  1
  O  O8  1  0.710366  0.698825  0.295404  1
  O  O9  1  0.306158  0.309017  0.692412  1
  O  O10  1  0.698696  0.301378  0.692160  1
  O  O11  1  0.295689  0.698342  0.301415  1
  O  O12  1  0.295689  0.698342  0.704553  1
  O  O13  1  0.698696  0.301378  0.307765  1
  O  O14  1  0.539634  0.551175  0.954596  1
  O  O15  1  0.943842  0.940983  0.557588  1
  O  O16  1  0.551304  0.948622  0.557840  1
  O  O17  1  0.954311  0.551658  0.948585  1
  O  O18  1  0.954311  0.551658  0.545447  1
  O  O19  1  0.551304  0.948622  0.942235  1
  O  O20  1  0.255845  0.229897  0.257129  1
  O  O21  1  0.994155  0.020103  0.992871  1
