# generated using pymatgen
data_ErLu5OsRu
_symmetry_space_group_name_H-M   'P 1'
_cell_length_a   6.19734400
_cell_length_b   7.30028100
_cell_length_c   8.87344400
_cell_angle_alpha   90.00000000
_cell_angle_beta   90.00000000
_cell_angle_gamma   90.00000000
_symmetry_Int_Tables_number   1
_chemical_formula_structural   ErLu5OsRu
_chemical_formula_sum   'Er2 Lu10 Os2 Ru2'
_cell_volume   401.45548270
_cell_formula_units_Z   2
loop_
 _symmetry_equiv_pos_site_id
 _symmetry_equiv_pos_as_xyz
  1  'x, y, z'
loop_
 _atom_site_type_symbol
 _atom_site_label
 _atom_site_symmetry_multiplicity
 _atom_site_fract_x
 _atom_site_fract_y
 _atom_site_fract_z
 _atom_site_occupancy
  Er  Er0  1  0.130323  0.458358  0.750000  1
  Er  Er1  1  0.369677  0.958357  0.750000  1
  Lu  Lu2  1  0.331468  0.675655  0.064711  1
  Lu  Lu3  1  0.168532  0.175655  0.435289  1
  Lu  Lu4  1  0.664968  0.325650  0.561414  1
  Lu  Lu5  1  0.835032  0.825650  0.938586  1
  Lu  Lu6  1  0.664968  0.325650  0.938586  1
  Lu  Lu7  1  0.835032  0.825650  0.561414  1
  Lu  Lu8  1  0.331468  0.675655  0.435289  1
  Lu  Lu9  1  0.168532  0.175655  0.064711  1
  Lu  Lu10  1  0.870879  0.539654  0.250000  1
  Lu  Lu11  1  0.629121  0.039654  0.250000  1
  Os  Os12  1  0.037824  0.883011  0.250000  1
  Os  Os13  1  0.462176  0.383011  0.250000  1
  Ru  Ru14  1  0.959425  0.116367  0.750000  1
  Ru  Ru15  1  0.540575  0.616367  0.750000  1
