# generated using pymatgen
data_Dy3Y(GaAu)4
_symmetry_space_group_name_H-M   'P 1'
_cell_length_a   7.15212200
_cell_length_b   4.53145800
_cell_length_c   7.78188200
_cell_angle_alpha   90.00000000
_cell_angle_beta   90.00380555
_cell_angle_gamma   90.00000000
_symmetry_Int_Tables_number   1
_chemical_formula_structural   Dy3Y(GaAu)4
_chemical_formula_sum   'Dy3 Y1 Ga4 Au4'
_cell_volume   252.20721921
_cell_formula_units_Z   1
loop_
 _symmetry_equiv_pos_site_id
 _symmetry_equiv_pos_as_xyz
  1  'x, y, z'
loop_
 _atom_site_type_symbol
 _atom_site_label
 _atom_site_symmetry_multiplicity
 _atom_site_fract_x
 _atom_site_fract_y
 _atom_site_fract_z
 _atom_site_occupancy
  Dy  Dy0  1  0.997793  0.250000  0.214438  1
  Dy  Dy1  1  0.497843  0.250000  0.285516  1
  Dy  Dy2  1  0.502174  0.750000  0.714479  1
  Y  Y3  1  0.002054  0.750000  0.785574  1
  Ga  Ga4  1  0.697632  0.750000  0.085517  1
  Ga  Ga5  1  0.197716  0.750000  0.414499  1
  Ga  Ga6  1  0.802136  0.250000  0.585434  1
  Ga  Ga7  1  0.302392  0.250000  0.914578  1
  Au  Au8  1  0.287314  0.750000  0.084064  1
  Au  Au9  1  0.787103  0.750000  0.416027  1
  Au  Au10  1  0.213144  0.250000  0.583699  1
  Au  Au11  1  0.712697  0.250000  0.916169  1
