# generated using pymatgen
data_Nd5Sm3Sc12Si15Hg
_symmetry_space_group_name_H-M   'P 1'
_cell_length_a   7.23876721
_cell_length_b   7.49266359
_cell_length_c   14.27160980
_cell_angle_alpha   89.92319493
_cell_angle_beta   89.68526404
_cell_angle_gamma   90.20158161
_symmetry_Int_Tables_number   1
_chemical_formula_structural   Nd5Sm3Sc12Si15Hg
_chemical_formula_sum   'Nd5 Sm3 Sc12 Si15 Hg1'
_cell_volume   774.04135664
_cell_formula_units_Z   1
loop_
 _symmetry_equiv_pos_site_id
 _symmetry_equiv_pos_as_xyz
  1  'x, y, z'
loop_
 _atom_site_type_symbol
 _atom_site_label
 _atom_site_symmetry_multiplicity
 _atom_site_fract_x
 _atom_site_fract_y
 _atom_site_fract_z
 _atom_site_occupancy
  Nd  Nd0  1  0.012183  0.173510  0.097777  1
  Nd  Nd1  1  0.987646  0.827440  0.903738  1
  Nd  Nd2  1  0.487774  0.673834  0.903572  1
  Nd  Nd3  1  0.988537  0.833137  0.597874  1
  Nd  Nd4  1  0.511784  0.326423  0.096957  1
  Sm  Sm5  1  0.008062  0.170348  0.397573  1
  Sm  Sm6  1  0.512494  0.324079  0.398223  1
  Sm  Sm7  1  0.495876  0.680248  0.600697  1
  Sc  Sc8  1  0.161555  0.498655  0.754485  1
  Sc  Sc9  1  0.838418  0.500960  0.250128  1
  Sc  Sc10  1  0.338697  0.997999  0.248703  1
  Sc  Sc11  1  0.663723  0.000038  0.751920  1
  Sc  Sc12  1  0.342046  0.168953  0.629026  1
  Sc  Sc13  1  0.664931  0.824469  0.372988  1
  Sc  Sc14  1  0.167690  0.677507  0.370901  1
  Sc  Sc15  1  0.670152  0.824070  0.124605  1
  Sc  Sc16  1  0.823802  0.325119  0.626067  1
  Sc  Sc17  1  0.328773  0.174390  0.875861  1
  Sc  Sc18  1  0.829726  0.323320  0.876039  1
  Sc  Sc19  1  0.169404  0.676111  0.125215  1
  Si  Si20  1  0.035975  0.126449  0.751337  1
  Si  Si21  1  0.963816  0.877960  0.248638  1
  Si  Si22  1  0.465164  0.621905  0.248521  1
  Si  Si23  1  0.534784  0.379917  0.751695  1
  Si  Si24  1  0.286363  0.878478  0.751086  1
  Si  Si25  1  0.711355  0.120973  0.248931  1
  Si  Si26  1  0.212322  0.378082  0.249660  1
  Si  Si27  1  0.788986  0.620630  0.751630  1
  Si  Si28  1  0.835338  0.539624  0.458125  1
  Si  Si29  1  0.343942  0.961641  0.459717  1
  Si  Si30  1  0.848181  0.536493  0.039392  1
  Si  Si31  1  0.653931  0.039395  0.536960  1
  Si  Si32  1  0.151500  0.462962  0.961747  1
  Si  Si33  1  0.651544  0.036670  0.960579  1
  Si  Si34  1  0.347422  0.963076  0.039957  1
  Hg  Hg35  1  0.166106  0.455136  0.539674  1
