# generated using pymatgen
data_Tm3CdCo2Sn3
_symmetry_space_group_name_H-M   'P 1'
_cell_length_a   7.60198300
_cell_length_b   7.60198241
_cell_length_c   3.74436100
_cell_angle_alpha   90.00000000
_cell_angle_beta   90.00000000
_cell_angle_gamma   119.99999823
_symmetry_Int_Tables_number   1
_chemical_formula_structural   Tm3CdCo2Sn3
_chemical_formula_sum   'Tm3 Cd1 Co2 Sn3'
_cell_volume   187.39677247
_cell_formula_units_Z   1
loop_
 _symmetry_equiv_pos_site_id
 _symmetry_equiv_pos_as_xyz
  1  'x, y, z'
loop_
 _atom_site_type_symbol
 _atom_site_label
 _atom_site_symmetry_multiplicity
 _atom_site_fract_x
 _atom_site_fract_y
 _atom_site_fract_z
 _atom_site_occupancy
  Tm  Tm0  1  0.966530  0.381418  0.500000  1
  Tm  Tm1  1  0.618582  0.585112  0.500000  1
  Tm  Tm2  1  0.414888  0.033470  0.500000  1
  Cd  Cd3  1  0.333333  0.666667  0.000000  1
  Co  Co4  1  0.666667  0.333333  0.000000  1
  Co  Co5  1  0.000000  0.000000  0.500000  1
  Sn  Sn6  1  0.997919  0.746203  0.000000  1
  Sn  Sn7  1  0.253797  0.251716  0.000000  1
  Sn  Sn8  1  0.748284  0.002081  0.000000  1
