# generated using pymatgen
data_Yb2ZrZnIr2
_symmetry_space_group_name_H-M   'P 1'
_cell_length_a   4.41630300
_cell_length_b   7.23047105
_cell_length_c   7.84706950
_cell_angle_alpha   92.31726202
_cell_angle_beta   90.00000000
_cell_angle_gamma   90.00000000
_symmetry_Int_Tables_number   1
_chemical_formula_structural   Yb2ZrZnIr2
_chemical_formula_sum   'Yb4 Zr2 Zn2 Ir4'
_cell_volume   250.36733562
_cell_formula_units_Z   2
loop_
 _symmetry_equiv_pos_site_id
 _symmetry_equiv_pos_as_xyz
  1  'x, y, z'
loop_
 _atom_site_type_symbol
 _atom_site_label
 _atom_site_symmetry_multiplicity
 _atom_site_fract_x
 _atom_site_fract_y
 _atom_site_fract_z
 _atom_site_occupancy
  Yb  Yb0  1  0.250000  0.520295  0.158861  1
  Yb  Yb1  1  0.750000  0.479705  0.841139  1
  Yb  Yb2  1  0.750000  0.985650  0.709077  1
  Yb  Yb3  1  0.250000  0.014350  0.290923  1
  Zr  Zr4  1  0.250000  0.649081  0.581233  1
  Zr  Zr5  1  0.750000  0.350919  0.418767  1
  Zn  Zn6  1  0.750000  0.836238  0.070887  1
  Zn  Zn7  1  0.250000  0.163762  0.929113  1
  Ir  Ir8  1  0.250000  0.792247  0.895872  1
  Ir  Ir9  1  0.750000  0.207753  0.104128  1
  Ir  Ir10  1  0.750000  0.715161  0.393116  1
  Ir  Ir11  1  0.250000  0.284839  0.606884  1
