# generated using pymatgen
data_Mg5Al2GaPd4
_symmetry_space_group_name_H-M   'P 1'
_cell_length_a   8.41821027
_cell_length_b   8.39869152
_cell_length_c   8.39869086
_cell_angle_alpha   59.84434495
_cell_angle_beta   59.38518929
_cell_angle_gamma   59.38518984
_symmetry_Int_Tables_number   1
_chemical_formula_structural   Mg5Al2GaPd4
_chemical_formula_sum   'Mg10 Al4 Ga2 Pd8'
_cell_volume   415.45619144
_cell_formula_units_Z   2
loop_
 _symmetry_equiv_pos_site_id
 _symmetry_equiv_pos_as_xyz
  1  'x, y, z'
loop_
 _atom_site_type_symbol
 _atom_site_label
 _atom_site_symmetry_multiplicity
 _atom_site_fract_x
 _atom_site_fract_y
 _atom_site_fract_z
 _atom_site_occupancy
  Mg  Mg0  1  0.189553  0.809115  0.809115  1
  Mg  Mg1  1  0.057969  0.440886  0.054066  1
  Mg  Mg2  1  0.811812  0.190935  0.190935  1
  Mg  Mg3  1  0.059387  0.442993  0.442993  1
  Mg  Mg4  1  0.440259  0.058180  0.446466  1
  Mg  Mg5  1  0.440259  0.446466  0.058180  1
  Mg  Mg6  1  0.806421  0.804508  0.193789  1
  Mg  Mg7  1  0.437521  0.056236  0.056236  1
  Mg  Mg8  1  0.806421  0.193789  0.804508  1
  Mg  Mg9  1  0.057969  0.054066  0.440886  1
  Al  Al10  1  0.622259  0.628407  0.628407  1
  Al  Al11  1  0.127354  0.625026  0.625026  1
  Al  Al12  1  0.624135  0.622887  0.123989  1
  Al  Al13  1  0.624135  0.123989  0.622887  1
  Ga  Ga14  1  0.196220  0.798086  0.202648  1
  Ga  Ga15  1  0.196220  0.202648  0.798086  1
  Pd  Pd16  1  0.844378  0.478613  0.837372  1
  Pd  Pd17  1  0.836754  0.839737  0.839737  1
  Pd  Pd18  1  0.468365  0.847232  0.847232  1
  Pd  Pd19  1  0.413022  0.766225  0.411692  1
  Pd  Pd20  1  0.844378  0.837372  0.478613  1
  Pd  Pd21  1  0.768662  0.410379  0.410379  1
  Pd  Pd22  1  0.413523  0.410535  0.410535  1
  Pd  Pd23  1  0.413022  0.411692  0.766225  1
