# generated using pymatgen
data_Ca4LaEr3(GaO4)4
_symmetry_space_group_name_H-M   'P 1'
_cell_length_a   11.49181609
_cell_length_b   5.34086143
_cell_length_c   6.65065000
_cell_angle_alpha   89.99898050
_cell_angle_beta   89.99864594
_cell_angle_gamma   89.91602175
_symmetry_Int_Tables_number   1
_chemical_formula_structural   Ca4LaEr3(GaO4)4
_chemical_formula_sum   'Ca4 La1 Er3 Ga4 O16'
_cell_volume   408.19116831
_cell_formula_units_Z   1
loop_
 _symmetry_equiv_pos_site_id
 _symmetry_equiv_pos_as_xyz
  1  'x, y, z'
loop_
 _atom_site_type_symbol
 _atom_site_label
 _atom_site_symmetry_multiplicity
 _atom_site_fract_x
 _atom_site_fract_y
 _atom_site_fract_z
 _atom_site_occupancy
  Ca  Ca0  1  0.495110  0.498269  0.490449  1
  Ca  Ca1  1  0.495151  0.498271  0.983931  1
  Ca  Ca2  1  0.004013  0.002063  0.986096  1
  Ca  Ca3  1  0.003926  0.002088  0.488056  1
  La  La4  1  0.719705  0.993559  0.237133  1
  Er  Er5  1  0.222110  0.507117  0.237163  1
  Er  Er6  1  0.778907  0.494879  0.737139  1
  Er  Er7  1  0.275175  0.003937  0.737166  1
  Ga  Ga8  1  0.396953  0.061287  0.237157  1
  Ga  Ga9  1  0.593450  0.935033  0.737144  1
  Ga  Ga10  1  0.096564  0.559996  0.737097  1
  Ga  Ga11  1  0.910335  0.441596  0.237121  1
  O  O12  1  0.398190  0.718743  0.237172  1
  O  O13  1  0.602022  0.276528  0.737181  1
  O  O14  1  0.103009  0.217940  0.737125  1
  O  O15  1  0.909924  0.783042  0.237146  1
  O  O16  1  0.171967  0.729864  0.520018  1
  O  O17  1  0.837376  0.280780  0.014062  1
  O  O18  1  0.324953  0.231081  0.018132  1
  O  O19  1  0.667183  0.754047  0.526755  1
  O  O20  1  0.324924  0.231065  0.456167  1
  O  O21  1  0.667228  0.754062  0.947481  1
  O  O22  1  0.171994  0.729799  0.954232  1
  O  O23  1  0.837344  0.280781  0.460192  1
  O  O24  1  0.544567  0.218018  0.237180  1
  O  O25  1  0.442393  0.795862  0.737188  1
  O  O26  1  0.946585  0.709449  0.737156  1
  O  O27  1  0.058944  0.290841  0.237168  1
