# generated using pymatgen
data_Tm2Pa(InRh)3
_symmetry_space_group_name_H-M   'P 1'
_cell_length_a   7.48325283
_cell_length_b   7.81402821
_cell_length_c   3.82205700
_cell_angle_alpha   90.00000000
_cell_angle_beta   90.00000000
_cell_angle_gamma   121.47329390
_symmetry_Int_Tables_number   1
_chemical_formula_structural   Tm2Pa(InRh)3
_chemical_formula_sum   'Tm2 Pa1 In3 Rh3'
_cell_volume   190.61291527
_cell_formula_units_Z   1
loop_
 _symmetry_equiv_pos_site_id
 _symmetry_equiv_pos_as_xyz
  1  'x, y, z'
loop_
 _atom_site_type_symbol
 _atom_site_label
 _atom_site_symmetry_multiplicity
 _atom_site_fract_x
 _atom_site_fract_y
 _atom_site_fract_z
 _atom_site_occupancy
  Tm  Tm0  1  0.597622  0.596531  0.500000  1
  Tm  Tm1  1  0.402378  0.998909  0.500000  1
  Pa  Pa2  1  0.000000  0.418124  0.500000  1
  In  In3  1  0.272624  0.260061  0.000000  1
  In  In4  1  0.000000  0.756847  0.000000  1
  In  In5  1  0.727376  0.987437  0.000000  1
  Rh  Rh6  1  0.299117  0.635321  0.000000  1
  Rh  Rh7  1  0.000000  0.010568  0.500000  1
  Rh  Rh8  1  0.700883  0.336203  0.000000  1
