# generated using pymatgen
data_Dy8Ho4Zn2Ni3Os
_symmetry_space_group_name_H-M   'P 1'
_cell_length_a   8.33544227
_cell_length_b   8.33148995
_cell_length_c   8.33135197
_cell_angle_alpha   112.11812489
_cell_angle_beta   110.19627275
_cell_angle_gamma   106.16568686
_symmetry_Int_Tables_number   1
_chemical_formula_structural   Dy8Ho4Zn2Ni3Os
_chemical_formula_sum   'Dy8 Ho4 Zn2 Ni3 Os1'
_cell_volume   444.09865527
_cell_formula_units_Z   1
loop_
 _symmetry_equiv_pos_site_id
 _symmetry_equiv_pos_as_xyz
  1  'x, y, z'
loop_
 _atom_site_type_symbol
 _atom_site_label
 _atom_site_symmetry_multiplicity
 _atom_site_fract_x
 _atom_site_fract_y
 _atom_site_fract_z
 _atom_site_occupancy
  Dy  Dy0  1  0.439073  0.247261  0.191903  1
  Dy  Dy1  1  0.573499  0.765490  0.808091  1
  Dy  Dy2  1  0.042453  0.234709  0.807829  1
  Dy  Dy3  1  0.944849  0.752802  0.192162  1
  Dy  Dy4  1  0.184920  0.277743  0.462592  1
  Dy  Dy5  1  0.825047  0.722703  0.547870  1
  Dy  Dy6  1  0.184948  0.722479  0.907330  1
  Dy  Dy7  1  0.824933  0.277234  0.102307  1
  Ho  Ho8  1  0.325454  0.638159  0.309527  1
  Ho  Ho9  1  0.671118  0.361789  0.687196  1
  Ho  Ho10  1  0.325432  0.015845  0.687276  1
  Ho  Ho11  1  0.671133  0.984076  0.309418  1
  Zn  Zn12  1  0.490083  0.500054  0.990057  1
  Zn  Zn13  1  0.014584  0.000143  0.014604  1
  Ni  Ni14  1  0.654067  0.999848  0.653856  1
  Ni  Ni15  1  0.116452  0.617091  0.498651  1
  Ni  Ni16  1  0.882223  0.382548  0.499505  1
  Os  Os17  1  0.329729  0.000025  0.329825  1
