# generated using pymatgen
data_Er8Ti3Si16Tc9
_symmetry_space_group_name_H-M   'P 1'
_cell_length_a   6.76788793
_cell_length_b   6.76788793
_cell_length_c   12.88880341
_cell_angle_alpha   90.03402225
_cell_angle_beta   89.96597775
_cell_angle_gamma   89.64931496
_symmetry_Int_Tables_number   1
_chemical_formula_structural   Er8Ti3Si16Tc9
_chemical_formula_sum   'Er8 Ti3 Si16 Tc9'
_cell_volume   590.35144107
_cell_formula_units_Z   1
loop_
 _symmetry_equiv_pos_site_id
 _symmetry_equiv_pos_as_xyz
  1  'x, y, z'
loop_
 _atom_site_type_symbol
 _atom_site_label
 _atom_site_symmetry_multiplicity
 _atom_site_fract_x
 _atom_site_fract_y
 _atom_site_fract_z
 _atom_site_occupancy
  Er  Er0  1  0.337560  0.994727  0.468620  1
  Er  Er1  1  0.507136  0.835541  0.718161  1
  Er  Er2  1  0.489268  0.166188  0.216418  1
  Er  Er3  1  0.835541  0.507136  0.281839  1
  Er  Er4  1  0.166188  0.489268  0.783582  1
  Er  Er5  1  0.659664  0.007519  0.969345  1
  Er  Er6  1  0.994727  0.337560  0.531380  1
  Er  Er7  1  0.007519  0.659664  0.030655  1
  Ti  Ti8  1  0.157104  0.843567  0.248893  1
  Ti  Ti9  1  0.843567  0.157104  0.751107  1
  Ti  Ti10  1  0.658022  0.658022  0.500000  1
  Si  Si11  1  0.206415  0.121615  0.680310  1
  Si  Si12  1  0.386266  0.693551  0.931433  1
  Si  Si13  1  0.621718  0.296252  0.431376  1
  Si  Si14  1  0.693551  0.386266  0.068567  1
  Si  Si15  1  0.296252  0.621718  0.568624  1
  Si  Si16  1  0.793572  0.880361  0.180904  1
  Si  Si17  1  0.121615  0.206415  0.319690  1
  Si  Si18  1  0.880361  0.793572  0.819096  1
  Si  Si19  1  0.267313  0.986786  0.053591  1
  Si  Si20  1  0.520579  0.783011  0.308315  1
  Si  Si21  1  0.479681  0.220538  0.810117  1
  Si  Si22  1  0.783011  0.520579  0.691685  1
  Si  Si23  1  0.220538  0.479681  0.189883  1
  Si  Si24  1  0.724751  0.019716  0.555787  1
  Si  Si25  1  0.986786  0.267313  0.946409  1
  Si  Si26  1  0.019716  0.724751  0.444213  1
  Tc  Tc27  1  0.337763  0.337763  0.000000  1
  Tc  Tc28  1  0.180939  0.989128  0.863215  1
  Tc  Tc29  1  0.498371  0.693720  0.117173  1
  Tc  Tc30  1  0.501242  0.318271  0.617728  1
  Tc  Tc31  1  0.693720  0.498371  0.882827  1
  Tc  Tc32  1  0.318271  0.501242  0.382272  1
  Tc  Tc33  1  0.819680  0.002465  0.363845  1
  Tc  Tc34  1  0.989128  0.180939  0.136785  1
  Tc  Tc35  1  0.002465  0.819680  0.636155  1
