# generated using pymatgen
data_Mg2ZnCrN4
_symmetry_space_group_name_H-M   'P 1'
_cell_length_a   6.53458121
_cell_length_b   5.64226890
_cell_length_c   5.25769800
_cell_angle_alpha   90.00000000
_cell_angle_beta   90.00000000
_cell_angle_gamma   89.90591322
_symmetry_Int_Tables_number   1
_chemical_formula_structural   Mg2ZnCrN4
_chemical_formula_sum   'Mg4 Zn2 Cr2 N8'
_cell_volume   193.85035046
_cell_formula_units_Z   2
loop_
 _symmetry_equiv_pos_site_id
 _symmetry_equiv_pos_as_xyz
  1  'x, y, z'
loop_
 _atom_site_type_symbol
 _atom_site_label
 _atom_site_symmetry_multiplicity
 _atom_site_fract_x
 _atom_site_fract_y
 _atom_site_fract_z
 _atom_site_occupancy
  Mg  Mg0  1  0.251694  0.828142  0.725542  1
  Mg  Mg1  1  0.248306  0.171858  0.225542  1
  Mg  Mg2  1  0.994094  0.344834  0.723848  1
  Mg  Mg3  1  0.505906  0.655166  0.223848  1
  Zn  Zn4  1  0.746490  0.830106  0.731443  1
  Zn  Zn5  1  0.753510  0.169894  0.231443  1
  Cr  Cr6  1  0.999001  0.675153  0.230007  1
  Cr  Cr7  1  0.500999  0.324847  0.730007  1
  N  N8  1  0.778559  0.826439  0.116920  1
  N  N9  1  0.721441  0.173561  0.616920  1
  N  N10  1  0.224569  0.815492  0.125345  1
  N  N11  1  0.275431  0.184508  0.625345  1
  N  N12  1  0.995107  0.378701  0.125765  1
  N  N13  1  0.504893  0.621299  0.625765  1
  N  N14  1  0.994084  0.680736  0.560389  1
  N  N15  1  0.505916  0.319264  0.060389  1
