# generated using pymatgen
data_Dy9Tm(AlBi2)2
_symmetry_space_group_name_H-M   'P 1'
_cell_length_a   6.51536300
_cell_length_b   9.05095656
_cell_length_c   9.05997000
_cell_angle_alpha   119.71539371
_cell_angle_beta   90.00002638
_cell_angle_gamma   89.99993628
_symmetry_Int_Tables_number   1
_chemical_formula_structural   Dy9Tm(AlBi2)2
_chemical_formula_sum   'Dy9 Tm1 Al2 Bi4'
_cell_volume   464.01162797
_cell_formula_units_Z   1
loop_
 _symmetry_equiv_pos_site_id
 _symmetry_equiv_pos_as_xyz
  1  'x, y, z'
loop_
 _atom_site_type_symbol
 _atom_site_label
 _atom_site_symmetry_multiplicity
 _atom_site_fract_x
 _atom_site_fract_y
 _atom_site_fract_z
 _atom_site_occupancy
  Dy  Dy0  1  0.499980  0.342138  0.686793  1
  Dy  Dy1  1  0.500022  0.657851  0.314385  1
  Dy  Dy2  1  0.999977  0.657850  0.314385  1
  Dy  Dy3  1  0.000019  0.342137  0.686794  1
  Dy  Dy4  1  0.750000  0.245356  0.999639  1
  Dy  Dy5  1  0.749998  0.755257  0.769299  1
  Dy  Dy6  1  0.750001  0.984810  0.226792  1
  Dy  Dy7  1  0.250001  0.755317  0.999739  1
  Dy  Dy8  1  0.249999  0.243923  0.228429  1
  Tm  Tm9  1  0.250000  0.015589  0.773445  1
  Al  Al10  1  0.749999  0.599789  0.000340  1
  Al  Al11  1  0.250000  0.400571  0.000365  1
  Bi  Bi12  1  0.750001  0.388103  0.395151  1
  Bi  Bi13  1  0.750000  0.993190  0.604209  1
  Bi  Bi14  1  0.249999  0.611424  0.604644  1
  Bi  Bi15  1  0.250000  0.006694  0.395594  1
