# generated using pymatgen
data_Ce2Dy5Ho9(CdRu)4
_symmetry_space_group_name_H-M   'P 1'
_cell_length_a   9.69996211
_cell_length_b   9.59287026
_cell_length_c   9.59287200
_cell_angle_alpha   59.61385723
_cell_angle_beta   59.63002155
_cell_angle_gamma   59.63001996
_symmetry_Int_Tables_number   1
_chemical_formula_structural   Ce2Dy5Ho9(CdRu)4
_chemical_formula_sum   'Ce2 Dy5 Ho9 Cd4 Ru4'
_cell_volume   625.79437092
_cell_formula_units_Z   1
loop_
 _symmetry_equiv_pos_site_id
 _symmetry_equiv_pos_as_xyz
  1  'x, y, z'
loop_
 _atom_site_type_symbol
 _atom_site_label
 _atom_site_symmetry_multiplicity
 _atom_site_fract_x
 _atom_site_fract_y
 _atom_site_fract_z
 _atom_site_occupancy
  Ce  Ce0  1  0.970301  0.340912  0.340912  1
  Ce  Ce1  1  0.347875  0.340912  0.340912  1
  Dy  Dy2  1  0.563337  0.562156  0.937600  1
  Dy  Dy3  1  0.936908  0.562156  0.937600  1
  Dy  Dy4  1  0.561639  0.938361  0.938361  1
  Dy  Dy5  1  0.936908  0.937600  0.562156  1
  Dy  Dy6  1  0.563337  0.937600  0.562156  1
  Ho  Ho7  1  0.939170  0.560830  0.560830  1
  Ho  Ho8  1  0.189957  0.188404  0.812154  1
  Ho  Ho9  1  0.809484  0.188404  0.812154  1
  Ho  Ho10  1  0.188609  0.811391  0.811390  1
  Ho  Ho11  1  0.809484  0.812155  0.188404  1
  Ho  Ho12  1  0.189956  0.812154  0.188403  1
  Ho  Ho13  1  0.810947  0.189053  0.189053  1
  Ho  Ho14  1  0.348760  0.350087  0.952394  1
  Ho  Ho15  1  0.348760  0.952394  0.350087  1
  Cd  Cd16  1  0.581995  0.579423  0.256585  1
  Cd  Cd17  1  0.581995  0.256585  0.579423  1
  Cd  Cd18  1  0.259249  0.579784  0.579784  1
  Cd  Cd19  1  0.581182  0.579784  0.579784  1
  Ru  Ru20  1  0.137552  0.151765  0.573129  1
  Ru  Ru21  1  0.137552  0.573129  0.151765  1
  Ru  Ru22  1  0.573015  0.147479  0.147479  1
  Ru  Ru23  1  0.132026  0.147479  0.147479  1
