# generated using pymatgen
data_Y18Ho2Sn3Pb13
_symmetry_space_group_name_H-M   'P 1'
_cell_length_a   8.19707700
_cell_length_b   8.24859998
_cell_length_c   15.65912400
_cell_angle_alpha   90.00000000
_cell_angle_beta   90.00000000
_cell_angle_gamma   89.85898664
_symmetry_Int_Tables_number   1
_chemical_formula_structural   Y18Ho2Sn3Pb13
_chemical_formula_sum   'Y18 Ho2 Sn3 Pb13'
_cell_volume   1058.77921110
_cell_formula_units_Z   1
loop_
 _symmetry_equiv_pos_site_id
 _symmetry_equiv_pos_as_xyz
  1  'x, y, z'
loop_
 _atom_site_type_symbol
 _atom_site_label
 _atom_site_symmetry_multiplicity
 _atom_site_fract_x
 _atom_site_fract_y
 _atom_site_fract_z
 _atom_site_occupancy
  Y  Y0  1  0.379449  0.838888  0.876619  1
  Y  Y1  1  0.878919  0.661822  0.623375  1
  Y  Y2  1  0.618902  0.161578  0.377876  1
  Y  Y3  1  0.123238  0.340799  0.121231  1
  Y  Y4  1  0.618902  0.161578  0.122124  1
  Y  Y5  1  0.123238  0.340799  0.378769  1
  Y  Y6  1  0.379449  0.838888  0.623381  1
  Y  Y7  1  0.878919  0.661822  0.876625  1
  Y  Y8  1  0.537833  0.327227  0.898179  1
  Y  Y9  1  0.037436  0.172403  0.601899  1
  Y  Y10  1  0.462573  0.672521  0.399466  1
  Y  Y11  1  0.962443  0.824223  0.099949  1
  Y  Y12  1  0.462573  0.672521  0.100534  1
  Y  Y13  1  0.962443  0.824223  0.400051  1
  Y  Y14  1  0.537833  0.327227  0.601821  1
  Y  Y15  1  0.037436  0.172403  0.898101  1
  Y  Y16  1  0.787724  0.494650  0.250000  1
  Y  Y17  1  0.290700  0.006066  0.250000  1
  Ho  Ho18  1  0.211643  0.507315  0.750000  1
  Ho  Ho19  1  0.711887  0.993085  0.750000  1
  Sn  Sn20  1  0.574942  0.623788  0.750000  1
  Sn  Sn21  1  0.074683  0.876233  0.750000  1
  Sn  Sn22  1  0.424253  0.376748  0.250000  1
  Pb  Pb23  1  0.281543  0.031373  0.041800  1
  Pb  Pb24  1  0.782154  0.467150  0.458365  1
  Pb  Pb25  1  0.717510  0.968201  0.542392  1
  Pb  Pb26  1  0.217815  0.532844  0.956962  1
  Pb  Pb27  1  0.717510  0.968201  0.957608  1
  Pb  Pb28  1  0.217815  0.532844  0.543038  1
  Pb  Pb29  1  0.281543  0.031373  0.458200  1
  Pb  Pb30  1  0.782154  0.467150  0.041635  1
  Pb  Pb31  1  0.926109  0.124618  0.250000  1
  Pb  Pb32  1  0.348507  0.153412  0.750000  1
  Pb  Pb33  1  0.847975  0.346989  0.750000  1
  Pb  Pb34  1  0.650464  0.846651  0.250000  1
  Pb  Pb35  1  0.151481  0.652388  0.250000  1
