# generated using pymatgen
data_TmNp9O20
_symmetry_space_group_name_H-M   'P 1'
_cell_length_a   6.59176597
_cell_length_b   7.60905657
_cell_length_c   8.50746506
_cell_angle_alpha   102.91279944
_cell_angle_beta   97.44169605
_cell_angle_gamma   106.76477662
_symmetry_Int_Tables_number   1
_chemical_formula_structural   TmNp9O20
_chemical_formula_sum   'Tm1 Np9 O20'
_cell_volume   389.54461175
_cell_formula_units_Z   1
loop_
 _symmetry_equiv_pos_site_id
 _symmetry_equiv_pos_as_xyz
  1  'x, y, z'
loop_
 _atom_site_type_symbol
 _atom_site_label
 _atom_site_symmetry_multiplicity
 _atom_site_fract_x
 _atom_site_fract_y
 _atom_site_fract_z
 _atom_site_occupancy
  Tm  Tm0  1  0.000000  0.000000  0.000000  1
  Np  Np1  1  0.800824  0.601473  0.601578  1
  Np  Np2  1  0.000000  0.500000  0.000000  1
  Np  Np3  1  0.599348  0.198753  0.198517  1
  Np  Np4  1  0.800363  0.099743  0.601675  1
  Np  Np5  1  0.602118  0.701225  0.199255  1
  Np  Np6  1  0.199176  0.398527  0.398422  1
  Np  Np7  1  0.397882  0.298775  0.800745  1
  Np  Np8  1  0.199637  0.900257  0.398325  1
  Np  Np9  1  0.400652  0.801247  0.801483  1
  O  O10  1  0.849666  0.325043  0.451635  1
  O  O11  1  0.646852  0.923946  0.051100  1
  O  O12  1  0.950040  0.772330  0.151507  1
  O  O13  1  0.851018  0.825740  0.450365  1
  O  O14  1  0.447969  0.523393  0.649641  1
  O  O15  1  0.648948  0.425389  0.049606  1
  O  O16  1  0.747612  0.374244  0.750306  1
  O  O17  1  0.252929  0.126146  0.252299  1
  O  O18  1  0.448494  0.025260  0.648812  1
  O  O19  1  0.949318  0.278122  0.151357  1
  O  O20  1  0.551506  0.974740  0.351188  1
  O  O21  1  0.050682  0.721878  0.848643  1
  O  O22  1  0.252388  0.625756  0.249694  1
  O  O23  1  0.747071  0.873854  0.747701  1
  O  O24  1  0.351052  0.574611  0.950394  1
  O  O25  1  0.049960  0.227670  0.848493  1
  O  O26  1  0.552031  0.476607  0.350359  1
  O  O27  1  0.148982  0.174260  0.549635  1
  O  O28  1  0.353148  0.076054  0.948900  1
  O  O29  1  0.150334  0.674957  0.548365  1
