# generated using pymatgen
data_PuF5
_symmetry_space_group_name_H-M   'P 1'
_cell_length_a   5.76265600
_cell_length_b   6.02432600
_cell_length_c   14.71770900
_cell_angle_alpha   90.00000000
_cell_angle_beta   90.00000000
_cell_angle_gamma   90.00000000
_symmetry_Int_Tables_number   1
_chemical_formula_structural   PuF5
_chemical_formula_sum   'Pu4 F20'
_cell_volume   510.94172778
_cell_formula_units_Z   4
loop_
 _symmetry_equiv_pos_site_id
 _symmetry_equiv_pos_as_xyz
  1  'x, y, z'
loop_
 _atom_site_type_symbol
 _atom_site_label
 _atom_site_symmetry_multiplicity
 _atom_site_fract_x
 _atom_site_fract_y
 _atom_site_fract_z
 _atom_site_occupancy
  Pu  Pu0  1  0.311229  0.107662  0.593302  1
  Pu  Pu1  1  0.811229  0.392338  0.406698  1
  Pu  Pu2  1  0.188771  0.892338  0.093302  1
  Pu  Pu3  1  0.688771  0.607662  0.906698  1
  F  F4  1  0.590795  0.088140  0.676350  1
  F  F5  1  0.117439  0.894188  0.665441  1
  F  F6  1  0.185895  0.365060  0.663096  1
  F  F7  1  0.520306  0.339131  0.507749  1
  F  F8  1  0.436493  0.856967  0.517628  1
  F  F9  1  0.936493  0.643033  0.482372  1
  F  F10  1  0.020306  0.160869  0.492251  1
  F  F11  1  0.685895  0.134940  0.336904  1
  F  F12  1  0.617439  0.605812  0.334559  1
  F  F13  1  0.090795  0.411860  0.323650  1
  F  F14  1  0.909205  0.911860  0.176350  1
  F  F15  1  0.382561  0.105812  0.165441  1
  F  F16  1  0.314105  0.634940  0.163096  1
  F  F17  1  0.979694  0.660869  0.007749  1
  F  F18  1  0.063507  0.143033  0.017628  1
  F  F19  1  0.563507  0.356967  0.982372  1
  F  F20  1  0.479694  0.839131  0.992251  1
  F  F21  1  0.814105  0.865060  0.836904  1
  F  F22  1  0.882561  0.394188  0.834559  1
  F  F23  1  0.409205  0.588140  0.823650  1
