# generated using pymatgen
data_Mg2AlSiPt2
_symmetry_space_group_name_H-M   'P 1'
_cell_length_a   6.52065100
_cell_length_b   4.03490800
_cell_length_c   7.63032800
_cell_angle_alpha   90.00000000
_cell_angle_beta   90.00000000
_cell_angle_gamma   90.00000000
_symmetry_Int_Tables_number   1
_chemical_formula_structural   Mg2AlSiPt2
_chemical_formula_sum   'Mg4 Al2 Si2 Pt4'
_cell_volume   200.75566089
_cell_formula_units_Z   2
loop_
 _symmetry_equiv_pos_site_id
 _symmetry_equiv_pos_as_xyz
  1  'x, y, z'
loop_
 _atom_site_type_symbol
 _atom_site_label
 _atom_site_symmetry_multiplicity
 _atom_site_fract_x
 _atom_site_fract_y
 _atom_site_fract_z
 _atom_site_occupancy
  Mg  Mg0  1  0.971006  0.750000  0.167136  1
  Mg  Mg1  1  0.471006  0.750000  0.332864  1
  Mg  Mg2  1  0.526205  0.250001  0.667709  1
  Mg  Mg3  1  0.026206  0.250001  0.832291  1
  Al  Al4  1  0.651786  0.250001  0.055312  1
  Al  Al5  1  0.151786  0.250001  0.444687  1
  Si  Si6  1  0.856651  0.750000  0.553028  1
  Si  Si7  1  0.356652  0.750000  0.946973  1
  Pt  Pt8  1  0.275590  0.250001  0.126365  1
  Pt  Pt9  1  0.775591  0.250001  0.373634  1
  Pt  Pt10  1  0.218762  0.750000  0.643097  1
  Pt  Pt11  1  0.718762  0.750000  0.856904  1
