# generated using pymatgen
data_Ba8Li4Si11Ge
_symmetry_space_group_name_H-M   'P 1'
_cell_length_a   12.39671187
_cell_length_b   10.70446725
_cell_length_c   8.78886267
_cell_angle_alpha   78.27485836
_cell_angle_beta   57.71282144
_cell_angle_gamma   44.11709753
_symmetry_Int_Tables_number   1
_chemical_formula_structural   Ba8Li4Si11Ge
_chemical_formula_sum   'Ba8 Li4 Si11 Ge1'
_cell_volume   653.35530141
_cell_formula_units_Z   1
loop_
 _symmetry_equiv_pos_site_id
 _symmetry_equiv_pos_as_xyz
  1  'x, y, z'
loop_
 _atom_site_type_symbol
 _atom_site_label
 _atom_site_symmetry_multiplicity
 _atom_site_fract_x
 _atom_site_fract_y
 _atom_site_fract_z
 _atom_site_occupancy
  Ba  Ba0  1  0.876175  0.874875  0.124326  1
  Ba  Ba1  1  0.124963  0.123913  0.875472  1
  Ba  Ba2  1  0.373505  0.374417  0.125900  1
  Ba  Ba3  1  0.125906  0.125997  0.374198  1
  Ba  Ba4  1  0.625202  0.625511  0.375044  1
  Ba  Ba5  1  0.374287  0.374919  0.625937  1
  Ba  Ba6  1  0.624550  0.625409  0.874981  1
  Ba  Ba7  1  0.875104  0.875314  0.624831  1
  Li  Li8  1  0.167625  0.832458  0.167862  1
  Li  Li9  1  0.833272  0.166802  0.830482  1
  Li  Li10  1  0.082327  0.417533  0.082233  1
  Li  Li11  1  0.417519  0.082494  0.417867  1
  Si  Si12  1  0.822232  0.185618  0.340438  1
  Si  Si13  1  0.187826  0.819579  0.655512  1
  Si  Si14  1  0.338412  0.654468  0.818918  1
  Si  Si15  1  0.592978  0.907400  0.592064  1
  Si  Si16  1  0.907390  0.592974  0.907549  1
  Si  Si17  1  0.656526  0.343044  0.659193  1
  Si  Si18  1  0.337027  0.662605  0.344865  1
  Si  Si19  1  0.911526  0.595536  0.431152  1
  Si  Si20  1  0.061462  0.431151  0.595658  1
  Si  Si21  1  0.431164  0.061510  0.911802  1
  Si  Si22  1  0.595572  0.911594  0.061819  1
  Ge  Ge23  1  0.657447  0.334880  0.181900  1
