# generated using pymatgen
data_Ho7Tm3(Zn2Bi)2
_symmetry_space_group_name_H-M   'P 1'
_cell_length_a   8.57885027
_cell_length_b   8.57885085
_cell_length_c   8.57386999
_cell_angle_alpha   123.42010889
_cell_angle_beta   123.42010673
_cell_angle_gamma   84.19813292
_symmetry_Int_Tables_number   1
_chemical_formula_structural   Ho7Tm3(Zn2Bi)2
_chemical_formula_sum   'Ho7 Tm3 Zn4 Bi2'
_cell_volume   420.65526662
_cell_formula_units_Z   1
loop_
 _symmetry_equiv_pos_site_id
 _symmetry_equiv_pos_as_xyz
  1  'x, y, z'
loop_
 _atom_site_type_symbol
 _atom_site_label
 _atom_site_symmetry_multiplicity
 _atom_site_fract_x
 _atom_site_fract_y
 _atom_site_fract_z
 _atom_site_occupancy
  Ho  Ho0  1  0.706716  0.206716  0.196636  1
  Ho  Ho1  1  0.510736  0.706616  0.500155  1
  Ho  Ho2  1  0.206616  0.010736  0.500155  1
  Ho  Ho3  1  0.989271  0.489271  0.194513  1
  Ho  Ho4  1  0.293903  0.793903  0.804274  1
  Ho  Ho5  1  0.489622  0.294389  0.500341  1
  Ho  Ho6  1  0.794389  0.989622  0.500341  1
  Tm  Tm7  1  0.000066  0.999237  0.999695  1
  Tm  Tm8  1  0.499237  0.500066  0.999695  1
  Tm  Tm9  1  0.010740  0.510740  0.803332  1
  Zn  Zn10  1  0.640341  0.140341  0.781132  1
  Zn  Zn11  1  0.358816  0.858816  0.218303  1
  Zn  Zn12  1  0.140099  0.359563  0.500486  1
  Zn  Zn13  1  0.859563  0.640099  0.500486  1
  Bi  Bi14  1  0.750200  0.749685  0.000227  1
  Bi  Bi15  1  0.249685  0.250200  0.000227  1
