# generated using pymatgen
data_Tb3Dy7(Bi2P)2
_symmetry_space_group_name_H-M   'P 1'
_cell_length_a   8.01507020
_cell_length_b   8.98529707
_cell_length_c   12.20478724
_cell_angle_alpha   90.00537106
_cell_angle_beta   90.02211733
_cell_angle_gamma   89.98719075
_symmetry_Int_Tables_number   1
_chemical_formula_structural   Tb3Dy7(Bi2P)2
_chemical_formula_sum   'Tb6 Dy14 Bi8 P4'
_cell_volume   878.96167348
_cell_formula_units_Z   2
loop_
 _symmetry_equiv_pos_site_id
 _symmetry_equiv_pos_as_xyz
  1  'x, y, z'
loop_
 _atom_site_type_symbol
 _atom_site_label
 _atom_site_symmetry_multiplicity
 _atom_site_fract_x
 _atom_site_fract_y
 _atom_site_fract_z
 _atom_site_occupancy
  Tb  Tb0  1  0.184530  0.952962  0.935786  1
  Tb  Tb1  1  0.316215  0.547431  0.435884  1
  Tb  Tb2  1  0.815470  0.047038  0.064214  1
  Tb  Tb3  1  0.683785  0.452569  0.564116  1
  Tb  Tb4  1  0.815624  0.452995  0.064094  1
  Tb  Tb5  1  0.184376  0.547005  0.935906  1
  Dy  Dy6  1  0.852279  0.750088  0.794944  1
  Dy  Dy7  1  0.147721  0.249912  0.205056  1
  Dy  Dy8  1  0.352127  0.250092  0.704941  1
  Dy  Dy9  1  0.647873  0.749908  0.295059  1
  Dy  Dy10  1  0.377120  0.749825  0.698886  1
  Dy  Dy11  1  0.622880  0.250175  0.301114  1
  Dy  Dy12  1  0.877095  0.249943  0.800714  1
  Dy  Dy13  1  0.122905  0.750057  0.199286  1
  Dy  Dy14  1  0.959133  0.749896  0.502177  1
  Dy  Dy15  1  0.040867  0.250104  0.497823  1
  Dy  Dy16  1  0.459322  0.249902  0.997800  1
  Dy  Dy17  1  0.540678  0.750098  0.002200  1
  Dy  Dy18  1  0.684056  0.047782  0.564131  1
  Dy  Dy19  1  0.315944  0.952218  0.435869  1
  Bi  Bi20  1  0.577794  0.491030  0.826314  1
  Bi  Bi21  1  0.422206  0.508970  0.173686  1
  Bi  Bi22  1  0.077685  0.509062  0.673680  1
  Bi  Bi23  1  0.422074  0.990939  0.174012  1
  Bi  Bi24  1  0.922315  0.490938  0.326320  1
  Bi  Bi25  1  0.577926  0.009061  0.825988  1
  Bi  Bi26  1  0.922310  0.009031  0.326580  1
  Bi  Bi27  1  0.077690  0.990969  0.673420  1
  P  P28  1  0.570622  0.751966  0.511521  1
  P  P29  1  0.429378  0.248034  0.488479  1
  P  P30  1  0.070422  0.249947  0.988537  1
  P  P31  1  0.929578  0.750053  0.011463  1
