# generated using pymatgen
data_Ta11NbAl3Au5N4
_symmetry_space_group_name_H-M   'P 1'
_cell_length_a   7.10511991
_cell_length_b   7.10202437
_cell_length_c   7.10497124
_cell_angle_alpha   90.09006760
_cell_angle_beta   89.87120768
_cell_angle_gamma   90.02856982
_symmetry_Int_Tables_number   1
_chemical_formula_structural   Ta11NbAl3Au5N4
_chemical_formula_sum   'Ta11 Nb1 Al3 Au5 N4'
_cell_volume   358.52067662
_cell_formula_units_Z   1
loop_
 _symmetry_equiv_pos_site_id
 _symmetry_equiv_pos_as_xyz
  1  'x, y, z'
loop_
 _atom_site_type_symbol
 _atom_site_label
 _atom_site_symmetry_multiplicity
 _atom_site_fract_x
 _atom_site_fract_y
 _atom_site_fract_z
 _atom_site_occupancy
  Ta  Ta0  1  0.785924  0.956707  0.375708  1
  Ta  Ta1  1  0.713221  0.044839  0.877742  1
  Ta  Ta2  1  0.212292  0.457119  0.126344  1
  Ta  Ta3  1  0.291795  0.541330  0.626354  1
  Ta  Ta4  1  0.954858  0.378124  0.786713  1
  Ta  Ta5  1  0.044436  0.874804  0.714304  1
  Ta  Ta6  1  0.458203  0.126897  0.208877  1
  Ta  Ta7  1  0.542765  0.627185  0.287486  1
  Ta  Ta8  1  0.372948  0.787359  0.956874  1
  Ta  Ta9  1  0.873438  0.708868  0.041978  1
  Ta  Ta10  1  0.124536  0.213944  0.456226  1
  Nb  Nb11  1  0.621832  0.286662  0.544621  1
  Al  Al12  1  0.426969  0.928429  0.568650  1
  Al  Al13  1  0.930919  0.572891  0.428490  1
  Al  Al14  1  0.071404  0.068585  0.073133  1
  Au  Au15  1  0.178701  0.821250  0.321180  1
  Au  Au16  1  0.309806  0.169070  0.817378  1
  Au  Au17  1  0.831262  0.316528  0.189277  1
  Au  Au18  1  0.683332  0.690369  0.669329  1
  Au  Au19  1  0.568305  0.431913  0.932283  1
  N  N20  1  0.877450  0.123816  0.626510  1
  N  N21  1  0.622808  0.874628  0.120314  1
  N  N22  1  0.125455  0.620271  0.877025  1
  N  N23  1  0.377340  0.378414  0.373205  1
