# generated using pymatgen
data_Tb8Sn(Pd3Pt)6
_symmetry_space_group_name_H-M   'P 1'
_cell_length_a   8.43024500
_cell_length_b   8.44274400
_cell_length_c   8.42227200
_cell_angle_alpha   90.00000000
_cell_angle_beta   90.00000000
_cell_angle_gamma   90.00000000
_symmetry_Int_Tables_number   1
_chemical_formula_structural   Tb8Sn(Pd3Pt)6
_chemical_formula_sum   'Tb8 Sn1 Pd18 Pt6'
_cell_volume   599.45015954
_cell_formula_units_Z   1
loop_
 _symmetry_equiv_pos_site_id
 _symmetry_equiv_pos_as_xyz
  1  'x, y, z'
loop_
 _atom_site_type_symbol
 _atom_site_label
 _atom_site_symmetry_multiplicity
 _atom_site_fract_x
 _atom_site_fract_y
 _atom_site_fract_z
 _atom_site_occupancy
  Tb  Tb0  1  0.252846  0.253292  0.252534  1
  Tb  Tb1  1  0.747154  0.746708  0.747466  1
  Tb  Tb2  1  0.747154  0.746708  0.252534  1
  Tb  Tb3  1  0.747154  0.253292  0.747466  1
  Tb  Tb4  1  0.252846  0.253292  0.747466  1
  Tb  Tb5  1  0.252846  0.746708  0.252534  1
  Tb  Tb6  1  0.252846  0.746708  0.747466  1
  Tb  Tb7  1  0.747154  0.253292  0.252534  1
  Sn  Sn8  1  0.000000  0.000000  0.000000  1
  Pd  Pd9  1  0.500000  0.000000  0.265462  1
  Pd  Pd10  1  0.265491  0.000000  0.500000  1
  Pd  Pd11  1  0.500000  0.000000  0.734538  1
  Pd  Pd12  1  0.734509  0.000000  0.500000  1
  Pd  Pd13  1  0.000000  0.500000  0.265184  1
  Pd  Pd14  1  0.000000  0.500000  0.734816  1
  Pd  Pd15  1  0.254607  0.500000  0.500000  1
  Pd  Pd16  1  0.745393  0.500000  0.500000  1
  Pd  Pd17  1  0.500000  0.254775  0.500000  1
  Pd  Pd18  1  0.500000  0.745225  0.500000  1
  Pd  Pd19  1  0.500000  0.500000  0.255013  1
  Pd  Pd20  1  0.500000  0.500000  0.744987  1
  Pd  Pd21  1  0.308735  0.000000  0.000000  1
  Pd  Pd22  1  0.691265  0.000000  0.000000  1
  Pd  Pd23  1  0.000000  0.308638  0.000000  1
  Pd  Pd24  1  0.000000  0.691362  0.000000  1
  Pd  Pd25  1  0.000000  0.000000  0.308743  1
  Pd  Pd26  1  0.000000  0.000000  0.691257  1
  Pt  Pt27  1  0.264471  0.500000  0.000000  1
  Pt  Pt28  1  0.735529  0.500000  0.000000  1
  Pt  Pt29  1  0.000000  0.264708  0.500000  1
  Pt  Pt30  1  0.500000  0.264402  0.000000  1
  Pt  Pt31  1  0.000000  0.735292  0.500000  1
  Pt  Pt32  1  0.500000  0.735598  0.000000  1
