# generated using pymatgen
data_Pr6Nd4Sn5Sb
_symmetry_space_group_name_H-M   'P 1'
_cell_length_a   6.81453600
_cell_length_b   9.41157962
_cell_length_c   9.39933300
_cell_angle_alpha   119.96138130
_cell_angle_beta   90.00000000
_cell_angle_gamma   90.00031657
_symmetry_Int_Tables_number   1
_chemical_formula_structural   Pr6Nd4Sn5Sb
_chemical_formula_sum   'Pr6 Nd4 Sn5 Sb1'
_cell_volume   522.27032668
_cell_formula_units_Z   1
loop_
 _symmetry_equiv_pos_site_id
 _symmetry_equiv_pos_as_xyz
  1  'x, y, z'
loop_
 _atom_site_type_symbol
 _atom_site_label
 _atom_site_symmetry_multiplicity
 _atom_site_fract_x
 _atom_site_fract_y
 _atom_site_fract_z
 _atom_site_occupancy
  Pr  Pr0  1  0.750000  0.242033  0.000130  1
  Pr  Pr1  1  0.749996  0.758081  0.758155  1
  Pr  Pr2  1  0.750002  0.000035  0.242683  1
  Pr  Pr3  1  0.250000  0.755952  0.997617  1
  Pr  Pr4  1  0.250001  0.243947  0.241602  1
  Pr  Pr5  1  0.250002  0.999938  0.759101  1
  Nd  Nd6  1  0.500212  0.335280  0.668362  1
  Nd  Nd7  1  0.500203  0.664721  0.333045  1
  Nd  Nd8  1  0.999793  0.664718  0.333045  1
  Nd  Nd9  1  0.999789  0.335279  0.668362  1
  Sn  Sn10  1  0.750000  0.606924  0.001391  1
  Sn  Sn11  1  0.750000  0.393217  0.394532  1
  Sn  Sn12  1  0.750000  0.999980  0.605573  1
  Sn  Sn13  1  0.250000  0.394350  0.999632  1
  Sn  Sn14  1  0.250000  0.605580  0.605160  1
  Sb  Sb15  1  0.249999  0.999965  0.391609  1
