# generated using pymatgen
data_Nd2NpS5
_symmetry_space_group_name_H-M   'P 1'
_cell_length_a   7.54266300
_cell_length_b   8.09495900
_cell_length_c   11.93952000
_cell_angle_alpha   90.00000000
_cell_angle_beta   90.00000000
_cell_angle_gamma   90.00000000
_symmetry_Int_Tables_number   1
_chemical_formula_structural   Nd2NpS5
_chemical_formula_sum   'Nd8 Np4 S20'
_cell_volume   728.99781234
_cell_formula_units_Z   4
loop_
 _symmetry_equiv_pos_site_id
 _symmetry_equiv_pos_as_xyz
  1  'x, y, z'
loop_
 _atom_site_type_symbol
 _atom_site_label
 _atom_site_symmetry_multiplicity
 _atom_site_fract_x
 _atom_site_fract_y
 _atom_site_fract_z
 _atom_site_occupancy
  Nd  Nd0  1  0.024125  0.999501  0.676415  1
  Nd  Nd1  1  0.524125  0.000499  0.823585  1
  Nd  Nd2  1  0.475875  0.500499  0.176415  1
  Nd  Nd3  1  0.975875  0.499501  0.323585  1
  Nd  Nd4  1  0.975875  0.000499  0.323585  1
  Nd  Nd5  1  0.475875  0.999501  0.176415  1
  Nd  Nd6  1  0.524125  0.499501  0.823585  1
  Nd  Nd7  1  0.024125  0.500499  0.676415  1
  Np  Np8  1  0.561259  0.250000  0.504001  1
  Np  Np9  1  0.061259  0.750000  0.995999  1
  Np  Np10  1  0.938741  0.250000  0.004001  1
  Np  Np11  1  0.438741  0.750000  0.495999  1
  S  S12  1  0.332301  0.250000  0.686793  1
  S  S13  1  0.832301  0.750000  0.813207  1
  S  S14  1  0.167699  0.250000  0.186793  1
  S  S15  1  0.667699  0.750000  0.313207  1
  S  S16  1  0.951543  0.250000  0.501241  1
  S  S17  1  0.451543  0.750000  0.998759  1
  S  S18  1  0.548457  0.250000  0.001241  1
  S  S19  1  0.048457  0.750000  0.498759  1
  S  S20  1  0.663084  0.537125  0.595163  1
  S  S21  1  0.163084  0.462875  0.904837  1
  S  S22  1  0.836916  0.962875  0.095163  1
  S  S23  1  0.336916  0.037125  0.404837  1
  S  S24  1  0.336916  0.462875  0.404837  1
  S  S25  1  0.836916  0.537125  0.095163  1
  S  S26  1  0.163084  0.037125  0.904837  1
  S  S27  1  0.663084  0.962875  0.595163  1
  S  S28  1  0.807416  0.250000  0.787024  1
  S  S29  1  0.307416  0.750000  0.712976  1
  S  S30  1  0.692584  0.250000  0.287024  1
  S  S31  1  0.192584  0.750000  0.212976  1
