# generated using pymatgen
data_Tb5Lu3Ti3Si16Mo9
_symmetry_space_group_name_H-M   'P 1'
_cell_length_a   6.90475923
_cell_length_b   6.90391479
_cell_length_c   12.79938333
_cell_angle_alpha   89.95286674
_cell_angle_beta   90.05177480
_cell_angle_gamma   89.74276863
_symmetry_Int_Tables_number   1
_chemical_formula_structural   Tb5Lu3Ti3Si16Mo9
_chemical_formula_sum   'Tb5 Lu3 Ti3 Si16 Mo9'
_cell_volume   610.13832529
_cell_formula_units_Z   1
loop_
 _symmetry_equiv_pos_site_id
 _symmetry_equiv_pos_as_xyz
  1  'x, y, z'
loop_
 _atom_site_type_symbol
 _atom_site_label
 _atom_site_symmetry_multiplicity
 _atom_site_fract_x
 _atom_site_fract_y
 _atom_site_fract_z
 _atom_site_occupancy
  Tb  Tb0  1  0.838604  0.495492  0.281054  1
  Tb  Tb1  1  0.161883  0.500305  0.782304  1
  Tb  Tb2  1  0.659477  0.998521  0.968752  1
  Tb  Tb3  1  0.002964  0.339437  0.531245  1
  Tb  Tb4  1  0.998501  0.659677  0.031365  1
  Lu  Lu5  1  0.340920  0.001276  0.468849  1
  Lu  Lu6  1  0.497079  0.840123  0.719016  1
  Lu  Lu7  1  0.498637  0.160338  0.217617  1
  Ti  Ti8  1  0.171526  0.831142  0.248765  1
  Ti  Ti9  1  0.831120  0.171022  0.751149  1
  Ti  Ti10  1  0.669126  0.669739  0.499902  1
  Si  Si11  1  0.201244  0.127044  0.683325  1
  Si  Si12  1  0.374793  0.696636  0.934357  1
  Si  Si13  1  0.626565  0.298114  0.433691  1
  Si  Si14  1  0.694547  0.373046  0.066176  1
  Si  Si15  1  0.301412  0.632212  0.566290  1
  Si  Si16  1  0.795973  0.873741  0.185137  1
  Si  Si17  1  0.132794  0.197761  0.316392  1
  Si  Si18  1  0.870136  0.797623  0.814325  1
  Si  Si19  1  0.287831  0.964909  0.062202  1
  Si  Si20  1  0.539046  0.793984  0.314339  1
  Si  Si21  1  0.458215  0.209239  0.814309  1
  Si  Si22  1  0.789087  0.541167  0.685907  1
  Si  Si23  1  0.212946  0.456700  0.185413  1
  Si  Si24  1  0.707753  0.040239  0.564214  1
  Si  Si25  1  0.964034  0.286386  0.938489  1
  Si  Si26  1  0.042855  0.712443  0.436024  1
  Mo  Mo27  1  0.331943  0.330574  0.000620  1
  Mo  Mo28  1  0.156749  0.000498  0.872278  1
  Mo  Mo29  1  0.494849  0.667072  0.126044  1
  Mo  Mo30  1  0.505302  0.340334  0.624382  1
  Mo  Mo31  1  0.665546  0.494544  0.874046  1
  Mo  Mo32  1  0.341845  0.506804  0.374926  1
  Mo  Mo33  1  0.839806  0.994533  0.374477  1
  Mo  Mo34  1  0.001343  0.156039  0.127633  1
  Mo  Mo35  1  0.993551  0.841288  0.624984  1
