# generated using pymatgen
data_HoZr2TcF15
_symmetry_space_group_name_H-M   'P 1'
_cell_length_a   8.14988858
_cell_length_b   8.14988844
_cell_length_c   8.12990041
_cell_angle_alpha   79.78404194
_cell_angle_beta   79.78403986
_cell_angle_gamma   99.89269977
_symmetry_Int_Tables_number   1
_chemical_formula_structural   HoZr2TcF15
_chemical_formula_sum   'Ho2 Zr4 Tc2 F30'
_cell_volume   511.36065687
_cell_formula_units_Z   2
loop_
 _symmetry_equiv_pos_site_id
 _symmetry_equiv_pos_as_xyz
  1  'x, y, z'
loop_
 _atom_site_type_symbol
 _atom_site_label
 _atom_site_symmetry_multiplicity
 _atom_site_fract_x
 _atom_site_fract_y
 _atom_site_fract_z
 _atom_site_occupancy
  Ho  Ho0  1  0.177963  0.822037  0.250000  1
  Ho  Ho1  1  0.822037  0.177963  0.750000  1
  Zr  Zr2  1  0.747252  0.677847  0.673209  1
  Zr  Zr3  1  0.322153  0.252748  0.826791  1
  Zr  Zr4  1  0.252748  0.322153  0.326791  1
  Zr  Zr5  1  0.677847  0.747252  0.173209  1
  Tc  Tc6  1  0.750078  0.249922  0.250000  1
  Tc  Tc7  1  0.249922  0.750078  0.750000  1
  F  F8  1  0.313771  0.350562  0.054697  1
  F  F9  1  0.935932  0.810769  0.152885  1
  F  F10  1  0.844343  0.460127  0.685668  1
  F  F11  1  0.460127  0.844343  0.185668  1
  F  F12  1  0.810769  0.935932  0.652885  1
  F  F13  1  0.350562  0.313771  0.554696  1
  F  F14  1  0.686229  0.649438  0.945303  1
  F  F15  1  0.064068  0.189231  0.847115  1
  F  F16  1  0.155657  0.539873  0.314332  1
  F  F17  1  0.539873  0.155657  0.814332  1
  F  F18  1  0.189231  0.064068  0.347115  1
  F  F19  1  0.649438  0.686229  0.445303  1
  F  F20  1  0.773569  0.281350  0.001705  1
  F  F21  1  0.998562  0.273707  0.217309  1
  F  F22  1  0.778697  0.500936  0.224966  1
  F  F23  1  0.500936  0.778697  0.724966  1
  F  F24  1  0.273707  0.998562  0.717309  1
  F  F25  1  0.281350  0.773569  0.501705  1
  F  F26  1  0.226431  0.718650  0.998295  1
  F  F27  1  0.001438  0.726293  0.782691  1
  F  F28  1  0.221303  0.499064  0.775034  1
  F  F29  1  0.499064  0.221303  0.275034  1
  F  F30  1  0.726293  0.001438  0.282691  1
  F  F31  1  0.718650  0.226431  0.498295  1
  F  F32  1  0.468122  0.531878  0.250000  1
  F  F33  1  0.747298  0.955571  0.971286  1
  F  F34  1  0.044429  0.252702  0.528714  1
  F  F35  1  0.252702  0.044429  0.028714  1
  F  F36  1  0.955571  0.747298  0.471286  1
  F  F37  1  0.531878  0.468122  0.750000  1
