# generated using pymatgen
data_Dy9Lu(Sn3Cl)2
_symmetry_space_group_name_H-M   'P 1'
_cell_length_a   9.09583100
_cell_length_b   9.09583100
_cell_length_c   6.52302900
_cell_angle_alpha   90.00000000
_cell_angle_beta   90.00000000
_cell_angle_gamma   119.99999637
_symmetry_Int_Tables_number   1
_chemical_formula_structural   Dy9Lu(Sn3Cl)2
_chemical_formula_sum   'Dy9 Lu1 Sn6 Cl2'
_cell_volume   467.37418616
_cell_formula_units_Z   1
loop_
 _symmetry_equiv_pos_site_id
 _symmetry_equiv_pos_as_xyz
  1  'x, y, z'
loop_
 _atom_site_type_symbol
 _atom_site_label
 _atom_site_symmetry_multiplicity
 _atom_site_fract_x
 _atom_site_fract_y
 _atom_site_fract_z
 _atom_site_occupancy
  Dy  Dy0  1  0.333333  0.666667  0.500000  1
  Dy  Dy1  1  0.666667  0.333333  0.500000  1
  Dy  Dy2  1  0.333333  0.666667  0.000000  1
  Dy  Dy3  1  0.737964  0.999723  0.750544  1
  Dy  Dy4  1  0.737964  0.738241  0.249456  1
  Dy  Dy5  1  0.000277  0.262036  0.249456  1
  Dy  Dy6  1  0.000277  0.738241  0.750544  1
  Dy  Dy7  1  0.261759  0.262036  0.750544  1
  Dy  Dy8  1  0.261759  0.999723  0.249456  1
  Lu  Lu9  1  0.666667  0.333333  0.000000  1
  Sn  Sn10  1  0.611281  0.609173  0.752401  1
  Sn  Sn11  1  0.997892  0.609173  0.247599  1
  Sn  Sn12  1  0.611281  0.002108  0.247599  1
  Sn  Sn13  1  0.390827  0.002108  0.752401  1
  Sn  Sn14  1  0.997892  0.388719  0.752401  1
  Sn  Sn15  1  0.390827  0.388719  0.247599  1
  Cl  Cl16  1  0.000000  0.000000  0.500000  1
  Cl  Cl17  1  0.000000  0.000000  0.000000  1
