# generated using pymatgen
data_Nd3DyAu2
_symmetry_space_group_name_H-M   'P 1'
_cell_length_a   5.03477900
_cell_length_b   7.32953639
_cell_length_c   9.22088874
_cell_angle_alpha   89.89528346
_cell_angle_beta   90.00000000
_cell_angle_gamma   90.00000000
_symmetry_Int_Tables_number   1
_chemical_formula_structural   Nd3DyAu2
_chemical_formula_sum   'Nd6 Dy2 Au4'
_cell_volume   340.27416287
_cell_formula_units_Z   2
loop_
 _symmetry_equiv_pos_site_id
 _symmetry_equiv_pos_as_xyz
  1  'x, y, z'
loop_
 _atom_site_type_symbol
 _atom_site_label
 _atom_site_symmetry_multiplicity
 _atom_site_fract_x
 _atom_site_fract_y
 _atom_site_fract_z
 _atom_site_occupancy
  Nd  Nd0  1  0.250000  0.489240  0.175565  1
  Nd  Nd1  1  0.750000  0.510760  0.824435  1
  Nd  Nd2  1  0.250000  0.990798  0.323378  1
  Nd  Nd3  1  0.750000  0.009202  0.676622  1
  Nd  Nd4  1  0.750000  0.650969  0.412610  1
  Nd  Nd5  1  0.250000  0.349031  0.587390  1
  Dy  Dy6  1  0.750000  0.149494  0.078570  1
  Dy  Dy7  1  0.250000  0.850506  0.921430  1
  Au  Au8  1  0.250000  0.245017  0.909462  1
  Au  Au9  1  0.750000  0.754983  0.090538  1
  Au  Au10  1  0.250000  0.758191  0.607608  1
  Au  Au11  1  0.750000  0.241809  0.392392  1
