# generated using pymatgen
data_ThNiAsH
_symmetry_space_group_name_H-M   'P 1'
_cell_length_a   4.08700200
_cell_length_b   8.38044400
_cell_length_c   7.20788600
_cell_angle_alpha   90.00000000
_cell_angle_beta   90.00000000
_cell_angle_gamma   90.00000000
_symmetry_Int_Tables_number   1
_chemical_formula_structural   ThNiAsH
_chemical_formula_sum   'Th4 Ni4 As4 H4'
_cell_volume   246.87652053
_cell_formula_units_Z   4
loop_
 _symmetry_equiv_pos_site_id
 _symmetry_equiv_pos_as_xyz
  1  'x, y, z'
loop_
 _atom_site_type_symbol
 _atom_site_label
 _atom_site_symmetry_multiplicity
 _atom_site_fract_x
 _atom_site_fract_y
 _atom_site_fract_z
 _atom_site_occupancy
  Th  Th0  1  0.750000  0.505889  0.753627  1
  Th  Th1  1  0.250000  0.494111  0.246373  1
  Th  Th2  1  0.250000  0.994111  0.253627  1
  Th  Th3  1  0.750000  0.005889  0.746373  1
  Ni  Ni4  1  0.750000  0.237419  0.410938  1
  Ni  Ni5  1  0.250000  0.762581  0.589062  1
  Ni  Ni6  1  0.250000  0.262581  0.910938  1
  Ni  Ni7  1  0.750000  0.737419  0.089062  1
  As  As8  1  0.750000  0.225987  0.078660  1
  As  As9  1  0.250000  0.774013  0.921340  1
  As  As10  1  0.250000  0.274013  0.578660  1
  As  As11  1  0.750000  0.725987  0.421340  1
  H  H12  1  0.250000  0.959063  0.579649  1
  H  H13  1  0.750000  0.040937  0.420351  1
  H  H14  1  0.750000  0.540937  0.079649  1
  H  H15  1  0.250000  0.459063  0.920351  1
