# generated using pymatgen
data_LiYbHo3Al17Pd6
_symmetry_space_group_name_H-M   'P 1'
_cell_length_a   7.62719938
_cell_length_b   7.62208319
_cell_length_c   9.45106700
_cell_angle_alpha   90.00000000
_cell_angle_beta   90.00000000
_cell_angle_gamma   119.28488995
_symmetry_Int_Tables_number   1
_chemical_formula_structural   LiYbHo3Al17Pd6
_chemical_formula_sum   'Li1 Yb1 Ho3 Al17 Pd6'
_cell_volume   479.21991985
_cell_formula_units_Z   1
loop_
 _symmetry_equiv_pos_site_id
 _symmetry_equiv_pos_as_xyz
  1  'x, y, z'
loop_
 _atom_site_type_symbol
 _atom_site_label
 _atom_site_symmetry_multiplicity
 _atom_site_fract_x
 _atom_site_fract_y
 _atom_site_fract_z
 _atom_site_occupancy
  Li  Li0  1  0.128264  0.128836  0.250000  1
  Yb  Yb1  1  0.007329  0.326868  0.750000  1
  Ho  Ho2  1  0.994900  0.663361  0.250000  1
  Ho  Ho3  1  0.666574  0.996701  0.250000  1
  Ho  Ho4  1  0.326727  0.005854  0.750000  1
  Al  Al5  1  0.866252  0.864018  0.750000  1
  Al  Al6  1  0.001841  0.329065  0.081110  1
  Al  Al7  1  0.000211  0.663998  0.923844  1
  Al  Al8  1  0.000211  0.663998  0.576156  1
  Al  Al9  1  0.328588  0.001009  0.417048  1
  Al  Al10  1  0.001841  0.329065  0.418890  1
  Al  Al11  1  0.664736  0.000984  0.576237  1
  Al  Al12  1  0.664736  0.000984  0.923763  1
  Al  Al13  1  0.328588  0.001009  0.082952  1
  Al  Al14  1  0.335561  0.335349  0.543940  1
  Al  Al15  1  0.672689  0.672663  0.438696  1
  Al  Al16  1  0.672689  0.672663  0.061304  1
  Al  Al17  1  0.335561  0.335349  0.956060  1
  Al  Al18  1  0.340379  0.543810  0.250000  1
  Al  Al19  1  0.654445  0.449607  0.750000  1
  Al  Al20  1  0.541772  0.341357  0.250000  1
  Al  Al21  1  0.453032  0.660528  0.750000  1
  Pd  Pd22  1  0.675386  0.329717  0.001159  1
  Pd  Pd23  1  0.330524  0.676672  0.000608  1
  Pd  Pd24  1  0.330524  0.676672  0.499392  1
  Pd  Pd25  1  0.675386  0.329717  0.498841  1
  Pd  Pd26  1  0.000629  0.000075  0.994212  1
  Pd  Pd27  1  0.000629  0.000075  0.505788  1
