# generated using pymatgen
data_LiLa7Yb9Cd3Ir4
_symmetry_space_group_name_H-M   'P 1'
_cell_length_a   10.02666506
_cell_length_b   9.99698883
_cell_length_c   10.10179551
_cell_angle_alpha   60.13866270
_cell_angle_beta   60.36027010
_cell_angle_gamma   60.81819017
_symmetry_Int_Tables_number   1
_chemical_formula_structural   LiLa7Yb9Cd3Ir4
_chemical_formula_sum   'Li1 La7 Yb9 Cd3 Ir4'
_cell_volume   723.04863083
_cell_formula_units_Z   1
loop_
 _symmetry_equiv_pos_site_id
 _symmetry_equiv_pos_as_xyz
  1  'x, y, z'
loop_
 _atom_site_type_symbol
 _atom_site_label
 _atom_site_symmetry_multiplicity
 _atom_site_fract_x
 _atom_site_fract_y
 _atom_site_fract_z
 _atom_site_occupancy
  Li  Li0  1  0.567648  0.568730  0.570139  1
  La  La1  1  0.345018  0.345073  0.351077  1
  La  La2  1  0.344821  0.341329  0.966088  1
  La  La3  1  0.347914  0.967555  0.341582  1
  La  La4  1  0.968644  0.347016  0.342682  1
  La  La5  1  0.810947  0.187278  0.190363  1
  La  La6  1  0.185109  0.814644  0.812682  1
  La  La7  1  0.190659  0.808514  0.192739  1
  Yb  Yb8  1  0.808686  0.188112  0.810053  1
  Yb  Yb9  1  0.194518  0.194711  0.806184  1
  Yb  Yb10  1  0.805976  0.808743  0.189597  1
  Yb  Yb11  1  0.942479  0.561498  0.558712  1
  Yb  Yb12  1  0.557946  0.939524  0.940084  1
  Yb  Yb13  1  0.557709  0.944678  0.557363  1
  Yb  Yb14  1  0.943140  0.556402  0.943602  1
  Yb  Yb15  1  0.555451  0.554631  0.947335  1
  Yb  Yb16  1  0.945116  0.946082  0.554455  1
  Cd  Cd17  1  0.583466  0.581124  0.258138  1
  Cd  Cd18  1  0.582194  0.260237  0.579532  1
  Cd  Cd19  1  0.258646  0.582467  0.581903  1
  Ir  Ir20  1  0.134830  0.138491  0.146051  1
  Ir  Ir21  1  0.143381  0.132633  0.579410  1
  Ir  Ir22  1  0.146855  0.581016  0.137035  1
  Ir  Ir23  1  0.578847  0.149510  0.143194  1
