# generated using pymatgen
data_Tb17Mg3(Ir2Pt)4
_symmetry_space_group_name_H-M   'P 1'
_cell_length_a   10.88780500
_cell_length_b   10.88780500
_cell_length_c   6.31135100
_cell_angle_alpha   90.00000000
_cell_angle_beta   90.00000000
_cell_angle_gamma   90.00000000
_symmetry_Int_Tables_number   1
_chemical_formula_structural   Tb17Mg3(Ir2Pt)4
_chemical_formula_sum   'Tb17 Mg3 Ir8 Pt4'
_cell_volume   748.17467195
_cell_formula_units_Z   1
loop_
 _symmetry_equiv_pos_site_id
 _symmetry_equiv_pos_as_xyz
  1  'x, y, z'
loop_
 _atom_site_type_symbol
 _atom_site_label
 _atom_site_symmetry_multiplicity
 _atom_site_fract_x
 _atom_site_fract_y
 _atom_site_fract_z
 _atom_site_occupancy
  Tb  Tb0  1  0.288106  0.088484  0.378899  1
  Tb  Tb1  1  0.288572  0.913376  0.876884  1
  Tb  Tb2  1  0.711428  0.086624  0.876884  1
  Tb  Tb3  1  0.711894  0.911516  0.378899  1
  Tb  Tb4  1  0.583643  0.784602  0.880773  1
  Tb  Tb5  1  0.587238  0.207676  0.381478  1
  Tb  Tb6  1  0.412762  0.792324  0.381478  1
  Tb  Tb7  1  0.416357  0.215398  0.880773  1
  Tb  Tb8  1  0.207676  0.412762  0.618522  1
  Tb  Tb9  1  0.215398  0.583643  0.119227  1
  Tb  Tb10  1  0.784602  0.416357  0.119227  1
  Tb  Tb11  1  0.792324  0.587238  0.618522  1
  Tb  Tb12  1  0.913376  0.711428  0.123116  1
  Tb  Tb13  1  0.911516  0.288106  0.621101  1
  Tb  Tb14  1  0.088484  0.711894  0.621101  1
  Tb  Tb15  1  0.086624  0.288572  0.123116  1
  Tb  Tb16  1  0.500000  0.500000  0.500000  1
  Mg  Mg17  1  0.000000  0.000000  0.500000  1
  Mg  Mg18  1  0.000000  0.000000  0.000000  1
  Mg  Mg19  1  0.500000  0.500000  0.000000  1
  Ir  Ir20  1  0.656664  0.345017  0.746714  1
  Ir  Ir21  1  0.654983  0.656664  0.253286  1
  Ir  Ir22  1  0.345017  0.343336  0.253286  1
  Ir  Ir23  1  0.343336  0.654983  0.746714  1
  Ir  Ir24  1  0.500000  0.000000  0.119627  1
  Ir  Ir25  1  0.500000  0.000000  0.623700  1
  Ir  Ir26  1  0.000000  0.500000  0.880373  1
  Ir  Ir27  1  0.000000  0.500000  0.376300  1
  Pt  Pt28  1  0.850612  0.150002  0.247947  1
  Pt  Pt29  1  0.849998  0.850612  0.752053  1
  Pt  Pt30  1  0.150002  0.149388  0.752053  1
  Pt  Pt31  1  0.149388  0.849998  0.247947  1
