# generated using pymatgen
data_YbHoLu2(Ga2Ag)4
_symmetry_space_group_name_H-M   'P 1'
_cell_length_a   4.32796200
_cell_length_b   6.92522039
_cell_length_c   10.23951860
_cell_angle_alpha   90.40709380
_cell_angle_beta   90.00000000
_cell_angle_gamma   90.00000000
_symmetry_Int_Tables_number   1
_chemical_formula_structural   YbHoLu2(Ga2Ag)4
_chemical_formula_sum   'Yb1 Ho1 Lu2 Ga8 Ag4'
_cell_volume   306.89203376
_cell_formula_units_Z   1
loop_
 _symmetry_equiv_pos_site_id
 _symmetry_equiv_pos_as_xyz
  1  'x, y, z'
loop_
 _atom_site_type_symbol
 _atom_site_label
 _atom_site_symmetry_multiplicity
 _atom_site_fract_x
 _atom_site_fract_y
 _atom_site_fract_z
 _atom_site_occupancy
  Yb  Yb0  1  0.250000  0.275000  0.672703  1
  Ho  Ho1  1  0.750000  0.225121  0.173297  1
  Lu  Lu2  1  0.250000  0.777403  0.827123  1
  Lu  Lu3  1  0.750000  0.723621  0.327915  1
  Ga  Ga4  1  0.250000  0.705468  0.536121  1
  Ga  Ga5  1  0.750000  0.298876  0.463863  1
  Ga  Ga6  1  0.750000  0.794044  0.037510  1
  Ga  Ga7  1  0.250000  0.198408  0.964817  1
  Ga  Ga8  1  0.250000  0.927412  0.156095  1
  Ga  Ga9  1  0.750000  0.068232  0.847591  1
  Ga  Ga10  1  0.750000  0.572006  0.652171  1
  Ga  Ga11  1  0.250000  0.431429  0.344176  1
  Ag  Ag12  1  0.250000  0.544278  0.096514  1
  Ag  Ag13  1  0.750000  0.456141  0.901557  1
  Ag  Ag14  1  0.750000  0.957735  0.596868  1
  Ag  Ag15  1  0.250000  0.044826  0.401680  1
