# generated using pymatgen
data_Tm12InTc3Pb
_symmetry_space_group_name_H-M   'P 1'
_cell_length_a   8.39088038
_cell_length_b   8.39128662
_cell_length_c   8.39087886
_cell_angle_alpha   108.93998140
_cell_angle_beta   109.01751854
_cell_angle_gamma   110.45872500
_symmetry_Int_Tables_number   1
_chemical_formula_structural   Tm12InTc3Pb
_chemical_formula_sum   'Tm12 In1 Tc3 Pb1'
_cell_volume   454.71053727
_cell_formula_units_Z   1
loop_
 _symmetry_equiv_pos_site_id
 _symmetry_equiv_pos_as_xyz
  1  'x, y, z'
loop_
 _atom_site_type_symbol
 _atom_site_label
 _atom_site_symmetry_multiplicity
 _atom_site_fract_x
 _atom_site_fract_y
 _atom_site_fract_z
 _atom_site_occupancy
  Tm  Tm0  1  0.189320  0.428455  0.239135  1
  Tm  Tm1  1  0.810680  0.571545  0.760865  1
  Tm  Tm2  1  0.189340  0.950207  0.760865  1
  Tm  Tm3  1  0.953158  0.191232  0.761923  1
  Tm  Tm4  1  0.810660  0.049793  0.239135  1
  Tm  Tm5  1  0.046842  0.808768  0.238077  1
  Tm  Tm6  1  0.429309  0.191232  0.238075  1
  Tm  Tm7  1  0.570691  0.808768  0.761925  1
  Tm  Tm8  1  0.303850  0.307571  0.611427  1
  Tm  Tm9  1  0.696150  0.692429  0.388573  1
  Tm  Tm10  1  0.696144  0.307571  0.003721  1
  Tm  Tm11  1  0.303856  0.692429  0.996279  1
  In  In12  1  0.000000  0.500000  0.500000  1
  Tc  Tc13  1  0.371837  0.371842  0.000005  1
  Tc  Tc14  1  0.628163  0.628158  0.999995  1
  Tc  Tc15  1  0.000000  0.000000  0.000000  1
  Pb  Pb16  1  0.500000  0.000000  0.500000  1
