# generated using pymatgen
data_PrNdRh2O7
_symmetry_space_group_name_H-M   'P 1'
_cell_length_a   7.40650181
_cell_length_b   7.40650288
_cell_length_c   7.40512300
_cell_angle_alpha   60.00615833
_cell_angle_beta   60.00615354
_cell_angle_gamma   60.01125405
_symmetry_Int_Tables_number   1
_chemical_formula_structural   PrNdRh2O7
_chemical_formula_sum   'Pr2 Nd2 Rh4 O14'
_cell_volume   287.29028689
_cell_formula_units_Z   2
loop_
 _symmetry_equiv_pos_site_id
 _symmetry_equiv_pos_as_xyz
  1  'x, y, z'
loop_
 _atom_site_type_symbol
 _atom_site_label
 _atom_site_symmetry_multiplicity
 _atom_site_fract_x
 _atom_site_fract_y
 _atom_site_fract_z
 _atom_site_occupancy
  Pr  Pr0  1  0.125000  0.125000  0.125000  1
  Pr  Pr1  1  0.125000  0.125000  0.625000  1
  Nd  Nd2  1  0.125000  0.625000  0.125000  1
  Nd  Nd3  1  0.625000  0.125000  0.125000  1
  Rh  Rh4  1  0.625000  0.625000  0.625000  1
  Rh  Rh5  1  0.625000  0.625000  0.125000  1
  Rh  Rh6  1  0.125000  0.625000  0.625000  1
  Rh  Rh7  1  0.625000  0.125000  0.625000  1
  O  O8  1  0.251622  0.251622  0.248378  1
  O  O9  1  0.293696  0.705432  0.293373  1
  O  O10  1  0.956195  0.956195  0.543805  1
  O  O11  1  0.544568  0.956304  0.542501  1
  O  O12  1  0.706080  0.706080  0.293920  1
  O  O13  1  0.956304  0.544568  0.542501  1
  O  O14  1  0.705432  0.293696  0.707499  1
  O  O15  1  0.293805  0.293805  0.706195  1
  O  O16  1  0.705432  0.293696  0.293373  1
  O  O17  1  0.293696  0.705432  0.707499  1
  O  O18  1  0.956304  0.544568  0.956627  1
  O  O19  1  0.543920  0.543920  0.956080  1
  O  O20  1  0.998378  0.998378  0.001622  1
  O  O21  1  0.544568  0.956304  0.956627  1
