# generated using pymatgen
data_Rb4PrUTe6
_symmetry_space_group_name_H-M   'P 1'
_cell_length_a   8.30571999
_cell_length_b   8.30571978
_cell_length_c   8.97810510
_cell_angle_alpha   80.99845459
_cell_angle_beta   80.99845302
_cell_angle_gamma   120.02133115
_symmetry_Int_Tables_number   1
_chemical_formula_structural   Rb4PrUTe6
_chemical_formula_sum   'Rb4 Pr1 U1 Te6'
_cell_volume   509.31178661
_cell_formula_units_Z   1
loop_
 _symmetry_equiv_pos_site_id
 _symmetry_equiv_pos_as_xyz
  1  'x, y, z'
loop_
 _atom_site_type_symbol
 _atom_site_label
 _atom_site_symmetry_multiplicity
 _atom_site_fract_x
 _atom_site_fract_y
 _atom_site_fract_z
 _atom_site_occupancy
  Rb  Rb0  1  0.499995  0.500005  0.000000  1
  Rb  Rb1  1  0.655544  0.344456  0.500000  1
  Rb  Rb2  1  0.344402  0.655598  0.500000  1
  Rb  Rb3  1  0.000042  0.999958  0.500000  1
  Pr  Pr4  1  0.832361  0.167639  0.000000  1
  U  U5  1  0.167656  0.832344  0.000000  1
  Te  Te6  1  0.816860  0.798389  0.202683  1
  Te  Te7  1  0.201611  0.183140  0.797317  1
  Te  Te8  1  0.411758  0.043989  0.205204  1
  Te  Te9  1  0.550659  0.936899  0.794375  1
  Te  Te10  1  0.956011  0.588242  0.794796  1
  Te  Te11  1  0.063101  0.449341  0.205625  1
