# generated using pymatgen
data_MgZn3P7N12
_symmetry_space_group_name_H-M   'P 1'
_cell_length_a   7.19452671
_cell_length_b   7.17055689
_cell_length_c   7.19452799
_cell_angle_alpha   109.40374731
_cell_angle_beta   109.53860859
_cell_angle_gamma   109.40374214
_symmetry_Int_Tables_number   1
_chemical_formula_structural   MgZn3P7N12
_chemical_formula_sum   'Mg1 Zn3 P7 N12'
_cell_volume   285.95423207
_cell_formula_units_Z   1
loop_
 _symmetry_equiv_pos_site_id
 _symmetry_equiv_pos_as_xyz
  1  'x, y, z'
loop_
 _atom_site_type_symbol
 _atom_site_label
 _atom_site_symmetry_multiplicity
 _atom_site_fract_x
 _atom_site_fract_y
 _atom_site_fract_z
 _atom_site_occupancy
  Mg  Mg0  1  0.000000  0.349484  0.000000  1
  Zn  Zn1  1  0.663741  0.668139  0.663741  1
  Zn  Zn2  1  0.336259  0.004398  0.000000  1
  Zn  Zn3  1  0.000000  0.004398  0.336259  1
  P  P4  1  0.748666  0.250128  0.498705  1
  P  P5  1  0.249962  0.751423  0.501295  1
  P  P6  1  0.501295  0.751423  0.249962  1
  P  P7  1  0.498705  0.250128  0.748666  1
  P  P8  1  0.750038  0.501461  0.251334  1
  P  P9  1  0.251334  0.501461  0.750038  1
  P  P10  1  0.000000  0.965598  0.000000  1
  N  N11  1  0.558785  0.273033  0.000000  1
  N  N12  1  0.444261  0.445120  0.715659  1
  N  N13  1  0.000000  0.273033  0.558785  1
  N  N14  1  0.271397  0.000859  0.555739  1
  N  N15  1  0.715659  0.445120  0.444261  1
  N  N16  1  0.000000  0.555552  0.275894  1
  N  N17  1  0.555739  0.000859  0.271397  1
  N  N18  1  0.441215  0.714248  0.441215  1
  N  N19  1  0.275894  0.555552  0.000000  1
  N  N20  1  0.724106  0.279659  0.724106  1
  N  N21  1  0.728603  0.729461  0.284341  1
  N  N22  1  0.284341  0.729461  0.728603  1
