# generated using pymatgen
data_Pr12B2I17
_symmetry_space_group_name_H-M   'P 1'
_cell_length_a   9.94458526
_cell_length_b   11.88497569
_cell_length_c   11.69262903
_cell_angle_alpha   93.44510331
_cell_angle_beta   104.83673285
_cell_angle_gamma   115.62896041
_symmetry_Int_Tables_number   1
_chemical_formula_structural   Pr12B2I17
_chemical_formula_sum   'Pr12 B2 I17'
_cell_volume   1181.08782786
_cell_formula_units_Z   1
loop_
 _symmetry_equiv_pos_site_id
 _symmetry_equiv_pos_as_xyz
  1  'x, y, z'
loop_
 _atom_site_type_symbol
 _atom_site_label
 _atom_site_symmetry_multiplicity
 _atom_site_fract_x
 _atom_site_fract_y
 _atom_site_fract_z
 _atom_site_occupancy
  Pr  Pr0  1  0.055701  0.513542  0.328531  1
  Pr  Pr1  1  0.993822  0.808329  0.583132  1
  Pr  Pr2  1  0.643506  0.239739  0.278978  1
  Pr  Pr3  1  0.006178  0.191671  0.416868  1
  Pr  Pr4  1  0.214398  0.663760  0.992268  1
  Pr  Pr5  1  0.272143  0.984360  0.902007  1
  Pr  Pr6  1  0.356494  0.760261  0.721022  1
  Pr  Pr7  1  0.944299  0.486458  0.671469  1
  Pr  Pr8  1  0.727857  0.015640  0.097993  1
  Pr  Pr9  1  0.145661  0.290859  0.147470  1
  Pr  Pr10  1  0.785602  0.336240  0.007732  1
  Pr  Pr11  1  0.854339  0.709141  0.852530  1
  B  B12  1  0.103768  0.737413  0.784242  1
  B  B13  1  0.896232  0.262587  0.215758  1
  I  I14  1  0.771059  0.528362  0.413449  1
  I  I15  1  0.630926  0.414091  0.745887  1
  I  I16  1  0.838839  0.894035  0.319953  1
  I  I17  1  0.322429  0.212078  0.369900  1
  I  I18  1  0.161161  0.105965  0.680047  1
  I  I19  1  0.590326  0.058338  0.829597  1
  I  I20  1  0.741525  0.170279  0.537247  1
  I  I21  1  0.542803  0.695813  0.956114  1
  I  I22  1  0.369074  0.585909  0.254113  1
  I  I23  1  0.228941  0.471638  0.586551  1
  I  I24  1  0.058518  0.360452  0.886591  1
  I  I25  1  0.457197  0.304187  0.043886  1
  I  I26  1  0.000000  0.000000  0.000000  1
  I  I27  1  0.258475  0.829721  0.462753  1
  I  I28  1  0.409674  0.941662  0.170403  1
  I  I29  1  0.677571  0.787922  0.630100  1
  I  I30  1  0.941482  0.639548  0.113409  1
