# generated using pymatgen
data_Tb16Cd4FeNi3
_symmetry_space_group_name_H-M   'P 1'
_cell_length_a   9.57056726
_cell_length_b   9.57056587
_cell_length_c   9.57056633
_cell_angle_alpha   59.79375713
_cell_angle_beta   59.79376393
_cell_angle_gamma   59.79375636
_symmetry_Int_Tables_number   1
_chemical_formula_structural   Tb16Cd4FeNi3
_chemical_formula_sum   'Tb16 Cd4 Fe1 Ni3'
_cell_volume   616.96394285
_cell_formula_units_Z   1
loop_
 _symmetry_equiv_pos_site_id
 _symmetry_equiv_pos_as_xyz
  1  'x, y, z'
loop_
 _atom_site_type_symbol
 _atom_site_label
 _atom_site_symmetry_multiplicity
 _atom_site_fract_x
 _atom_site_fract_y
 _atom_site_fract_z
 _atom_site_occupancy
  Tb  Tb0  1  0.597762  0.597762  0.597762  1
  Tb  Tb1  1  0.596962  0.596962  0.206513  1
  Tb  Tb2  1  0.596962  0.206513  0.596962  1
  Tb  Tb3  1  0.206513  0.596962  0.596962  1
  Tb  Tb4  1  0.065965  0.438099  0.438099  1
  Tb  Tb5  1  0.437070  0.061581  0.061581  1
  Tb  Tb6  1  0.438099  0.065965  0.438099  1
  Tb  Tb7  1  0.061581  0.437070  0.061581  1
  Tb  Tb8  1  0.438099  0.438099  0.065965  1
  Tb  Tb9  1  0.061581  0.061581  0.437070  1
  Tb  Tb10  1  0.186647  0.814355  0.814355  1
  Tb  Tb11  1  0.808958  0.188148  0.188148  1
  Tb  Tb12  1  0.814355  0.186647  0.814355  1
  Tb  Tb13  1  0.188148  0.808958  0.188148  1
  Tb  Tb14  1  0.814355  0.814355  0.186647  1
  Tb  Tb15  1  0.188148  0.188148  0.808958  1
  Cd  Cd16  1  0.829815  0.829815  0.829815  1
  Cd  Cd17  1  0.830477  0.830477  0.506303  1
  Cd  Cd18  1  0.830477  0.506303  0.830477  1
  Cd  Cd19  1  0.506303  0.830477  0.830477  1
  Fe  Fe20  1  0.392769  0.392769  0.392769  1
  Ni  Ni21  1  0.392142  0.392142  0.824668  1
  Ni  Ni22  1  0.392142  0.824668  0.392142  1
  Ni  Ni23  1  0.824668  0.392142  0.392142  1
