# generated using pymatgen
data_La5PrMgCd22P
_symmetry_space_group_name_H-M   'P 1'
_cell_length_a   10.14388902
_cell_length_b   10.14388889
_cell_length_c   10.13617514
_cell_angle_alpha   60.18138861
_cell_angle_beta   60.18138926
_cell_angle_gamma   60.11520847
_symmetry_Int_Tables_number   1
_chemical_formula_structural   La5PrMgCd22P
_chemical_formula_sum   'La5 Pr1 Mg1 Cd22 P1'
_cell_volume   740.17110934
_cell_formula_units_Z   1
loop_
 _symmetry_equiv_pos_site_id
 _symmetry_equiv_pos_as_xyz
  1  'x, y, z'
loop_
 _atom_site_type_symbol
 _atom_site_label
 _atom_site_symmetry_multiplicity
 _atom_site_fract_x
 _atom_site_fract_y
 _atom_site_fract_z
 _atom_site_occupancy
  La  La0  1  0.205025  0.794575  0.205259  1
  La  La1  1  0.794575  0.205025  0.205259  1
  La  La2  1  0.204976  0.204976  0.794877  1
  La  La3  1  0.794604  0.205101  0.795076  1
  La  La4  1  0.205101  0.794604  0.795076  1
  Pr  Pr5  1  0.795169  0.795169  0.205001  1
  Mg  Mg6  1  0.500040  0.500040  0.499937  1
  Cd  Cd7  1  0.830334  0.830334  0.507457  1
  Cd  Cd8  1  0.830205  0.508071  0.830418  1
  Cd  Cd9  1  0.508071  0.830205  0.830418  1
  Cd  Cd10  1  0.830978  0.830978  0.831643  1
  Cd  Cd11  1  0.169669  0.169669  0.491851  1
  Cd  Cd12  1  0.169180  0.492444  0.169611  1
  Cd  Cd13  1  0.492444  0.169180  0.169611  1
  Cd  Cd14  1  0.168966  0.168966  0.169138  1
  Cd  Cd15  1  0.620920  0.620920  0.138668  1
  Cd  Cd16  1  0.620529  0.138770  0.620497  1
  Cd  Cd17  1  0.138770  0.620529  0.620497  1
  Cd  Cd18  1  0.620933  0.620933  0.619685  1
  Cd  Cd19  1  0.379479  0.379479  0.861351  1
  Cd  Cd20  1  0.380155  0.861240  0.379158  1
  Cd  Cd21  1  0.861240  0.380155  0.379158  1
  Cd  Cd22  1  0.379439  0.379439  0.379454  1
  Cd  Cd23  1  0.999962  0.999962  0.500078  1
  Cd  Cd24  1  0.500085  0.999716  0.499925  1
  Cd  Cd25  1  0.999716  0.500085  0.499925  1
  Cd  Cd26  1  0.499933  0.499933  0.000106  1
  Cd  Cd27  1  0.999725  0.500138  0.000264  1
  Cd  Cd28  1  0.500138  0.999725  0.000264  1
  P  P29  1  0.999637  0.999637  0.000342  1
