# generated using pymatgen
data_Er8Mg2Cu3NiSb2
_symmetry_space_group_name_H-M   'P 1'
_cell_length_a   8.44816303
_cell_length_b   8.44816307
_cell_length_c   8.53724456
_cell_angle_alpha   127.61185093
_cell_angle_beta   127.61184628
_cell_angle_gamma   76.49744325
_symmetry_Int_Tables_number   1
_chemical_formula_structural   Er8Mg2Cu3NiSb2
_chemical_formula_sum   'Er8 Mg2 Cu3 Ni1 Sb2'
_cell_volume   372.86295221
_cell_formula_units_Z   1
loop_
 _symmetry_equiv_pos_site_id
 _symmetry_equiv_pos_as_xyz
  1  'x, y, z'
loop_
 _atom_site_type_symbol
 _atom_site_label
 _atom_site_symmetry_multiplicity
 _atom_site_fract_x
 _atom_site_fract_y
 _atom_site_fract_z
 _atom_site_occupancy
  Er  Er0  1  0.789726  0.298357  0.817302  1
  Er  Er1  1  0.201643  0.710274  0.182698  1
  Er  Er2  1  0.472423  0.981054  0.182698  1
  Er  Er3  1  0.306156  0.463688  0.500000  1
  Er  Er4  1  0.036312  0.193844  0.500000  1
  Er  Er5  1  0.518946  0.027577  0.817302  1
  Er  Er6  1  0.701396  0.525074  0.500000  1
  Er  Er7  1  0.974926  0.798604  0.500000  1
  Mg  Mg8  1  0.997768  0.000225  0.997992  1
  Mg  Mg9  1  0.499775  0.502232  0.002008  1
  Cu  Cu10  1  0.128820  0.624483  0.753305  1
  Cu  Cu11  1  0.875517  0.371180  0.246695  1
  Cu  Cu12  1  0.627841  0.872159  0.500000  1
  Ni  Ni13  1  0.376147  0.123853  0.500000  1
  Sb  Sb14  1  0.246303  0.253697  0.000000  1
  Sb  Sb15  1  0.746303  0.753697  0.000000  1
