# generated using pymatgen
data_Tb4AlI6
_symmetry_space_group_name_H-M   'P 1'
_cell_length_a   4.18556500
_cell_length_b   14.34905400
_cell_length_c   15.07382000
_cell_angle_alpha   90.00000000
_cell_angle_beta   90.00000000
_cell_angle_gamma   90.00000000
_symmetry_Int_Tables_number   1
_chemical_formula_structural   Tb4AlI6
_chemical_formula_sum   'Tb8 Al2 I12'
_cell_volume   905.31702095
_cell_formula_units_Z   2
loop_
 _symmetry_equiv_pos_site_id
 _symmetry_equiv_pos_as_xyz
  1  'x, y, z'
loop_
 _atom_site_type_symbol
 _atom_site_label
 _atom_site_symmetry_multiplicity
 _atom_site_fract_x
 _atom_site_fract_y
 _atom_site_fract_z
 _atom_site_occupancy
  Tb  Tb0  1  0.500000  0.115503  0.344185  1
  Tb  Tb1  1  0.500000  0.884497  0.655815  1
  Tb  Tb2  1  0.500000  0.615503  0.155815  1
  Tb  Tb3  1  0.500000  0.384497  0.844185  1
  Tb  Tb4  1  0.000000  0.117776  0.578602  1
  Tb  Tb5  1  0.000000  0.882224  0.421398  1
  Tb  Tb6  1  0.000000  0.617776  0.921398  1
  Tb  Tb7  1  0.000000  0.382224  0.078602  1
  Al  Al8  1  0.500000  0.000000  0.500000  1
  Al  Al9  1  0.500000  0.500000  0.000000  1
  I  I10  1  0.500000  0.245598  0.164311  1
  I  I11  1  0.500000  0.754402  0.835689  1
  I  I12  1  0.500000  0.745598  0.335689  1
  I  I13  1  0.500000  0.254402  0.664311  1
  I  I14  1  0.000000  0.258153  0.413674  1
  I  I15  1  0.000000  0.741847  0.586326  1
  I  I16  1  0.000000  0.758153  0.086326  1
  I  I17  1  0.000000  0.241847  0.913674  1
  I  I18  1  0.000000  0.998536  0.240203  1
  I  I19  1  0.000000  0.001464  0.759797  1
  I  I20  1  0.000000  0.498536  0.259797  1
  I  I21  1  0.000000  0.501464  0.740203  1
