# generated using pymatgen
data_Lu8Nb11ReSi16
_symmetry_space_group_name_H-M   'P 1'
_cell_length_a   6.77940600
_cell_length_b   7.00340400
_cell_length_c   13.27972000
_cell_angle_alpha   90.00000000
_cell_angle_beta   90.00000000
_cell_angle_gamma   90.00113047
_symmetry_Int_Tables_number   1
_chemical_formula_structural   Lu8Nb11ReSi16
_chemical_formula_sum   'Lu8 Nb11 Re1 Si16'
_cell_volume   630.50675146
_cell_formula_units_Z   1
loop_
 _symmetry_equiv_pos_site_id
 _symmetry_equiv_pos_as_xyz
  1  'x, y, z'
loop_
 _atom_site_type_symbol
 _atom_site_label
 _atom_site_symmetry_multiplicity
 _atom_site_fract_x
 _atom_site_fract_y
 _atom_site_fract_z
 _atom_site_occupancy
  Lu  Lu0  1  0.500767  0.672775  0.595329  1
  Lu  Lu1  1  0.001183  0.827058  0.904615  1
  Lu  Lu2  1  0.497605  0.327413  0.095315  1
  Lu  Lu3  1  0.998175  0.172534  0.404538  1
  Lu  Lu4  1  0.497605  0.327413  0.404685  1
  Lu  Lu5  1  0.998175  0.172534  0.095462  1
  Lu  Lu6  1  0.500767  0.672775  0.904671  1
  Lu  Lu7  1  0.001183  0.827058  0.595385  1
  Nb  Nb8  1  0.664314  0.172976  0.626183  1
  Nb  Nb9  1  0.163783  0.328131  0.873638  1
  Nb  Nb10  1  0.337226  0.825762  0.124997  1
  Nb  Nb11  1  0.837013  0.674095  0.375856  1
  Nb  Nb12  1  0.337226  0.825762  0.375003  1
  Nb  Nb13  1  0.837013  0.674095  0.124144  1
  Nb  Nb14  1  0.664314  0.172976  0.873817  1
  Nb  Nb15  1  0.163783  0.328131  0.626362  1
  Nb  Nb16  1  0.336774  0.006178  0.750000  1
  Nb  Nb17  1  0.162967  0.506456  0.250000  1
  Nb  Nb18  1  0.663239  0.993833  0.250000  1
  Re  Re19  1  0.837439  0.494587  0.750000  1
  Si  Si20  1  0.665493  0.964698  0.459433  1
  Si  Si21  1  0.166149  0.536018  0.040096  1
  Si  Si22  1  0.334519  0.035824  0.959137  1
  Si  Si23  1  0.834653  0.463293  0.542549  1
  Si  Si24  1  0.334519  0.035824  0.540863  1
  Si  Si25  1  0.834653  0.463293  0.957451  1
  Si  Si26  1  0.665493  0.964698  0.040567  1
  Si  Si27  1  0.166149  0.536018  0.459904  1
  Si  Si28  1  0.465961  0.382214  0.750000  1
  Si  Si29  1  0.958993  0.121259  0.750000  1
  Si  Si30  1  0.540848  0.619596  0.250000  1
  Si  Si31  1  0.039927  0.880859  0.250000  1
  Si  Si32  1  0.703577  0.863668  0.750000  1
  Si  Si33  1  0.197800  0.630163  0.750000  1
  Si  Si34  1  0.295457  0.131123  0.250000  1
  Si  Si35  1  0.795264  0.368907  0.250000  1
