# generated using pymatgen
data_Nd4Dy12MgHg3Pt4
_symmetry_space_group_name_H-M   'P 1'
_cell_length_a   9.71975455
_cell_length_b   9.73512041
_cell_length_c   9.73512082
_cell_angle_alpha   60.48982329
_cell_angle_beta   60.23987060
_cell_angle_gamma   60.23988176
_symmetry_Int_Tables_number   1
_chemical_formula_structural   Nd4Dy12MgHg3Pt4
_chemical_formula_sum   'Nd4 Dy12 Mg1 Hg3 Pt4'
_cell_volume   656.11765755
_cell_formula_units_Z   1
loop_
 _symmetry_equiv_pos_site_id
 _symmetry_equiv_pos_as_xyz
  1  'x, y, z'
loop_
 _atom_site_type_symbol
 _atom_site_label
 _atom_site_symmetry_multiplicity
 _atom_site_fract_x
 _atom_site_fract_y
 _atom_site_fract_z
 _atom_site_occupancy
  Nd  Nd0  1  0.561953  0.937440  0.565733  1
  Nd  Nd1  1  0.936617  0.563907  0.933191  1
  Nd  Nd2  1  0.561953  0.565733  0.937440  1
  Nd  Nd3  1  0.936617  0.933191  0.563907  1
  Dy  Dy4  1  0.350318  0.348731  0.348731  1
  Dy  Dy5  1  0.352051  0.351457  0.947015  1
  Dy  Dy6  1  0.352051  0.947015  0.351457  1
  Dy  Dy7  1  0.937941  0.354203  0.354203  1
  Dy  Dy8  1  0.809389  0.190915  0.190915  1
  Dy  Dy9  1  0.186807  0.812543  0.812543  1
  Dy  Dy10  1  0.186798  0.813102  0.189530  1
  Dy  Dy11  1  0.808360  0.189809  0.809851  1
  Dy  Dy12  1  0.186798  0.189530  0.813102  1
  Dy  Dy13  1  0.808360  0.809851  0.189809  1
  Dy  Dy14  1  0.939746  0.558810  0.558810  1
  Dy  Dy15  1  0.557497  0.941275  0.941275  1
  Mg  Mg16  1  0.284874  0.571192  0.571192  1
  Hg  Hg17  1  0.586045  0.583388  0.583388  1
  Hg  Hg18  1  0.580177  0.589842  0.246357  1
  Hg  Hg19  1  0.580177  0.246357  0.589842  1
  Pt  Pt20  1  0.144058  0.143844  0.143844  1
  Pt  Pt21  1  0.139795  0.145091  0.571734  1
  Pt  Pt22  1  0.139795  0.571734  0.145091  1
  Pt  Pt23  1  0.571820  0.141040  0.141040  1
