# generated using pymatgen
data_Dy3Y(UTc3)2
_symmetry_space_group_name_H-M   'P 1'
_cell_length_a   5.79221800
_cell_length_b   5.79221792
_cell_length_c   8.22788000
_cell_angle_alpha   90.00000000
_cell_angle_beta   90.00000000
_cell_angle_gamma   119.99997759
_symmetry_Int_Tables_number   1
_chemical_formula_structural   Dy3Y(UTc3)2
_chemical_formula_sum   'Dy3 Y1 U2 Tc6'
_cell_volume   239.06085644
_cell_formula_units_Z   1
loop_
 _symmetry_equiv_pos_site_id
 _symmetry_equiv_pos_as_xyz
  1  'x, y, z'
loop_
 _atom_site_type_symbol
 _atom_site_label
 _atom_site_symmetry_multiplicity
 _atom_site_fract_x
 _atom_site_fract_y
 _atom_site_fract_z
 _atom_site_occupancy
  Dy  Dy0  1  0.666667  0.333333  0.559167  1
  Dy  Dy1  1  0.666667  0.333333  0.940843  1
  Dy  Dy2  1  0.333333  0.666667  0.058782  1
  Y  Y3  1  0.333333  0.666667  0.440808  1
  U  U4  1  0.000000  0.000000  0.500095  1
  U  U5  1  0.000000  0.000000  0.999923  1
  Tc  Tc6  1  0.836176  0.163824  0.249929  1
  Tc  Tc7  1  0.836176  0.672352  0.249929  1
  Tc  Tc8  1  0.327648  0.163824  0.249929  1
  Tc  Tc9  1  0.163692  0.836308  0.750198  1
  Tc  Tc10  1  0.163692  0.327382  0.750198  1
  Tc  Tc11  1  0.672618  0.836308  0.750198  1
