# generated using pymatgen
data_PdPt(RhPb8)2
_symmetry_space_group_name_H-M   'P 1'
_cell_length_a   13.32508051
_cell_length_b   13.32508141
_cell_length_c   13.33295400
_cell_angle_alpha   150.80522038
_cell_angle_beta   150.80522731
_cell_angle_gamma   41.67186579
_symmetry_Int_Tables_number   1
_chemical_formula_structural   PdPt(RhPb8)2
_chemical_formula_sum   'Pd1 Pt1 Rh2 Pb16'
_cell_volume   562.13049245
_cell_formula_units_Z   1
loop_
 _symmetry_equiv_pos_site_id
 _symmetry_equiv_pos_as_xyz
  1  'x, y, z'
loop_
 _atom_site_type_symbol
 _atom_site_label
 _atom_site_symmetry_multiplicity
 _atom_site_fract_x
 _atom_site_fract_y
 _atom_site_fract_z
 _atom_site_occupancy
  Pd  Pd0  1  0.000000  0.500000  0.500000  1
  Pt  Pt1  1  0.750000  0.750000  0.000000  1
  Rh  Rh2  1  0.250000  0.250000  0.000000  1
  Rh  Rh3  1  0.500000  0.000000  0.500000  1
  Pb  Pb4  1  0.141490  0.633787  0.151580  1
  Pb  Pb5  1  0.635558  0.483891  0.495495  1
  Pb  Pb6  1  0.882023  0.890233  0.648644  1
  Pb  Pb7  1  0.389037  0.740226  0.005176  1
  Pb  Pb8  1  0.609767  0.617977  0.351356  1
  Pb  Pb9  1  0.116139  0.764949  0.005176  1
  Pb  Pb10  1  0.866213  0.358510  0.848420  1
  Pb  Pb11  1  0.359938  0.511606  0.495495  1
  Pb  Pb12  1  0.988394  0.140062  0.504505  1
  Pb  Pb13  1  0.482206  0.989910  0.848420  1
  Pb  Pb14  1  0.735051  0.383861  0.994824  1
  Pb  Pb15  1  0.241589  0.233379  0.351356  1
  Pb  Pb16  1  0.759774  0.110963  0.994824  1
  Pb  Pb17  1  0.266621  0.258411  0.648644  1
  Pb  Pb18  1  0.016109  0.864442  0.504505  1
  Pb  Pb19  1  0.510090  0.017794  0.151580  1
