# generated using pymatgen
data_EuDy3Mo4F28
_symmetry_space_group_name_H-M   'P 1'
_cell_length_a   5.54421409
_cell_length_b   8.91696363
_cell_length_c   12.04754100
_cell_angle_alpha   62.46384366
_cell_angle_beta   89.98948998
_cell_angle_gamma   89.93526849
_symmetry_Int_Tables_number   1
_chemical_formula_structural   EuDy3Mo4F28
_chemical_formula_sum   'Eu1 Dy3 Mo4 F28'
_cell_volume   528.13048764
_cell_formula_units_Z   1
loop_
 _symmetry_equiv_pos_site_id
 _symmetry_equiv_pos_as_xyz
  1  'x, y, z'
loop_
 _atom_site_type_symbol
 _atom_site_label
 _atom_site_symmetry_multiplicity
 _atom_site_fract_x
 _atom_site_fract_y
 _atom_site_fract_z
 _atom_site_occupancy
  Eu  Eu0  1  0.760883  0.813295  0.765787  1
  Dy  Dy1  1  0.261996  0.187679  0.733804  1
  Dy  Dy2  1  0.238519  0.185337  0.237643  1
  Dy  Dy3  1  0.739836  0.816664  0.262898  1
  Mo  Mo4  1  0.758179  0.269835  0.959228  1
  Mo  Mo5  1  0.254636  0.726024  0.540430  1
  Mo  Mo6  1  0.242149  0.726405  0.045502  1
  Mo  Mo7  1  0.742290  0.275982  0.455290  1
  F  F8  1  0.436191  0.702565  0.918987  1
  F  F9  1  0.936985  0.292953  0.586091  1
  F  F10  1  0.554195  0.294247  0.084020  1
  F  F11  1  0.051924  0.710540  0.409597  1
  F  F12  1  0.429701  0.274692  0.545506  1
  F  F13  1  0.930506  0.726565  0.963701  1
  F  F14  1  0.562312  0.723375  0.454410  1
  F  F15  1  0.062053  0.273294  0.045672  1
  F  F16  1  0.783037  0.522712  0.859797  1
  F  F17  1  0.284065  0.476771  0.640906  1
  F  F18  1  0.229749  0.476976  0.140725  1
  F  F19  1  0.722050  0.524010  0.358699  1
  F  F20  1  0.760736  0.014111  0.057458  1
  F  F21  1  0.254337  0.977174  0.444319  1
  F  F22  1  0.241428  0.974955  0.949093  1
  F  F23  1  0.746399  0.028714  0.547201  1
  F  F24  1  0.954610  0.725307  0.627957  1
  F  F25  1  0.467538  0.271926  0.863662  1
  F  F26  1  0.040389  0.279041  0.355974  1
  F  F27  1  0.539292  0.720447  0.141221  1
  F  F28  1  0.053260  0.742698  0.178936  1
  F  F29  1  0.553124  0.256328  0.322644  1
  F  F30  1  0.952696  0.251293  0.827745  1
  F  F31  1  0.441395  0.743333  0.674320  1
  F  F32  1  0.408937  0.968004  0.231731  1
  F  F33  1  0.906969  0.035738  0.267601  1
  F  F34  1  0.593452  0.042050  0.771370  1
  F  F35  1  0.104175  0.968958  0.730077  1
