# generated using pymatgen
data_Hf8FeNiIr2
_symmetry_space_group_name_H-M   'P 1'
_cell_length_a   8.59559655
_cell_length_b   8.59559607
_cell_length_c   8.59492200
_cell_angle_alpha   60.00260179
_cell_angle_beta   60.00260364
_cell_angle_gamma   60.09290962
_symmetry_Int_Tables_number   1
_chemical_formula_structural   Hf8FeNiIr2
_chemical_formula_sum   'Hf16 Fe2 Ni2 Ir4'
_cell_volume   449.36587613
_cell_formula_units_Z   2
loop_
 _symmetry_equiv_pos_site_id
 _symmetry_equiv_pos_as_xyz
  1  'x, y, z'
loop_
 _atom_site_type_symbol
 _atom_site_label
 _atom_site_symmetry_multiplicity
 _atom_site_fract_x
 _atom_site_fract_y
 _atom_site_fract_z
 _atom_site_occupancy
  Hf  Hf0  1  0.677262  0.109443  0.106647  1
  Hf  Hf1  1  0.109443  0.677262  0.106647  1
  Hf  Hf2  1  0.107153  0.107153  0.681140  1
  Hf  Hf3  1  0.107153  0.107153  0.104555  1
  Hf  Hf4  1  0.311632  0.311632  0.688368  1
  Hf  Hf5  1  0.686466  0.686466  0.313534  1
  Hf  Hf6  1  0.313925  0.687439  0.311878  1
  Hf  Hf7  1  0.687439  0.313925  0.686758  1
  Hf  Hf8  1  0.687439  0.313925  0.311878  1
  Hf  Hf9  1  0.313925  0.687439  0.686758  1
  Hf  Hf10  1  0.948190  0.948190  0.551810  1
  Hf  Hf11  1  0.556438  0.556438  0.943562  1
  Hf  Hf12  1  0.944930  0.550485  0.944517  1
  Hf  Hf13  1  0.550485  0.944930  0.560069  1
  Hf  Hf14  1  0.550485  0.944930  0.944517  1
  Hf  Hf15  1  0.944930  0.550485  0.560069  1
  Fe  Fe16  1  0.320063  0.894504  0.892717  1
  Fe  Fe17  1  0.894504  0.320063  0.892717  1
  Ni  Ni18  1  0.893882  0.893882  0.318346  1
  Ni  Ni19  1  0.893882  0.893882  0.893890  1
  Ir  Ir20  1  0.996509  0.334195  0.334648  1
  Ir  Ir21  1  0.334195  0.996509  0.334648  1
  Ir  Ir22  1  0.334837  0.334837  0.996569  1
  Ir  Ir23  1  0.334837  0.334837  0.333757  1
