# generated using pymatgen
data_Rb5AuCO5
_symmetry_space_group_name_H-M   'P 1'
_cell_length_a   7.95549966
_cell_length_b   7.95549932
_cell_length_c   9.54117200
_cell_angle_alpha   90.00000000
_cell_angle_beta   90.00000000
_cell_angle_gamma   90.41383007
_symmetry_Int_Tables_number   1
_chemical_formula_structural   Rb5AuCO5
_chemical_formula_sum   'Rb10 Au2 C2 O10'
_cell_volume   603.84475861
_cell_formula_units_Z   2
loop_
 _symmetry_equiv_pos_site_id
 _symmetry_equiv_pos_as_xyz
  1  'x, y, z'
loop_
 _atom_site_type_symbol
 _atom_site_label
 _atom_site_symmetry_multiplicity
 _atom_site_fract_x
 _atom_site_fract_y
 _atom_site_fract_z
 _atom_site_occupancy
  Rb  Rb0  1  0.435768  0.935768  0.775584  1
  Rb  Rb1  1  0.554179  0.459711  0.743998  1
  Rb  Rb2  1  0.959711  0.054179  0.743998  1
  Rb  Rb3  1  0.051368  0.551368  0.759527  1
  Rb  Rb4  1  0.551368  0.051368  0.240473  1
  Rb  Rb5  1  0.459711  0.554179  0.256002  1
  Rb  Rb6  1  0.054179  0.959711  0.256002  1
  Rb  Rb7  1  0.935768  0.435768  0.224416  1
  Rb  Rb8  1  0.252682  0.252682  0.500000  1
  Rb  Rb9  1  0.752682  0.752682  0.500000  1
  Au  Au10  1  0.256249  0.256249  0.000000  1
  Au  Au11  1  0.756249  0.756249  0.000000  1
  C  C12  1  0.771379  0.271379  0.487474  1
  C  C13  1  0.271379  0.771379  0.512526  1
  O  O14  1  0.270347  0.242779  0.787600  1
  O  O15  1  0.742779  0.770347  0.787600  1
  O  O16  1  0.770347  0.742779  0.212400  1
  O  O17  1  0.242779  0.270347  0.212400  1
  O  O18  1  0.359711  0.859711  0.422682  1
  O  O19  1  0.627993  0.328734  0.441963  1
  O  O20  1  0.828734  0.127993  0.441963  1
  O  O21  1  0.328734  0.627993  0.558037  1
  O  O22  1  0.127993  0.828734  0.558037  1
  O  O23  1  0.859711  0.359711  0.577318  1
