# generated using pymatgen
data_La15NdMgCo4Hg3
_symmetry_space_group_name_H-M   'P 1'
_cell_length_a   9.94283743
_cell_length_b   9.96355017
_cell_length_c   9.97512941
_cell_angle_alpha   60.03839285
_cell_angle_beta   59.97058404
_cell_angle_gamma   59.93106280
_symmetry_Int_Tables_number   1
_chemical_formula_structural   La15NdMgCo4Hg3
_chemical_formula_sum   'La15 Nd1 Mg1 Co4 Hg3'
_cell_volume   698.44199014
_cell_formula_units_Z   1
loop_
 _symmetry_equiv_pos_site_id
 _symmetry_equiv_pos_as_xyz
  1  'x, y, z'
loop_
 _atom_site_type_symbol
 _atom_site_label
 _atom_site_symmetry_multiplicity
 _atom_site_fract_x
 _atom_site_fract_y
 _atom_site_fract_z
 _atom_site_occupancy
  La  La0  1  0.186154  0.188688  0.812196  1
  La  La1  1  0.558128  0.560996  0.940533  1
  La  La2  1  0.956694  0.347783  0.347740  1
  La  La3  1  0.807225  0.191854  0.809067  1
  La  La4  1  0.185685  0.812995  0.188325  1
  La  La5  1  0.345182  0.344851  0.965118  1
  La  La6  1  0.345005  0.966030  0.344878  1
  La  La7  1  0.941923  0.936822  0.560071  1
  La  La8  1  0.941923  0.561183  0.560071  1
  La  La9  1  0.345005  0.344089  0.344878  1
  La  La10  1  0.807238  0.809392  0.191826  1
  La  La11  1  0.807238  0.191544  0.191826  1
  La  La12  1  0.558128  0.940344  0.940533  1
  La  La13  1  0.942379  0.559871  0.937877  1
  La  La14  1  0.186154  0.812963  0.812196  1
  Nd  Nd15  1  0.559026  0.939992  0.560990  1
  Mg  Mg16  1  0.290228  0.569924  0.569924  1
  Co  Co17  1  0.139487  0.580200  0.140590  1
  Co  Co18  1  0.577255  0.140729  0.141288  1
  Co  Co19  1  0.139494  0.140073  0.580359  1
  Co  Co20  1  0.139487  0.139723  0.140590  1
  Hg  Hg21  1  0.580206  0.585623  0.584559  1
  Hg  Hg22  1  0.580206  0.249614  0.584559  1
  Hg  Hg23  1  0.580557  0.584718  0.250009  1
