# generated using pymatgen
data_H3Br5
_symmetry_space_group_name_H-M   'P 1'
_cell_length_a   5.43553486
_cell_length_b   4.98995502
_cell_length_c   14.73206724
_cell_angle_alpha   82.73465028
_cell_angle_beta   80.58092772
_cell_angle_gamma   55.88592500
_symmetry_Int_Tables_number   1
_chemical_formula_structural   H3Br5
_chemical_formula_sum   'H3 Br5'
_cell_volume   326.06590032
_cell_formula_units_Z   1
loop_
 _symmetry_equiv_pos_site_id
 _symmetry_equiv_pos_as_xyz
  1  'x, y, z'
loop_
 _atom_site_type_symbol
 _atom_site_label
 _atom_site_symmetry_multiplicity
 _atom_site_fract_x
 _atom_site_fract_y
 _atom_site_fract_z
 _atom_site_occupancy
  H  H0  1  0.607420  0.724854  0.661460  1
  H  H1  1  0.120402  0.730100  0.617287  1
  H  H2  1  0.940797  0.827426  0.061815  1
  Br  Br3  1  0.250324  0.058937  0.275732  1
  Br  Br4  1  0.808950  0.629486  0.242199  1
  Br  Br5  1  0.037397  0.984648  0.990817  1
  Br  Br6  1  0.768056  0.736307  0.730174  1
  Br  Br7  1  0.351542  0.722905  0.548074  1
