# generated using pymatgen
data_Sr10GeBi4P
_symmetry_space_group_name_H-M   'P 1'
_cell_length_a   8.69933600
_cell_length_b   10.01253900
_cell_length_c   13.58364800
_cell_angle_alpha   90.00000000
_cell_angle_beta   90.00000000
_cell_angle_gamma   90.00000000
_symmetry_Int_Tables_number   1
_chemical_formula_structural   Sr10GeBi4P
_chemical_formula_sum   'Sr20 Ge2 Bi8 P2'
_cell_volume   1183.16889813
_cell_formula_units_Z   2
loop_
 _symmetry_equiv_pos_site_id
 _symmetry_equiv_pos_as_xyz
  1  'x, y, z'
loop_
 _atom_site_type_symbol
 _atom_site_label
 _atom_site_symmetry_multiplicity
 _atom_site_fract_x
 _atom_site_fract_y
 _atom_site_fract_z
 _atom_site_occupancy
  Sr  Sr0  1  0.821594  0.528374  0.073675  1
  Sr  Sr1  1  0.678406  0.971626  0.573675  1
  Sr  Sr2  1  0.180317  0.036094  0.925750  1
  Sr  Sr3  1  0.319683  0.463906  0.425750  1
  Sr  Sr4  1  0.180317  0.463906  0.925750  1
  Sr  Sr5  1  0.319683  0.036094  0.425750  1
  Sr  Sr6  1  0.821594  0.971626  0.073675  1
  Sr  Sr7  1  0.678406  0.528374  0.573675  1
  Sr  Sr8  1  0.167239  0.750000  0.214850  1
  Sr  Sr9  1  0.332761  0.750000  0.714850  1
  Sr  Sr10  1  0.837834  0.250000  0.791373  1
  Sr  Sr11  1  0.662166  0.250000  0.291373  1
  Sr  Sr12  1  0.447558  0.750000  0.999391  1
  Sr  Sr13  1  0.052442  0.750000  0.499391  1
  Sr  Sr14  1  0.550602  0.250000  0.999524  1
  Sr  Sr15  1  0.949398  0.250000  0.499524  1
  Sr  Sr16  1  0.637654  0.750000  0.301227  1
  Sr  Sr17  1  0.862346  0.750000  0.801227  1
  Sr  Sr18  1  0.366238  0.250000  0.697077  1
  Sr  Sr19  1  0.133762  0.250000  0.197077  1
  Ge  Ge20  1  0.434176  0.750000  0.489125  1
  Ge  Ge21  1  0.065824  0.750000  0.989125  1
  Bi  Bi22  1  0.935214  0.506956  0.329024  1
  Bi  Bi23  1  0.564786  0.993044  0.829024  1
  Bi  Bi24  1  0.062094  0.011178  0.669351  1
  Bi  Bi25  1  0.437906  0.488822  0.169351  1
  Bi  Bi26  1  0.062094  0.488822  0.669351  1
  Bi  Bi27  1  0.437906  0.011178  0.169351  1
  Bi  Bi28  1  0.935214  0.993044  0.329024  1
  Bi  Bi29  1  0.564786  0.506956  0.829024  1
  P  P30  1  0.568546  0.250000  0.511833  1
  P  P31  1  0.931454  0.250000  0.011833  1
