# generated using pymatgen
data_Dy19Tm(Bi2As)4
_symmetry_space_group_name_H-M   'P 1'
_cell_length_a   8.06379053
_cell_length_b   9.14934195
_cell_length_c   12.11315781
_cell_angle_alpha   90.07408565
_cell_angle_beta   89.89318108
_cell_angle_gamma   89.98971963
_symmetry_Int_Tables_number   1
_chemical_formula_structural   Dy19Tm(Bi2As)4
_chemical_formula_sum   'Dy19 Tm1 Bi8 As4'
_cell_volume   893.68680778
_cell_formula_units_Z   1
loop_
 _symmetry_equiv_pos_site_id
 _symmetry_equiv_pos_as_xyz
  1  'x, y, z'
loop_
 _atom_site_type_symbol
 _atom_site_label
 _atom_site_symmetry_multiplicity
 _atom_site_fract_x
 _atom_site_fract_y
 _atom_site_fract_z
 _atom_site_occupancy
  Dy  Dy0  1  0.684148  0.945005  0.562805  1
  Dy  Dy1  1  0.181513  0.055594  0.937966  1
  Dy  Dy2  1  0.316147  0.445118  0.436878  1
  Dy  Dy3  1  0.184722  0.445477  0.937171  1
  Dy  Dy4  1  0.315781  0.054597  0.436989  1
  Dy  Dy5  1  0.817030  0.946187  0.062554  1
  Dy  Dy6  1  0.683994  0.554579  0.562763  1
  Dy  Dy7  1  0.153865  0.749394  0.210346  1
  Dy  Dy8  1  0.346811  0.749515  0.710381  1
  Dy  Dy9  1  0.846985  0.249590  0.790015  1
  Dy  Dy10  1  0.654290  0.250206  0.288805  1
  Dy  Dy11  1  0.464414  0.749709  0.999241  1
  Dy  Dy12  1  0.036608  0.749387  0.498624  1
  Dy  Dy13  1  0.536343  0.249535  0.001084  1
  Dy  Dy14  1  0.963616  0.249696  0.500990  1
  Dy  Dy15  1  0.633933  0.749033  0.292396  1
  Dy  Dy16  1  0.865872  0.749708  0.794252  1
  Dy  Dy17  1  0.366237  0.249330  0.706607  1
  Dy  Dy18  1  0.134071  0.249329  0.206085  1
  Tm  Tm19  1  0.817248  0.558877  0.063245  1
  Bi  Bi20  1  0.924364  0.508627  0.326310  1
  Bi  Bi21  1  0.574907  0.990590  0.827107  1
  Bi  Bi22  1  0.075105  0.008368  0.673246  1
  Bi  Bi23  1  0.425083  0.490315  0.172714  1
  Bi  Bi24  1  0.075254  0.490812  0.673417  1
  Bi  Bi25  1  0.425053  0.008647  0.173057  1
  Bi  Bi26  1  0.924656  0.990375  0.326627  1
  Bi  Bi27  1  0.574973  0.508682  0.827158  1
  As  As28  1  0.415852  0.750013  0.479833  1
  As  As29  1  0.084515  0.748876  0.980576  1
  As  As30  1  0.584760  0.249774  0.519400  1
  As  As31  1  0.911849  0.255053  0.021356  1
