# generated using pymatgen
data_YbEu3Si2(GePd4)2
_symmetry_space_group_name_H-M   'P 1'
_cell_length_a   5.73604772
_cell_length_b   6.99912200
_cell_length_c   7.61567198
_cell_angle_alpha   90.00000000
_cell_angle_beta   89.86919976
_cell_angle_gamma   90.00000000
_symmetry_Int_Tables_number   1
_chemical_formula_structural   YbEu3Si2(GePd4)2
_chemical_formula_sum   'Yb1 Eu3 Si2 Ge2 Pd8'
_cell_volume   305.74785427
_cell_formula_units_Z   1
loop_
 _symmetry_equiv_pos_site_id
 _symmetry_equiv_pos_as_xyz
  1  'x, y, z'
loop_
 _atom_site_type_symbol
 _atom_site_label
 _atom_site_symmetry_multiplicity
 _atom_site_fract_x
 _atom_site_fract_y
 _atom_site_fract_z
 _atom_site_occupancy
  Yb  Yb0  1  0.640199  0.250000  0.974756  1
  Eu  Eu1  1  0.363365  0.750000  0.027054  1
  Eu  Eu2  1  0.137673  0.750000  0.526772  1
  Eu  Eu3  1  0.866287  0.250000  0.472817  1
  Si  Si4  1  0.639940  0.750000  0.375907  1
  Si  Si5  1  0.859963  0.750000  0.876424  1
  Ge  Ge6  1  0.361833  0.250000  0.631273  1
  Ge  Ge7  1  0.140684  0.250000  0.124621  1
  Pd  Pd8  1  0.887646  0.555320  0.165937  1
  Pd  Pd9  1  0.608936  0.943746  0.670892  1
  Pd  Pd10  1  0.082137  0.051412  0.831080  1
  Pd  Pd11  1  0.416310  0.448468  0.327279  1
  Pd  Pd12  1  0.082137  0.448588  0.831080  1
  Pd  Pd13  1  0.416310  0.051532  0.327279  1
  Pd  Pd14  1  0.887646  0.944680  0.165937  1
  Pd  Pd15  1  0.608936  0.556254  0.670892  1
