# generated using pymatgen
data_Er8In3Pd
_symmetry_space_group_name_H-M   'P 1'
_cell_length_a   10.46208800
_cell_length_b   10.46208888
_cell_length_c   6.87300500
_cell_angle_alpha   90.00000000
_cell_angle_beta   90.00000000
_cell_angle_gamma   119.99999722
_symmetry_Int_Tables_number   1
_chemical_formula_structural   Er8In3Pd
_chemical_formula_sum   'Er16 In6 Pd2'
_cell_volume   651.49948630
_cell_formula_units_Z   2
loop_
 _symmetry_equiv_pos_site_id
 _symmetry_equiv_pos_as_xyz
  1  'x, y, z'
loop_
 _atom_site_type_symbol
 _atom_site_label
 _atom_site_symmetry_multiplicity
 _atom_site_fract_x
 _atom_site_fract_y
 _atom_site_fract_z
 _atom_site_occupancy
  Er  Er0  1  0.528782  0.057563  0.796951  1
  Er  Er1  1  0.942437  0.471218  0.796951  1
  Er  Er2  1  0.528782  0.471218  0.796951  1
  Er  Er3  1  0.471218  0.942437  0.296951  1
  Er  Er4  1  0.057563  0.528782  0.296951  1
  Er  Er5  1  0.471218  0.528782  0.296951  1
  Er  Er6  1  0.825143  0.650286  0.503065  1
  Er  Er7  1  0.349714  0.174857  0.503065  1
  Er  Er8  1  0.825143  0.174857  0.503065  1
  Er  Er9  1  0.174857  0.349714  0.003065  1
  Er  Er10  1  0.650286  0.825143  0.003065  1
  Er  Er11  1  0.174857  0.825143  0.003065  1
  Er  Er12  1  0.666667  0.333333  0.167008  1
  Er  Er13  1  0.333333  0.666667  0.667008  1
  Er  Er14  1  0.000000  0.000000  0.774565  1
  Er  Er15  1  0.000000  0.000000  0.274565  1
  In  In16  1  0.837166  0.674333  0.036516  1
  In  In17  1  0.325667  0.162834  0.036516  1
  In  In18  1  0.837166  0.162834  0.036516  1
  In  In19  1  0.162834  0.325667  0.536516  1
  In  In20  1  0.674333  0.837166  0.536516  1
  In  In21  1  0.162834  0.837166  0.536516  1
  Pd  Pd22  1  0.666667  0.333333  0.566783  1
  Pd  Pd23  1  0.333333  0.666667  0.066783  1
