# generated using pymatgen
data_KBa3(ZnSb)8
_symmetry_space_group_name_H-M   'P 1'
_cell_length_a   4.52054000
_cell_length_b   10.77890680
_cell_length_c   11.75649422
_cell_angle_alpha   89.58614252
_cell_angle_beta   90.00000000
_cell_angle_gamma   90.00000000
_symmetry_Int_Tables_number   1
_chemical_formula_structural   KBa3(ZnSb)8
_chemical_formula_sum   'K1 Ba3 Zn8 Sb8'
_cell_volume   572.83762867
_cell_formula_units_Z   1
loop_
 _symmetry_equiv_pos_site_id
 _symmetry_equiv_pos_as_xyz
  1  'x, y, z'
loop_
 _atom_site_type_symbol
 _atom_site_label
 _atom_site_symmetry_multiplicity
 _atom_site_fract_x
 _atom_site_fract_y
 _atom_site_fract_z
 _atom_site_occupancy
  K  K0  1  0.250000  0.747683  0.321002  1
  Ba  Ba1  1  0.750000  0.255696  0.679106  1
  Ba  Ba2  1  0.250000  0.245973  0.178689  1
  Ba  Ba3  1  0.750000  0.753468  0.820082  1
  Zn  Zn4  1  0.750000  0.395951  0.953459  1
  Zn  Zn5  1  0.250000  0.600986  0.050782  1
  Zn  Zn6  1  0.250000  0.103049  0.452988  1
  Zn  Zn7  1  0.750000  0.898325  0.541827  1
  Zn  Zn8  1  0.750000  0.948212  0.125376  1
  Zn  Zn9  1  0.250000  0.045281  0.876918  1
  Zn  Zn10  1  0.750000  0.455603  0.378309  1
  Zn  Zn11  1  0.250000  0.551097  0.623436  1
  Sb  Sb12  1  0.750000  0.647311  0.536201  1
  Sb  Sb13  1  0.250000  0.354183  0.464696  1
  Sb  Sb14  1  0.250000  0.851991  0.037382  1
  Sb  Sb15  1  0.750000  0.144947  0.962537  1
  Sb  Sb16  1  0.750000  0.519074  0.156240  1
  Sb  Sb17  1  0.250000  0.476268  0.841635  1
  Sb  Sb18  1  0.750000  0.030414  0.341064  1
  Sb  Sb19  1  0.250000  0.974487  0.658270  1
