# generated using pymatgen
data_SmGa5Fe6Ge
_symmetry_space_group_name_H-M   'P 1'
_cell_length_a   5.04380395
_cell_length_b   6.58947787
_cell_length_c   6.59229543
_cell_angle_alpha   97.27301975
_cell_angle_beta   112.52655740
_cell_angle_gamma   67.53256892
_symmetry_Int_Tables_number   1
_chemical_formula_structural   SmGa5Fe6Ge
_chemical_formula_sum   'Sm1 Ga5 Fe6 Ge1'
_cell_volume   186.97273622
_cell_formula_units_Z   1
loop_
 _symmetry_equiv_pos_site_id
 _symmetry_equiv_pos_as_xyz
  1  'x, y, z'
loop_
 _atom_site_type_symbol
 _atom_site_label
 _atom_site_symmetry_multiplicity
 _atom_site_fract_x
 _atom_site_fract_y
 _atom_site_fract_z
 _atom_site_occupancy
  Sm  Sm0  1  0.002796  0.997204  0.002796  1
  Ga  Ga1  1  0.347246  0.652754  0.347246  1
  Ga  Ga2  1  0.997971  0.346725  0.343079  1
  Ga  Ga3  1  0.998383  0.656921  0.653275  1
  Ga  Ga4  1  0.499233  0.816867  0.815363  1
  Ga  Ga5  1  0.499263  0.184637  0.183133  1
  Fe  Fe6  1  0.498913  0.001223  0.499998  1
  Fe  Fe7  1  0.999859  0.001250  0.500024  1
  Fe  Fe8  1  0.498916  0.499976  0.998750  1
  Fe  Fe9  1  0.999862  0.500002  0.998777  1
  Fe  Fe10  1  0.744057  0.755943  0.244057  1
  Fe  Fe11  1  0.254589  0.245411  0.754589  1
  Ge  Ge12  1  0.658911  0.341089  0.658911  1
