# generated using pymatgen
data_DyFe2P3Ir2Ru
_symmetry_space_group_name_H-M   'P 1'
_cell_length_a   3.84387800
_cell_length_b   10.46786600
_cell_length_c   12.29100400
_cell_angle_alpha   90.00000000
_cell_angle_beta   90.00000000
_cell_angle_gamma   90.00000000
_symmetry_Int_Tables_number   1
_chemical_formula_structural   DyFe2P3Ir2Ru
_chemical_formula_sum   'Dy4 Fe8 P12 Ir8 Ru4'
_cell_volume   494.55558399
_cell_formula_units_Z   4
loop_
 _symmetry_equiv_pos_site_id
 _symmetry_equiv_pos_as_xyz
  1  'x, y, z'
loop_
 _atom_site_type_symbol
 _atom_site_label
 _atom_site_symmetry_multiplicity
 _atom_site_fract_x
 _atom_site_fract_y
 _atom_site_fract_z
 _atom_site_occupancy
  Dy  Dy0  1  0.250000  0.579591  0.711426  1
  Dy  Dy1  1  0.250000  0.920409  0.211426  1
  Dy  Dy2  1  0.750000  0.420409  0.288574  1
  Dy  Dy3  1  0.750000  0.079591  0.788574  1
  Fe  Fe4  1  0.250000  0.877640  0.697214  1
  Fe  Fe5  1  0.250000  0.622360  0.197214  1
  Fe  Fe6  1  0.750000  0.122360  0.302786  1
  Fe  Fe7  1  0.750000  0.377640  0.802786  1
  Fe  Fe8  1  0.250000  0.460092  0.936947  1
  Fe  Fe9  1  0.250000  0.039908  0.436947  1
  Fe  Fe10  1  0.750000  0.539908  0.063053  1
  Fe  Fe11  1  0.750000  0.960092  0.563053  1
  P  P12  1  0.250000  0.438485  0.111762  1
  P  P13  1  0.250000  0.061515  0.611762  1
  P  P14  1  0.750000  0.561515  0.888238  1
  P  P15  1  0.750000  0.938485  0.388238  1
  P  P16  1  0.250000  0.273021  0.864610  1
  P  P17  1  0.250000  0.226979  0.364610  1
  P  P18  1  0.750000  0.726979  0.135390  1
  P  P19  1  0.750000  0.773021  0.635390  1
  P  P20  1  0.250000  0.602345  0.380410  1
  P  P21  1  0.250000  0.897655  0.880410  1
  P  P22  1  0.750000  0.397655  0.619590  1
  P  P23  1  0.750000  0.102345  0.119590  1
  Ir  Ir24  1  0.250000  0.407169  0.477090  1
  Ir  Ir25  1  0.250000  0.092831  0.977090  1
  Ir  Ir26  1  0.750000  0.592831  0.522910  1
  Ir  Ir27  1  0.750000  0.907169  0.022910  1
  Ir  Ir28  1  0.250000  0.230031  0.175137  1
  Ir  Ir29  1  0.250000  0.269969  0.675137  1
  Ir  Ir30  1  0.750000  0.769969  0.824863  1
  Ir  Ir31  1  0.750000  0.730031  0.324863  1
  Ru  Ru32  1  0.250000  0.710790  0.987905  1
  Ru  Ru33  1  0.250000  0.789210  0.487905  1
  Ru  Ru34  1  0.750000  0.289210  0.012095  1
  Ru  Ru35  1  0.750000  0.210790  0.512095  1
