# generated using pymatgen
data_YbTm2U5(ReB6)4
_symmetry_space_group_name_H-M   'P 1'
_cell_length_a   3.62960900
_cell_length_b   9.27503625
_cell_length_c   11.38469500
_cell_angle_alpha   89.97185933
_cell_angle_beta   90.00000000
_cell_angle_gamma   90.00000000
_symmetry_Int_Tables_number   1
_chemical_formula_structural   YbTm2U5(ReB6)4
_chemical_formula_sum   'Yb1 Tm2 U5 Re4 B24'
_cell_volume   383.26292253
_cell_formula_units_Z   1
loop_
 _symmetry_equiv_pos_site_id
 _symmetry_equiv_pos_as_xyz
  1  'x, y, z'
loop_
 _atom_site_type_symbol
 _atom_site_label
 _atom_site_symmetry_multiplicity
 _atom_site_fract_x
 _atom_site_fract_y
 _atom_site_fract_z
 _atom_site_occupancy
  Yb  Yb0  1  0.000000  0.835683  0.092845  1
  Tm  Tm1  1  0.000000  0.337111  0.407802  1
  Tm  Tm2  1  0.000000  0.663189  0.591027  1
  U  U3  1  0.000000  0.162900  0.907984  1
  U  U4  1  0.000000  0.955782  0.395977  1
  U  U5  1  0.000000  0.042496  0.603115  1
  U  U6  1  0.000000  0.458388  0.104618  1
  U  U7  1  0.000000  0.544811  0.897320  1
  Re  Re8  1  0.000000  0.644416  0.320176  1
  Re  Re9  1  0.000000  0.353006  0.683467  1
  Re  Re10  1  0.000000  0.146895  0.178237  1
  Re  Re11  1  0.000000  0.857169  0.818614  1
  B  B12  1  0.500000  0.550497  0.432240  1
  B  B13  1  0.500000  0.448454  0.569326  1
  B  B14  1  0.500000  0.052797  0.068101  1
  B  B15  1  0.500000  0.949695  0.930177  1
  B  B16  1  0.500000  0.741863  0.423533  1
  B  B17  1  0.500000  0.257543  0.576390  1
  B  B18  1  0.500000  0.243125  0.076099  1
  B  B19  1  0.500000  0.756671  0.922343  1
  B  B20  1  0.500000  0.801274  0.275142  1
  B  B21  1  0.500000  0.197013  0.726401  1
  B  B22  1  0.500000  0.302824  0.225450  1
  B  B23  1  0.500000  0.698067  0.774183  1
  B  B24  1  0.500000  0.643247  0.189276  1
  B  B25  1  0.500000  0.355446  0.812116  1
  B  B26  1  0.500000  0.144648  0.310879  1
  B  B27  1  0.500000  0.854995  0.687851  1
  B  B28  1  0.500000  0.989326  0.219218  1
  B  B29  1  0.500000  0.013235  0.781108  1
  B  B30  1  0.500000  0.488016  0.281629  1
  B  B31  1  0.500000  0.512232  0.719199  1
  B  B32  1  0.500000  0.639400  0.038635  1
  B  B33  1  0.500000  0.357616  0.960450  1
  B  B34  1  0.500000  0.141330  0.460378  1
  B  B35  1  0.500000  0.858842  0.538698  1
