# generated using pymatgen
data_TbNp7VSe17
_symmetry_space_group_name_H-M   'P 1'
_cell_length_a   8.18448210
_cell_length_b   8.19709746
_cell_length_c   10.87280032
_cell_angle_alpha   80.75363011
_cell_angle_beta   80.62585641
_cell_angle_gamma   65.25730706
_symmetry_Int_Tables_number   1
_chemical_formula_structural   TbNp7VSe17
_chemical_formula_sum   'Tb1 Np7 V1 Se17'
_cell_volume   650.14028743
_cell_formula_units_Z   1
loop_
 _symmetry_equiv_pos_site_id
 _symmetry_equiv_pos_as_xyz
  1  'x, y, z'
loop_
 _atom_site_type_symbol
 _atom_site_label
 _atom_site_symmetry_multiplicity
 _atom_site_fract_x
 _atom_site_fract_y
 _atom_site_fract_z
 _atom_site_occupancy
  Tb  Tb0  1  0.814793  0.306434  0.298941  1
  Np  Np1  1  0.299445  0.821041  0.297031  1
  Np  Np2  1  0.179960  0.699729  0.700952  1
  Np  Np3  1  0.698308  0.182756  0.703260  1
  Np  Np4  1  0.204723  0.205028  0.542251  1
  Np  Np5  1  0.796072  0.795401  0.455849  1
  Np  Np6  1  0.681423  0.677490  0.981506  1
  Np  Np7  1  0.319195  0.318064  0.019220  1
  V  V8  1  0.003008  0.996566  0.998416  1
  Se  Se9  1  0.822262  0.432049  0.538579  1
  Se  Se10  1  0.433703  0.819824  0.536108  1
  Se  Se11  1  0.179456  0.566159  0.464161  1
  Se  Se12  1  0.569477  0.174955  0.468717  1
  Se  Se13  1  0.942928  0.322369  0.024720  1
  Se  Se14  1  0.323333  0.945648  0.027766  1
  Se  Se15  1  0.055378  0.676555  0.971060  1
  Se  Se16  1  0.677572  0.057534  0.973916  1
  Se  Se17  1  0.216336  0.209867  0.277931  1
  Se  Se18  1  0.788663  0.786280  0.722631  1
  Se  Se19  1  0.062198  0.059241  0.772517  1
  Se  Se20  1  0.939499  0.940133  0.226342  1
  Se  Se21  1  0.300210  0.302856  0.756168  1
  Se  Se22  1  0.693411  0.705160  0.242833  1
  Se  Se23  1  0.521701  0.522527  0.829884  1
  Se  Se24  1  0.472736  0.482735  0.166056  1
  Se  Se25  1  0.004208  0.993600  0.503186  1
