# generated using pymatgen
data_Ce8Mn(Si4Pt)3
_symmetry_space_group_name_H-M   'P 1'
_cell_length_a   8.19670300
_cell_length_b   8.19670359
_cell_length_c   8.53461900
_cell_angle_alpha   90.00000000
_cell_angle_beta   90.00000000
_cell_angle_gamma   119.99999357
_symmetry_Int_Tables_number   1
_chemical_formula_structural   Ce8Mn(Si4Pt)3
_chemical_formula_sum   'Ce8 Mn1 Si12 Pt3'
_cell_volume   496.58457785
_cell_formula_units_Z   1
loop_
 _symmetry_equiv_pos_site_id
 _symmetry_equiv_pos_as_xyz
  1  'x, y, z'
loop_
 _atom_site_type_symbol
 _atom_site_label
 _atom_site_symmetry_multiplicity
 _atom_site_fract_x
 _atom_site_fract_y
 _atom_site_fract_z
 _atom_site_occupancy
  Ce  Ce0  1  0.502353  0.497647  0.755521  1
  Ce  Ce1  1  0.502822  0.497178  0.244485  1
  Ce  Ce2  1  0.995295  0.497647  0.755521  1
  Ce  Ce3  1  0.994357  0.497178  0.244485  1
  Ce  Ce4  1  0.502353  0.004705  0.755521  1
  Ce  Ce5  1  0.502822  0.005643  0.244485  1
  Ce  Ce6  1  0.000000  0.000000  0.750017  1
  Ce  Ce7  1  0.000000  0.000000  0.249835  1
  Mn  Mn8  1  0.666667  0.333333  0.000103  1
  Si  Si9  1  0.830904  0.169096  0.999876  1
  Si  Si10  1  0.163862  0.836138  0.999896  1
  Si  Si11  1  0.338192  0.169096  0.999876  1
  Si  Si12  1  0.165335  0.834665  0.500068  1
  Si  Si13  1  0.672277  0.836138  0.999896  1
  Si  Si14  1  0.835252  0.164748  0.500116  1
  Si  Si15  1  0.830904  0.661808  0.999876  1
  Si  Si16  1  0.669329  0.834665  0.500068  1
  Si  Si17  1  0.163862  0.327723  0.999896  1
  Si  Si18  1  0.329495  0.164748  0.500116  1
  Si  Si19  1  0.165335  0.330671  0.500068  1
  Si  Si20  1  0.835252  0.670505  0.500116  1
  Pt  Pt21  1  0.333333  0.666667  0.000888  1
  Pt  Pt22  1  0.333333  0.666667  0.498782  1
  Pt  Pt23  1  0.666667  0.333333  0.500492  1
