# generated using pymatgen
data_Tb4NdTm3(Si3Pd)4
_symmetry_space_group_name_H-M   'P 1'
_cell_length_a   8.17564300
_cell_length_b   8.17564179
_cell_length_c   8.17090600
_cell_angle_alpha   90.00000000
_cell_angle_beta   90.00000000
_cell_angle_gamma   119.99999275
_symmetry_Int_Tables_number   1
_chemical_formula_structural   Tb4NdTm3(Si3Pd)4
_chemical_formula_sum   'Tb4 Nd1 Tm3 Si12 Pd4'
_cell_volume   472.98204189
_cell_formula_units_Z   1
loop_
 _symmetry_equiv_pos_site_id
 _symmetry_equiv_pos_as_xyz
  1  'x, y, z'
loop_
 _atom_site_type_symbol
 _atom_site_label
 _atom_site_symmetry_multiplicity
 _atom_site_fract_x
 _atom_site_fract_y
 _atom_site_fract_z
 _atom_site_occupancy
  Tb  Tb0  1  0.500150  0.499850  0.250000  1
  Tb  Tb1  1  0.999701  0.499850  0.250000  1
  Tb  Tb2  1  0.500150  0.000299  0.250000  1
  Tb  Tb3  1  0.000000  0.000000  0.750000  1
  Nd  Nd4  1  0.000000  0.000000  0.250000  1
  Tm  Tm5  1  0.499870  0.500130  0.750000  1
  Tm  Tm6  1  0.000261  0.500130  0.750000  1
  Tm  Tm7  1  0.499870  0.999739  0.750000  1
  Si  Si8  1  0.833684  0.166316  0.995313  1
  Si  Si9  1  0.166255  0.833745  0.995566  1
  Si  Si10  1  0.332632  0.166316  0.995313  1
  Si  Si11  1  0.166255  0.833745  0.504434  1
  Si  Si12  1  0.667490  0.833745  0.995566  1
  Si  Si13  1  0.833684  0.166316  0.504687  1
  Si  Si14  1  0.833684  0.667368  0.995313  1
  Si  Si15  1  0.667490  0.833745  0.504434  1
  Si  Si16  1  0.166255  0.332510  0.995566  1
  Si  Si17  1  0.332632  0.166316  0.504687  1
  Si  Si18  1  0.166255  0.332510  0.504434  1
  Si  Si19  1  0.833684  0.667368  0.504687  1
  Pd  Pd20  1  0.666667  0.333333  0.991964  1
  Pd  Pd21  1  0.333333  0.666667  0.992879  1
  Pd  Pd22  1  0.333333  0.666667  0.507121  1
  Pd  Pd23  1  0.666667  0.333333  0.508036  1
