# generated using pymatgen
data_Nd10GaSi4Pb
_symmetry_space_group_name_H-M   'P 1'
_cell_length_a   7.95175226
_cell_length_b   7.95175207
_cell_length_c   9.17565000
_cell_angle_alpha   115.67763982
_cell_angle_beta   115.67764715
_cell_angle_gamma   89.99999724
_symmetry_Int_Tables_number   1
_chemical_formula_structural   Nd10GaSi4Pb
_chemical_formula_sum   'Nd10 Ga1 Si4 Pb1'
_cell_volume   458.48487850
_cell_formula_units_Z   1
loop_
 _symmetry_equiv_pos_site_id
 _symmetry_equiv_pos_as_xyz
  1  'x, y, z'
loop_
 _atom_site_type_symbol
 _atom_site_label
 _atom_site_symmetry_multiplicity
 _atom_site_fract_x
 _atom_site_fract_y
 _atom_site_fract_z
 _atom_site_occupancy
  Nd  Nd0  1  0.500447  0.500447  0.000895  1
  Nd  Nd1  1  0.999553  0.999553  0.999105  1
  Nd  Nd2  1  0.968985  0.820899  0.280174  1
  Nd  Nd3  1  0.311188  0.459273  0.280174  1
  Nd  Nd4  1  0.820899  0.311188  0.280174  1
  Nd  Nd5  1  0.459273  0.968985  0.280174  1
  Nd  Nd6  1  0.040727  0.188812  0.719826  1
  Nd  Nd7  1  0.679101  0.531015  0.719826  1
  Nd  Nd8  1  0.188812  0.679101  0.719826  1
  Nd  Nd9  1  0.531015  0.040727  0.719826  1
  Ga  Ga10  1  0.250000  0.250000  0.500000  1
  Si  Si11  1  0.615952  0.884048  0.000000  1
  Si  Si12  1  0.384048  0.115952  0.000000  1
  Si  Si13  1  0.884048  0.384048  0.000000  1
  Si  Si14  1  0.115952  0.615952  0.000000  1
  Pb  Pb15  1  0.750000  0.750000  0.500000  1
