# generated using pymatgen
data_Eu6Tc2N7
_symmetry_space_group_name_H-M   'P 1'
_cell_length_a   6.81689526
_cell_length_b   6.81689454
_cell_length_c   6.81689629
_cell_angle_alpha   66.88503963
_cell_angle_beta   66.88504855
_cell_angle_gamma   66.88506144
_symmetry_Int_Tables_number   1
_chemical_formula_structural   Eu6Tc2N7
_chemical_formula_sum   'Eu6 Tc2 N7'
_cell_volume   257.09220362
_cell_formula_units_Z   1
loop_
 _symmetry_equiv_pos_site_id
 _symmetry_equiv_pos_as_xyz
  1  'x, y, z'
loop_
 _atom_site_type_symbol
 _atom_site_label
 _atom_site_symmetry_multiplicity
 _atom_site_fract_x
 _atom_site_fract_y
 _atom_site_fract_z
 _atom_site_occupancy
  Eu  Eu0  1  0.182797  0.340337  0.730344  1
  Eu  Eu1  1  0.340337  0.730344  0.182797  1
  Eu  Eu2  1  0.730344  0.182797  0.340337  1
  Eu  Eu3  1  0.659663  0.269656  0.817203  1
  Eu  Eu4  1  0.269656  0.817203  0.659663  1
  Eu  Eu5  1  0.817203  0.659663  0.269656  1
  Tc  Tc6  1  0.751857  0.751857  0.751857  1
  Tc  Tc7  1  0.248143  0.248143  0.248143  1
  N  N8  1  0.495041  0.985575  0.760110  1
  N  N9  1  0.985575  0.760110  0.495041  1
  N  N10  1  0.760110  0.495041  0.985575  1
  N  N11  1  0.014425  0.239890  0.504959  1
  N  N12  1  0.239890  0.504959  0.014425  1
  N  N13  1  0.504959  0.014425  0.239890  1
  N  N14  1  0.500000  0.500000  0.500000  1
