# generated using pymatgen
data_Tb3Hf5Pt4
_symmetry_space_group_name_H-M   'P 1'
_cell_length_a   4.63313900
_cell_length_b   6.99105609
_cell_length_c   8.20737615
_cell_angle_alpha   89.73247623
_cell_angle_beta   90.00000000
_cell_angle_gamma   90.00000000
_symmetry_Int_Tables_number   1
_chemical_formula_structural   Tb3Hf5Pt4
_chemical_formula_sum   'Tb3 Hf5 Pt4'
_cell_volume   265.83840353
_cell_formula_units_Z   1
loop_
 _symmetry_equiv_pos_site_id
 _symmetry_equiv_pos_as_xyz
  1  'x, y, z'
loop_
 _atom_site_type_symbol
 _atom_site_label
 _atom_site_symmetry_multiplicity
 _atom_site_fract_x
 _atom_site_fract_y
 _atom_site_fract_z
 _atom_site_occupancy
  Tb  Tb0  1  0.250000  0.483001  0.182124  1
  Tb  Tb1  1  0.750000  0.013503  0.675657  1
  Tb  Tb2  1  0.750000  0.514731  0.819111  1
  Hf  Hf3  1  0.250000  0.851724  0.927473  1
  Hf  Hf4  1  0.250000  0.348083  0.577173  1
  Hf  Hf5  1  0.750000  0.143375  0.084234  1
  Hf  Hf6  1  0.750000  0.654673  0.419150  1
  Hf  Hf7  1  0.250000  0.986941  0.327930  1
  Pt  Pt8  1  0.250000  0.229317  0.905547  1
  Pt  Pt9  1  0.250000  0.737895  0.585903  1
  Pt  Pt10  1  0.750000  0.769821  0.095732  1
  Pt  Pt11  1  0.750000  0.266935  0.399969  1
