# generated using pymatgen
data_Mn2V3PN
_symmetry_space_group_name_H-M   'P 1'
_cell_length_a   7.53823319
_cell_length_b   7.53789279
_cell_length_c   7.53818100
_cell_angle_alpha   59.99778506
_cell_angle_beta   59.99488595
_cell_angle_gamma   60.00205776
_symmetry_Int_Tables_number   1
_chemical_formula_structural   Mn2V3PN
_chemical_formula_sum   'Mn8 V12 P4 N4'
_cell_volume   302.86827368
_cell_formula_units_Z   4
loop_
 _symmetry_equiv_pos_site_id
 _symmetry_equiv_pos_as_xyz
  1  'x, y, z'
loop_
 _atom_site_type_symbol
 _atom_site_label
 _atom_site_symmetry_multiplicity
 _atom_site_fract_x
 _atom_site_fract_y
 _atom_site_fract_z
 _atom_site_occupancy
  Mn  Mn0  1  0.748137  0.417306  0.417251  1
  Mn  Mn1  1  0.417307  0.748144  0.417305  1
  Mn  Mn2  1  0.417250  0.417304  0.748143  1
  Mn  Mn3  1  0.417307  0.417250  0.417300  1
  Mn  Mn4  1  0.501863  0.832694  0.832749  1
  Mn  Mn5  1  0.832693  0.501856  0.832695  1
  Mn  Mn6  1  0.832750  0.832696  0.501857  1
  Mn  Mn7  1  0.832693  0.832750  0.832700  1
  V  V8  1  0.804248  0.804304  0.195749  1
  V  V9  1  0.195742  0.195731  0.804259  1
  V  V10  1  0.804192  0.195830  0.804197  1
  V  V11  1  0.195783  0.804213  0.195804  1
  V  V12  1  0.195763  0.804282  0.804238  1
  V  V13  1  0.804249  0.195722  0.195757  1
  V  V14  1  0.445752  0.445696  0.054251  1
  V  V15  1  0.054258  0.054269  0.445741  1
  V  V16  1  0.445808  0.054170  0.445803  1
  V  V17  1  0.054217  0.445787  0.054196  1
  V  V18  1  0.054237  0.445718  0.445762  1
  V  V19  1  0.445751  0.054278  0.054243  1
  P  P20  1  0.125000  0.625000  0.625000  1
  P  P21  1  0.625000  0.125000  0.625000  1
  P  P22  1  0.625000  0.625000  0.125000  1
  P  P23  1  0.625000  0.625000  0.625000  1
  N  N24  1  0.625000  0.125000  0.125000  1
  N  N25  1  0.125000  0.625000  0.125000  1
  N  N26  1  0.125000  0.125000  0.625000  1
  N  N27  1  0.125000  0.125000  0.125000  1
