# generated using pymatgen
data_Tb2Sm8B2Br15
_symmetry_space_group_name_H-M   'P 1'
_cell_length_a   9.24289320
_cell_length_b   10.00188039
_cell_length_c   10.87602179
_cell_angle_alpha   91.25236560
_cell_angle_beta   114.54498484
_cell_angle_gamma   110.73824892
_symmetry_Int_Tables_number   1
_chemical_formula_structural   Tb2Sm8B2Br15
_chemical_formula_sum   'Tb2 Sm8 B2 Br15'
_cell_volume   838.29455973
_cell_formula_units_Z   1
loop_
 _symmetry_equiv_pos_site_id
 _symmetry_equiv_pos_as_xyz
  1  'x, y, z'
loop_
 _atom_site_type_symbol
 _atom_site_label
 _atom_site_symmetry_multiplicity
 _atom_site_fract_x
 _atom_site_fract_y
 _atom_site_fract_z
 _atom_site_occupancy
  Tb  Tb0  1  0.720036  0.074000  0.047948  1
  Tb  Tb1  1  0.279964  0.926000  0.952052  1
  Sm  Sm2  1  0.799781  0.408758  0.275733  1
  Sm  Sm3  1  0.200219  0.591242  0.724267  1
  Sm  Sm4  1  0.673713  0.746508  0.821419  1
  Sm  Sm5  1  0.326287  0.253492  0.178581  1
  Sm  Sm6  1  0.525716  0.703417  0.096116  1
  Sm  Sm7  1  0.474284  0.296583  0.903884  1
  Sm  Sm8  1  0.585993  0.038068  0.324277  1
  Sm  Sm9  1  0.414007  0.961932  0.675723  1
  B  B10  1  0.467592  0.821824  0.878265  1
  B  B11  1  0.532408  0.178176  0.121735  1
  Br  Br12  1  0.000000  0.000000  0.000000  1
  Br  Br13  1  0.638048  0.882858  0.583602  1
  Br  Br14  1  0.361952  0.117142  0.416398  1
  Br  Br15  1  0.883930  0.298808  0.529169  1
  Br  Br16  1  0.116070  0.701192  0.470831  1
  Br  Br17  1  0.285252  0.762943  0.174979  1
  Br  Br18  1  0.714748  0.237057  0.825021  1
  Br  Br19  1  0.050207  0.337856  0.223275  1
  Br  Br20  1  0.161280  0.054142  0.705689  1
  Br  Br21  1  0.838720  0.945858  0.294311  1
  Br  Br22  1  0.227779  0.408862  0.942724  1
  Br  Br23  1  0.772221  0.591138  0.057276  1
  Br  Br24  1  0.407578  0.461627  0.657186  1
  Br  Br25  1  0.592422  0.538373  0.342814  1
  Br  Br26  1  0.949793  0.662144  0.776725  1
