# generated using pymatgen
data_Tb5Er3(TmSb)12
_symmetry_space_group_name_H-M   'P 1'
_cell_length_a   8.00726134
_cell_length_b   9.21897970
_cell_length_c   11.66141700
_cell_angle_alpha   89.97871369
_cell_angle_beta   90.06615241
_cell_angle_gamma   90.00656895
_symmetry_Int_Tables_number   1
_chemical_formula_structural   Tb5Er3(TmSb)12
_chemical_formula_sum   'Tb5 Er3 Tm12 Sb12'
_cell_volume   860.83093360
_cell_formula_units_Z   1
loop_
 _symmetry_equiv_pos_site_id
 _symmetry_equiv_pos_as_xyz
  1  'x, y, z'
loop_
 _atom_site_type_symbol
 _atom_site_label
 _atom_site_symmetry_multiplicity
 _atom_site_fract_x
 _atom_site_fract_y
 _atom_site_fract_z
 _atom_site_occupancy
  Tb  Tb0  1  0.192222  0.559264  0.439714  1
  Tb  Tb1  1  0.314733  0.250008  0.219832  1
  Tb  Tb2  1  0.815529  0.249932  0.280179  1
  Tb  Tb3  1  0.685134  0.750335  0.780369  1
  Tb  Tb4  1  0.185269  0.750479  0.720106  1
  Er  Er5  1  0.353724  0.750628  0.215230  1
  Er  Er6  1  0.852231  0.750578  0.284113  1
  Er  Er7  1  0.647222  0.250306  0.784548  1
  Tm  Tm8  1  0.147754  0.250716  0.715977  1
  Tm  Tm9  1  0.692660  0.561625  0.059977  1
  Tm  Tm10  1  0.192545  0.937746  0.439522  1
  Tm  Tm11  1  0.307349  0.061638  0.939806  1
  Tm  Tm12  1  0.807992  0.438208  0.560112  1
  Tm  Tm13  1  0.307586  0.438545  0.939631  1
  Tm  Tm14  1  0.806227  0.061018  0.560860  1
  Tm  Tm15  1  0.692726  0.938708  0.059910  1
  Tm  Tm16  1  0.473766  0.250120  0.488677  1
  Tm  Tm17  1  0.973761  0.250319  0.010880  1
  Tm  Tm18  1  0.526610  0.750096  0.511570  1
  Tm  Tm19  1  0.026461  0.750182  0.988395  1
  Sb  Sb20  1  0.408581  0.750081  0.960218  1
  Sb  Sb21  1  0.907780  0.750770  0.540012  1
  Sb  Sb22  1  0.591349  0.250242  0.039785  1
  Sb  Sb23  1  0.090231  0.246213  0.461682  1
  Sb  Sb24  1  0.566103  0.994843  0.327549  1
  Sb  Sb25  1  0.065713  0.505816  0.171798  1
  Sb  Sb26  1  0.433828  0.494459  0.672929  1
  Sb  Sb27  1  0.934153  0.006324  0.827357  1
  Sb  Sb28  1  0.433631  0.006081  0.672485  1
  Sb  Sb29  1  0.933822  0.494443  0.827342  1
  Sb  Sb30  1  0.567284  0.505668  0.327348  1
  Sb  Sb31  1  0.066020  0.994610  0.172080  1
