# generated using pymatgen
data_Th4Tl2OsAu3
_symmetry_space_group_name_H-M   'P 1'
_cell_length_a   8.03873500
_cell_length_b   8.03873436
_cell_length_c   3.92840400
_cell_angle_alpha   90.00000000
_cell_angle_beta   90.00000000
_cell_angle_gamma   89.44630869
_symmetry_Int_Tables_number   1
_chemical_formula_structural   Th4Tl2OsAu3
_chemical_formula_sum   'Th4 Tl2 Os1 Au3'
_cell_volume   253.84654399
_cell_formula_units_Z   1
loop_
 _symmetry_equiv_pos_site_id
 _symmetry_equiv_pos_as_xyz
  1  'x, y, z'
loop_
 _atom_site_type_symbol
 _atom_site_label
 _atom_site_symmetry_multiplicity
 _atom_site_fract_x
 _atom_site_fract_y
 _atom_site_fract_z
 _atom_site_occupancy
  Th  Th0  1  0.670058  0.170058  0.500000  1
  Th  Th1  1  0.310149  0.810149  0.500000  1
  Th  Th2  1  0.176914  0.349090  0.500000  1
  Th  Th3  1  0.849090  0.676914  0.500000  1
  Tl  Tl4  1  0.502078  0.503113  0.000000  1
  Tl  Tl5  1  0.003113  0.002078  0.000000  1
  Os  Os6  1  0.126174  0.626174  0.000000  1
  Au  Au7  1  0.868091  0.368091  0.000000  1
  Au  Au8  1  0.624487  0.869847  0.000000  1
  Au  Au9  1  0.369847  0.124487  0.000000  1
