# generated using pymatgen
data_Dy16Er4Bi3Pb13
_symmetry_space_group_name_H-M   'P 1'
_cell_length_a   8.26443246
_cell_length_b   15.59732585
_cell_length_c   8.29130300
_cell_angle_alpha   90.11906350
_cell_angle_beta   89.94046791
_cell_angle_gamma   89.74127797
_symmetry_Int_Tables_number   1
_chemical_formula_structural   Dy16Er4Bi3Pb13
_chemical_formula_sum   'Dy16 Er4 Bi3 Pb13'
_cell_volume   1068.76042096
_cell_formula_units_Z   1
loop_
 _symmetry_equiv_pos_site_id
 _symmetry_equiv_pos_as_xyz
  1  'x, y, z'
loop_
 _atom_site_type_symbol
 _atom_site_label
 _atom_site_symmetry_multiplicity
 _atom_site_fract_x
 _atom_site_fract_y
 _atom_site_fract_z
 _atom_site_occupancy
  Dy  Dy0  1  0.618321  0.621529  0.160642  1
  Dy  Dy1  1  0.115178  0.878158  0.341817  1
  Dy  Dy2  1  0.383723  0.122110  0.842649  1
  Dy  Dy3  1  0.880988  0.378729  0.656918  1
  Dy  Dy4  1  0.377011  0.378982  0.841664  1
  Dy  Dy5  1  0.878996  0.120837  0.659927  1
  Dy  Dy6  1  0.620930  0.879308  0.159029  1
  Dy  Dy7  1  0.120896  0.621447  0.341531  1
  Dy  Dy8  1  0.451932  0.604338  0.666768  1
  Dy  Dy9  1  0.943877  0.892913  0.830769  1
  Dy  Dy10  1  0.555586  0.106826  0.331206  1
  Dy  Dy11  1  0.049092  0.396270  0.174455  1
  Dy  Dy12  1  0.542243  0.397625  0.331510  1
  Dy  Dy13  1  0.041171  0.104357  0.169462  1
  Dy  Dy14  1  0.459356  0.895762  0.670279  1
  Dy  Dy15  1  0.960675  0.603042  0.823619  1
  Er  Er16  1  0.787070  0.749453  0.497725  1
  Er  Er17  1  0.286886  0.746806  0.000997  1
  Er  Er18  1  0.213535  0.252524  0.501981  1
  Er  Er19  1  0.713225  0.248515  0.998937  1
  Bi  Bi20  1  0.724741  0.454690  0.974220  1
  Bi  Bi21  1  0.228052  0.045641  0.523341  1
  Bi  Bi22  1  0.271698  0.954272  0.022975  1
  Pb  Pb23  1  0.777078  0.544157  0.471783  1
  Pb  Pb24  1  0.277674  0.543880  0.029376  1
  Pb  Pb25  1  0.777242  0.955534  0.472224  1
  Pb  Pb26  1  0.721938  0.044321  0.972341  1
  Pb  Pb27  1  0.220106  0.456217  0.530814  1
  Pb  Pb28  1  0.424543  0.752358  0.370305  1
  Pb  Pb29  1  0.924420  0.748946  0.128322  1
  Pb  Pb30  1  0.574976  0.250841  0.629820  1
  Pb  Pb31  1  0.074864  0.249151  0.871338  1
  Pb  Pb32  1  0.643434  0.748583  0.847460  1
  Pb  Pb33  1  0.145096  0.751428  0.652161  1
  Pb  Pb34  1  0.356382  0.249736  0.153482  1
  Pb  Pb35  1  0.857060  0.250710  0.348153  1
