# generated using pymatgen
data_Yb6Pa2GePd24
_symmetry_space_group_name_H-M   'P 1'
_cell_length_a   8.31900388
_cell_length_b   8.31900373
_cell_length_c   8.31900300
_cell_angle_alpha   89.91629128
_cell_angle_beta   89.91629128
_cell_angle_gamma   89.91628616
_symmetry_Int_Tables_number   1
_chemical_formula_structural   Yb6Pa2GePd24
_chemical_formula_sum   'Yb6 Pa2 Ge1 Pd24'
_cell_volume   575.72161847
_cell_formula_units_Z   1
loop_
 _symmetry_equiv_pos_site_id
 _symmetry_equiv_pos_as_xyz
  1  'x, y, z'
loop_
 _atom_site_type_symbol
 _atom_site_label
 _atom_site_symmetry_multiplicity
 _atom_site_fract_x
 _atom_site_fract_y
 _atom_site_fract_z
 _atom_site_occupancy
  Yb  Yb0  1  0.748706  0.748706  0.250516  1
  Yb  Yb1  1  0.748706  0.250516  0.748706  1
  Yb  Yb2  1  0.251294  0.251294  0.749484  1
  Yb  Yb3  1  0.251294  0.749484  0.251294  1
  Yb  Yb4  1  0.250516  0.748706  0.748706  1
  Yb  Yb5  1  0.749484  0.251294  0.251294  1
  Pa  Pa6  1  0.257701  0.257701  0.257701  1
  Pa  Pa7  1  0.742299  0.742299  0.742299  1
  Ge  Ge8  1  0.000000  0.000000  0.000000  1
  Pd  Pd9  1  0.259142  0.497690  0.004641  1
  Pd  Pd10  1  0.740858  0.502310  0.995359  1
  Pd  Pd11  1  0.004641  0.259142  0.497690  1
  Pd  Pd12  1  0.497690  0.259142  0.004641  1
  Pd  Pd13  1  0.995359  0.740858  0.502310  1
  Pd  Pd14  1  0.502310  0.740858  0.995359  1
  Pd  Pd15  1  0.497690  0.004641  0.259142  1
  Pd  Pd16  1  0.259142  0.004641  0.497690  1
  Pd  Pd17  1  0.502310  0.995359  0.740858  1
  Pd  Pd18  1  0.740858  0.995359  0.502310  1
  Pd  Pd19  1  0.004641  0.497690  0.259142  1
  Pd  Pd20  1  0.995359  0.502310  0.740858  1
  Pd  Pd21  1  0.252631  0.498250  0.498250  1
  Pd  Pd22  1  0.747369  0.501750  0.501750  1
  Pd  Pd23  1  0.498250  0.252631  0.498250  1
  Pd  Pd24  1  0.501750  0.747369  0.501750  1
  Pd  Pd25  1  0.498250  0.498250  0.252631  1
  Pd  Pd26  1  0.501750  0.501750  0.747369  1
  Pd  Pd27  1  0.288950  0.001777  0.001777  1
  Pd  Pd28  1  0.711050  0.998223  0.998223  1
  Pd  Pd29  1  0.001777  0.288950  0.001777  1
  Pd  Pd30  1  0.998223  0.711050  0.998223  1
  Pd  Pd31  1  0.001777  0.001777  0.288950  1
  Pd  Pd32  1  0.998223  0.998223  0.711050  1
