# generated using pymatgen
data_Er15Lu(C2Cl3)4
_symmetry_space_group_name_H-M   'P 1'
_cell_length_a   3.61583900
_cell_length_b   10.36405651
_cell_length_c   19.51956983
_cell_angle_alpha   90.06180823
_cell_angle_beta   90.00000000
_cell_angle_gamma   90.00000000
_symmetry_Int_Tables_number   1
_chemical_formula_structural   Er15Lu(C2Cl3)4
_chemical_formula_sum   'Er15 Lu1 C8 Cl12'
_cell_volume   731.49076391
_cell_formula_units_Z   1
loop_
 _symmetry_equiv_pos_site_id
 _symmetry_equiv_pos_as_xyz
  1  'x, y, z'
loop_
 _atom_site_type_symbol
 _atom_site_label
 _atom_site_symmetry_multiplicity
 _atom_site_fract_x
 _atom_site_fract_y
 _atom_site_fract_z
 _atom_site_occupancy
  Er  Er0  1  0.250000  0.138492  0.574228  1
  Er  Er1  1  0.250000  0.637758  0.925692  1
  Er  Er2  1  0.750000  0.862292  0.425934  1
  Er  Er3  1  0.750000  0.362203  0.073965  1
  Er  Er4  1  0.250000  0.636565  0.755970  1
  Er  Er5  1  0.250000  0.135798  0.743557  1
  Er  Er6  1  0.750000  0.364091  0.243536  1
  Er  Er7  1  0.750000  0.863446  0.256413  1
  Er  Er8  1  0.250000  0.101176  0.331575  1
  Er  Er9  1  0.250000  0.601508  0.168312  1
  Er  Er10  1  0.750000  0.898154  0.668142  1
  Er  Er11  1  0.750000  0.398965  0.830946  1
  Er  Er12  1  0.250000  0.126206  0.165189  1
  Er  Er13  1  0.250000  0.626052  0.334774  1
  Er  Er14  1  0.750000  0.874116  0.834692  1
  Lu  Lu15  1  0.750000  0.372029  0.666303  1
  C  C16  1  0.250000  0.865283  0.347667  1
  C  C17  1  0.250000  0.364811  0.152233  1
  C  C18  1  0.750000  0.136382  0.652371  1
  C  C19  1  0.750000  0.634491  0.847362  1
  C  C20  1  0.250000  0.386173  0.749114  1
  C  C21  1  0.250000  0.886747  0.749523  1
  C  C22  1  0.750000  0.613237  0.249764  1
  C  C23  1  0.750000  0.113500  0.250136  1
  Cl  Cl24  1  0.250000  0.376794  0.952464  1
  Cl  Cl25  1  0.250000  0.876817  0.547352  1
  Cl  Cl26  1  0.750000  0.623201  0.047060  1
  Cl  Cl27  1  0.750000  0.123871  0.453109  1
  Cl  Cl28  1  0.250000  0.887375  0.944232  1
  Cl  Cl29  1  0.250000  0.388725  0.558645  1
  Cl  Cl30  1  0.750000  0.112755  0.055358  1
  Cl  Cl31  1  0.750000  0.613080  0.444562  1
  Cl  Cl32  1  0.250000  0.361932  0.354130  1
  Cl  Cl33  1  0.250000  0.862060  0.145920  1
  Cl  Cl34  1  0.750000  0.635490  0.645939  1
  Cl  Cl35  1  0.750000  0.138425  0.853831  1
