# generated using pymatgen
data_GaSb7PtAu3
_symmetry_space_group_name_H-M   'P 1'
_cell_length_a   6.67429006
_cell_length_b   6.67429044
_cell_length_c   6.67428955
_cell_angle_alpha   91.14001426
_cell_angle_beta   88.85998477
_cell_angle_gamma   91.14001169
_symmetry_Int_Tables_number   1
_chemical_formula_structural   GaSb7PtAu3
_chemical_formula_sum   'Ga1 Sb7 Pt1 Au3'
_cell_volume   297.13966405
_cell_formula_units_Z   1
loop_
 _symmetry_equiv_pos_site_id
 _symmetry_equiv_pos_as_xyz
  1  'x, y, z'
loop_
 _atom_site_type_symbol
 _atom_site_label
 _atom_site_symmetry_multiplicity
 _atom_site_fract_x
 _atom_site_fract_y
 _atom_site_fract_z
 _atom_site_occupancy
  Ga  Ga0  1  0.383423  0.116577  0.883423  1
  Sb  Sb1  1  0.119058  0.870145  0.374388  1
  Sb  Sb2  1  0.874388  0.380942  0.129855  1
  Sb  Sb3  1  0.629855  0.625612  0.619058  1
  Sb  Sb4  1  0.366287  0.371957  0.381391  1
  Sb  Sb5  1  0.128043  0.618609  0.866287  1
  Sb  Sb6  1  0.881391  0.133713  0.628043  1
  Sb  Sb7  1  0.615393  0.884607  0.115393  1
  Pt  Pt8  1  0.998887  0.501113  0.498887  1
  Au  Au9  1  0.496135  0.489730  0.996872  1
  Au  Au10  1  0.496872  0.003865  0.510270  1
  Au  Au11  1  0.010270  0.003128  0.996135  1
