# generated using pymatgen
data_Nd4Al15(GaIr2)3
_symmetry_space_group_name_H-M   'P 1'
_cell_length_a   7.59397287
_cell_length_b   7.59339670
_cell_length_c   9.68180000
_cell_angle_alpha   90.00000000
_cell_angle_beta   90.00000000
_cell_angle_gamma   119.37415723
_symmetry_Int_Tables_number   1
_chemical_formula_structural   Nd4Al15(GaIr2)3
_chemical_formula_sum   'Nd4 Al15 Ga3 Ir6'
_cell_volume   486.51507988
_cell_formula_units_Z   1
loop_
 _symmetry_equiv_pos_site_id
 _symmetry_equiv_pos_as_xyz
  1  'x, y, z'
loop_
 _atom_site_type_symbol
 _atom_site_label
 _atom_site_symmetry_multiplicity
 _atom_site_fract_x
 _atom_site_fract_y
 _atom_site_fract_z
 _atom_site_occupancy
  Nd  Nd0  1  0.998269  0.674228  0.250000  1
  Nd  Nd1  1  0.005720  0.326195  0.750000  1
  Nd  Nd2  1  0.669229  0.990601  0.250000  1
  Nd  Nd3  1  0.325690  0.004144  0.750000  1
  Al  Al4  1  0.002384  0.335235  0.070311  1
  Al  Al5  1  0.997247  0.663956  0.928484  1
  Al  Al6  1  0.997247  0.663956  0.571516  1
  Al  Al7  1  0.336352  0.004737  0.429313  1
  Al  Al8  1  0.002384  0.335235  0.429689  1
  Al  Al9  1  0.664293  0.998037  0.571330  1
  Al  Al10  1  0.664293  0.998037  0.928670  1
  Al  Al11  1  0.336352  0.004737  0.070687  1
  Al  Al12  1  0.335228  0.335381  0.551805  1
  Al  Al13  1  0.665674  0.665098  0.453296  1
  Al  Al14  1  0.665674  0.665098  0.046704  1
  Al  Al15  1  0.335228  0.335381  0.948195  1
  Al  Al16  1  0.662833  0.453018  0.750000  1
  Al  Al17  1  0.547729  0.339528  0.250000  1
  Al  Al18  1  0.453099  0.662354  0.750000  1
  Ga  Ga19  1  0.132863  0.133797  0.250000  1
  Ga  Ga20  1  0.863541  0.863315  0.750000  1
  Ga  Ga21  1  0.338399  0.543303  0.250000  1
  Ir  Ir22  1  0.670650  0.329998  0.000305  1
  Ir  Ir23  1  0.329404  0.671924  0.997756  1
  Ir  Ir24  1  0.329404  0.671924  0.502244  1
  Ir  Ir25  1  0.670650  0.329998  0.499695  1
  Ir  Ir26  1  0.000081  0.000393  0.999887  1
  Ir  Ir27  1  0.000081  0.000393  0.500113  1
