# generated using pymatgen
data_ErScB6Os
_symmetry_space_group_name_H-M   'P 1'
_cell_length_a   3.55813200
_cell_length_b   8.94860100
_cell_length_c   11.32215100
_cell_angle_alpha   90.00000000
_cell_angle_beta   90.00000000
_cell_angle_gamma   90.00000000
_symmetry_Int_Tables_number   1
_chemical_formula_structural   ErScB6Os
_chemical_formula_sum   'Er4 Sc4 B24 Os4'
_cell_volume   360.50072494
_cell_formula_units_Z   4
loop_
 _symmetry_equiv_pos_site_id
 _symmetry_equiv_pos_as_xyz
  1  'x, y, z'
loop_
 _atom_site_type_symbol
 _atom_site_label
 _atom_site_symmetry_multiplicity
 _atom_site_fract_x
 _atom_site_fract_y
 _atom_site_fract_z
 _atom_site_occupancy
  Er  Er0  1  0.000000  0.819650  0.085717  1
  Er  Er1  1  0.000000  0.180350  0.914283  1
  Er  Er2  1  0.000000  0.319650  0.414283  1
  Er  Er3  1  0.000000  0.680350  0.585717  1
  Sc  Sc4  1  0.000000  0.445225  0.125745  1
  Sc  Sc5  1  0.000000  0.554775  0.874255  1
  Sc  Sc6  1  0.000000  0.945225  0.374255  1
  Sc  Sc7  1  0.000000  0.054775  0.625745  1
  B  B8  1  0.500000  0.054618  0.066798  1
  B  B9  1  0.500000  0.945382  0.933202  1
  B  B10  1  0.500000  0.554618  0.433202  1
  B  B11  1  0.500000  0.445382  0.566798  1
  B  B12  1  0.500000  0.252955  0.080796  1
  B  B13  1  0.500000  0.747045  0.919204  1
  B  B14  1  0.500000  0.752955  0.419204  1
  B  B15  1  0.500000  0.247045  0.580796  1
  B  B16  1  0.500000  0.293748  0.234762  1
  B  B17  1  0.500000  0.706252  0.765238  1
  B  B18  1  0.500000  0.793748  0.265238  1
  B  B19  1  0.500000  0.206252  0.734762  1
  B  B20  1  0.500000  0.129355  0.317550  1
  B  B21  1  0.500000  0.870645  0.682450  1
  B  B22  1  0.500000  0.629355  0.182450  1
  B  B23  1  0.500000  0.370645  0.817550  1
  B  B24  1  0.500000  0.481558  0.285672  1
  B  B25  1  0.500000  0.518442  0.714328  1
  B  B26  1  0.500000  0.981558  0.214328  1
  B  B27  1  0.500000  0.018442  0.785672  1
  B  B28  1  0.500000  0.100554  0.472820  1
  B  B29  1  0.500000  0.899446  0.527180  1
  B  B30  1  0.500000  0.600554  0.027180  1
  B  B31  1  0.500000  0.399446  0.972820  1
  Os  Os32  1  0.000000  0.139732  0.181117  1
  Os  Os33  1  0.000000  0.860268  0.818883  1
  Os  Os34  1  0.000000  0.639732  0.318883  1
  Os  Os35  1  0.000000  0.360268  0.681117  1
