# generated using pymatgen
data_TbDyGaTc3
_symmetry_space_group_name_H-M   'P 1'
_cell_length_a   5.34410700
_cell_length_b   5.34410675
_cell_length_c   9.05206700
_cell_angle_alpha   90.00000000
_cell_angle_beta   90.00000000
_cell_angle_gamma   119.99998298
_symmetry_Int_Tables_number   1
_chemical_formula_structural   TbDyGaTc3
_chemical_formula_sum   'Tb2 Dy2 Ga2 Tc6'
_cell_volume   223.88692716
_cell_formula_units_Z   2
loop_
 _symmetry_equiv_pos_site_id
 _symmetry_equiv_pos_as_xyz
  1  'x, y, z'
loop_
 _atom_site_type_symbol
 _atom_site_label
 _atom_site_symmetry_multiplicity
 _atom_site_fract_x
 _atom_site_fract_y
 _atom_site_fract_z
 _atom_site_occupancy
  Tb  Tb0  1  0.333333  0.666667  0.431532  1
  Tb  Tb1  1  0.666667  0.333333  0.568468  1
  Dy  Dy2  1  0.666667  0.333333  0.931496  1
  Dy  Dy3  1  0.333333  0.666667  0.068504  1
  Ga  Ga4  1  0.000000  0.000000  0.500000  1
  Ga  Ga5  1  0.000000  0.000000  0.000000  1
  Tc  Tc6  1  0.829205  0.170795  0.249857  1
  Tc  Tc7  1  0.829205  0.658409  0.249857  1
  Tc  Tc8  1  0.341591  0.170795  0.249857  1
  Tc  Tc9  1  0.170795  0.829205  0.750143  1
  Tc  Tc10  1  0.170795  0.341591  0.750143  1
  Tc  Tc11  1  0.658409  0.829205  0.750143  1
