# generated using pymatgen
data_Ho12Co4CuSn
_symmetry_space_group_name_H-M   'P 1'
_cell_length_a   8.28396152
_cell_length_b   8.28387721
_cell_length_c   8.28396260
_cell_angle_alpha   111.32199928
_cell_angle_beta   110.39598310
_cell_angle_gamma   106.73175516
_symmetry_Int_Tables_number   1
_chemical_formula_structural   Ho12Co4CuSn
_chemical_formula_sum   'Ho12 Co4 Cu1 Sn1'
_cell_volume   436.83268309
_cell_formula_units_Z   1
loop_
 _symmetry_equiv_pos_site_id
 _symmetry_equiv_pos_as_xyz
  1  'x, y, z'
loop_
 _atom_site_type_symbol
 _atom_site_label
 _atom_site_symmetry_multiplicity
 _atom_site_fract_x
 _atom_site_fract_y
 _atom_site_fract_z
 _atom_site_occupancy
  Ho  Ho0  1  0.813714  0.707931  0.521644  1
  Ho  Ho1  1  0.186286  0.292069  0.478356  1
  Ho  Ho2  1  0.186288  0.707931  0.894217  1
  Ho  Ho3  1  0.813712  0.292069  0.105783  1
  Ho  Ho4  1  0.685518  0.379441  0.693924  1
  Ho  Ho5  1  0.314482  0.620559  0.306076  1
  Ho  Ho6  1  0.685515  0.991597  0.306083  1
  Ho  Ho7  1  0.314485  0.008403  0.693917  1
  Ho  Ho8  1  0.586678  0.785647  0.801028  1
  Ho  Ho9  1  0.413322  0.214353  0.198972  1
  Ho  Ho10  1  0.984619  0.785647  0.198968  1
  Ho  Ho11  1  0.015381  0.214353  0.801032  1
  Co  Co12  1  0.623997  0.000000  0.623997  1
  Co  Co13  1  0.376003  0.000000  0.376003  1
  Co  Co14  1  0.112893  0.612894  0.500002  1
  Co  Co15  1  0.887107  0.387106  0.499998  1
  Cu  Cu16  1  0.000000  0.000000  0.000000  1
  Sn  Sn17  1  0.500000  0.500000  0.000000  1
