# generated using pymatgen
data_Er6Th4Si5Ge3
_symmetry_space_group_name_H-M   'P 1'
_cell_length_a   7.57691893
_cell_length_b   7.68845684
_cell_length_c   14.53748400
_cell_angle_alpha   89.94271507
_cell_angle_beta   89.89014089
_cell_angle_gamma   89.97072983
_symmetry_Int_Tables_number   1
_chemical_formula_structural   Er6Th4Si5Ge3
_chemical_formula_sum   'Er12 Th8 Si10 Ge6'
_cell_volume   846.87633888
_cell_formula_units_Z   2
loop_
 _symmetry_equiv_pos_site_id
 _symmetry_equiv_pos_as_xyz
  1  'x, y, z'
loop_
 _atom_site_type_symbol
 _atom_site_label
 _atom_site_symmetry_multiplicity
 _atom_site_fract_x
 _atom_site_fract_y
 _atom_site_fract_z
 _atom_site_occupancy
  Er  Er0  1  0.181868  0.993509  0.750754  1
  Er  Er1  1  0.818132  0.006491  0.249246  1
  Er  Er2  1  0.317567  0.493836  0.248448  1
  Er  Er3  1  0.682433  0.506164  0.751552  1
  Er  Er4  1  0.354270  0.331884  0.623798  1
  Er  Er5  1  0.645730  0.668116  0.376202  1
  Er  Er6  1  0.145948  0.831952  0.376119  1
  Er  Er7  1  0.645109  0.668087  0.122946  1
  Er  Er8  1  0.854052  0.168048  0.623881  1
  Er  Er9  1  0.354891  0.331913  0.877054  1
  Er  Er10  1  0.852247  0.170171  0.877141  1
  Er  Er11  1  0.147753  0.829829  0.122859  1
  Th  Th12  1  0.006358  0.678633  0.599373  1
  Th  Th13  1  0.993642  0.321367  0.400627  1
  Th  Th14  1  0.493127  0.178900  0.400427  1
  Th  Th15  1  0.994170  0.323718  0.097538  1
  Th  Th16  1  0.506873  0.821100  0.599573  1
  Th  Th17  1  0.005830  0.676282  0.902462  1
  Th  Th18  1  0.505893  0.818438  0.901779  1
  Th  Th19  1  0.494107  0.181562  0.098221  1
  Si  Si20  1  0.057425  0.387080  0.750137  1
  Si  Si21  1  0.942575  0.612920  0.249863  1
  Si  Si22  1  0.442964  0.888049  0.249725  1
  Si  Si23  1  0.557036  0.111951  0.750275  1
  Si  Si24  1  0.303120  0.628980  0.750268  1
  Si  Si25  1  0.696880  0.371020  0.249732  1
  Si  Si26  1  0.195986  0.129145  0.249257  1
  Si  Si27  1  0.804014  0.870855  0.750743  1
  Si  Si28  1  0.691821  0.462562  0.958295  1
  Si  Si29  1  0.308179  0.537438  0.041705  1
  Ge  Ge30  1  0.194524  0.038853  0.541987  1
  Ge  Ge31  1  0.805476  0.961147  0.458013  1
  Ge  Ge32  1  0.305839  0.538870  0.457807  1
  Ge  Ge33  1  0.806525  0.961623  0.042177  1
  Ge  Ge34  1  0.694161  0.461130  0.542193  1
  Ge  Ge35  1  0.193475  0.038377  0.957823  1
