# generated using pymatgen
data_Sc5Al(GaIr2)6
_symmetry_space_group_name_H-M   'P 1'
_cell_length_a   4.43577801
_cell_length_b   6.18459700
_cell_length_c   13.27426102
_cell_angle_alpha   90.00000000
_cell_angle_beta   89.99444739
_cell_angle_gamma   90.00000000
_symmetry_Int_Tables_number   1
_chemical_formula_structural   Sc5Al(GaIr2)6
_chemical_formula_sum   'Sc5 Al1 Ga6 Ir12'
_cell_volume   364.15942915
_cell_formula_units_Z   1
loop_
 _symmetry_equiv_pos_site_id
 _symmetry_equiv_pos_as_xyz
  1  'x, y, z'
loop_
 _atom_site_type_symbol
 _atom_site_label
 _atom_site_symmetry_multiplicity
 _atom_site_fract_x
 _atom_site_fract_y
 _atom_site_fract_z
 _atom_site_occupancy
  Sc  Sc0  1  0.499869  0.500001  0.163189  1
  Sc  Sc1  1  0.999824  0.000000  0.331776  1
  Sc  Sc2  1  0.500055  0.500001  0.500015  1
  Sc  Sc3  1  0.000232  0.000000  0.668223  1
  Sc  Sc4  1  0.500191  0.500001  0.836798  1
  Al  Al5  1  0.000039  0.000000  0.999974  1
  Ga  Ga6  1  0.999825  0.500001  0.999930  1
  Ga  Ga7  1  0.499850  0.000000  0.170331  1
  Ga  Ga8  1  0.999823  0.500001  0.330031  1
  Ga  Ga9  1  0.499791  0.000000  0.500112  1
  Ga  Ga10  1  0.000200  0.500001  0.669917  1
  Ga  Ga11  1  0.500191  0.000000  0.829683  1
  Ir  Ir12  1  0.500017  0.234599  0.999952  1
  Ir  Ir13  1  0.500017  0.765401  0.999952  1
  Ir  Ir14  1  0.999832  0.242193  0.158571  1
  Ir  Ir15  1  0.999832  0.757807  0.158571  1
  Ir  Ir16  1  0.499826  0.251951  0.332439  1
  Ir  Ir17  1  0.499826  0.748049  0.332439  1
  Ir  Ir18  1  0.999987  0.249555  0.500023  1
  Ir  Ir19  1  0.999987  0.750445  0.500023  1
  Ir  Ir20  1  0.500198  0.251965  0.667635  1
  Ir  Ir21  1  0.500198  0.748035  0.667635  1
  Ir  Ir22  1  0.000197  0.242239  0.841391  1
  Ir  Ir23  1  0.000197  0.757761  0.841391  1
