# generated using pymatgen
data_Y5TmP13Rh20
_symmetry_space_group_name_H-M   'P 1'
_cell_length_a   13.33655102
_cell_length_b   13.33409703
_cell_length_c   3.92333000
_cell_angle_alpha   89.99663228
_cell_angle_beta   90.00324073
_cell_angle_gamma   120.01211351
_symmetry_Int_Tables_number   1
_chemical_formula_structural   Y5TmP13Rh20
_chemical_formula_sum   'Y5 Tm1 P13 Rh20'
_cell_volume   604.14277692
_cell_formula_units_Z   1
loop_
 _symmetry_equiv_pos_site_id
 _symmetry_equiv_pos_as_xyz
  1  'x, y, z'
loop_
 _atom_site_type_symbol
 _atom_site_label
 _atom_site_symmetry_multiplicity
 _atom_site_fract_x
 _atom_site_fract_y
 _atom_site_fract_z
 _atom_site_occupancy
  Y  Y0  1  0.529472  0.717162  0.248298  1
  Y  Y1  1  0.282747  0.812218  0.248370  1
  Y  Y2  1  0.187769  0.470604  0.248338  1
  Y  Y3  1  0.470807  0.282918  0.751671  1
  Y  Y4  1  0.717162  0.188010  0.751668  1
  Tm  Tm5  1  0.812131  0.529378  0.751634  1
  P  P6  1  0.526216  0.139572  0.250244  1
  P  P7  1  0.860679  0.387541  0.250298  1
  P  P8  1  0.613808  0.474088  0.250288  1
  P  P9  1  0.944890  0.714022  0.254720  1
  P  P10  1  0.284980  0.230371  0.254636  1
  P  P11  1  0.769684  0.054685  0.254592  1
  P  P12  1  0.386980  0.526060  0.749734  1
  P  P13  1  0.473990  0.860821  0.749723  1
  P  P14  1  0.139242  0.613250  0.749779  1
  P  P15  1  0.715041  0.769742  0.745192  1
  P  P16  1  0.230261  0.945257  0.745352  1
  P  P17  1  0.054505  0.285076  0.745313  1
  P  P18  1  0.999941  0.999861  0.999972  1
  Rh  Rh19  1  0.333296  0.666600  0.751901  1
  Rh  Rh20  1  0.921087  0.250472  0.254157  1
  Rh  Rh21  1  0.750602  0.670111  0.254257  1
  Rh  Rh22  1  0.329061  0.078940  0.254174  1
  Rh  Rh23  1  0.438574  0.022638  0.751485  1
  Rh  Rh24  1  0.977203  0.416314  0.751482  1
  Rh  Rh25  1  0.584635  0.561538  0.751470  1
  Rh  Rh26  1  0.667403  0.334294  0.248015  1
  Rh  Rh27  1  0.094167  0.186855  0.246959  1
  Rh  Rh28  1  0.813000  0.907101  0.247052  1
  Rh  Rh29  1  0.092315  0.905360  0.246971  1
  Rh  Rh30  1  0.021332  0.583778  0.248437  1
  Rh  Rh31  1  0.416163  0.438603  0.248534  1
  Rh  Rh32  1  0.561542  0.977531  0.248517  1
  Rh  Rh33  1  0.671023  0.921225  0.745872  1
  Rh  Rh34  1  0.078424  0.749420  0.745831  1
  Rh  Rh35  1  0.250196  0.329045  0.745815  1
  Rh  Rh36  1  0.905656  0.812838  0.753219  1
  Rh  Rh37  1  0.186702  0.092545  0.752986  1
  Rh  Rh38  1  0.907312  0.094156  0.753045  1
