# generated using pymatgen
data_Tb3YTc8
_symmetry_space_group_name_H-M   'P 1'
_cell_length_a   5.39036700
_cell_length_b   5.39036883
_cell_length_c   8.90784500
_cell_angle_alpha   90.00000000
_cell_angle_beta   90.00000000
_cell_angle_gamma   120.00000721
_symmetry_Int_Tables_number   1
_chemical_formula_structural   Tb3YTc8
_chemical_formula_sum   'Tb3 Y1 Tc8'
_cell_volume   224.15068405
_cell_formula_units_Z   1
loop_
 _symmetry_equiv_pos_site_id
 _symmetry_equiv_pos_as_xyz
  1  'x, y, z'
loop_
 _atom_site_type_symbol
 _atom_site_label
 _atom_site_symmetry_multiplicity
 _atom_site_fract_x
 _atom_site_fract_y
 _atom_site_fract_z
 _atom_site_occupancy
  Tb  Tb0  1  0.333333  0.666667  0.436299  1
  Tb  Tb1  1  0.666667  0.333333  0.563723  1
  Tb  Tb2  1  0.666667  0.333333  0.936266  1
  Y  Y3  1  0.333333  0.666667  0.063762  1
  Tc  Tc4  1  0.000000  0.000000  0.499906  1
  Tc  Tc5  1  0.000000  0.000000  0.999962  1
  Tc  Tc6  1  0.828740  0.171260  0.249984  1
  Tc  Tc7  1  0.828740  0.657480  0.249984  1
  Tc  Tc8  1  0.342520  0.171260  0.249984  1
  Tc  Tc9  1  0.171235  0.828765  0.750043  1
  Tc  Tc10  1  0.171235  0.342469  0.750043  1
  Tc  Tc11  1  0.657531  0.828765  0.750043  1
