# generated using pymatgen
data_Tb3Ce2Pb3C
_symmetry_space_group_name_H-M   'P 1'
_cell_length_a   9.16395941
_cell_length_b   9.16396073
_cell_length_c   6.64515100
_cell_angle_alpha   90.00000000
_cell_angle_beta   90.00000000
_cell_angle_gamma   119.54445765
_symmetry_Int_Tables_number   1
_chemical_formula_structural   Tb3Ce2Pb3C
_chemical_formula_sum   'Tb6 Ce4 Pb6 C2'
_cell_volume   485.48652228
_cell_formula_units_Z   2
loop_
 _symmetry_equiv_pos_site_id
 _symmetry_equiv_pos_as_xyz
  1  'x, y, z'
loop_
 _atom_site_type_symbol
 _atom_site_label
 _atom_site_symmetry_multiplicity
 _atom_site_fract_x
 _atom_site_fract_y
 _atom_site_fract_z
 _atom_site_occupancy
  Tb  Tb0  1  0.783337  0.783337  0.250000  1
  Tb  Tb1  1  0.216663  0.216663  0.750000  1
  Tb  Tb2  1  0.333024  0.666976  0.000000  1
  Tb  Tb3  1  0.666976  0.333024  0.000000  1
  Tb  Tb4  1  0.666976  0.333024  0.500000  1
  Tb  Tb5  1  0.333024  0.666976  0.500000  1
  Ce  Ce6  1  0.212127  0.999495  0.250000  1
  Ce  Ce7  1  0.787873  0.000505  0.750000  1
  Ce  Ce8  1  0.999495  0.212127  0.250000  1
  Ce  Ce9  1  0.000505  0.787873  0.750000  1
  Pb  Pb10  1  0.594934  0.999247  0.250000  1
  Pb  Pb11  1  0.405066  0.000753  0.750000  1
  Pb  Pb12  1  0.999247  0.594934  0.250000  1
  Pb  Pb13  1  0.000753  0.405066  0.750000  1
  Pb  Pb14  1  0.406325  0.406325  0.250000  1
  Pb  Pb15  1  0.593675  0.593675  0.750000  1
  C  C16  1  0.000000  0.000000  0.000000  1
  C  C17  1  0.000000  0.000000  0.500000  1
