# generated using pymatgen
data_Sr4LiPa3O12
_symmetry_space_group_name_H-M   'P 1'
_cell_length_a   6.09214392
_cell_length_b   5.95642786
_cell_length_c   8.71469659
_cell_angle_alpha   88.62829541
_cell_angle_beta   90.51827903
_cell_angle_gamma   89.81397015
_symmetry_Int_Tables_number   1
_chemical_formula_structural   Sr4LiPa3O12
_chemical_formula_sum   'Sr4 Li1 Pa3 O12'
_cell_volume   316.12836500
_cell_formula_units_Z   1
loop_
 _symmetry_equiv_pos_site_id
 _symmetry_equiv_pos_as_xyz
  1  'x, y, z'
loop_
 _atom_site_type_symbol
 _atom_site_label
 _atom_site_symmetry_multiplicity
 _atom_site_fract_x
 _atom_site_fract_y
 _atom_site_fract_z
 _atom_site_occupancy
  Sr  Sr0  1  0.537136  0.478098  0.776868  1
  Sr  Sr1  1  0.057927  0.014438  0.782788  1
  Sr  Sr2  1  0.462864  0.521902  0.223132  1
  Sr  Sr3  1  0.942073  0.985562  0.217212  1
  Li  Li4  1  0.500000  0.000000  0.000000  1
  Pa  Pa5  1  0.000000  0.500000  0.500000  1
  Pa  Pa6  1  0.500000  0.000000  0.500000  1
  Pa  Pa7  1  0.000000  0.500000  0.000000  1
  O  O8  1  0.721485  0.705593  0.045339  1
  O  O9  1  0.200528  0.790167  0.426568  1
  O  O10  1  0.291111  0.301688  0.568598  1
  O  O11  1  0.797756  0.219632  0.960700  1
  O  O12  1  0.278515  0.294407  0.954661  1
  O  O13  1  0.799472  0.209833  0.573432  1
  O  O14  1  0.708889  0.698312  0.431402  1
  O  O15  1  0.202244  0.780368  0.039300  1
  O  O16  1  0.454189  0.884161  0.718905  1
  O  O17  1  0.961439  0.606373  0.738266  1
  O  O18  1  0.545811  0.115839  0.281095  1
  O  O19  1  0.038561  0.393627  0.261734  1
