# generated using pymatgen
data_Eu8Tl2SnPbAu8
_symmetry_space_group_name_H-M   'P 1'
_cell_length_a   8.32318300
_cell_length_b   8.32318300
_cell_length_c   7.85612600
_cell_angle_alpha   90.00000000
_cell_angle_beta   90.00000000
_cell_angle_gamma   90.00000000
_symmetry_Int_Tables_number   1
_chemical_formula_structural   Eu8Tl2SnPbAu8
_chemical_formula_sum   'Eu8 Tl2 Sn1 Pb1 Au8'
_cell_volume   544.23607667
_cell_formula_units_Z   1
loop_
 _symmetry_equiv_pos_site_id
 _symmetry_equiv_pos_as_xyz
  1  'x, y, z'
loop_
 _atom_site_type_symbol
 _atom_site_label
 _atom_site_symmetry_multiplicity
 _atom_site_fract_x
 _atom_site_fract_y
 _atom_site_fract_z
 _atom_site_occupancy
  Eu  Eu0  1  0.684143  0.319596  0.498905  1
  Eu  Eu1  1  0.315857  0.680404  0.498905  1
  Eu  Eu2  1  0.180404  0.184143  0.001095  1
  Eu  Eu3  1  0.819596  0.815857  0.001095  1
  Eu  Eu4  1  0.831573  0.826849  0.498926  1
  Eu  Eu5  1  0.168427  0.173151  0.498926  1
  Eu  Eu6  1  0.326849  0.668427  0.001074  1
  Eu  Eu7  1  0.673151  0.331573  0.001074  1
  Tl  Tl8  1  0.500000  0.000000  0.250000  1
  Tl  Tl9  1  0.000000  0.500000  0.750000  1
  Sn  Sn10  1  0.000000  0.500000  0.250000  1
  Pb  Pb11  1  0.500000  0.000000  0.750000  1
  Au  Au12  1  0.878215  0.123104  0.236975  1
  Au  Au13  1  0.121785  0.876896  0.236975  1
  Au  Au14  1  0.378318  0.377702  0.737152  1
  Au  Au15  1  0.621682  0.622298  0.737152  1
  Au  Au16  1  0.122298  0.878318  0.762848  1
  Au  Au17  1  0.877702  0.121682  0.762848  1
  Au  Au18  1  0.623104  0.621785  0.263025  1
  Au  Au19  1  0.376896  0.378215  0.263025  1
