# generated using pymatgen
data_Dy3Er13(In3Pt)2
_symmetry_space_group_name_H-M   'P 1'
_cell_length_a   10.43749500
_cell_length_b   10.43749354
_cell_length_c   6.96063800
_cell_angle_alpha   90.00000000
_cell_angle_beta   90.00000000
_cell_angle_gamma   119.99999512
_symmetry_Int_Tables_number   1
_chemical_formula_structural   Dy3Er13(In3Pt)2
_chemical_formula_sum   'Dy3 Er13 In6 Pt2'
_cell_volume   656.70784021
_cell_formula_units_Z   1
loop_
 _symmetry_equiv_pos_site_id
 _symmetry_equiv_pos_as_xyz
  1  'x, y, z'
loop_
 _atom_site_type_symbol
 _atom_site_label
 _atom_site_symmetry_multiplicity
 _atom_site_fract_x
 _atom_site_fract_y
 _atom_site_fract_z
 _atom_site_occupancy
  Dy  Dy0  1  0.531095  0.062192  0.795543  1
  Dy  Dy1  1  0.937808  0.468905  0.795543  1
  Dy  Dy2  1  0.531095  0.468905  0.795543  1
  Er  Er3  1  0.468438  0.936875  0.295316  1
  Er  Er4  1  0.063125  0.531562  0.295316  1
  Er  Er5  1  0.468438  0.531562  0.295316  1
  Er  Er6  1  0.824618  0.649238  0.500140  1
  Er  Er7  1  0.350762  0.175382  0.500140  1
  Er  Er8  1  0.824618  0.175382  0.500140  1
  Er  Er9  1  0.175395  0.350789  0.001188  1
  Er  Er10  1  0.649211  0.824605  0.001188  1
  Er  Er11  1  0.175395  0.824605  0.001188  1
  Er  Er12  1  0.666667  0.333333  0.171593  1
  Er  Er13  1  0.333333  0.666667  0.670958  1
  Er  Er14  1  0.000000  0.000000  0.775700  1
  Er  Er15  1  0.000000  0.000000  0.276051  1
  In  In16  1  0.837719  0.675440  0.038300  1
  In  In17  1  0.324560  0.162281  0.038300  1
  In  In18  1  0.837719  0.162281  0.038300  1
  In  In19  1  0.162421  0.324840  0.538025  1
  In  In20  1  0.675160  0.837579  0.538025  1
  In  In21  1  0.162421  0.837579  0.538025  1
  Pt  Pt22  1  0.666667  0.333333  0.567512  1
  Pt  Pt23  1  0.333333  0.666667  0.068550  1
