# generated using pymatgen
data_BaAcIO2
_symmetry_space_group_name_H-M   'P 1'
_cell_length_a   7.92206230
_cell_length_b   7.92206226
_cell_length_c   6.21842600
_cell_angle_alpha   90.00000000
_cell_angle_beta   90.00000000
_cell_angle_gamma   133.11574100
_symmetry_Int_Tables_number   1
_chemical_formula_structural   BaAcIO2
_chemical_formula_sum   'Ba2 Ac2 I2 O4'
_cell_volume   284.88178568
_cell_formula_units_Z   2
loop_
 _symmetry_equiv_pos_site_id
 _symmetry_equiv_pos_as_xyz
  1  'x, y, z'
loop_
 _atom_site_type_symbol
 _atom_site_label
 _atom_site_symmetry_multiplicity
 _atom_site_fract_x
 _atom_site_fract_y
 _atom_site_fract_z
 _atom_site_occupancy
  Ba  Ba0  1  0.587927  0.412073  0.750000  1
  Ba  Ba1  1  0.412073  0.587927  0.250000  1
  Ac  Ac2  1  0.076135  0.923865  0.250000  1
  Ac  Ac3  1  0.923865  0.076135  0.750000  1
  I  I4  1  0.251509  0.748491  0.750000  1
  I  I5  1  0.748491  0.251509  0.250000  1
  O  O6  1  0.769287  0.769287  0.500000  1
  O  O7  1  0.230713  0.230713  0.500000  1
  O  O8  1  0.230713  0.230713  0.000000  1
  O  O9  1  0.769287  0.769287  0.000000  1
