# generated using pymatgen
data_Zr10Tl2ZnPb4Se
_symmetry_space_group_name_H-M   'P 1'
_cell_length_a   8.82469295
_cell_length_b   8.82336778
_cell_length_c   5.99242808
_cell_angle_alpha   90.05369480
_cell_angle_beta   89.97315745
_cell_angle_gamma   119.99503976
_symmetry_Int_Tables_number   1
_chemical_formula_structural   Zr10Tl2ZnPb4Se
_chemical_formula_sum   'Zr10 Tl2 Zn1 Pb4 Se1'
_cell_volume   404.10010325
_cell_formula_units_Z   1
loop_
 _symmetry_equiv_pos_site_id
 _symmetry_equiv_pos_as_xyz
  1  'x, y, z'
loop_
 _atom_site_type_symbol
 _atom_site_label
 _atom_site_symmetry_multiplicity
 _atom_site_fract_x
 _atom_site_fract_y
 _atom_site_fract_z
 _atom_site_occupancy
  Zr  Zr0  1  0.664740  0.331876  0.499277  1
  Zr  Zr1  1  0.335260  0.667137  0.499277  1
  Zr  Zr2  1  0.334978  0.666940  0.000744  1
  Zr  Zr3  1  0.665022  0.331961  0.000744  1
  Zr  Zr4  1  0.735632  0.737849  0.249038  1
  Zr  Zr5  1  0.264368  0.002217  0.249038  1
  Zr  Zr6  1  0.000000  0.263123  0.248779  1
  Zr  Zr7  1  0.262803  0.261866  0.751758  1
  Zr  Zr8  1  0.737197  0.999064  0.751758  1
  Zr  Zr9  1  0.000000  0.738440  0.750826  1
  Tl  Tl10  1  0.388467  0.389212  0.253951  1
  Tl  Tl11  1  0.611533  0.000745  0.253951  1
  Zn  Zn12  1  0.000000  0.001215  0.498977  1
  Pb  Pb13  1  0.000000  0.609768  0.254482  1
  Pb  Pb14  1  0.609831  0.609008  0.744865  1
  Pb  Pb15  1  0.390169  0.999176  0.744865  1
  Pb  Pb16  1  0.000000  0.390074  0.745979  1
  Se  Se17  1  0.000000  0.000328  0.001691  1
