# generated using pymatgen
data_Nd3Sm2Nb2Co16TcP12
_symmetry_space_group_name_H-M   'P 1'
_cell_length_a   12.29668500
_cell_length_b   12.29946688
_cell_length_c   3.74217100
_cell_angle_alpha   90.00000000
_cell_angle_beta   90.00000000
_cell_angle_gamma   119.99251565
_symmetry_Int_Tables_number   1
_chemical_formula_structural   Nd3Sm2Nb2Co16TcP12
_chemical_formula_sum   'Nd3 Sm2 Nb2 Co16 Tc1 P12'
_cell_volume   490.18649773
_cell_formula_units_Z   1
loop_
 _symmetry_equiv_pos_site_id
 _symmetry_equiv_pos_as_xyz
  1  'x, y, z'
loop_
 _atom_site_type_symbol
 _atom_site_label
 _atom_site_symmetry_multiplicity
 _atom_site_fract_x
 _atom_site_fract_y
 _atom_site_fract_z
 _atom_site_occupancy
  Nd  Nd0  1  0.813531  0.000000  0.500000  1
  Nd  Nd1  1  0.333787  0.668204  0.000000  1
  Nd  Nd2  1  0.665585  0.331796  0.000000  1
  Sm  Sm3  1  0.999903  0.815288  0.500000  1
  Sm  Sm4  1  0.184615  0.184712  0.500000  1
  Nb  Nb5  1  0.000659  0.443148  0.000000  1
  Nb  Nb6  1  0.557512  0.556852  0.000000  1
  Co  Co7  1  0.282533  0.000000  0.500000  1
  Co  Co8  1  0.000315  0.279882  0.500000  1
  Co  Co9  1  0.720434  0.720118  0.500000  1
  Co  Co10  1  0.623618  0.802624  0.000000  1
  Co  Co11  1  0.200466  0.826050  0.000000  1
  Co  Co12  1  0.177372  0.373692  0.000000  1
  Co  Co13  1  0.374416  0.173950  0.000000  1
  Co  Co14  1  0.803680  0.626308  0.000000  1
  Co  Co15  1  0.820994  0.197376  0.000000  1
  Co  Co16  1  0.517682  0.877239  0.500000  1
  Co  Co17  1  0.125986  0.647117  0.500000  1
  Co  Co18  1  0.355192  0.480241  0.500000  1
  Co  Co19  1  0.478871  0.352883  0.500000  1
  Co  Co20  1  0.874951  0.519759  0.500000  1
  Co  Co21  1  0.640443  0.122761  0.500000  1
  Co  Co22  1  0.001596  0.000000  0.000000  1
  Tc  Tc23  1  0.445528  0.000000  0.000000  1
  P  P24  1  0.180658  0.000000  0.000000  1
  P  P25  1  0.000532  0.180348  0.000000  1
  P  P26  1  0.820183  0.819652  0.000000  1
  P  P27  1  0.524128  0.690628  0.500000  1
  P  P28  1  0.313527  0.838462  0.500000  1
  P  P29  1  0.166408  0.476171  0.500000  1
  P  P30  1  0.475065  0.161538  0.500000  1
  P  P31  1  0.690237  0.523829  0.500000  1
  P  P32  1  0.833500  0.309372  0.500000  1
  P  P33  1  0.633907  0.000000  0.000000  1
  P  P34  1  0.001780  0.641377  0.000000  1
  P  P35  1  0.360403  0.358623  0.000000  1
