# generated using pymatgen
data_Tb11Tl9Au4
_symmetry_space_group_name_H-M   'P 1'
_cell_length_a   13.55196754
_cell_length_b   13.55196736
_cell_length_c   3.69617000
_cell_angle_alpha   90.00000000
_cell_angle_beta   90.00000000
_cell_angle_gamma   110.43267472
_symmetry_Int_Tables_number   1
_chemical_formula_structural   Tb11Tl9Au4
_chemical_formula_sum   'Tb11 Tl9 Au4'
_cell_volume   636.11365906
_cell_formula_units_Z   1
loop_
 _symmetry_equiv_pos_site_id
 _symmetry_equiv_pos_as_xyz
  1  'x, y, z'
loop_
 _atom_site_type_symbol
 _atom_site_label
 _atom_site_symmetry_multiplicity
 _atom_site_fract_x
 _atom_site_fract_y
 _atom_site_fract_z
 _atom_site_occupancy
  Tb  Tb0  1  0.414460  0.070265  0.000000  1
  Tb  Tb1  1  0.585540  0.929735  0.000000  1
  Tb  Tb2  1  0.070265  0.414460  0.000000  1
  Tb  Tb3  1  0.929735  0.585540  0.000000  1
  Tb  Tb4  1  0.162858  0.837142  0.000000  1
  Tb  Tb5  1  0.837142  0.162858  0.000000  1
  Tb  Tb6  1  0.365562  0.634438  0.000000  1
  Tb  Tb7  1  0.634438  0.365562  0.000000  1
  Tb  Tb8  1  0.303775  0.303775  0.000000  1
  Tb  Tb9  1  0.696225  0.696225  0.000000  1
  Tb  Tb10  1  0.000000  0.000000  0.000000  1
  Tl  Tl11  1  0.368617  0.851439  0.500000  1
  Tl  Tl12  1  0.631383  0.148561  0.500000  1
  Tl  Tl13  1  0.851439  0.368617  0.500000  1
  Tl  Tl14  1  0.148561  0.631383  0.500000  1
  Tl  Tl15  1  0.213194  0.063731  0.500000  1
  Tl  Tl16  1  0.786806  0.936269  0.500000  1
  Tl  Tl17  1  0.063731  0.213194  0.500000  1
  Tl  Tl18  1  0.936269  0.786806  0.500000  1
  Tl  Tl19  1  0.500000  0.500000  0.500000  1
  Au  Au20  1  0.453046  0.251623  0.500000  1
  Au  Au21  1  0.546954  0.748377  0.500000  1
  Au  Au22  1  0.251623  0.453046  0.500000  1
  Au  Au23  1  0.748377  0.546954  0.500000  1
