# generated using pymatgen
data_HoTc3P4Rh3
_symmetry_space_group_name_H-M   'P 1'
_cell_length_a   6.96628300
_cell_length_b   6.96628357
_cell_length_c   3.77790200
_cell_angle_alpha   90.00000000
_cell_angle_beta   90.00000000
_cell_angle_gamma   119.99999252
_symmetry_Int_Tables_number   1
_chemical_formula_structural   HoTc3P4Rh3
_chemical_formula_sum   'Ho1 Tc3 P4 Rh3'
_cell_volume   158.77554603
_cell_formula_units_Z   1
loop_
 _symmetry_equiv_pos_site_id
 _symmetry_equiv_pos_as_xyz
  1  'x, y, z'
loop_
 _atom_site_type_symbol
 _atom_site_label
 _atom_site_symmetry_multiplicity
 _atom_site_fract_x
 _atom_site_fract_y
 _atom_site_fract_z
 _atom_site_occupancy
  Ho  Ho0  1  0.333333  0.666667  0.000000  1
  Tc  Tc1  1  0.264677  0.132339  0.000000  1
  Tc  Tc2  1  0.867661  0.735323  0.000000  1
  Tc  Tc3  1  0.867661  0.132339  0.000000  1
  P  P4  1  0.666667  0.333333  0.000000  1
  P  P5  1  0.718106  0.859054  0.500000  1
  P  P6  1  0.140946  0.281894  0.500000  1
  P  P7  1  0.140946  0.859054  0.500000  1
  Rh  Rh8  1  0.943635  0.471817  0.500000  1
  Rh  Rh9  1  0.528183  0.056365  0.500000  1
  Rh  Rh10  1  0.528183  0.471817  0.500000  1
