# generated using pymatgen
data_ScIn3P12(Pb2O11)4
_symmetry_space_group_name_H-M   'P 1'
_cell_length_a   6.68115745
_cell_length_b   7.13846032
_cell_length_c   20.31374281
_cell_angle_alpha   90.11082448
_cell_angle_beta   99.59307393
_cell_angle_gamma   89.98066879
_symmetry_Int_Tables_number   1
_chemical_formula_structural   ScIn3P12(Pb2O11)4
_chemical_formula_sum   'Sc1 In3 P12 Pb8 O44'
_cell_volume   955.27725889
_cell_formula_units_Z   1
loop_
 _symmetry_equiv_pos_site_id
 _symmetry_equiv_pos_as_xyz
  1  'x, y, z'
loop_
 _atom_site_type_symbol
 _atom_site_label
 _atom_site_symmetry_multiplicity
 _atom_site_fract_x
 _atom_site_fract_y
 _atom_site_fract_z
 _atom_site_occupancy
  Sc  Sc0  1  0.946034  0.868538  0.121813  1
  In  In1  1  0.053860  0.367762  0.378739  1
  In  In2  1  0.945760  0.631755  0.620819  1
  In  In3  1  0.053940  0.132140  0.879478  1
  P  P4  1  0.181658  0.196549  0.046519  1
  P  P5  1  0.428570  0.859645  0.088935  1
  P  P6  1  0.818890  0.529294  0.226265  1
  P  P7  1  0.181449  0.028138  0.273242  1
  P  P8  1  0.570692  0.360890  0.410758  1
  P  P9  1  0.819937  0.699381  0.453879  1
  P  P10  1  0.179875  0.300198  0.545683  1
  P  P11  1  0.428968  0.638549  0.588799  1
  P  P12  1  0.819162  0.972067  0.726455  1
  P  P13  1  0.180736  0.471962  0.773717  1
  P  P14  1  0.570062  0.139770  0.910839  1
  P  P15  1  0.820610  0.802597  0.955156  1
  Pb  Pb16  1  0.666779  0.377095  0.076000  1
  Pb  Pb17  1  0.329297  0.518619  0.227155  1
  Pb  Pb18  1  0.669800  0.017667  0.271585  1
  Pb  Pb19  1  0.331022  0.875128  0.423650  1
  Pb  Pb20  1  0.669405  0.125584  0.576412  1
  Pb  Pb21  1  0.330466  0.981519  0.727780  1
  Pb  Pb22  1  0.669692  0.481314  0.772607  1
  Pb  Pb23  1  0.330401  0.626700  0.923639  1
  O  O24  1  0.893386  0.739343  0.027314  1
  O  O25  1  0.321996  0.014111  0.035239  1
  O  O26  1  0.468664  0.689127  0.047624  1
  O  O27  1  0.004307  0.125952  0.079673  1
  O  O28  1  0.317028  0.334159  0.090727  1
  O  O29  1  0.629685  0.946804  0.125218  1
  O  O30  1  0.272870  0.822761  0.135617  1
  O  O31  1  0.907686  0.604043  0.164003  1
  O  O32  1  0.690113  0.352942  0.202331  1
  O  O33  1  0.997936  0.979257  0.218441  1
  O  O34  1  0.320663  0.177337  0.250152  1
  O  O35  1  0.678927  0.673813  0.251931  1
  O  O36  1  0.008248  0.482173  0.279198  1
  O  O37  1  0.312966  0.853172  0.296547  1
  O  O38  1  0.086256  0.094341  0.335744  1
  O  O39  1  0.718699  0.318694  0.361795  1
  O  O40  1  0.373192  0.456078  0.375066  1
  O  O41  1  0.682743  0.835177  0.409914  1
  O  O42  1  0.001966  0.636354  0.421111  1
  O  O43  1  0.527222  0.192990  0.452247  1
  O  O44  1  0.686456  0.512122  0.464101  1
  O  O45  1  0.107222  0.227865  0.474357  1
  O  O46  1  0.892852  0.771479  0.525195  1
  O  O47  1  0.313191  0.487465  0.535389  1
  O  O48  1  0.472431  0.806649  0.547407  1
  O  O49  1  0.997612  0.363219  0.578345  1
  O  O50  1  0.316969  0.164637  0.589766  1
  O  O51  1  0.626443  0.543250  0.624457  1
  O  O52  1  0.280990  0.680310  0.637795  1
  O  O53  1  0.910420  0.905123  0.663226  1
  O  O54  1  0.689252  0.148267  0.703602  1
  O  O55  1  0.992050  0.517621  0.720384  1
  O  O56  1  0.319709  0.324040  0.749652  1
  O  O57  1  0.680305  0.824207  0.750389  1
  O  O58  1  0.007831  0.017705  0.779841  1
  O  O59  1  0.310911  0.648133  0.796600  1
  O  O60  1  0.089419  0.405166  0.836876  1
  O  O61  1  0.718575  0.181489  0.862040  1
  O  O62  1  0.373054  0.043835  0.874941  1
  O  O63  1  0.684256  0.664114  0.911995  1
  O  O64  1  0.002154  0.863801  0.921871  1
  O  O65  1  0.525191  0.308239  0.952102  1
  O  O66  1  0.685725  0.990050  0.964229  1
  O  O67  1  0.105363  0.269724  0.975629  1
