# generated using pymatgen
data_Tb2P7IrRh8W3
_symmetry_space_group_name_H-M   'P 1'
_cell_length_a   3.95399302
_cell_length_b   9.52715814
_cell_length_c   9.52276531
_cell_angle_alpha   119.90385729
_cell_angle_beta   89.99705986
_cell_angle_gamma   90.01137983
_symmetry_Int_Tables_number   1
_chemical_formula_structural   Tb2P7IrRh8W3
_chemical_formula_sum   'Tb2 P7 Ir1 Rh8 W3'
_cell_volume   310.96599841
_cell_formula_units_Z   1
loop_
 _symmetry_equiv_pos_site_id
 _symmetry_equiv_pos_as_xyz
  1  'x, y, z'
loop_
 _atom_site_type_symbol
 _atom_site_label
 _atom_site_symmetry_multiplicity
 _atom_site_fract_x
 _atom_site_fract_y
 _atom_site_fract_z
 _atom_site_occupancy
  Tb  Tb0  1  0.261943  0.666764  0.333267  1
  Tb  Tb1  1  0.761936  0.333291  0.666805  1
  P  P2  1  0.261882  0.001516  0.998207  1
  P  P3  1  0.761833  0.881139  0.593107  1
  P  P4  1  0.761899  0.408241  0.289249  1
  P  P5  1  0.761882  0.710670  0.119312  1
  P  P6  1  0.261899  0.119272  0.413430  1
  P  P7  1  0.261922  0.586349  0.704715  1
  P  P8  1  0.261912  0.293970  0.881200  1
  Ir  Ir9  1  0.261934  0.888151  0.158945  1
  Rh  Rh10  1  0.261874  0.839568  0.726560  1
  Rh  Rh11  1  0.261880  0.273980  0.113820  1
  Rh  Rh12  1  0.761911  0.613149  0.560583  1
  Rh  Rh13  1  0.761953  0.440147  0.053241  1
  Rh  Rh14  1  0.761886  0.944953  0.386306  1
  Rh  Rh15  1  0.261924  0.370327  0.437794  1
  Rh  Rh16  1  0.261920  0.561682  0.931530  1
  Rh  Rh17  1  0.261894  0.067367  0.629601  1
  W  W18  1  0.761906  0.090186  0.870884  1
  W  W19  1  0.761906  0.131062  0.221615  1
  W  W20  1  0.761903  0.778217  0.909830  1
