# generated using pymatgen
data_Yb5Y3Np4O24
_symmetry_space_group_name_H-M   'P 1'
_cell_length_a   5.49012317
_cell_length_b   7.81031938
_cell_length_c   11.79248155
_cell_angle_alpha   74.04382384
_cell_angle_beta   89.90795293
_cell_angle_gamma   90.11441400
_symmetry_Int_Tables_number   1
_chemical_formula_structural   Yb5Y3Np4O24
_chemical_formula_sum   'Yb5 Y3 Np4 O24'
_cell_volume   486.17304884
_cell_formula_units_Z   1
loop_
 _symmetry_equiv_pos_site_id
 _symmetry_equiv_pos_as_xyz
  1  'x, y, z'
loop_
 _atom_site_type_symbol
 _atom_site_label
 _atom_site_symmetry_multiplicity
 _atom_site_fract_x
 _atom_site_fract_y
 _atom_site_fract_z
 _atom_site_occupancy
  Yb  Yb0  1  0.188607  0.800746  0.079810  1
  Yb  Yb1  1  0.808855  0.798713  0.579626  1
  Yb  Yb2  1  0.812803  0.198730  0.919859  1
  Yb  Yb3  1  0.741875  0.998572  0.250327  1
  Yb  Yb4  1  0.258039  0.999103  0.750632  1
  Y  Y5  1  0.189063  0.200748  0.421011  1
  Y  Y6  1  0.688736  0.501046  0.251662  1
  Y  Y7  1  0.309804  0.501433  0.748350  1
  Np  Np8  1  0.252517  0.277998  0.112459  1
  Np  Np9  1  0.251877  0.724478  0.385452  1
  Np  Np10  1  0.748109  0.722141  0.886202  1
  Np  Np11  1  0.747291  0.276510  0.615364  1
  O  O12  1  0.455508  0.208921  0.269886  1
  O  O13  1  0.453399  0.788382  0.232909  1
  O  O14  1  0.542988  0.786702  0.733699  1
  O  O15  1  0.546446  0.209525  0.767638  1
  O  O16  1  0.047935  0.067825  0.104105  1
  O  O17  1  0.042693  0.942948  0.395235  1
  O  O18  1  0.955330  0.932442  0.896153  1
  O  O19  1  0.955068  0.065686  0.604025  1
  O  O20  1  0.978418  0.296772  0.230883  1
  O  O21  1  0.973324  0.707105  0.272765  1
  O  O22  1  0.020794  0.705249  0.769771  1
  O  O23  1  0.025688  0.295701  0.728143  1
  O  O24  1  0.874110  0.371816  0.445129  1
  O  O25  1  0.866181  0.624886  0.054670  1
  O  O26  1  0.131858  0.628915  0.551726  1
  O  O27  1  0.134563  0.376237  0.943892  1
  O  O28  1  0.613480  0.514713  0.610767  1
  O  O29  1  0.618098  0.482079  0.888993  1
  O  O30  1  0.385189  0.478414  0.387713  1
  O  O31  1  0.383588  0.516189  0.110070  1
  O  O32  1  0.465088  0.147352  0.566056  1
  O  O33  1  0.477417  0.851844  0.934864  1
  O  O34  1  0.527000  0.849878  0.433669  1
  O  O35  1  0.528260  0.150202  0.066487  1
