# generated using pymatgen
data_NaAc2(CePb2)2
_symmetry_space_group_name_H-M   'P 1'
_cell_length_a   8.60306800
_cell_length_b   8.65928800
_cell_length_c   16.58084100
_cell_angle_alpha   90.00000000
_cell_angle_beta   90.00000000
_cell_angle_gamma   90.00000000
_symmetry_Int_Tables_number   1
_chemical_formula_structural   NaAc2(CePb2)2
_chemical_formula_sum   'Na4 Ac8 Ce8 Pb16'
_cell_volume   1235.21368467
_cell_formula_units_Z   4
loop_
 _symmetry_equiv_pos_site_id
 _symmetry_equiv_pos_as_xyz
  1  'x, y, z'
loop_
 _atom_site_type_symbol
 _atom_site_label
 _atom_site_symmetry_multiplicity
 _atom_site_fract_x
 _atom_site_fract_y
 _atom_site_fract_z
 _atom_site_occupancy
  Na  Na0  1  0.202508  0.502819  0.750000  1
  Na  Na1  1  0.702508  0.997181  0.750000  1
  Na  Na2  1  0.797492  0.497181  0.250000  1
  Na  Na3  1  0.297492  0.002819  0.250000  1
  Ac  Ac4  1  0.510512  0.319750  0.902559  1
  Ac  Ac5  1  0.010512  0.180250  0.597441  1
  Ac  Ac6  1  0.489488  0.680250  0.402559  1
  Ac  Ac7  1  0.989488  0.819750  0.097441  1
  Ac  Ac8  1  0.489488  0.680250  0.097441  1
  Ac  Ac9  1  0.989488  0.819750  0.402559  1
  Ac  Ac10  1  0.510512  0.319750  0.597441  1
  Ac  Ac11  1  0.010512  0.180250  0.902559  1
  Ce  Ce12  1  0.368243  0.838680  0.878442  1
  Ce  Ce13  1  0.868243  0.661320  0.621558  1
  Ce  Ce14  1  0.631757  0.161320  0.378442  1
  Ce  Ce15  1  0.131757  0.338680  0.121558  1
  Ce  Ce16  1  0.631757  0.161320  0.121558  1
  Ce  Ce17  1  0.131757  0.338680  0.378442  1
  Ce  Ce18  1  0.368243  0.838680  0.621558  1
  Ce  Ce19  1  0.868243  0.661320  0.878442  1
  Pb  Pb20  1  0.301079  0.047695  0.040307  1
  Pb  Pb21  1  0.801079  0.452305  0.459693  1
  Pb  Pb22  1  0.698921  0.952305  0.540307  1
  Pb  Pb23  1  0.198921  0.547695  0.959693  1
  Pb  Pb24  1  0.698921  0.952305  0.959693  1
  Pb  Pb25  1  0.198921  0.547695  0.540307  1
  Pb  Pb26  1  0.301079  0.047695  0.459693  1
  Pb  Pb27  1  0.801079  0.452305  0.040307  1
  Pb  Pb28  1  0.565438  0.626116  0.750000  1
  Pb  Pb29  1  0.065438  0.873884  0.750000  1
  Pb  Pb30  1  0.434562  0.373884  0.250000  1
  Pb  Pb31  1  0.934562  0.126116  0.250000  1
  Pb  Pb32  1  0.318462  0.130295  0.750000  1
  Pb  Pb33  1  0.818462  0.369705  0.750000  1
  Pb  Pb34  1  0.681538  0.869705  0.250000  1
  Pb  Pb35  1  0.181538  0.630295  0.250000  1
