# generated using pymatgen
data_Ti5Al4Mo(AuC)2
_symmetry_space_group_name_H-M   'P 1'
_cell_length_a   8.29458597
_cell_length_b   8.31367423
_cell_length_c   8.29461125
_cell_angle_alpha   59.87944706
_cell_angle_beta   60.07614020
_cell_angle_gamma   59.88022595
_symmetry_Int_Tables_number   1
_chemical_formula_structural   Ti5Al4Mo(AuC)2
_chemical_formula_sum   'Ti10 Al8 Mo2 Au4 C4'
_cell_volume   403.94843922
_cell_formula_units_Z   2
loop_
 _symmetry_equiv_pos_site_id
 _symmetry_equiv_pos_as_xyz
  1  'x, y, z'
loop_
 _atom_site_type_symbol
 _atom_site_label
 _atom_site_symmetry_multiplicity
 _atom_site_fract_x
 _atom_site_fract_y
 _atom_site_fract_z
 _atom_site_occupancy
  Ti  Ti0  1  0.316276  0.683694  0.683401  1
  Ti  Ti1  1  0.682656  0.677901  0.321731  1
  Ti  Ti2  1  0.681213  0.322051  0.677388  1
  Ti  Ti3  1  0.319994  0.677871  0.320521  1
  Ti  Ti4  1  0.572613  0.927947  0.568792  1
  Ti  Ti5  1  0.573402  0.925943  0.929988  1
  Ti  Ti6  1  0.928265  0.572100  0.567352  1
  Ti  Ti7  1  0.929472  0.572131  0.930004  1
  Ti  Ti8  1  0.320010  0.324048  0.676602  1
  Ti  Ti9  1  0.566602  0.566307  0.933724  1
  Al  Al10  1  0.910607  0.262468  0.914943  1
  Al  Al11  1  0.336835  0.338706  0.988663  1
  Al  Al12  1  0.988074  0.333252  0.337060  1
  Al  Al13  1  0.340867  0.335448  0.334201  1
  Al  Al14  1  0.261339  0.911298  0.913160  1
  Al  Al15  1  0.915799  0.914552  0.909132  1
  Al  Al16  1  0.912934  0.916751  0.261928  1
  Al  Al17  1  0.335058  0.987541  0.339389  1
  Mo  Mo18  1  0.927649  0.924971  0.574304  1
  Mo  Mo19  1  0.675695  0.325028  0.322354  1
  Au  Au20  1  0.122474  0.625003  0.127523  1
  Au  Au21  1  0.126911  0.128449  0.624461  1
  Au  Au22  1  0.625539  0.121553  0.123091  1
  Au  Au23  1  0.130670  0.125004  0.119328  1
  C  C24  1  0.622687  0.124995  0.627315  1
  C  C25  1  0.625586  0.626648  0.122091  1
  C  C26  1  0.127902  0.623345  0.624423  1
  C  C27  1  0.622872  0.624995  0.627131  1
