# generated using pymatgen
data_Tm2Sn4Ir3
_symmetry_space_group_name_H-M   'P 1'
_cell_length_a   7.04592854
_cell_length_b   7.63471948
_cell_length_c   4.12648200
_cell_angle_alpha   90.00000000
_cell_angle_beta   90.00000000
_cell_angle_gamma   122.80506513
_symmetry_Int_Tables_number   1
_chemical_formula_structural   Tm2Sn4Ir3
_chemical_formula_sum   'Tm2 Sn4 Ir3'
_cell_volume   186.57723811
_cell_formula_units_Z   1
loop_
 _symmetry_equiv_pos_site_id
 _symmetry_equiv_pos_as_xyz
  1  'x, y, z'
loop_
 _atom_site_type_symbol
 _atom_site_label
 _atom_site_symmetry_multiplicity
 _atom_site_fract_x
 _atom_site_fract_y
 _atom_site_fract_z
 _atom_site_occupancy
  Tm  Tm0  1  0.585260  0.595962  0.500000  1
  Tm  Tm1  1  0.414740  0.010702  0.500000  1
  Sn  Sn2  1  0.000000  0.389617  0.500000  1
  Sn  Sn3  1  0.000000  0.766207  0.000000  1
  Sn  Sn4  1  0.280821  0.261505  0.000000  1
  Sn  Sn5  1  0.719179  0.980686  0.000000  1
  Ir  Ir6  1  0.286057  0.633258  0.000000  1
  Ir  Ir7  1  0.713943  0.347199  0.000000  1
  Ir  Ir8  1  0.000000  0.014864  0.500000  1
