# generated using pymatgen
data_LiHo2(Co3As2)3
_symmetry_space_group_name_H-M   'P 1'
_cell_length_a   3.80141300
_cell_length_b   10.67178700
_cell_length_c   12.24279400
_cell_angle_alpha   90.00000000
_cell_angle_beta   90.00000000
_cell_angle_gamma   90.00000000
_symmetry_Int_Tables_number   1
_chemical_formula_structural   LiHo2(Co3As2)3
_chemical_formula_sum   'Li2 Ho4 Co18 As12'
_cell_volume   496.66407341
_cell_formula_units_Z   2
loop_
 _symmetry_equiv_pos_site_id
 _symmetry_equiv_pos_as_xyz
  1  'x, y, z'
loop_
 _atom_site_type_symbol
 _atom_site_label
 _atom_site_symmetry_multiplicity
 _atom_site_fract_x
 _atom_site_fract_y
 _atom_site_fract_z
 _atom_site_occupancy
  Li  Li0  1  0.250000  0.700931  0.991109  1
  Li  Li1  1  0.250000  0.799069  0.491109  1
  Ho  Ho2  1  0.250000  0.577687  0.701077  1
  Ho  Ho3  1  0.250000  0.922313  0.201077  1
  Ho  Ho4  1  0.750000  0.421168  0.299019  1
  Ho  Ho5  1  0.750000  0.078832  0.799019  1
  Co  Co6  1  0.750000  0.292286  0.007833  1
  Co  Co7  1  0.750000  0.207714  0.507833  1
  Co  Co8  1  0.250000  0.404812  0.487260  1
  Co  Co9  1  0.250000  0.095188  0.987260  1
  Co  Co10  1  0.750000  0.589519  0.514819  1
  Co  Co11  1  0.750000  0.910481  0.014819  1
  Co  Co12  1  0.250000  0.218446  0.175750  1
  Co  Co13  1  0.250000  0.281554  0.675750  1
  Co  Co14  1  0.750000  0.785984  0.824394  1
  Co  Co15  1  0.750000  0.714016  0.324394  1
  Co  Co16  1  0.250000  0.882417  0.698262  1
  Co  Co17  1  0.250000  0.617583  0.198262  1
  Co  Co18  1  0.750000  0.119397  0.301621  1
  Co  Co19  1  0.750000  0.380603  0.801621  1
  Co  Co20  1  0.250000  0.465217  0.930978  1
  Co  Co21  1  0.250000  0.034783  0.430978  1
  Co  Co22  1  0.750000  0.531016  0.066917  1
  Co  Co23  1  0.750000  0.968984  0.566917  1
  As  As24  1  0.250000  0.418529  0.113977  1
  As  As25  1  0.250000  0.081471  0.613977  1
  As  As26  1  0.750000  0.581357  0.882939  1
  As  As27  1  0.750000  0.918643  0.382939  1
  As  As28  1  0.250000  0.266505  0.867459  1
  As  As29  1  0.250000  0.233495  0.367459  1
  As  As30  1  0.750000  0.731763  0.135228  1
  As  As31  1  0.750000  0.768237  0.635228  1
  As  As32  1  0.250000  0.601046  0.393142  1
  As  As33  1  0.250000  0.898954  0.893142  1
  As  As34  1  0.750000  0.396089  0.608216  1
  As  As35  1  0.750000  0.103911  0.108216  1
