# generated using pymatgen
data_TbGd3(Si3Ir)2
_symmetry_space_group_name_H-M   'P 1'
_cell_length_a   8.18005000
_cell_length_b   8.18005078
_cell_length_c   7.97554100
_cell_angle_alpha   90.00000000
_cell_angle_beta   90.00000000
_cell_angle_gamma   119.99999686
_symmetry_Int_Tables_number   1
_chemical_formula_structural   TbGd3(Si3Ir)2
_chemical_formula_sum   'Tb2 Gd6 Si12 Ir4'
_cell_volume   462.17106805
_cell_formula_units_Z   2
loop_
 _symmetry_equiv_pos_site_id
 _symmetry_equiv_pos_as_xyz
  1  'x, y, z'
loop_
 _atom_site_type_symbol
 _atom_site_label
 _atom_site_symmetry_multiplicity
 _atom_site_fract_x
 _atom_site_fract_y
 _atom_site_fract_z
 _atom_site_occupancy
  Tb  Tb0  1  0.000000  0.000000  0.250000  1
  Tb  Tb1  1  0.000000  0.000000  0.750000  1
  Gd  Gd2  1  0.509359  0.490641  0.250000  1
  Gd  Gd3  1  0.509359  0.018719  0.250000  1
  Gd  Gd4  1  0.981281  0.490641  0.250000  1
  Gd  Gd5  1  0.490641  0.509359  0.750000  1
  Gd  Gd6  1  0.490641  0.981281  0.750000  1
  Gd  Gd7  1  0.018719  0.509359  0.750000  1
  Si  Si8  1  0.166470  0.833530  0.499385  1
  Si  Si9  1  0.166470  0.332940  0.499385  1
  Si  Si10  1  0.667060  0.833530  0.499385  1
  Si  Si11  1  0.833530  0.166470  0.500615  1
  Si  Si12  1  0.833530  0.667060  0.500615  1
  Si  Si13  1  0.332940  0.166470  0.500615  1
  Si  Si14  1  0.833530  0.166470  0.999385  1
  Si  Si15  1  0.833530  0.667060  0.999385  1
  Si  Si16  1  0.332940  0.166470  0.999385  1
  Si  Si17  1  0.166470  0.833530  0.000615  1
  Si  Si18  1  0.166470  0.332940  0.000615  1
  Si  Si19  1  0.667060  0.833530  0.000615  1
  Ir  Ir20  1  0.333333  0.666667  0.468505  1
  Ir  Ir21  1  0.666667  0.333333  0.531495  1
  Ir  Ir22  1  0.666667  0.333333  0.968505  1
  Ir  Ir23  1  0.333333  0.666667  0.031495  1
