# generated using pymatgen
data_Pr4Nd6Sn20IrPd7
_symmetry_space_group_name_H-M   'P 1'
_cell_length_a   14.28560902
_cell_length_b   14.30565820
_cell_length_c   4.67022300
_cell_angle_alpha   90.00000000
_cell_angle_beta   90.00000000
_cell_angle_gamma   90.01299333
_symmetry_Int_Tables_number   1
_chemical_formula_structural   Pr4Nd6Sn20IrPd7
_chemical_formula_sum   'Pr4 Nd6 Sn20 Ir1 Pd7'
_cell_volume   954.43028522
_cell_formula_units_Z   1
loop_
 _symmetry_equiv_pos_site_id
 _symmetry_equiv_pos_as_xyz
  1  'x, y, z'
loop_
 _atom_site_type_symbol
 _atom_site_label
 _atom_site_symmetry_multiplicity
 _atom_site_fract_x
 _atom_site_fract_y
 _atom_site_fract_z
 _atom_site_occupancy
  Pr  Pr0  1  0.892355  0.393505  0.500000  1
  Pr  Pr1  1  0.105225  0.610788  0.500000  1
  Pr  Pr2  1  0.391546  0.108139  0.500000  1
  Pr  Pr3  1  0.609269  0.892082  0.500000  1
  Nd  Nd4  1  0.500226  0.498683  0.000000  1
  Nd  Nd5  1  0.999442  0.996052  0.000000  1
  Nd  Nd6  1  0.680242  0.179834  0.500000  1
  Nd  Nd7  1  0.319701  0.819061  0.500000  1
  Nd  Nd8  1  0.179739  0.320754  0.500000  1
  Nd  Nd9  1  0.822947  0.681743  0.500000  1
  Sn  Sn10  1  0.569002  0.068821  0.000000  1
  Sn  Sn11  1  0.429907  0.931098  0.000000  1
  Sn  Sn12  1  0.069296  0.432716  0.000000  1
  Sn  Sn13  1  0.930802  0.572181  0.000000  1
  Sn  Sn14  1  0.653161  0.700888  0.000000  1
  Sn  Sn15  1  0.347662  0.298407  0.000000  1
  Sn  Sn16  1  0.151516  0.796995  0.000000  1
  Sn  Sn17  1  0.848250  0.200580  0.000000  1
  Sn  Sn18  1  0.299240  0.652540  0.000000  1
  Sn  Sn19  1  0.701585  0.347060  0.000000  1
  Sn  Sn20  1  0.200257  0.151894  0.000000  1
  Sn  Sn21  1  0.800753  0.847353  0.000000  1
  Sn  Sn22  1  0.662875  0.501452  0.500000  1
  Sn  Sn23  1  0.336961  0.499887  0.500000  1
  Sn  Sn24  1  0.161307  0.996628  0.500000  1
  Sn  Sn25  1  0.837306  0.999831  0.500000  1
  Sn  Sn26  1  0.499787  0.662080  0.500000  1
  Sn  Sn27  1  0.501195  0.337732  0.500000  1
  Sn  Sn28  1  0.001379  0.162023  0.500000  1
  Sn  Sn29  1  0.996463  0.837152  0.500000  1
  Ir  Ir30  1  0.967625  0.756873  0.000000  1
  Pd  Pd31  1  0.745009  0.531109  0.000000  1
  Pd  Pd32  1  0.255930  0.467618  0.000000  1
  Pd  Pd33  1  0.243445  0.967739  0.000000  1
  Pd  Pd34  1  0.755488  0.031673  0.000000  1
  Pd  Pd35  1  0.468953  0.745436  0.000000  1
  Pd  Pd36  1  0.532314  0.255055  0.000000  1
  Pd  Pd37  1  0.031842  0.246538  0.000000  1
