# generated using pymatgen
data_TbHo5Mn3(Co5P4)3
_symmetry_space_group_name_H-M   'P 1'
_cell_length_a   3.69635500
_cell_length_b   10.55670200
_cell_length_c   12.14433600
_cell_angle_alpha   90.00000000
_cell_angle_beta   90.00000000
_cell_angle_gamma   90.00000000
_symmetry_Int_Tables_number   1
_chemical_formula_structural   TbHo5Mn3(Co5P4)3
_chemical_formula_sum   'Tb1 Ho5 Mn3 Co15 P12'
_cell_volume   473.88799964
_cell_formula_units_Z   1
loop_
 _symmetry_equiv_pos_site_id
 _symmetry_equiv_pos_as_xyz
  1  'x, y, z'
loop_
 _atom_site_type_symbol
 _atom_site_label
 _atom_site_symmetry_multiplicity
 _atom_site_fract_x
 _atom_site_fract_y
 _atom_site_fract_z
 _atom_site_occupancy
  Tb  Tb0  1  0.000000  0.500000  0.523820  1
  Ho  Ho1  1  0.500000  0.000000  0.477187  1
  Ho  Ho2  1  0.500000  0.818571  0.204740  1
  Ho  Ho3  1  0.500000  0.181429  0.204740  1
  Ho  Ho4  1  0.000000  0.680640  0.795964  1
  Ho  Ho5  1  0.000000  0.319360  0.795964  1
  Mn  Mn6  1  0.500000  0.500000  0.154322  1
  Mn  Mn7  1  0.000000  0.000000  0.841559  1
  Mn  Mn8  1  0.000000  0.500000  0.988705  1
  Co  Co9  1  0.500000  0.500000  0.700154  1
  Co  Co10  1  0.000000  0.000000  0.297879  1
  Co  Co11  1  0.500000  0.000000  0.013355  1
  Co  Co12  1  0.500000  0.330316  0.994184  1
  Co  Co13  1  0.500000  0.669684  0.994184  1
  Co  Co14  1  0.000000  0.165000  0.005101  1
  Co  Co15  1  0.000000  0.835000  0.005101  1
  Co  Co16  1  0.500000  0.295304  0.430509  1
  Co  Co17  1  0.500000  0.704696  0.430509  1
  Co  Co18  1  0.000000  0.202844  0.570089  1
  Co  Co19  1  0.000000  0.797156  0.570089  1
  Co  Co20  1  0.500000  0.879699  0.709515  1
  Co  Co21  1  0.500000  0.120301  0.709515  1
  Co  Co22  1  0.000000  0.621610  0.291417  1
  Co  Co23  1  0.000000  0.378390  0.291417  1
  P  P24  1  0.500000  0.500000  0.882537  1
  P  P25  1  0.000000  0.000000  0.117545  1
  P  P26  1  0.500000  0.500000  0.345802  1
  P  P27  1  0.000000  0.000000  0.654727  1
  P  P28  1  0.500000  0.309893  0.616913  1
  P  P29  1  0.500000  0.690107  0.616913  1
  P  P30  1  0.000000  0.188433  0.384019  1
  P  P31  1  0.000000  0.811567  0.384019  1
  P  P32  1  0.500000  0.847111  0.892529  1
  P  P33  1  0.500000  0.152889  0.892529  1
  P  P34  1  0.000000  0.655292  0.106224  1
  P  P35  1  0.000000  0.344708  0.106224  1
