# generated using pymatgen
data_DyHo(Re2Si)4
_symmetry_space_group_name_H-M   'P 1'
_cell_length_a   7.41176704
_cell_length_b   7.41176755
_cell_length_c   4.13432100
_cell_angle_alpha   90.00000000
_cell_angle_beta   90.00000000
_cell_angle_gamma   90.07568817
_symmetry_Int_Tables_number   1
_chemical_formula_structural   DyHo(Re2Si)4
_chemical_formula_sum   'Dy1 Ho1 Re8 Si4'
_cell_volume   227.11580867
_cell_formula_units_Z   1
loop_
 _symmetry_equiv_pos_site_id
 _symmetry_equiv_pos_as_xyz
  1  'x, y, z'
loop_
 _atom_site_type_symbol
 _atom_site_label
 _atom_site_symmetry_multiplicity
 _atom_site_fract_x
 _atom_site_fract_y
 _atom_site_fract_z
 _atom_site_occupancy
  Dy  Dy0  1  0.000000  0.000000  0.500000  1
  Ho  Ho1  1  0.500000  0.500000  0.000000  1
  Re  Re2  1  0.658225  0.905857  0.000000  1
  Re  Re3  1  0.158844  0.593495  0.500000  1
  Re  Re4  1  0.094143  0.341775  0.000000  1
  Re  Re5  1  0.905857  0.658225  0.000000  1
  Re  Re6  1  0.406505  0.841156  0.500000  1
  Re  Re7  1  0.593495  0.158844  0.500000  1
  Re  Re8  1  0.341775  0.094143  0.000000  1
  Re  Re9  1  0.841156  0.406505  0.500000  1
  Si  Si10  1  0.208942  0.791058  0.000000  1
  Si  Si11  1  0.791058  0.208942  0.000000  1
  Si  Si12  1  0.708406  0.708406  0.500000  1
  Si  Si13  1  0.291594  0.291594  0.500000  1
