# generated using pymatgen
data_Ta12Al8ZnRh3C4
_symmetry_space_group_name_H-M   'P 1'
_cell_length_a   8.33316338
_cell_length_b   8.32606771
_cell_length_c   8.33316300
_cell_angle_alpha   59.97180220
_cell_angle_beta   59.99999753
_cell_angle_gamma   59.97180302
_symmetry_Int_Tables_number   1
_chemical_formula_structural   Ta12Al8ZnRh3C4
_chemical_formula_sum   'Ta12 Al8 Zn1 Rh3 C4'
_cell_volume   408.65750255
_cell_formula_units_Z   1
loop_
 _symmetry_equiv_pos_site_id
 _symmetry_equiv_pos_as_xyz
  1  'x, y, z'
loop_
 _atom_site_type_symbol
 _atom_site_label
 _atom_site_symmetry_multiplicity
 _atom_site_fract_x
 _atom_site_fract_y
 _atom_site_fract_z
 _atom_site_occupancy
  Ta  Ta0  1  0.565766  0.934501  0.565766  1
  Ta  Ta1  1  0.316799  0.684664  0.681738  1
  Ta  Ta2  1  0.684234  0.315499  0.316033  1
  Ta  Ta3  1  0.316799  0.684664  0.316799  1
  Ta  Ta4  1  0.681738  0.684664  0.316799  1
  Ta  Ta5  1  0.316033  0.315499  0.684234  1
  Ta  Ta6  1  0.568262  0.565336  0.933201  1
  Ta  Ta7  1  0.933201  0.565336  0.568262  1
  Ta  Ta8  1  0.565766  0.934501  0.933967  1
  Ta  Ta9  1  0.933967  0.934501  0.565766  1
  Ta  Ta10  1  0.684234  0.315499  0.684234  1
  Ta  Ta11  1  0.933201  0.565336  0.933201  1
  Al  Al12  1  0.913798  0.920637  0.913798  1
  Al  Al13  1  0.998233  0.329363  0.336202  1
  Al  Al14  1  0.332985  0.001045  0.332985  1
  Al  Al15  1  0.336202  0.329363  0.998233  1
  Al  Al16  1  0.917015  0.248955  0.917015  1
  Al  Al17  1  0.913798  0.920637  0.251767  1
  Al  Al18  1  0.251767  0.920637  0.913798  1
  Al  Al19  1  0.336202  0.329363  0.336202  1
  Zn  Zn20  1  0.125000  0.625000  0.125000  1
  Rh  Rh21  1  0.125000  0.125000  0.125000  1
  Rh  Rh22  1  0.625000  0.125000  0.125000  1
  Rh  Rh23  1  0.125000  0.125000  0.625000  1
  C  C24  1  0.625000  0.625000  0.625000  1
  C  C25  1  0.125000  0.625000  0.625000  1
  C  C26  1  0.625000  0.125000  0.625000  1
  C  C27  1  0.625000  0.625000  0.125000  1
