# generated using pymatgen
data_Er2BeIr2
_symmetry_space_group_name_H-M   'P 1'
_cell_length_a   5.48230563
_cell_length_b   5.48230542
_cell_length_c   5.48230616
_cell_angle_alpha   140.10484159
_cell_angle_beta   116.00143498
_cell_angle_gamma   78.13460923
_symmetry_Int_Tables_number   1
_chemical_formula_structural   Er2BeIr2
_chemical_formula_sum   'Er2 Be1 Ir2'
_cell_volume   92.51202064
_cell_formula_units_Z   1
loop_
 _symmetry_equiv_pos_site_id
 _symmetry_equiv_pos_as_xyz
  1  'x, y, z'
loop_
 _atom_site_type_symbol
 _atom_site_label
 _atom_site_symmetry_multiplicity
 _atom_site_fract_x
 _atom_site_fract_y
 _atom_site_fract_z
 _atom_site_occupancy
  Er  Er0  1  0.698480  0.198480  0.500000  1
  Er  Er1  1  0.301521  0.801521  0.500001  1
  Be  Be2  1  0.000000  0.000000  0.000000  1
  Ir  Ir3  1  0.751979  0.500000  0.251979  1
  Ir  Ir4  1  0.248022  0.500001  0.748022  1
