# generated using pymatgen
data_Hf18MnRe8Os
_symmetry_space_group_name_H-M   'P 1'
_cell_length_a   8.59498200
_cell_length_b   8.59498134
_cell_length_c   8.54512700
_cell_angle_alpha   90.00000000
_cell_angle_beta   90.00000000
_cell_angle_gamma   120.00000252
_symmetry_Int_Tables_number   1
_chemical_formula_structural   Hf18MnRe8Os
_chemical_formula_sum   'Hf18 Mn1 Re8 Os1'
_cell_volume   546.68738466
_cell_formula_units_Z   1
loop_
 _symmetry_equiv_pos_site_id
 _symmetry_equiv_pos_as_xyz
  1  'x, y, z'
loop_
 _atom_site_type_symbol
 _atom_site_label
 _atom_site_symmetry_multiplicity
 _atom_site_fract_x
 _atom_site_fract_y
 _atom_site_fract_z
 _atom_site_occupancy
  Hf  Hf0  1  0.200662  0.799338  0.442478  1
  Hf  Hf1  1  0.200662  0.401322  0.442478  1
  Hf  Hf2  1  0.598678  0.799338  0.442478  1
  Hf  Hf3  1  0.803960  0.196040  0.552969  1
  Hf  Hf4  1  0.803960  0.607920  0.552969  1
  Hf  Hf5  1  0.392080  0.196040  0.552969  1
  Hf  Hf6  1  0.803960  0.196040  0.947031  1
  Hf  Hf7  1  0.803960  0.607920  0.947031  1
  Hf  Hf8  1  0.392080  0.196040  0.947031  1
  Hf  Hf9  1  0.200662  0.799338  0.057522  1
  Hf  Hf10  1  0.200662  0.401322  0.057522  1
  Hf  Hf11  1  0.598678  0.799338  0.057522  1
  Hf  Hf12  1  0.538832  0.461168  0.250000  1
  Hf  Hf13  1  0.538832  0.077666  0.250000  1
  Hf  Hf14  1  0.922334  0.461168  0.250000  1
  Hf  Hf15  1  0.459672  0.540328  0.750000  1
  Hf  Hf16  1  0.459672  0.919343  0.750000  1
  Hf  Hf17  1  0.080657  0.540328  0.750000  1
  Mn  Mn18  1  0.333333  0.666667  0.250000  1
  Re  Re19  1  0.889807  0.110193  0.250000  1
  Re  Re20  1  0.889807  0.779612  0.250000  1
  Re  Re21  1  0.220388  0.110193  0.250000  1
  Re  Re22  1  0.111236  0.888764  0.750000  1
  Re  Re23  1  0.111236  0.222472  0.750000  1
  Re  Re24  1  0.777528  0.888764  0.750000  1
  Re  Re25  1  0.000000  0.000000  0.500991  1
  Re  Re26  1  0.000000  0.000000  0.999009  1
  Os  Os27  1  0.666667  0.333333  0.750000  1
