# generated using pymatgen
data_NbGaB2Ru5W
_symmetry_space_group_name_H-M   'P 1'
_cell_length_a   9.36075890
_cell_length_b   9.36075890
_cell_length_c   2.94330300
_cell_angle_alpha   90.00000000
_cell_angle_beta   90.00000000
_cell_angle_gamma   89.87136424
_symmetry_Int_Tables_number   1
_chemical_formula_structural   NbGaB2Ru5W
_chemical_formula_sum   'Nb2 Ga2 B4 Ru10 W2'
_cell_volume   257.90276445
_cell_formula_units_Z   2
loop_
 _symmetry_equiv_pos_site_id
 _symmetry_equiv_pos_as_xyz
  1  'x, y, z'
loop_
 _atom_site_type_symbol
 _atom_site_label
 _atom_site_symmetry_multiplicity
 _atom_site_fract_x
 _atom_site_fract_y
 _atom_site_fract_z
 _atom_site_occupancy
  Nb  Nb0  1  0.321474  0.821474  0.000000  1
  Nb  Nb1  1  0.678526  0.178526  0.000000  1
  Ga  Ga2  1  0.500000  0.500000  0.000000  1
  Ga  Ga3  1  0.000000  0.000000  0.000000  1
  B  B4  1  0.623986  0.876014  0.000000  1
  B  B5  1  0.376014  0.123986  0.000000  1
  B  B6  1  0.125368  0.625368  0.000000  1
  B  B7  1  0.874632  0.374632  0.000000  1
  Ru  Ru8  1  0.573042  0.714105  0.500000  1
  Ru  Ru9  1  0.426958  0.285895  0.500000  1
  Ru  Ru10  1  0.062891  0.782054  0.500000  1
  Ru  Ru11  1  0.937109  0.217946  0.500000  1
  Ru  Ru12  1  0.282054  0.562891  0.500000  1
  Ru  Ru13  1  0.717946  0.437109  0.500000  1
  Ru  Ru14  1  0.214105  0.073042  0.500000  1
  Ru  Ru15  1  0.785895  0.926958  0.500000  1
  Ru  Ru16  1  0.500000  0.000000  0.500000  1
  Ru  Ru17  1  0.000000  0.500000  0.500000  1
  W  W18  1  0.821897  0.678103  0.000000  1
  W  W19  1  0.178103  0.321897  0.000000  1
