# generated using pymatgen
data_Ca3GaSiIr2
_symmetry_space_group_name_H-M   'P 1'
_cell_length_a   5.87940000
_cell_length_b   7.56714300
_cell_length_c   13.81259100
_cell_angle_alpha   90.00000000
_cell_angle_beta   90.00000000
_cell_angle_gamma   90.00000000
_symmetry_Int_Tables_number   1
_chemical_formula_structural   Ca3GaSiIr2
_chemical_formula_sum   'Ca12 Ga4 Si4 Ir8'
_cell_volume   614.52577252
_cell_formula_units_Z   4
loop_
 _symmetry_equiv_pos_site_id
 _symmetry_equiv_pos_as_xyz
  1  'x, y, z'
loop_
 _atom_site_type_symbol
 _atom_site_label
 _atom_site_symmetry_multiplicity
 _atom_site_fract_x
 _atom_site_fract_y
 _atom_site_fract_z
 _atom_site_occupancy
  Ca  Ca0  1  0.134522  0.606338  0.096748  1
  Ca  Ca1  1  0.134522  0.893662  0.903252  1
  Ca  Ca2  1  0.865478  0.106338  0.403252  1
  Ca  Ca3  1  0.865478  0.393662  0.596748  1
  Ca  Ca4  1  0.865478  0.393662  0.903252  1
  Ca  Ca5  1  0.865478  0.106338  0.096748  1
  Ca  Ca6  1  0.134522  0.893662  0.596748  1
  Ca  Ca7  1  0.134522  0.606338  0.403252  1
  Ca  Ca8  1  0.374928  0.265911  0.250000  1
  Ca  Ca9  1  0.374928  0.234089  0.750000  1
  Ca  Ca10  1  0.625072  0.765911  0.250000  1
  Ca  Ca11  1  0.625072  0.734089  0.750000  1
  Ga  Ga12  1  0.836528  0.415907  0.250000  1
  Ga  Ga13  1  0.836528  0.084093  0.750000  1
  Ga  Ga14  1  0.163472  0.915907  0.250000  1
  Ga  Ga15  1  0.163472  0.584093  0.750000  1
  Si  Si16  1  0.423673  0.250000  0.000000  1
  Si  Si17  1  0.576327  0.750000  0.500000  1
  Si  Si18  1  0.576327  0.750000  0.000000  1
  Si  Si19  1  0.423673  0.250000  0.500000  1
  Ir  Ir20  1  0.636173  0.477886  0.088549  1
  Ir  Ir21  1  0.636173  0.022114  0.911451  1
  Ir  Ir22  1  0.363827  0.977886  0.411451  1
  Ir  Ir23  1  0.363827  0.522114  0.588549  1
  Ir  Ir24  1  0.363827  0.522114  0.911451  1
  Ir  Ir25  1  0.363827  0.977886  0.088549  1
  Ir  Ir26  1  0.636173  0.022114  0.588549  1
  Ir  Ir27  1  0.636173  0.477886  0.411451  1
