# generated using pymatgen
data_Ho16TlCdInHgPd4
_symmetry_space_group_name_H-M   'P 1'
_cell_length_a   9.64819032
_cell_length_b   9.65491253
_cell_length_c   9.65491400
_cell_angle_alpha   60.03191522
_cell_angle_beta   60.01621703
_cell_angle_gamma   60.01620718
_symmetry_Int_Tables_number   1
_chemical_formula_structural   Ho16TlCdInHgPd4
_chemical_formula_sum   'Ho16 Tl1 Cd1 In1 Hg1 Pd4'
_cell_volume   636.26595977
_cell_formula_units_Z   1
loop_
 _symmetry_equiv_pos_site_id
 _symmetry_equiv_pos_as_xyz
  1  'x, y, z'
loop_
 _atom_site_type_symbol
 _atom_site_label
 _atom_site_symmetry_multiplicity
 _atom_site_fract_x
 _atom_site_fract_y
 _atom_site_fract_z
 _atom_site_occupancy
  Ho  Ho0  1  0.352327  0.351955  0.353722  1
  Ho  Ho1  1  0.355929  0.355044  0.935650  1
  Ho  Ho2  1  0.354965  0.936806  0.355498  1
  Ho  Ho3  1  0.934520  0.355097  0.356582  1
  Ho  Ho4  1  0.810825  0.189627  0.189660  1
  Ho  Ho5  1  0.189956  0.810471  0.810292  1
  Ho  Ho6  1  0.188337  0.811873  0.189410  1
  Ho  Ho7  1  0.810005  0.190949  0.810042  1
  Ho  Ho8  1  0.188337  0.189601  0.811855  1
  Ho  Ho9  1  0.809932  0.810102  0.191003  1
  Ho  Ho10  1  0.936049  0.567076  0.566290  1
  Ho  Ho11  1  0.563352  0.939847  0.933713  1
  Ho  Ho12  1  0.566209  0.937757  0.565971  1
  Ho  Ho13  1  0.938292  0.564069  0.934210  1
  Ho  Ho14  1  0.565778  0.566271  0.934463  1
  Ho  Ho15  1  0.935845  0.937233  0.563509  1
  Tl  Tl16  1  0.583305  0.584752  0.243967  1
  Cd  Cd17  1  0.251076  0.581137  0.582709  1
  In  In18  1  0.582308  0.582852  0.584025  1
  Hg  Hg19  1  0.584615  0.238131  0.587860  1
  Pd  Pd20  1  0.145273  0.145857  0.145373  1
  Pd  Pd21  1  0.143060  0.143619  0.566876  1
  Pd  Pd22  1  0.143062  0.566379  0.143739  1
  Pd  Pd23  1  0.566643  0.143493  0.143580  1
