# generated using pymatgen
data_Nd2SnGe3(PRh4)3
_symmetry_space_group_name_H-M   'P 1'
_cell_length_a   10.00912500
_cell_length_b   10.00912457
_cell_length_c   3.87812200
_cell_angle_alpha   90.00000000
_cell_angle_beta   90.00000000
_cell_angle_gamma   120.00001311
_symmetry_Int_Tables_number   1
_chemical_formula_structural   Nd2SnGe3(PRh4)3
_chemical_formula_sum   'Nd2 Sn1 Ge3 P3 Rh12'
_cell_volume   336.46837353
_cell_formula_units_Z   1
loop_
 _symmetry_equiv_pos_site_id
 _symmetry_equiv_pos_as_xyz
  1  'x, y, z'
loop_
 _atom_site_type_symbol
 _atom_site_label
 _atom_site_symmetry_multiplicity
 _atom_site_fract_x
 _atom_site_fract_y
 _atom_site_fract_z
 _atom_site_occupancy
  Nd  Nd0  1  0.333333  0.666667  0.741073  1
  Nd  Nd1  1  0.666667  0.333333  0.238283  1
  Sn  Sn2  1  0.000000  0.000000  0.709737  1
  Ge  Ge3  1  0.885772  0.598558  0.738880  1
  Ge  Ge4  1  0.401442  0.287213  0.738880  1
  Ge  Ge5  1  0.712787  0.114228  0.738880  1
  P  P6  1  0.108688  0.402285  0.240198  1
  P  P7  1  0.597715  0.706402  0.240198  1
  P  P8  1  0.293598  0.891312  0.240198  1
  Rh  Rh9  1  0.615500  0.558163  0.739313  1
  Rh  Rh10  1  0.441837  0.057339  0.739313  1
  Rh  Rh11  1  0.942661  0.384500  0.739313  1
  Rh  Rh12  1  0.384391  0.451124  0.240002  1
  Rh  Rh13  1  0.548876  0.933265  0.240002  1
  Rh  Rh14  1  0.066735  0.615609  0.240002  1
  Rh  Rh15  1  0.137677  0.841910  0.741361  1
  Rh  Rh16  1  0.158090  0.295768  0.741361  1
  Rh  Rh17  1  0.704232  0.862323  0.741361  1
  Rh  Rh18  1  0.891662  0.149410  0.237215  1
  Rh  Rh19  1  0.850590  0.742253  0.237215  1
  Rh  Rh20  1  0.257747  0.108338  0.237215  1
