# generated using pymatgen
data_Y6AlIn5Au6
_symmetry_space_group_name_H-M   'P 1'
_cell_length_a   7.76176922
_cell_length_b   7.71271376
_cell_length_c   7.96533599
_cell_angle_alpha   90.00000018
_cell_angle_beta   89.96949995
_cell_angle_gamma   119.79115846
_symmetry_Int_Tables_number   1
_chemical_formula_structural   Y6AlIn5Au6
_chemical_formula_sum   'Y6 Al1 In5 Au6'
_cell_volume   413.82115471
_cell_formula_units_Z   1
loop_
 _symmetry_equiv_pos_site_id
 _symmetry_equiv_pos_as_xyz
  1  'x, y, z'
loop_
 _atom_site_type_symbol
 _atom_site_label
 _atom_site_symmetry_multiplicity
 _atom_site_fract_x
 _atom_site_fract_y
 _atom_site_fract_z
 _atom_site_occupancy
  Y  Y0  1  0.593221  0.995979  0.749977  1
  Y  Y1  1  0.004335  0.595005  0.747671  1
  Y  Y2  1  0.402857  0.406378  0.749273  1
  Y  Y3  1  0.995665  0.590671  0.252329  1
  Y  Y4  1  0.597143  0.003521  0.250727  1
  Y  Y5  1  0.406779  0.402759  0.250023  1
  Al  Al6  1  0.000000  0.254866  0.500000  1
  In  In7  1  0.746011  0.744517  0.999863  1
  In  In8  1  0.253989  0.998506  0.000137  1
  In  In9  1  0.000000  0.261965  0.000000  1
  In  In10  1  0.736209  0.738368  0.500108  1
  In  In11  1  0.263791  0.002160  0.499892  1
  Au  Au12  1  0.000146  0.013278  0.740944  1
  Au  Au13  1  0.999854  0.013132  0.259056  1
  Au  Au14  1  0.665024  0.332499  0.993142  1
  Au  Au15  1  0.680266  0.329593  0.506308  1
  Au  Au16  1  0.319734  0.649328  0.493692  1
  Au  Au17  1  0.334976  0.667475  0.006858  1
