# generated using pymatgen
data_Tb16CdNi4Ag2Hg
_symmetry_space_group_name_H-M   'P 1'
_cell_length_a   9.52430646
_cell_length_b   9.53088679
_cell_length_c   9.50370200
_cell_angle_alpha   60.09430799
_cell_angle_beta   60.07153747
_cell_angle_gamma   60.07207367
_symmetry_Int_Tables_number   1
_chemical_formula_structural   Tb16CdNi4Ag2Hg
_chemical_formula_sum   'Tb16 Cd1 Ni4 Ag2 Hg1'
_cell_volume   611.11682591
_cell_formula_units_Z   1
loop_
 _symmetry_equiv_pos_site_id
 _symmetry_equiv_pos_as_xyz
  1  'x, y, z'
loop_
 _atom_site_type_symbol
 _atom_site_label
 _atom_site_symmetry_multiplicity
 _atom_site_fract_x
 _atom_site_fract_y
 _atom_site_fract_z
 _atom_site_occupancy
  Tb  Tb0  1  0.349038  0.348816  0.348625  1
  Tb  Tb1  1  0.349038  0.348816  0.953523  1
  Tb  Tb2  1  0.351445  0.949126  0.349714  1
  Tb  Tb3  1  0.946706  0.351843  0.350726  1
  Tb  Tb4  1  0.811189  0.189640  0.190164  1
  Tb  Tb5  1  0.188526  0.812236  0.809864  1
  Tb  Tb6  1  0.188526  0.812236  0.189373  1
  Tb  Tb7  1  0.811189  0.189640  0.809006  1
  Tb  Tb8  1  0.190063  0.190694  0.809621  1
  Tb  Tb9  1  0.812080  0.812256  0.187832  1
  Tb  Tb10  1  0.933156  0.564118  0.564718  1
  Tb  Tb11  1  0.563078  0.934263  0.938093  1
  Tb  Tb12  1  0.563078  0.934263  0.564565  1
  Tb  Tb13  1  0.933156  0.564118  0.938007  1
  Tb  Tb14  1  0.562894  0.563578  0.936764  1
  Tb  Tb15  1  0.935309  0.936719  0.563986  1
  Cd  Cd16  1  0.260151  0.581509  0.579170  1
  Ni  Ni17  1  0.142860  0.142962  0.144108  1
  Ni  Ni18  1  0.142860  0.142962  0.570069  1
  Ni  Ni19  1  0.141342  0.572296  0.143181  1
  Ni  Ni20  1  0.572303  0.141631  0.143033  1
  Ag  Ag21  1  0.583037  0.584843  0.581604  1
  Ag  Ag22  1  0.583037  0.584843  0.250517  1
  Hg  Hg23  1  0.585938  0.246589  0.583736  1
