# generated using pymatgen
data_Nb6Cu3NiS12
_symmetry_space_group_name_H-M   'P 1'
_cell_length_a   3.37374601
_cell_length_b   8.90699127
_cell_length_c   13.08689561
_cell_angle_alpha   89.89613292
_cell_angle_beta   90.00634161
_cell_angle_gamma   79.04223360
_symmetry_Int_Tables_number   1
_chemical_formula_structural   Nb6Cu3NiS12
_chemical_formula_sum   'Nb6 Cu3 Ni1 S12'
_cell_volume   386.08947988
_cell_formula_units_Z   1
loop_
 _symmetry_equiv_pos_site_id
 _symmetry_equiv_pos_as_xyz
  1  'x, y, z'
loop_
 _atom_site_type_symbol
 _atom_site_label
 _atom_site_symmetry_multiplicity
 _atom_site_fract_x
 _atom_site_fract_y
 _atom_site_fract_z
 _atom_site_occupancy
  Nb  Nb0  1  0.446640  0.107439  0.252930  1
  Nb  Nb1  1  0.775550  0.447854  0.251775  1
  Nb  Nb2  1  0.111207  0.778118  0.250674  1
  Nb  Nb3  1  0.887726  0.223733  0.750774  1
  Nb  Nb4  1  0.223238  0.555890  0.748347  1
  Nb  Nb5  1  0.557784  0.886069  0.749203  1
  Cu  Cu6  1  0.445657  0.109118  0.037749  1
  Cu  Cu7  1  0.219949  0.559730  0.962637  1
  Cu  Cu8  1  0.887629  0.224485  0.537715  1
  Ni  Ni9  1  0.112137  0.775734  0.457850  1
  S  S10  1  0.446429  0.106390  0.629997  1
  S  S11  1  0.774512  0.450016  0.628662  1
  S  S12  1  0.110296  0.779594  0.626674  1
  S  S13  1  0.889095  0.221691  0.369613  1
  S  S14  1  0.222342  0.554912  0.371397  1
  S  S15  1  0.554534  0.889511  0.374141  1
  S  S16  1  0.886814  0.226740  0.130575  1
  S  S17  1  0.223349  0.554250  0.131050  1
  S  S18  1  0.558386  0.883933  0.129290  1
  S  S19  1  0.444559  0.109995  0.868934  1
  S  S20  1  0.780154  0.439613  0.871214  1
  S  S21  1  0.108682  0.781851  0.868794  1
