# generated using pymatgen
data_YbPr6(SiSe7)2
_symmetry_space_group_name_H-M   'P 1'
_cell_length_a   10.82756700
_cell_length_b   10.82756681
_cell_length_c   6.05158000
_cell_angle_alpha   90.00000000
_cell_angle_beta   90.00000000
_cell_angle_gamma   120.00000974
_symmetry_Int_Tables_number   1
_chemical_formula_structural   YbPr6(SiSe7)2
_chemical_formula_sum   'Yb1 Pr6 Si2 Se14'
_cell_volume   614.41402413
_cell_formula_units_Z   1
loop_
 _symmetry_equiv_pos_site_id
 _symmetry_equiv_pos_as_xyz
  1  'x, y, z'
loop_
 _atom_site_type_symbol
 _atom_site_label
 _atom_site_symmetry_multiplicity
 _atom_site_fract_x
 _atom_site_fract_y
 _atom_site_fract_z
 _atom_site_occupancy
  Yb  Yb0  1  0.666667  0.333333  0.520011  1
  Pr  Pr1  1  0.305720  0.102933  0.756291  1
  Pr  Pr2  1  0.797214  0.694280  0.756291  1
  Pr  Pr3  1  0.897067  0.202786  0.756291  1
  Pr  Pr4  1  0.026534  0.562968  0.248662  1
  Pr  Pr5  1  0.536433  0.973466  0.248662  1
  Pr  Pr6  1  0.437032  0.463567  0.248662  1
  Si  Si7  1  0.000000  0.000000  0.165977  1
  Si  Si8  1  0.333333  0.666667  0.661776  1
  Se  Se9  1  0.000000  0.000000  0.540757  1
  Se  Se10  1  0.333333  0.666667  0.037294  1
  Se  Se11  1  0.144178  0.224621  0.018764  1
  Se  Se12  1  0.080443  0.855822  0.018764  1
  Se  Se13  1  0.775379  0.919557  0.018764  1
  Se  Se14  1  0.188847  0.441933  0.515417  1
  Se  Se15  1  0.253086  0.811153  0.515417  1
  Se  Se16  1  0.558067  0.746914  0.515417  1
  Se  Se17  1  0.408495  0.168876  0.272648  1
  Se  Se18  1  0.760382  0.591505  0.272648  1
  Se  Se19  1  0.831124  0.239618  0.272648  1
  Se  Se20  1  0.923996  0.498666  0.767628  1
  Se  Se21  1  0.574670  0.076004  0.767628  1
  Se  Se22  1  0.501334  0.425330  0.767628  1
