# generated using pymatgen
data_TeNF34
_symmetry_space_group_name_H-M   'P 1'
_cell_length_a   8.73298918
_cell_length_b   7.81498642
_cell_length_c   10.64674735
_cell_angle_alpha   79.63170023
_cell_angle_beta   88.78571397
_cell_angle_gamma   69.81102336
_symmetry_Int_Tables_number   1
_chemical_formula_structural   TeNF34
_chemical_formula_sum   'Te1 N1 F34'
_cell_volume   670.18208810
_cell_formula_units_Z   1
loop_
 _symmetry_equiv_pos_site_id
 _symmetry_equiv_pos_as_xyz
  1  'x, y, z'
loop_
 _atom_site_type_symbol
 _atom_site_label
 _atom_site_symmetry_multiplicity
 _atom_site_fract_x
 _atom_site_fract_y
 _atom_site_fract_z
 _atom_site_occupancy
  Te  Te0  1  0.868209  0.244757  0.764698  1
  N  N1  1  0.163435  0.728199  0.184486  1
  F  F2  1  0.619705  0.221082  0.468920  1
  F  F3  1  0.346868  0.783756  0.557920  1
  F  F4  1  0.767937  0.780054  0.687223  1
  F  F5  1  0.227341  0.276700  0.275644  1
  F  F6  1  0.105085  0.690788  0.860384  1
  F  F7  1  0.884277  0.290493  0.123022  1
  F  F8  1  0.560206  0.142852  0.377751  1
  F  F9  1  0.498535  0.803311  0.595654  1
  F  F10  1  0.651917  0.326178  0.702939  1
  F  F11  1  0.273057  0.685439  0.280132  1
  F  F12  1  0.926777  0.057245  0.669611  1
  F  F13  1  0.018256  0.986473  0.386420  1
  F  F14  1  0.917957  0.399633  0.629204  1
  F  F15  1  0.111602  0.738232  0.486811  1
  F  F16  1  0.906488  0.760541  0.601918  1
  F  F17  1  0.133530  0.131306  0.335191  1
  F  F18  1  0.813233  0.431485  0.862411  1
  F  F19  1  0.203386  0.589629  0.117334  1
  F  F20  1  0.218054  0.711101  0.764248  1
  F  F21  1  0.781883  0.290130  0.228881  1
  F  F22  1  0.014596  0.753025  0.228039  1
  F  F23  1  0.082050  0.161801  0.834669  1
  F  F24  1  0.820248  0.086277  0.901751  1
  F  F25  1  0.163102  0.884699  0.106598  1
  F  F26  1  0.502469  0.601230  0.990725  1
  F  F27  1  0.503313  0.415568  0.005096  1
  F  F28  1  0.428469  0.114149  0.868462  1
  F  F29  1  0.521482  0.926219  0.129030  1
  F  F30  1  0.291362  0.240931  0.592639  1
  F  F31  1  0.717398  0.747905  0.374233  1
  F  F32  1  0.272464  0.399533  0.648309  1
  F  F33  1  0.744972  0.587764  0.317501  1
  F  F34  1  0.536422  0.934245  0.856296  1
  F  F35  1  0.403914  0.077267  0.185851  1
