# generated using pymatgen
data_Dy5ErRh18
_symmetry_space_group_name_H-M   'P 1'
_cell_length_a   5.26110300
_cell_length_b   5.26110288
_cell_length_c   17.57504100
_cell_angle_alpha   90.00000000
_cell_angle_beta   90.00000000
_cell_angle_gamma   119.99999447
_symmetry_Int_Tables_number   1
_chemical_formula_structural   Dy5ErRh18
_chemical_formula_sum   'Dy5 Er1 Rh18'
_cell_volume   421.28946740
_cell_formula_units_Z   1
loop_
 _symmetry_equiv_pos_site_id
 _symmetry_equiv_pos_as_xyz
  1  'x, y, z'
loop_
 _atom_site_type_symbol
 _atom_site_label
 _atom_site_symmetry_multiplicity
 _atom_site_fract_x
 _atom_site_fract_y
 _atom_site_fract_z
 _atom_site_occupancy
  Dy  Dy0  1  0.333333  0.666666  0.041723  1
  Dy  Dy1  1  0.333333  0.666666  0.249990  1
  Dy  Dy2  1  0.333333  0.666666  0.458151  1
  Dy  Dy3  1  0.666667  0.333334  0.541852  1
  Dy  Dy4  1  0.666667  0.333334  0.750069  1
  Er  Er5  1  0.666667  0.333334  0.958068  1
  Rh  Rh6  1  0.000000  0.000000  0.999912  1
  Rh  Rh7  1  0.334660  0.167331  0.125482  1
  Rh  Rh8  1  0.832668  0.167331  0.125482  1
  Rh  Rh9  1  0.832669  0.665340  0.125482  1
  Rh  Rh10  1  0.000000  0.000000  0.249946  1
  Rh  Rh11  1  0.666667  0.333334  0.249994  1
  Rh  Rh12  1  0.334551  0.167276  0.374442  1
  Rh  Rh13  1  0.832723  0.167276  0.374442  1
  Rh  Rh14  1  0.832724  0.665449  0.374442  1
  Rh  Rh15  1  0.000000  0.000000  0.499986  1
  Rh  Rh16  1  0.167271  0.334540  0.625557  1
  Rh  Rh17  1  0.167272  0.832729  0.625557  1
  Rh  Rh18  1  0.665460  0.832729  0.625557  1
  Rh  Rh19  1  0.000000  0.000000  0.750019  1
  Rh  Rh20  1  0.333333  0.666666  0.750022  1
  Rh  Rh21  1  0.167302  0.334604  0.874609  1
  Rh  Rh22  1  0.167303  0.832698  0.874609  1
  Rh  Rh23  1  0.665396  0.832698  0.874609  1
