# generated using pymatgen
data_Tb5SmCd23P
_symmetry_space_group_name_H-M   'P 1'
_cell_length_a   9.96121205
_cell_length_b   9.94082309
_cell_length_c   9.94082200
_cell_angle_alpha   60.13573956
_cell_angle_beta   59.93213189
_cell_angle_gamma   59.93212965
_symmetry_Int_Tables_number   1
_chemical_formula_structural   Tb5SmCd23P
_chemical_formula_sum   'Tb5 Sm1 Cd23 P1'
_cell_volume   696.04636850
_cell_formula_units_Z   1
loop_
 _symmetry_equiv_pos_site_id
 _symmetry_equiv_pos_as_xyz
  1  'x, y, z'
loop_
 _atom_site_type_symbol
 _atom_site_label
 _atom_site_symmetry_multiplicity
 _atom_site_fract_x
 _atom_site_fract_y
 _atom_site_fract_z
 _atom_site_occupancy
  Tb  Tb0  1  0.802189  0.802386  0.197811  1
  Tb  Tb1  1  0.197614  0.802386  0.197811  1
  Tb  Tb2  1  0.800872  0.199128  0.199128  1
  Tb  Tb3  1  0.197614  0.197811  0.802386  1
  Tb  Tb4  1  0.802189  0.197811  0.802386  1
  Sm  Sm5  1  0.200981  0.799019  0.799019  1
  Cd  Cd6  1  0.836199  0.837457  0.490145  1
  Cd  Cd7  1  0.836199  0.490145  0.837457  1
  Cd  Cd8  1  0.492440  0.835986  0.835986  1
  Cd  Cd9  1  0.835587  0.835986  0.835986  1
  Cd  Cd10  1  0.164014  0.164413  0.507560  1
  Cd  Cd11  1  0.164014  0.507560  0.164413  1
  Cd  Cd12  1  0.509855  0.163801  0.163801  1
  Cd  Cd13  1  0.162543  0.163801  0.163801  1
  Cd  Cd14  1  0.620953  0.621775  0.136321  1
  Cd  Cd15  1  0.620953  0.136321  0.621775  1
  Cd  Cd16  1  0.134818  0.620715  0.620715  1
  Cd  Cd17  1  0.623754  0.620715  0.620715  1
  Cd  Cd18  1  0.379285  0.376246  0.865182  1
  Cd  Cd19  1  0.379285  0.865182  0.376246  1
  Cd  Cd20  1  0.863679  0.379047  0.379047  1
  Cd  Cd21  1  0.378225  0.379047  0.379047  1
  Cd  Cd22  1  0.999850  0.000150  0.500043  1
  Cd  Cd23  1  0.499957  0.000150  0.500043  1
  Cd  Cd24  1  0.999616  0.500384  0.500384  1
  Cd  Cd25  1  0.499957  0.500043  0.000150  1
  Cd  Cd26  1  0.999850  0.500043  0.000150  1
  Cd  Cd27  1  0.499616  0.000384  0.000384  1
  Cd  Cd28  1  0.499140  0.500860  0.500860  1
  P  P29  1  0.998755  0.001245  0.001245  1
