# generated using pymatgen
data_Tb6YVO12
_symmetry_space_group_name_H-M   'P 1'
_cell_length_a   6.67716719
_cell_length_b   6.67716906
_cell_length_c   6.67716730
_cell_angle_alpha   93.48494973
_cell_angle_beta   93.48495409
_cell_angle_gamma   93.48495798
_symmetry_Int_Tables_number   1
_chemical_formula_structural   Tb6YVO12
_chemical_formula_sum   'Tb6 Y1 V1 O12'
_cell_volume   295.97682662
_cell_formula_units_Z   1
loop_
 _symmetry_equiv_pos_site_id
 _symmetry_equiv_pos_as_xyz
  1  'x, y, z'
loop_
 _atom_site_type_symbol
 _atom_site_label
 _atom_site_symmetry_multiplicity
 _atom_site_fract_x
 _atom_site_fract_y
 _atom_site_fract_z
 _atom_site_occupancy
  Tb  Tb0  1  0.738516  0.923690  0.435289  1
  Tb  Tb1  1  0.435289  0.738516  0.923690  1
  Tb  Tb2  1  0.076310  0.564711  0.261484  1
  Tb  Tb3  1  0.923690  0.435289  0.738516  1
  Tb  Tb4  1  0.564711  0.261484  0.076310  1
  Tb  Tb5  1  0.261484  0.076310  0.564711  1
  Y  Y6  1  0.000000  0.000000  0.000000  1
  V  V7  1  0.500000  0.500000  0.500000  1
  O  O8  1  0.066856  0.907699  0.318649  1
  O  O9  1  0.681351  0.933144  0.092301  1
  O  O10  1  0.461359  0.799016  0.588069  1
  O  O11  1  0.092301  0.681351  0.933144  1
  O  O12  1  0.799016  0.588069  0.461359  1
  O  O13  1  0.411931  0.538641  0.200984  1
  O  O14  1  0.588069  0.461359  0.799016  1
  O  O15  1  0.200984  0.411931  0.538641  1
  O  O16  1  0.907699  0.318649  0.066856  1
  O  O17  1  0.538641  0.200984  0.411931  1
  O  O18  1  0.318649  0.066856  0.907699  1
  O  O19  1  0.933144  0.092301  0.681351  1
