# generated using pymatgen
data_Nd3DyAl24Pt8Au
_symmetry_space_group_name_H-M   'P 1'
_cell_length_a   7.59032248
_cell_length_b   7.61290313
_cell_length_c   13.26671058
_cell_angle_alpha   84.53428586
_cell_angle_beta   79.02464775
_cell_angle_gamma   59.90204931
_symmetry_Int_Tables_number   1
_chemical_formula_structural   Nd3DyAl24Pt8Au
_chemical_formula_sum   'Nd3 Dy1 Al24 Pt8 Au1'
_cell_volume   651.11507500
_cell_formula_units_Z   1
loop_
 _symmetry_equiv_pos_site_id
 _symmetry_equiv_pos_as_xyz
  1  'x, y, z'
loop_
 _atom_site_type_symbol
 _atom_site_label
 _atom_site_symmetry_multiplicity
 _atom_site_fract_x
 _atom_site_fract_y
 _atom_site_fract_z
 _atom_site_occupancy
  Nd  Nd0  1  0.392295  0.169439  0.809340  1
  Nd  Nd1  1  0.606200  0.832007  0.191648  1
  Nd  Nd2  1  0.734259  0.498535  0.809314  1
  Dy  Dy3  1  0.266512  0.501173  0.192265  1
  Al  Al4  1  0.684512  0.834325  0.947053  1
  Al  Al5  1  0.313846  0.167901  0.055977  1
  Al  Al6  1  0.147005  0.838992  0.558832  1
  Al  Al7  1  0.854390  0.167005  0.436577  1
  Al  Al8  1  0.488712  0.159570  0.556722  1
  Al  Al9  1  0.519769  0.833597  0.439894  1
  Al  Al10  1  0.216463  0.166110  0.330642  1
  Al  Al11  1  0.779604  0.838905  0.669848  1
  Al  Al12  1  0.440678  0.507877  0.670114  1
  Al  Al13  1  0.562252  0.492810  0.330229  1
  Al  Al14  1  0.109979  0.153253  0.668863  1
  Al  Al15  1  0.890690  0.839760  0.331556  1
  Al  Al16  1  0.350554  0.500878  0.948128  1
  Al  Al17  1  0.647263  0.498990  0.056068  1
  Al  Al18  1  0.014164  0.166017  0.957228  1
  Al  Al19  1  0.985986  0.832505  0.046413  1
  Al  Al20  1  0.188114  0.499714  0.436150  1
  Al  Al21  1  0.806970  0.499782  0.556645  1
  Al  Al22  1  0.733464  0.166255  0.184120  1
  Al  Al23  1  0.265466  0.835384  0.816314  1
  Al  Al24  1  0.060857  0.634866  0.817966  1
  Al  Al25  1  0.940574  0.367053  0.185529  1
  Al  Al26  1  0.856152  0.040531  0.815815  1
  Al  Al27  1  0.142275  0.957748  0.184342  1
  Pt  Pt28  1  0.879903  0.507143  0.362030  1
  Pt  Pt29  1  0.657814  0.171046  0.000094  1
  Pt  Pt30  1  0.341950  0.828865  0.000299  1
  Pt  Pt31  1  0.537827  0.167367  0.362142  1
  Pt  Pt32  1  0.461895  0.833192  0.636206  1
  Pt  Pt33  1  0.780958  0.173802  0.635078  1
  Pt  Pt34  1  0.219993  0.825287  0.362982  1
  Pt  Pt35  1  0.999660  0.500249  0.000968  1
  Au  Au36  1  0.120996  0.492072  0.636610  1
