# generated using pymatgen
data_LaNd3(CuPt)2
_symmetry_space_group_name_H-M   'P 1'
_cell_length_a   4.54801800
_cell_length_b   5.75156159
_cell_length_c   7.45925699
_cell_angle_alpha   90.18984237
_cell_angle_beta   90.00000000
_cell_angle_gamma   90.00000000
_symmetry_Int_Tables_number   1
_chemical_formula_structural   LaNd3(CuPt)2
_chemical_formula_sum   'La1 Nd3 Cu2 Pt2'
_cell_volume   195.11970716
_cell_formula_units_Z   1
loop_
 _symmetry_equiv_pos_site_id
 _symmetry_equiv_pos_as_xyz
  1  'x, y, z'
loop_
 _atom_site_type_symbol
 _atom_site_label
 _atom_site_symmetry_multiplicity
 _atom_site_fract_x
 _atom_site_fract_y
 _atom_site_fract_z
 _atom_site_occupancy
  La  La0  1  0.500000  0.608745  0.815586  1
  Nd  Nd1  1  0.000000  0.118780  0.681505  1
  Nd  Nd2  1  0.000000  0.883341  0.185491  1
  Nd  Nd3  1  0.500000  0.389490  0.316399  1
  Cu  Cu4  1  0.500000  0.885808  0.461857  1
  Cu  Cu5  1  0.500000  0.115461  0.964616  1
  Pt  Pt6  1  0.000000  0.618094  0.534870  1
  Pt  Pt7  1  0.000000  0.380281  0.039679  1
