# generated using pymatgen
data_Rb2Al2Sb3
_symmetry_space_group_name_H-M   'P 1'
_cell_length_a   7.34480300
_cell_length_b   15.00686431
_cell_length_c   16.89268900
_cell_angle_alpha   89.48836975
_cell_angle_beta   90.00000000
_cell_angle_gamma   90.00000000
_symmetry_Int_Tables_number   1
_chemical_formula_structural   Rb2Al2Sb3
_chemical_formula_sum   'Rb16 Al16 Sb24'
_cell_volume   1861.87953706
_cell_formula_units_Z   8
loop_
 _symmetry_equiv_pos_site_id
 _symmetry_equiv_pos_as_xyz
  1  'x, y, z'
loop_
 _atom_site_type_symbol
 _atom_site_label
 _atom_site_symmetry_multiplicity
 _atom_site_fract_x
 _atom_site_fract_y
 _atom_site_fract_z
 _atom_site_occupancy
  Rb  Rb0  1  0.975052  0.860000  0.990326  1
  Rb  Rb1  1  0.475052  0.140000  0.509674  1
  Rb  Rb2  1  0.024948  0.140000  0.009674  1
  Rb  Rb3  1  0.524948  0.860000  0.490326  1
  Rb  Rb4  1  0.539777  0.349678  0.020725  1
  Rb  Rb5  1  0.039777  0.650322  0.479275  1
  Rb  Rb6  1  0.460223  0.650322  0.979275  1
  Rb  Rb7  1  0.960223  0.349678  0.520725  1
  Rb  Rb8  1  0.526904  0.075265  0.105800  1
  Rb  Rb9  1  0.026904  0.924735  0.394200  1
  Rb  Rb10  1  0.473096  0.924735  0.894200  1
  Rb  Rb11  1  0.973096  0.075265  0.605800  1
  Rb  Rb12  1  0.954106  0.558202  0.901671  1
  Rb  Rb13  1  0.454106  0.441798  0.598329  1
  Rb  Rb14  1  0.045894  0.441798  0.098329  1
  Rb  Rb15  1  0.545894  0.558202  0.401671  1
  Al  Al16  1  0.287489  0.312544  0.827973  1
  Al  Al17  1  0.787489  0.687456  0.672027  1
  Al  Al18  1  0.712511  0.687456  0.172027  1
  Al  Al19  1  0.212511  0.312544  0.327973  1
  Al  Al20  1  0.792186  0.906141  0.730328  1
  Al  Al21  1  0.292186  0.093859  0.769672  1
  Al  Al22  1  0.207814  0.093859  0.269672  1
  Al  Al23  1  0.707814  0.906141  0.230328  1
  Al  Al24  1  0.769462  0.182680  0.822356  1
  Al  Al25  1  0.269462  0.817320  0.677644  1
  Al  Al26  1  0.230538  0.817320  0.177644  1
  Al  Al27  1  0.730538  0.182680  0.322356  1
  Al  Al28  1  0.764552  0.405056  0.761728  1
  Al  Al29  1  0.264552  0.594944  0.738272  1
  Al  Al30  1  0.235448  0.594944  0.238272  1
  Al  Al31  1  0.735448  0.405056  0.261728  1
  Sb  Sb32  1  0.966564  0.028332  0.822568  1
  Sb  Sb33  1  0.466564  0.971668  0.677432  1
  Sb  Sb34  1  0.033436  0.971668  0.177432  1
  Sb  Sb35  1  0.533436  0.028332  0.322568  1
  Sb  Sb36  1  0.451611  0.164886  0.900402  1
  Sb  Sb37  1  0.951611  0.835114  0.599598  1
  Sb  Sb38  1  0.548389  0.835114  0.099598  1
  Sb  Sb39  1  0.048389  0.164886  0.400402  1
  Sb  Sb40  1  0.946188  0.326728  0.885354  1
  Sb  Sb41  1  0.446188  0.673272  0.614646  1
  Sb  Sb42  1  0.053812  0.673272  0.114646  1
  Sb  Sb43  1  0.553812  0.326728  0.385354  1
  Sb  Sb44  1  0.823878  0.252020  0.178834  1
  Sb  Sb45  1  0.323878  0.747980  0.321166  1
  Sb  Sb46  1  0.176122  0.747980  0.821166  1
  Sb  Sb47  1  0.676122  0.252020  0.678834  1
  Sb  Sb48  1  0.459278  0.474174  0.831044  1
  Sb  Sb49  1  0.959278  0.525826  0.668956  1
  Sb  Sb50  1  0.540722  0.525826  0.168956  1
  Sb  Sb51  1  0.040722  0.474174  0.331044  1
  Sb  Sb52  1  0.219702  0.246432  0.181337  1
  Sb  Sb53  1  0.719702  0.753568  0.318663  1
  Sb  Sb54  1  0.780298  0.753568  0.818663  1
  Sb  Sb55  1  0.280298  0.246432  0.681337  1
