# generated using pymatgen
data_Ac4SiNi3I2
_symmetry_space_group_name_H-M   'P 1'
_cell_length_a   4.26029700
_cell_length_b   4.26029674
_cell_length_c   18.59636200
_cell_angle_alpha   90.00000000
_cell_angle_beta   90.00000000
_cell_angle_gamma   119.99997869
_symmetry_Int_Tables_number   1
_chemical_formula_structural   Ac4SiNi3I2
_chemical_formula_sum   'Ac4 Si1 Ni3 I2'
_cell_volume   292.30648000
_cell_formula_units_Z   1
loop_
 _symmetry_equiv_pos_site_id
 _symmetry_equiv_pos_as_xyz
  1  'x, y, z'
loop_
 _atom_site_type_symbol
 _atom_site_label
 _atom_site_symmetry_multiplicity
 _atom_site_fract_x
 _atom_site_fract_y
 _atom_site_fract_z
 _atom_site_occupancy
  Ac  Ac0  1  0.000000  0.000000  0.102510  1
  Ac  Ac1  1  0.000000  0.000000  0.896501  1
  Ac  Ac2  1  0.000000  0.000000  0.605662  1
  Ac  Ac3  1  0.000000  0.000000  0.393356  1
  Si  Si4  1  0.333333  0.666667  0.496129  1
  Ni  Ni5  1  0.666667  0.333333  0.506338  1
  Ni  Ni6  1  0.666667  0.333333  0.999216  1
  Ni  Ni7  1  0.333333  0.666667  0.000528  1
  I  I8  1  0.333333  0.666667  0.252039  1
  I  I9  1  0.666667  0.333333  0.747720  1
