# generated using pymatgen
data_TbHo2Mg3Pb2Au
_symmetry_space_group_name_H-M   'P 1'
_cell_length_a   7.58107453
_cell_length_b   7.58107416
_cell_length_c   4.50721200
_cell_angle_alpha   90.00000000
_cell_angle_beta   90.00000000
_cell_angle_gamma   120.11055091
_symmetry_Int_Tables_number   1
_chemical_formula_structural   TbHo2Mg3Pb2Au
_chemical_formula_sum   'Tb1 Ho2 Mg3 Pb2 Au1'
_cell_volume   224.08627265
_cell_formula_units_Z   1
loop_
 _symmetry_equiv_pos_site_id
 _symmetry_equiv_pos_as_xyz
  1  'x, y, z'
loop_
 _atom_site_type_symbol
 _atom_site_label
 _atom_site_symmetry_multiplicity
 _atom_site_fract_x
 _atom_site_fract_y
 _atom_site_fract_z
 _atom_site_occupancy
  Tb  Tb0  1  0.405093  0.405093  0.000000  1
  Ho  Ho1  1  0.596289  0.000292  0.000000  1
  Ho  Ho2  1  0.000292  0.596289  0.000000  1
  Mg  Mg3  1  0.233109  0.000154  0.500000  1
  Mg  Mg4  1  0.000154  0.233109  0.500000  1
  Mg  Mg5  1  0.766435  0.766435  0.500000  1
  Pb  Pb6  1  0.332840  0.667799  0.500000  1
  Pb  Pb7  1  0.667799  0.332840  0.500000  1
  Au  Au8  1  0.997989  0.997989  0.000000  1
