# generated using pymatgen
data_Ce6MgVSb10
_symmetry_space_group_name_H-M   'P 1'
_cell_length_a   9.35150400
_cell_length_b   9.35150434
_cell_length_c   6.25419100
_cell_angle_alpha   90.00000000
_cell_angle_beta   90.00000000
_cell_angle_gamma   119.99999172
_symmetry_Int_Tables_number   1
_chemical_formula_structural   Ce6MgVSb10
_chemical_formula_sum   'Ce6 Mg1 V1 Sb10'
_cell_volume   473.65786384
_cell_formula_units_Z   1
loop_
 _symmetry_equiv_pos_site_id
 _symmetry_equiv_pos_as_xyz
  1  'x, y, z'
loop_
 _atom_site_type_symbol
 _atom_site_label
 _atom_site_symmetry_multiplicity
 _atom_site_fract_x
 _atom_site_fract_y
 _atom_site_fract_z
 _atom_site_occupancy
  Ce  Ce0  1  0.618163  0.000000  0.251517  1
  Ce  Ce1  1  0.381837  0.000000  0.748483  1
  Ce  Ce2  1  0.000000  0.618163  0.251517  1
  Ce  Ce3  1  0.000000  0.381837  0.748483  1
  Ce  Ce4  1  0.381837  0.381837  0.251517  1
  Ce  Ce5  1  0.618163  0.618163  0.748483  1
  Mg  Mg6  1  0.000000  0.000000  0.500000  1
  V  V7  1  0.000000  0.000000  0.000000  1
  Sb  Sb8  1  0.261000  0.000000  0.241072  1
  Sb  Sb9  1  0.739000  0.000000  0.758928  1
  Sb  Sb10  1  0.000000  0.261000  0.241072  1
  Sb  Sb11  1  0.000000  0.739000  0.758928  1
  Sb  Sb12  1  0.739000  0.739000  0.241072  1
  Sb  Sb13  1  0.261000  0.261000  0.758928  1
  Sb  Sb14  1  0.333333  0.666667  0.000000  1
  Sb  Sb15  1  0.666667  0.333333  0.000000  1
  Sb  Sb16  1  0.666667  0.333333  0.500000  1
  Sb  Sb17  1  0.333333  0.666667  0.500000  1
