# generated using pymatgen
data_La2Ce4Nd3Tm7(CdIr)4
_symmetry_space_group_name_H-M   'P 1'
_cell_length_a   9.74294838
_cell_length_b   9.73252685
_cell_length_c   9.72401383
_cell_angle_alpha   59.94125306
_cell_angle_beta   60.03030477
_cell_angle_gamma   59.98372129
_symmetry_Int_Tables_number   1
_chemical_formula_structural   La2Ce4Nd3Tm7(CdIr)4
_chemical_formula_sum   'La2 Ce4 Nd3 Tm7 Cd4 Ir4'
_cell_volume   651.77730828
_cell_formula_units_Z   1
loop_
 _symmetry_equiv_pos_site_id
 _symmetry_equiv_pos_as_xyz
  1  'x, y, z'
loop_
 _atom_site_type_symbol
 _atom_site_label
 _atom_site_symmetry_multiplicity
 _atom_site_fract_x
 _atom_site_fract_y
 _atom_site_fract_z
 _atom_site_occupancy
  La  La0  1  0.554954  0.944986  0.946012  1
  La  La1  1  0.562160  0.939034  0.558681  1
  Ce  Ce2  1  0.349958  0.348518  0.347916  1
  Ce  Ce3  1  0.347376  0.352675  0.952901  1
  Ce  Ce4  1  0.347881  0.953241  0.352319  1
  Ce  Ce5  1  0.951595  0.348961  0.349028  1
  Nd  Nd6  1  0.943741  0.555139  0.938249  1
  Nd  Nd7  1  0.562376  0.556898  0.939606  1
  Nd  Nd8  1  0.945469  0.937651  0.554698  1
  Tm  Tm9  1  0.814824  0.185935  0.183879  1
  Tm  Tm10  1  0.180796  0.816508  0.817254  1
  Tm  Tm11  1  0.182374  0.813651  0.188318  1
  Tm  Tm12  1  0.815308  0.187365  0.813385  1
  Tm  Tm13  1  0.180839  0.189324  0.814229  1
  Tm  Tm14  1  0.815835  0.813617  0.186258  1
  Tm  Tm15  1  0.947802  0.553201  0.555045  1
  Cd  Cd16  1  0.582540  0.576855  0.578721  1
  Cd  Cd17  1  0.579353  0.577945  0.262109  1
  Cd  Cd18  1  0.580184  0.263414  0.577802  1
  Cd  Cd19  1  0.258699  0.578858  0.578249  1
  Ir  Ir20  1  0.142692  0.142483  0.142694  1
  Ir  Ir21  1  0.140267  0.148086  0.572478  1
  Ir  Ir22  1  0.140548  0.572316  0.148014  1
  Ir  Ir23  1  0.572426  0.143339  0.142155  1
