# generated using pymatgen
data_HoHf3Sc4(Co4P3)4
_symmetry_space_group_name_H-M   'P 1'
_cell_length_a   12.16412800
_cell_length_b   12.16412639
_cell_length_c   3.64623200
_cell_angle_alpha   90.00000000
_cell_angle_beta   90.00000000
_cell_angle_gamma   120.00000439
_symmetry_Int_Tables_number   1
_chemical_formula_structural   HoHf3Sc4(Co4P3)4
_chemical_formula_sum   'Ho1 Hf3 Sc4 Co16 P12'
_cell_volume   467.23655808
_cell_formula_units_Z   1
loop_
 _symmetry_equiv_pos_site_id
 _symmetry_equiv_pos_as_xyz
  1  'x, y, z'
loop_
 _atom_site_type_symbol
 _atom_site_label
 _atom_site_symmetry_multiplicity
 _atom_site_fract_x
 _atom_site_fract_y
 _atom_site_fract_z
 _atom_site_occupancy
  Ho  Ho0  1  0.333333  0.666667  0.000000  1
  Hf  Hf1  1  0.444003  0.442360  0.000000  1
  Hf  Hf2  1  0.557640  0.001643  0.000000  1
  Hf  Hf3  1  0.998357  0.555997  0.000000  1
  Sc  Sc4  1  0.666667  0.333333  0.000000  1
  Sc  Sc5  1  0.818085  0.818378  0.500000  1
  Sc  Sc6  1  0.181622  0.999707  0.500000  1
  Sc  Sc7  1  0.000293  0.181915  0.500000  1
  Co  Co8  1  0.873671  0.356238  0.500000  1
  Co  Co9  1  0.643762  0.517434  0.500000  1
  Co  Co10  1  0.482566  0.126329  0.500000  1
  Co  Co11  1  0.355376  0.877022  0.500000  1
  Co  Co12  1  0.521646  0.644624  0.500000  1
  Co  Co13  1  0.122978  0.478354  0.500000  1
  Co  Co14  1  0.806231  0.178157  0.000000  1
  Co  Co15  1  0.821843  0.628073  0.000000  1
  Co  Co16  1  0.371927  0.193769  0.000000  1
  Co  Co17  1  0.176012  0.806718  0.000000  1
  Co  Co18  1  0.630705  0.823988  0.000000  1
  Co  Co19  1  0.193282  0.369295  0.000000  1
  Co  Co20  1  0.276799  0.275332  0.500000  1
  Co  Co21  1  0.724668  0.001467  0.500000  1
  Co  Co22  1  0.998533  0.723201  0.500000  1
  Co  Co23  1  0.000000  0.000000  0.000000  1
  P  P24  1  0.691976  0.174880  0.500000  1
  P  P25  1  0.825120  0.517097  0.500000  1
  P  P26  1  0.482903  0.308024  0.500000  1
  P  P27  1  0.170530  0.693017  0.500000  1
  P  P28  1  0.522486  0.829470  0.500000  1
  P  P29  1  0.306983  0.477514  0.500000  1
  P  P30  1  0.175078  0.173804  0.000000  1
  P  P31  1  0.826196  0.001274  0.000000  1
  P  P32  1  0.998726  0.824922  0.000000  1
  P  P33  1  0.653522  0.653547  0.000000  1
  P  P34  1  0.346453  0.999975  0.000000  1
  P  P35  1  0.000025  0.346478  0.000000  1
