# generated using pymatgen
data_SmHg4Se2Cl5
_symmetry_space_group_name_H-M   'P 1'
_cell_length_a   8.49900397
_cell_length_b   10.67602900
_cell_length_c   9.20536080
_cell_angle_alpha   90.00000000
_cell_angle_beta   113.10165803
_cell_angle_gamma   90.00000000
_symmetry_Int_Tables_number   1
_chemical_formula_structural   SmHg4Se2Cl5
_chemical_formula_sum   'Sm2 Hg8 Se4 Cl10'
_cell_volume   768.27515115
_cell_formula_units_Z   2
loop_
 _symmetry_equiv_pos_site_id
 _symmetry_equiv_pos_as_xyz
  1  'x, y, z'
loop_
 _atom_site_type_symbol
 _atom_site_label
 _atom_site_symmetry_multiplicity
 _atom_site_fract_x
 _atom_site_fract_y
 _atom_site_fract_z
 _atom_site_occupancy
  Sm  Sm0  1  0.501044  0.432086  0.505512  1
  Sm  Sm1  1  0.498956  0.932086  0.494488  1
  Hg  Hg2  1  0.927893  0.181981  0.331142  1
  Hg  Hg3  1  0.072107  0.681981  0.668858  1
  Hg  Hg4  1  0.953700  0.667299  0.359321  1
  Hg  Hg5  1  0.046300  0.167299  0.640679  1
  Hg  Hg6  1  0.497584  0.181469  0.987248  1
  Hg  Hg7  1  0.502416  0.681469  0.012752  1
  Hg  Hg8  1  0.807449  0.432139  0.016249  1
  Hg  Hg9  1  0.192551  0.932139  0.983751  1
  Se  Se10  1  0.807467  0.193000  0.022287  1
  Se  Se11  1  0.192533  0.693000  0.977713  1
  Se  Se12  1  0.187092  0.169637  0.949415  1
  Se  Se13  1  0.812908  0.669637  0.050585  1
  Cl  Cl14  1  0.834725  0.925167  0.682778  1
  Cl  Cl15  1  0.165275  0.425167  0.317222  1
  Cl  Cl16  1  0.838162  0.438622  0.704423  1
  Cl  Cl17  1  0.161838  0.938622  0.295577  1
  Cl  Cl18  1  0.413969  0.457162  0.760390  1
  Cl  Cl19  1  0.586031  0.957162  0.239610  1
  Cl  Cl20  1  0.595202  0.394374  0.261457  1
  Cl  Cl21  1  0.404798  0.894374  0.738543  1
  Cl  Cl22  1  0.497399  0.180665  0.557541  1
  Cl  Cl23  1  0.502601  0.680665  0.442459  1
