# generated using pymatgen
data_Er5LuZrCo17P12
_symmetry_space_group_name_H-M   'P 1'
_cell_length_a   3.69010900
_cell_length_b   10.55748600
_cell_length_c   12.24799800
_cell_angle_alpha   90.00088942
_cell_angle_beta   90.00000000
_cell_angle_gamma   90.00000000
_symmetry_Int_Tables_number   1
_chemical_formula_structural   Er5LuZrCo17P12
_chemical_formula_sum   'Er5 Lu1 Zr1 Co17 P12'
_cell_volume   477.16086330
_cell_formula_units_Z   1
loop_
 _symmetry_equiv_pos_site_id
 _symmetry_equiv_pos_as_xyz
  1  'x, y, z'
loop_
 _atom_site_type_symbol
 _atom_site_label
 _atom_site_symmetry_multiplicity
 _atom_site_fract_x
 _atom_site_fract_y
 _atom_site_fract_z
 _atom_site_occupancy
  Er  Er0  1  0.000000  0.499940  0.529955  1
  Er  Er1  1  0.500000  0.000015  0.476959  1
  Er  Er2  1  0.500000  0.822100  0.207378  1
  Er  Er3  1  0.500000  0.177935  0.207448  1
  Er  Er4  1  0.000000  0.682231  0.795870  1
  Lu  Lu5  1  0.000000  0.317750  0.795977  1
  Zr  Zr6  1  0.500000  0.499913  0.155310  1
  Co  Co7  1  0.000000  0.000014  0.835933  1
  Co  Co8  1  0.500000  0.499323  0.702807  1
  Co  Co9  1  0.000000  0.000032  0.296550  1
  Co  Co10  1  0.000000  0.499621  0.983206  1
  Co  Co11  1  0.500000  0.000154  0.013353  1
  Co  Co12  1  0.500000  0.326871  0.987311  1
  Co  Co13  1  0.500000  0.673005  0.987804  1
  Co  Co14  1  0.000000  0.161713  0.001166  1
  Co  Co15  1  0.000000  0.838616  0.001451  1
  Co  Co16  1  0.500000  0.293982  0.434973  1
  Co  Co17  1  0.500000  0.705974  0.434932  1
  Co  Co18  1  0.000000  0.201773  0.570606  1
  Co  Co19  1  0.000000  0.798273  0.570150  1
  Co  Co20  1  0.500000  0.879705  0.706928  1
  Co  Co21  1  0.500000  0.120884  0.707309  1
  Co  Co22  1  0.000000  0.623722  0.297849  1
  Co  Co23  1  0.000000  0.376339  0.297849  1
  P  P24  1  0.500000  0.499362  0.880671  1
  P  P25  1  0.000000  0.000084  0.116700  1
  P  P26  1  0.500000  0.500008  0.363470  1
  P  P27  1  0.000000  0.999935  0.653517  1
  P  P28  1  0.500000  0.310081  0.619077  1
  P  P29  1  0.500000  0.689947  0.618335  1
  P  P30  1  0.000000  0.187344  0.386306  1
  P  P31  1  0.000000  0.812721  0.386195  1
  P  P32  1  0.500000  0.852110  0.887749  1
  P  P33  1  0.500000  0.148581  0.887321  1
  P  P34  1  0.000000  0.665770  0.100734  1
  P  P35  1  0.000000  0.334171  0.100852  1
