# generated using pymatgen
data_Ho4Ga18CoNiIr4
_symmetry_space_group_name_H-M   'P 1'
_cell_length_a   7.55010559
_cell_length_b   7.55010469
_cell_length_c   9.43342726
_cell_angle_alpha   90.00457423
_cell_angle_beta   90.00457746
_cell_angle_gamma   120.36819808
_symmetry_Int_Tables_number   1
_chemical_formula_structural   Ho4Ga18CoNiIr4
_chemical_formula_sum   'Ho4 Ga18 Co1 Ni1 Ir4'
_cell_volume   463.96243619
_cell_formula_units_Z   1
loop_
 _symmetry_equiv_pos_site_id
 _symmetry_equiv_pos_as_xyz
  1  'x, y, z'
loop_
 _atom_site_type_symbol
 _atom_site_label
 _atom_site_symmetry_multiplicity
 _atom_site_fract_x
 _atom_site_fract_y
 _atom_site_fract_z
 _atom_site_occupancy
  Ho  Ho0  1  0.995600  0.656877  0.250579  1
  Ho  Ho1  1  0.004400  0.343123  0.749421  1
  Ho  Ho2  1  0.656877  0.995600  0.250579  1
  Ho  Ho3  1  0.343123  0.004400  0.749421  1
  Ga  Ga4  1  0.104989  0.104989  0.251852  1
  Ga  Ga5  1  0.895011  0.895011  0.748148  1
  Ga  Ga6  1  0.998493  0.325677  0.078979  1
  Ga  Ga7  1  0.001507  0.674323  0.921021  1
  Ga  Ga8  1  0.001669  0.676904  0.577250  1
  Ga  Ga9  1  0.323096  0.998331  0.422750  1
  Ga  Ga10  1  0.998331  0.323096  0.422750  1
  Ga  Ga11  1  0.676904  0.001669  0.577250  1
  Ga  Ga12  1  0.674323  0.001507  0.921021  1
  Ga  Ga13  1  0.325677  0.998493  0.078979  1
  Ga  Ga14  1  0.323910  0.323910  0.563816  1
  Ga  Ga15  1  0.676090  0.676090  0.436184  1
  Ga  Ga16  1  0.672409  0.672409  0.065996  1
  Ga  Ga17  1  0.327591  0.327591  0.934004  1
  Ga  Ga18  1  0.337078  0.538918  0.250374  1
  Ga  Ga19  1  0.662922  0.461082  0.749626  1
  Ga  Ga20  1  0.538918  0.337078  0.250374  1
  Ga  Ga21  1  0.461082  0.662922  0.749626  1
  Co  Co22  1  0.000000  0.000000  0.500000  1
  Ni  Ni23  1  0.000000  0.000000  0.000000  1
  Ir  Ir24  1  0.671686  0.328314  0.000000  1
  Ir  Ir25  1  0.328314  0.671686  0.000000  1
  Ir  Ir26  1  0.328036  0.671964  0.500000  1
  Ir  Ir27  1  0.671964  0.328036  0.500000  1
