# generated using pymatgen
data_Mg4Ga5Rh2
_symmetry_space_group_name_H-M   'P 1'
_cell_length_a   6.94224000
_cell_length_b   6.85209941
_cell_length_c   8.33400377
_cell_angle_alpha   79.41745957
_cell_angle_beta   90.00000000
_cell_angle_gamma   90.00000000
_symmetry_Int_Tables_number   1
_chemical_formula_structural   Mg4Ga5Rh2
_chemical_formula_sum   'Mg8 Ga10 Rh4'
_cell_volume   389.69664859
_cell_formula_units_Z   2
loop_
 _symmetry_equiv_pos_site_id
 _symmetry_equiv_pos_as_xyz
  1  'x, y, z'
loop_
 _atom_site_type_symbol
 _atom_site_label
 _atom_site_symmetry_multiplicity
 _atom_site_fract_x
 _atom_site_fract_y
 _atom_site_fract_z
 _atom_site_occupancy
  Mg  Mg0  1  0.560118  0.393949  0.261336  1
  Mg  Mg1  1  0.060118  0.606051  0.238664  1
  Mg  Mg2  1  0.439882  0.606051  0.738664  1
  Mg  Mg3  1  0.939882  0.393949  0.761336  1
  Mg  Mg4  1  0.198271  0.057652  0.278440  1
  Mg  Mg5  1  0.698271  0.942348  0.221560  1
  Mg  Mg6  1  0.801729  0.942348  0.721560  1
  Mg  Mg7  1  0.301729  0.057652  0.778440  1
  Ga  Ga8  1  0.500000  0.000000  0.500000  1
  Ga  Ga9  1  0.000000  0.000000  0.000000  1
  Ga  Ga10  1  0.256641  0.372021  0.510014  1
  Ga  Ga11  1  0.756641  0.627979  0.989986  1
  Ga  Ga12  1  0.743359  0.627979  0.489986  1
  Ga  Ga13  1  0.243359  0.372021  0.010014  1
  Ga  Ga14  1  0.901480  0.233989  0.441671  1
  Ga  Ga15  1  0.401480  0.766011  0.058329  1
  Ga  Ga16  1  0.098520  0.766011  0.558329  1
  Ga  Ga17  1  0.598520  0.233989  0.941671  1
  Rh  Rh18  1  0.897467  0.288835  0.122424  1
  Rh  Rh19  1  0.397467  0.711165  0.377576  1
  Rh  Rh20  1  0.102533  0.711165  0.877576  1
  Rh  Rh21  1  0.602533  0.288835  0.622424  1
