# generated using pymatgen
data_LiEuEr3Co19P12
_symmetry_space_group_name_H-M   'P 1'
_cell_length_a   3.65107000
_cell_length_b   10.27978129
_cell_length_c   11.77157455
_cell_angle_alpha   89.97435205
_cell_angle_beta   90.00000000
_cell_angle_gamma   90.00000000
_symmetry_Int_Tables_number   1
_chemical_formula_structural   LiEuEr3Co19P12
_chemical_formula_sum   'Li1 Eu1 Er3 Co19 P12'
_cell_volume   441.81305890
_cell_formula_units_Z   1
loop_
 _symmetry_equiv_pos_site_id
 _symmetry_equiv_pos_as_xyz
  1  'x, y, z'
loop_
 _atom_site_type_symbol
 _atom_site_label
 _atom_site_symmetry_multiplicity
 _atom_site_fract_x
 _atom_site_fract_y
 _atom_site_fract_z
 _atom_site_occupancy
  Li  Li0  1  0.250000  0.702976  0.989017  1
  Eu  Eu1  1  0.750000  0.417250  0.296524  1
  Er  Er2  1  0.250000  0.581799  0.702079  1
  Er  Er3  1  0.250000  0.919926  0.203111  1
  Er  Er4  1  0.750000  0.079987  0.797017  1
  Co  Co5  1  0.250000  0.784826  0.493851  1
  Co  Co6  1  0.750000  0.289279  0.009738  1
  Co  Co7  1  0.750000  0.214873  0.508220  1
  Co  Co8  1  0.250000  0.407496  0.492182  1
  Co  Co9  1  0.250000  0.095560  0.985890  1
  Co  Co10  1  0.750000  0.594949  0.515638  1
  Co  Co11  1  0.750000  0.909320  0.013574  1
  Co  Co12  1  0.250000  0.220040  0.174198  1
  Co  Co13  1  0.250000  0.276650  0.676135  1
  Co  Co14  1  0.750000  0.779591  0.821834  1
  Co  Co15  1  0.750000  0.721983  0.328312  1
  Co  Co16  1  0.250000  0.883483  0.698028  1
  Co  Co17  1  0.250000  0.623766  0.198142  1
  Co  Co18  1  0.750000  0.116399  0.300621  1
  Co  Co19  1  0.750000  0.379553  0.799887  1
  Co  Co20  1  0.250000  0.463772  0.930365  1
  Co  Co21  1  0.250000  0.032169  0.431966  1
  Co  Co22  1  0.750000  0.535513  0.065058  1
  Co  Co23  1  0.750000  0.967482  0.567718  1
  P  P24  1  0.250000  0.421920  0.110797  1
  P  P25  1  0.250000  0.080207  0.612289  1
  P  P26  1  0.750000  0.577754  0.882744  1
  P  P27  1  0.750000  0.919611  0.387755  1
  P  P28  1  0.250000  0.267489  0.867466  1
  P  P29  1  0.250000  0.228668  0.369867  1
  P  P30  1  0.750000  0.731791  0.137175  1
  P  P31  1  0.750000  0.770857  0.631675  1
  P  P32  1  0.250000  0.603417  0.394094  1
  P  P33  1  0.250000  0.898816  0.891296  1
  P  P34  1  0.750000  0.397541  0.608353  1
  P  P35  1  0.750000  0.103285  0.107383  1
