# generated using pymatgen
data_Tb2Mn2Co10As7
_symmetry_space_group_name_H-M   'P 1'
_cell_length_a   3.75546100
_cell_length_b   9.40986732
_cell_length_c   9.44407904
_cell_angle_alpha   119.83281639
_cell_angle_beta   90.00000000
_cell_angle_gamma   90.00000000
_symmetry_Int_Tables_number   1
_chemical_formula_structural   Tb2Mn2Co10As7
_chemical_formula_sum   'Tb2 Mn2 Co10 As7'
_cell_volume   289.51173634
_cell_formula_units_Z   1
loop_
 _symmetry_equiv_pos_site_id
 _symmetry_equiv_pos_as_xyz
  1  'x, y, z'
loop_
 _atom_site_type_symbol
 _atom_site_label
 _atom_site_symmetry_multiplicity
 _atom_site_fract_x
 _atom_site_fract_y
 _atom_site_fract_z
 _atom_site_occupancy
  Tb  Tb0  1  0.000000  0.669528  0.335024  1
  Tb  Tb1  1  0.500000  0.332092  0.666958  1
  Mn  Mn2  1  0.500000  0.779867  0.894720  1
  Mn  Mn3  1  0.500000  0.118623  0.220313  1
  Co  Co4  1  0.000000  0.568696  0.941356  1
  Co  Co5  1  0.000000  0.370876  0.430095  1
  Co  Co6  1  0.000000  0.057411  0.629448  1
  Co  Co7  1  0.500000  0.096184  0.878475  1
  Co  Co8  1  0.000000  0.882797  0.156698  1
  Co  Co9  1  0.000000  0.279632  0.121019  1
  Co  Co10  1  0.000000  0.843406  0.723388  1
  Co  Co11  1  0.500000  0.948853  0.383372  1
  Co  Co12  1  0.500000  0.431686  0.049462  1
  Co  Co13  1  0.500000  0.617459  0.566793  1
  As  As14  1  0.000000  0.002884  0.997974  1
  As  As15  1  0.500000  0.708023  0.116007  1
  As  As16  1  0.500000  0.410985  0.292634  1
  As  As17  1  0.500000  0.886146  0.595903  1
  As  As18  1  0.000000  0.585646  0.700817  1
  As  As19  1  0.000000  0.114146  0.414050  1
  As  As20  1  0.000000  0.295057  0.885497  1
