# generated using pymatgen
data_Mn4Fe(BW)5
_symmetry_space_group_name_H-M   'P 1'
_cell_length_a   3.13107800
_cell_length_b   5.90950900
_cell_length_c   17.21974000
_cell_angle_alpha   90.00000000
_cell_angle_beta   90.00000000
_cell_angle_gamma   90.00000000
_symmetry_Int_Tables_number   1
_chemical_formula_structural   Mn4Fe(BW)5
_chemical_formula_sum   'Mn8 Fe2 B10 W10'
_cell_volume   318.61915013
_cell_formula_units_Z   2
loop_
 _symmetry_equiv_pos_site_id
 _symmetry_equiv_pos_as_xyz
  1  'x, y, z'
loop_
 _atom_site_type_symbol
 _atom_site_label
 _atom_site_symmetry_multiplicity
 _atom_site_fract_x
 _atom_site_fract_y
 _atom_site_fract_z
 _atom_site_occupancy
  Mn  Mn0  1  0.000000  0.855782  0.225945  1
  Mn  Mn1  1  0.000000  0.855782  0.774055  1
  Mn  Mn2  1  0.500000  0.144218  0.274055  1
  Mn  Mn3  1  0.500000  0.144218  0.725945  1
  Mn  Mn4  1  0.000000  0.354994  0.072377  1
  Mn  Mn5  1  0.000000  0.354994  0.927623  1
  Mn  Mn6  1  0.500000  0.645006  0.427623  1
  Mn  Mn7  1  0.500000  0.645006  0.572377  1
  Fe  Fe8  1  0.000000  0.990985  0.000000  1
  Fe  Fe9  1  0.500000  0.009015  0.500000  1
  B  B10  1  0.000000  0.235134  0.196454  1
  B  B11  1  0.000000  0.235134  0.803546  1
  B  B12  1  0.500000  0.764866  0.303546  1
  B  B13  1  0.500000  0.764866  0.696454  1
  B  B14  1  0.000000  0.729702  0.100391  1
  B  B15  1  0.000000  0.729702  0.899609  1
  B  B16  1  0.500000  0.270298  0.399609  1
  B  B17  1  0.500000  0.270298  0.600391  1
  B  B18  1  0.000000  0.766782  0.500000  1
  B  B19  1  0.500000  0.233218  0.000000  1
  W  W20  1  0.000000  0.470687  0.320540  1
  W  W21  1  0.000000  0.470687  0.679460  1
  W  W22  1  0.500000  0.529313  0.179460  1
  W  W23  1  0.500000  0.529313  0.820540  1
  W  W24  1  0.000000  0.975405  0.378150  1
  W  W25  1  0.000000  0.975405  0.621850  1
  W  W26  1  0.500000  0.024595  0.121850  1
  W  W27  1  0.500000  0.024595  0.878150  1
  W  W28  1  0.000000  0.356911  0.500000  1
  W  W29  1  0.500000  0.643089  0.000000  1
