# generated using pymatgen
data_Yb3Ga2IrPd
_symmetry_space_group_name_H-M   'P 1'
_cell_length_a   5.68390400
_cell_length_b   7.80182600
_cell_length_c   13.80103600
_cell_angle_alpha   90.00000000
_cell_angle_beta   90.00000000
_cell_angle_gamma   90.00000000
_symmetry_Int_Tables_number   1
_chemical_formula_structural   Yb3Ga2IrPd
_chemical_formula_sum   'Yb12 Ga8 Ir4 Pd4'
_cell_volume   612.00459536
_cell_formula_units_Z   4
loop_
 _symmetry_equiv_pos_site_id
 _symmetry_equiv_pos_as_xyz
  1  'x, y, z'
loop_
 _atom_site_type_symbol
 _atom_site_label
 _atom_site_symmetry_multiplicity
 _atom_site_fract_x
 _atom_site_fract_y
 _atom_site_fract_z
 _atom_site_occupancy
  Yb  Yb0  1  0.147298  0.596610  0.096457  1
  Yb  Yb1  1  0.147298  0.903390  0.903543  1
  Yb  Yb2  1  0.852702  0.096610  0.403543  1
  Yb  Yb3  1  0.852702  0.403390  0.596457  1
  Yb  Yb4  1  0.857648  0.391429  0.905556  1
  Yb  Yb5  1  0.857648  0.108571  0.094444  1
  Yb  Yb6  1  0.142352  0.891429  0.594444  1
  Yb  Yb7  1  0.142352  0.608571  0.405556  1
  Yb  Yb8  1  0.374976  0.248360  0.251395  1
  Yb  Yb9  1  0.374976  0.251640  0.748605  1
  Yb  Yb10  1  0.625024  0.748360  0.248605  1
  Yb  Yb11  1  0.625024  0.751640  0.751395  1
  Ga  Ga12  1  0.393845  0.250000  0.000000  1
  Ga  Ga13  1  0.606155  0.750000  0.500000  1
  Ga  Ga14  1  0.637878  0.750000  0.000000  1
  Ga  Ga15  1  0.362122  0.250000  0.500000  1
  Ga  Ga16  1  0.864343  0.399743  0.248302  1
  Ga  Ga17  1  0.864343  0.100257  0.751698  1
  Ga  Ga18  1  0.135657  0.899743  0.251698  1
  Ga  Ga19  1  0.135657  0.600257  0.748302  1
  Ir  Ir20  1  0.643808  0.471810  0.094502  1
  Ir  Ir21  1  0.643808  0.028190  0.905498  1
  Ir  Ir22  1  0.356192  0.971810  0.405498  1
  Ir  Ir23  1  0.356192  0.528190  0.594502  1
  Pd  Pd24  1  0.360359  0.536364  0.905496  1
  Pd  Pd25  1  0.360359  0.963636  0.094504  1
  Pd  Pd26  1  0.639641  0.036364  0.594504  1
  Pd  Pd27  1  0.639641  0.463636  0.405496  1
