# generated using pymatgen
data_LuIn2Cu(Ni3B)2
_symmetry_space_group_name_H-M   'P 1'
_cell_length_a   5.03359400
_cell_length_b   5.03359413
_cell_length_c   13.80977900
_cell_angle_alpha   90.00000000
_cell_angle_beta   90.00000000
_cell_angle_gamma   119.99998602
_symmetry_Int_Tables_number   1
_chemical_formula_structural   LuIn2Cu(Ni3B)2
_chemical_formula_sum   'Lu2 In4 Cu2 Ni12 B4'
_cell_volume   303.02174783
_cell_formula_units_Z   2
loop_
 _symmetry_equiv_pos_site_id
 _symmetry_equiv_pos_as_xyz
  1  'x, y, z'
loop_
 _atom_site_type_symbol
 _atom_site_label
 _atom_site_symmetry_multiplicity
 _atom_site_fract_x
 _atom_site_fract_y
 _atom_site_fract_z
 _atom_site_occupancy
  Lu  Lu0  1  0.333333  0.666667  0.750000  1
  Lu  Lu1  1  0.666667  0.333333  0.250000  1
  In  In2  1  0.333333  0.666667  0.531535  1
  In  In3  1  0.666667  0.333333  0.031535  1
  In  In4  1  0.666667  0.333333  0.468465  1
  In  In5  1  0.333333  0.666667  0.968465  1
  Cu  Cu6  1  0.000000  0.000000  0.000000  1
  Cu  Cu7  1  0.000000  0.000000  0.500000  1
  Ni  Ni8  1  0.166785  0.333570  0.147986  1
  Ni  Ni9  1  0.833215  0.666430  0.647986  1
  Ni  Ni10  1  0.666430  0.833215  0.147986  1
  Ni  Ni11  1  0.166785  0.833215  0.147986  1
  Ni  Ni12  1  0.833215  0.166785  0.647986  1
  Ni  Ni13  1  0.333570  0.166785  0.647986  1
  Ni  Ni14  1  0.833215  0.666430  0.852014  1
  Ni  Ni15  1  0.833215  0.166785  0.852014  1
  Ni  Ni16  1  0.333570  0.166785  0.852014  1
  Ni  Ni17  1  0.666430  0.833215  0.352014  1
  Ni  Ni18  1  0.166785  0.833215  0.352014  1
  Ni  Ni19  1  0.166785  0.333570  0.352014  1
  B  B20  1  0.333333  0.666667  0.250000  1
  B  B21  1  0.666667  0.333333  0.750000  1
  B  B22  1  0.000000  0.000000  0.250000  1
  B  B23  1  0.000000  0.000000  0.750000  1
