# generated using pymatgen
data_Y3Ho2Zr(SnIr)6
_symmetry_space_group_name_H-M   'P 1'
_cell_length_a   7.54447203
_cell_length_b   7.47713314
_cell_length_c   7.80625000
_cell_angle_alpha   90.00000000
_cell_angle_beta   90.00000000
_cell_angle_gamma   120.33605358
_symmetry_Int_Tables_number   1
_chemical_formula_structural   Y3Ho2Zr(SnIr)6
_chemical_formula_sum   'Y3 Ho2 Zr1 Sn6 Ir6'
_cell_volume   380.06372494
_cell_formula_units_Z   1
loop_
 _symmetry_equiv_pos_site_id
 _symmetry_equiv_pos_as_xyz
  1  'x, y, z'
loop_
 _atom_site_type_symbol
 _atom_site_label
 _atom_site_symmetry_multiplicity
 _atom_site_fract_x
 _atom_site_fract_y
 _atom_site_fract_z
 _atom_site_occupancy
  Y  Y0  1  0.409032  0.001890  0.250000  1
  Y  Y1  1  0.593592  0.596274  0.250000  1
  Y  Y2  1  0.995317  0.402947  0.250000  1
  Ho  Ho3  1  0.596561  0.596277  0.750000  1
  Ho  Ho4  1  0.005413  0.405976  0.750000  1
  Zr  Zr5  1  0.397998  0.998150  0.750000  1
  Sn  Sn6  1  0.261961  0.263609  0.499116  1
  Sn  Sn7  1  0.261961  0.263609  0.000884  1
  Sn  Sn8  1  0.742305  0.000504  0.991624  1
  Sn  Sn9  1  0.997330  0.735803  0.499512  1
  Sn  Sn10  1  0.742305  0.000504  0.508376  1
  Sn  Sn11  1  0.997330  0.735803  0.000488  1
  Ir  Ir12  1  0.657647  0.321681  0.517411  1
  Ir  Ir13  1  0.657647  0.321681  0.982589  1
  Ir  Ir14  1  0.335621  0.677695  0.989794  1
  Ir  Ir15  1  0.335621  0.677695  0.510206  1
  Ir  Ir16  1  0.013332  0.999962  0.750000  1
  Ir  Ir17  1  0.999030  0.999939  0.250000  1
