# generated using pymatgen
data_TbHo3Th2(ZnAu5)2
_symmetry_space_group_name_H-M   'P 1'
_cell_length_a   8.46237528
_cell_length_b   8.46237563
_cell_length_c   13.61042505
_cell_angle_alpha   90.00852141
_cell_angle_beta   89.99147717
_cell_angle_gamma   127.30549361
_symmetry_Int_Tables_number   1
_chemical_formula_structural   TbHo3Th2(ZnAu5)2
_chemical_formula_sum   'Tb2 Ho6 Th4 Zn4 Au20'
_cell_volume   775.26511650
_cell_formula_units_Z   2
loop_
 _symmetry_equiv_pos_site_id
 _symmetry_equiv_pos_as_xyz
  1  'x, y, z'
loop_
 _atom_site_type_symbol
 _atom_site_label
 _atom_site_symmetry_multiplicity
 _atom_site_fract_x
 _atom_site_fract_y
 _atom_site_fract_z
 _atom_site_occupancy
  Tb  Tb0  1  0.881819  0.118181  0.548065  1
  Tb  Tb1  1  0.118181  0.881819  0.451935  1
  Ho  Ho2  1  0.630512  0.369488  0.460678  1
  Ho  Ho3  1  0.369488  0.630512  0.539322  1
  Ho  Ho4  1  0.630788  0.369212  0.039417  1
  Ho  Ho5  1  0.369212  0.630788  0.960583  1
  Ho  Ho6  1  0.881991  0.118009  0.951881  1
  Ho  Ho7  1  0.118009  0.881991  0.048119  1
  Th  Th8  1  0.930282  0.069718  0.249775  1
  Th  Th9  1  0.069718  0.930282  0.750225  1
  Th  Th10  1  0.319693  0.680307  0.249770  1
  Th  Th11  1  0.680307  0.319693  0.750230  1
  Zn  Zn12  1  0.718761  0.281239  0.249974  1
  Zn  Zn13  1  0.281239  0.718761  0.750026  1
  Zn  Zn14  1  0.534246  0.465754  0.249953  1
  Zn  Zn15  1  0.465754  0.534246  0.750047  1
  Au  Au16  1  0.318181  0.064828  0.249564  1
  Au  Au17  1  0.064828  0.318181  0.750436  1
  Au  Au18  1  0.681819  0.935172  0.750436  1
  Au  Au19  1  0.935172  0.681819  0.249564  1
  Au  Au20  1  0.570273  0.005351  0.398282  1
  Au  Au21  1  0.005351  0.570273  0.601718  1
  Au  Au22  1  0.570560  0.005434  0.101298  1
  Au  Au23  1  0.005434  0.570560  0.898702  1
  Au  Au24  1  0.429727  0.994649  0.601718  1
  Au  Au25  1  0.994649  0.429727  0.398282  1
  Au  Au26  1  0.429440  0.994566  0.898702  1
  Au  Au27  1  0.994566  0.429440  0.101298  1
  Au  Au28  1  0.683502  0.738948  0.396689  1
  Au  Au29  1  0.738948  0.683502  0.603311  1
  Au  Au30  1  0.684355  0.739632  0.103028  1
  Au  Au31  1  0.739632  0.684355  0.896972  1
  Au  Au32  1  0.316498  0.261052  0.603311  1
  Au  Au33  1  0.261052  0.316498  0.396689  1
  Au  Au34  1  0.315645  0.260368  0.896972  1
  Au  Au35  1  0.260368  0.315645  0.103028  1
