# generated using pymatgen
data_Li8Tc(PdBr8)3
_symmetry_space_group_name_H-M   'P 1'
_cell_length_a   6.60222900
_cell_length_b   6.60222922
_cell_length_c   26.80673500
_cell_angle_alpha   90.00000000
_cell_angle_beta   90.00000000
_cell_angle_gamma   120.00000391
_symmetry_Int_Tables_number   1
_chemical_formula_structural   Li8Tc(PdBr8)3
_chemical_formula_sum   'Li8 Tc1 Pd3 Br24'
_cell_volume   1011.94222474
_cell_formula_units_Z   1
loop_
 _symmetry_equiv_pos_site_id
 _symmetry_equiv_pos_as_xyz
  1  'x, y, z'
loop_
 _atom_site_type_symbol
 _atom_site_label
 _atom_site_symmetry_multiplicity
 _atom_site_fract_x
 _atom_site_fract_y
 _atom_site_fract_z
 _atom_site_occupancy
  Li  Li0  1  0.000000  0.000000  0.250000  1
  Li  Li1  1  0.000000  0.000000  0.750000  1
  Li  Li2  1  0.333333  0.666667  0.999921  1
  Li  Li3  1  0.333333  0.666667  0.500079  1
  Li  Li4  1  0.333333  0.666667  0.250000  1
  Li  Li5  1  0.666667  0.333333  0.750000  1
  Li  Li6  1  0.666667  0.333333  0.000063  1
  Li  Li7  1  0.666667  0.333333  0.499937  1
  Tc  Tc8  1  0.666667  0.333333  0.250000  1
  Pd  Pd9  1  0.000000  0.000000  0.999931  1
  Pd  Pd10  1  0.000000  0.000000  0.500069  1
  Pd  Pd11  1  0.333333  0.666667  0.750000  1
  Br  Br12  1  0.354269  0.020713  0.305302  1
  Br  Br13  1  0.333557  0.976351  0.804601  1
  Br  Br14  1  0.000601  0.309983  0.054554  1
  Br  Br15  1  0.999394  0.309129  0.554551  1
  Br  Br16  1  0.979287  0.333555  0.305302  1
  Br  Br17  1  0.023649  0.357206  0.804601  1
  Br  Br18  1  0.354269  0.333555  0.194698  1
  Br  Br19  1  0.333557  0.357206  0.695399  1
  Br  Br20  1  0.309381  0.309983  0.445446  1
  Br  Br21  1  0.309735  0.309129  0.945449  1
  Br  Br22  1  0.690017  0.999399  0.445446  1
  Br  Br23  1  0.309381  0.999399  0.054554  1
  Br  Br24  1  0.309735  0.000606  0.554551  1
  Br  Br25  1  0.690017  0.690619  0.054554  1
  Br  Br26  1  0.690871  0.690265  0.554551  1
  Br  Br27  1  0.666445  0.645731  0.305302  1
  Br  Br28  1  0.642794  0.666443  0.804601  1
  Br  Br29  1  0.979287  0.645731  0.194698  1
  Br  Br30  1  0.023649  0.666443  0.695399  1
  Br  Br31  1  0.000601  0.690619  0.445446  1
  Br  Br32  1  0.999394  0.690265  0.945449  1
  Br  Br33  1  0.690871  0.000606  0.945449  1
  Br  Br34  1  0.666445  0.020713  0.194698  1
  Br  Br35  1  0.642794  0.976351  0.695399  1
