# generated using pymatgen
data_Dy4Ho2BiO12
_symmetry_space_group_name_H-M   'P 1'
_cell_length_a   6.55120132
_cell_length_b   6.55539316
_cell_length_c   6.55098563
_cell_angle_alpha   99.01487145
_cell_angle_beta   99.09122160
_cell_angle_gamma   99.10751374
_symmetry_Int_Tables_number   1
_chemical_formula_structural   Dy4Ho2BiO12
_chemical_formula_sum   'Dy4 Ho2 Bi1 O12'
_cell_volume   269.49483725
_cell_formula_units_Z   1
loop_
 _symmetry_equiv_pos_site_id
 _symmetry_equiv_pos_as_xyz
  1  'x, y, z'
loop_
 _atom_site_type_symbol
 _atom_site_label
 _atom_site_symmetry_multiplicity
 _atom_site_fract_x
 _atom_site_fract_y
 _atom_site_fract_z
 _atom_site_occupancy
  Dy  Dy0  1  0.141320  0.307505  0.608637  1
  Dy  Dy1  1  0.391138  0.858688  0.691698  1
  Dy  Dy2  1  0.692733  0.390959  0.859495  1
  Dy  Dy3  1  0.308096  0.609494  0.141582  1
  Ho  Ho4  1  0.609038  0.140305  0.307527  1
  Ho  Ho5  1  0.858687  0.692568  0.390750  1
  Bi  Bi6  1  0.999900  0.999970  0.000130  1
  O  O7  1  0.071036  0.316168  0.948509  1
  O  O8  1  0.050241  0.927743  0.683377  1
  O  O9  1  0.415183  0.566340  0.822090  1
  O  O10  1  0.177191  0.585295  0.433536  1
  O  O11  1  0.683489  0.050921  0.929314  1
  O  O12  1  0.433978  0.178501  0.583473  1
  O  O13  1  0.567715  0.821765  0.414701  1
  O  O14  1  0.316827  0.950228  0.071953  1
  O  O15  1  0.820745  0.415557  0.565261  1
  O  O16  1  0.585794  0.433098  0.179657  1
  O  O17  1  0.947976  0.071009  0.316218  1
  O  O18  1  0.928913  0.683886  0.052092  1
