# generated using pymatgen
data_La2Zn19Cu2Pd
_symmetry_space_group_name_H-M   'P 1'
_cell_length_a   8.30413914
_cell_length_b   8.27565857
_cell_length_c   8.29989682
_cell_angle_alpha   99.91990577
_cell_angle_beta   99.61586187
_cell_angle_gamma   131.44619061
_symmetry_Int_Tables_number   1
_chemical_formula_structural   La2Zn19Cu2Pd
_chemical_formula_sum   'La2 Zn19 Cu2 Pd1'
_cell_volume   389.45013963
_cell_formula_units_Z   1
loop_
 _symmetry_equiv_pos_site_id
 _symmetry_equiv_pos_as_xyz
  1  'x, y, z'
loop_
 _atom_site_type_symbol
 _atom_site_label
 _atom_site_symmetry_multiplicity
 _atom_site_fract_x
 _atom_site_fract_y
 _atom_site_fract_z
 _atom_site_occupancy
  La  La0  1  0.252067  0.749148  0.500439  1
  La  La1  1  0.997933  0.000852  0.999561  1
  Zn  Zn2  1  0.899499  0.571363  0.086990  1
  Zn  Zn3  1  0.431313  0.512476  0.324381  1
  Zn  Zn4  1  0.489589  0.573397  0.671914  1
  Zn  Zn5  1  0.429761  0.103761  0.920843  1
  Zn  Zn6  1  0.760411  0.176603  0.828086  1
  Zn  Zn7  1  0.490653  0.816270  0.922351  1
  Zn  Zn8  1  0.508398  0.503719  0.004618  1
  Zn  Zn9  1  0.759347  0.933730  0.577649  1
  Zn  Zn10  1  0.741602  0.246281  0.495382  1
  Zn  Zn11  1  0.067812  0.654577  0.830372  1
  Zn  Zn12  1  0.125000  0.375000  0.750000  1
  Zn  Zn13  1  0.350501  0.178637  0.413010  1
  Zn  Zn14  1  0.820239  0.646239  0.579157  1
  Zn  Zn15  1  0.893877  0.812166  0.326138  1
  Zn  Zn16  1  0.182188  0.095423  0.669628  1
  Zn  Zn17  1  0.061676  0.233158  0.411373  1
  Zn  Zn18  1  0.356123  0.937834  0.173862  1
  Zn  Zn19  1  0.818687  0.237524  0.175619  1
  Zn  Zn20  1  0.188324  0.516842  0.088627  1
  Cu  Cu21  1  0.625000  0.875000  0.250000  1
  Cu  Cu22  1  0.625000  0.375000  0.250000  1
  Pd  Pd23  1  0.625000  0.375000  0.750000  1
