# generated using pymatgen
data_Sc12CoRu6Pt5
_symmetry_space_group_name_H-M   'P 1'
_cell_length_a   4.60153500
_cell_length_b   6.40616700
_cell_length_c   13.78448000
_cell_angle_alpha   90.00000000
_cell_angle_beta   89.99997924
_cell_angle_gamma   90.00000000
_symmetry_Int_Tables_number   1
_chemical_formula_structural   Sc12CoRu6Pt5
_chemical_formula_sum   'Sc12 Co1 Ru6 Pt5'
_cell_volume   406.34168131
_cell_formula_units_Z   1
loop_
 _symmetry_equiv_pos_site_id
 _symmetry_equiv_pos_as_xyz
  1  'x, y, z'
loop_
 _atom_site_type_symbol
 _atom_site_label
 _atom_site_symmetry_multiplicity
 _atom_site_fract_x
 _atom_site_fract_y
 _atom_site_fract_z
 _atom_site_occupancy
  Sc  Sc0  1  0.500001  0.257289  0.000000  1
  Sc  Sc1  1  0.500001  0.742711  0.000000  1
  Sc  Sc2  1  0.999984  0.253206  0.162521  1
  Sc  Sc3  1  0.999984  0.746793  0.162521  1
  Sc  Sc4  1  0.499983  0.250021  0.332651  1
  Sc  Sc5  1  0.499983  0.749979  0.332651  1
  Sc  Sc6  1  0.000000  0.249652  0.500000  1
  Sc  Sc7  1  0.000000  0.750348  0.500000  1
  Sc  Sc8  1  0.500016  0.250021  0.667349  1
  Sc  Sc9  1  0.500016  0.749979  0.667349  1
  Sc  Sc10  1  0.000016  0.253206  0.837480  1
  Sc  Sc11  1  0.000016  0.746793  0.837480  1
  Co  Co12  1  0.000000  0.500000  0.000000  1
  Ru  Ru13  1  0.000000  0.000000  0.000000  1
  Ru  Ru14  1  0.499979  0.500000  0.166446  1
  Ru  Ru15  1  0.999983  0.000000  0.333007  1
  Ru  Ru16  1  0.500001  0.500000  0.500000  1
  Ru  Ru17  1  0.000017  0.000000  0.666993  1
  Ru  Ru18  1  0.500021  0.500000  0.833554  1
  Pt  Pt19  1  0.499979  0.000000  0.166157  1
  Pt  Pt20  1  0.999983  0.500000  0.332849  1
  Pt  Pt21  1  0.500001  0.000000  0.500000  1
  Pt  Pt22  1  0.000017  0.500000  0.667150  1
  Pt  Pt23  1  0.500021  0.000000  0.833842  1
