# generated using pymatgen
data_Tb7Er13Si15Ru
_symmetry_space_group_name_H-M   'P 1'
_cell_length_a   7.33930029
_cell_length_b   7.72100870
_cell_length_c   14.46695979
_cell_angle_alpha   89.97508113
_cell_angle_beta   89.97145365
_cell_angle_gamma   89.98653820
_symmetry_Int_Tables_number   1
_chemical_formula_structural   Tb7Er13Si15Ru
_chemical_formula_sum   'Tb7 Er13 Si15 Ru1'
_cell_volume   819.79613571
_cell_formula_units_Z   1
loop_
 _symmetry_equiv_pos_site_id
 _symmetry_equiv_pos_as_xyz
  1  'x, y, z'
loop_
 _atom_site_type_symbol
 _atom_site_label
 _atom_site_symmetry_multiplicity
 _atom_site_fract_x
 _atom_site_fract_y
 _atom_site_fract_z
 _atom_site_occupancy
  Tb  Tb0  1  0.022732  0.819427  0.903925  1
  Tb  Tb1  1  0.475573  0.316122  0.096980  1
  Tb  Tb2  1  0.976022  0.181464  0.403611  1
  Tb  Tb3  1  0.475773  0.316244  0.403572  1
  Tb  Tb4  1  0.976654  0.181316  0.096587  1
  Tb  Tb5  1  0.520493  0.673292  0.905295  1
  Tb  Tb6  1  0.022939  0.819271  0.595679  1
  Er  Er7  1  0.669974  0.185702  0.625915  1
  Er  Er8  1  0.192582  0.326192  0.872363  1
  Er  Er9  1  0.319191  0.819838  0.124176  1
  Er  Er10  1  0.817449  0.675622  0.376157  1
  Er  Er11  1  0.319399  0.819596  0.376195  1
  Er  Er12  1  0.817611  0.676061  0.123903  1
  Er  Er13  1  0.669738  0.185545  0.873772  1
  Er  Er14  1  0.193543  0.326713  0.627051  1
  Er  Er15  1  0.521252  0.673420  0.595483  1
  Er  Er16  1  0.838708  0.512950  0.749768  1
  Er  Er17  1  0.352267  0.983126  0.749784  1
  Er  Er18  1  0.151352  0.485404  0.250074  1
  Er  Er19  1  0.651482  0.012169  0.250157  1
  Si  Si20  1  0.648906  0.968322  0.461613  1
  Si  Si21  1  0.150763  0.529473  0.039350  1
  Si  Si22  1  0.347113  0.026762  0.961182  1
  Si  Si23  1  0.853993  0.470503  0.539534  1
  Si  Si24  1  0.348037  0.025088  0.539438  1
  Si  Si25  1  0.855188  0.469516  0.960638  1
  Si  Si26  1  0.648815  0.969495  0.038732  1
  Si  Si27  1  0.150086  0.529326  0.460447  1
  Si  Si28  1  0.979179  0.105072  0.749665  1
  Si  Si29  1  0.522695  0.606061  0.250154  1
  Si  Si30  1  0.020404  0.891201  0.250091  1
  Si  Si31  1  0.738141  0.877359  0.749692  1
  Si  Si32  1  0.227810  0.633404  0.749510  1
  Si  Si33  1  0.269719  0.127900  0.250232  1
  Si  Si34  1  0.771839  0.370259  0.250063  1
  Ru  Ru35  1  0.482580  0.410786  0.749209  1
