# generated using pymatgen
data_Na2Cr3Co9As7
_symmetry_space_group_name_H-M   'P 1'
_cell_length_a   3.69322800
_cell_length_b   9.45061417
_cell_length_c   9.45061500
_cell_angle_alpha   119.99999941
_cell_angle_beta   90.00000000
_cell_angle_gamma   90.00000000
_symmetry_Int_Tables_number   1
_chemical_formula_structural   Na2Cr3Co9As7
_chemical_formula_sum   'Na2 Cr3 Co9 As7'
_cell_volume   285.66488460
_cell_formula_units_Z   1
loop_
 _symmetry_equiv_pos_site_id
 _symmetry_equiv_pos_as_xyz
  1  'x, y, z'
loop_
 _atom_site_type_symbol
 _atom_site_label
 _atom_site_symmetry_multiplicity
 _atom_site_fract_x
 _atom_site_fract_y
 _atom_site_fract_z
 _atom_site_occupancy
  Na  Na0  1  0.000000  0.666667  0.333333  1
  Na  Na1  1  0.500000  0.333333  0.666667  1
  Cr  Cr2  1  0.500000  0.774854  0.899091  1
  Cr  Cr3  1  0.500000  0.124238  0.225146  1
  Cr  Cr4  1  0.500000  0.100909  0.875762  1
  Co  Co5  1  0.000000  0.574096  0.947270  1
  Co  Co6  1  0.000000  0.373174  0.425904  1
  Co  Co7  1  0.000000  0.052730  0.626826  1
  Co  Co8  1  0.000000  0.882307  0.158975  1
  Co  Co9  1  0.000000  0.276668  0.117693  1
  Co  Co10  1  0.000000  0.841025  0.723332  1
  Co  Co11  1  0.500000  0.952724  0.385004  1
  Co  Co12  1  0.500000  0.432278  0.047276  1
  Co  Co13  1  0.500000  0.614996  0.567722  1
  As  As14  1  0.000000  0.000000  0.000000  1
  As  As15  1  0.500000  0.708943  0.125161  1
  As  As16  1  0.500000  0.416219  0.291057  1
  As  As17  1  0.500000  0.874839  0.583781  1
  As  As18  1  0.000000  0.581142  0.701195  1
  As  As19  1  0.000000  0.120054  0.418858  1
  As  As20  1  0.000000  0.298805  0.879946  1
