# generated using pymatgen
data_Ho2ZrSnIr2
_symmetry_space_group_name_H-M   'P 1'
_cell_length_a   4.38064200
_cell_length_b   7.13063000
_cell_length_c   8.39945600
_cell_angle_alpha   90.00000000
_cell_angle_beta   90.00000000
_cell_angle_gamma   90.00000000
_symmetry_Int_Tables_number   1
_chemical_formula_structural   Ho2ZrSnIr2
_chemical_formula_sum   'Ho4 Zr2 Sn2 Ir4'
_cell_volume   262.37160024
_cell_formula_units_Z   2
loop_
 _symmetry_equiv_pos_site_id
 _symmetry_equiv_pos_as_xyz
  1  'x, y, z'
loop_
 _atom_site_type_symbol
 _atom_site_label
 _atom_site_symmetry_multiplicity
 _atom_site_fract_x
 _atom_site_fract_y
 _atom_site_fract_z
 _atom_site_occupancy
  Ho  Ho0  1  0.250000  0.033558  0.330681  1
  Ho  Ho1  1  0.250000  0.533558  0.169319  1
  Ho  Ho2  1  0.750000  0.971454  0.678105  1
  Ho  Ho3  1  0.750000  0.471454  0.821895  1
  Zr  Zr4  1  0.250000  0.130022  0.939600  1
  Zr  Zr5  1  0.250000  0.630022  0.560400  1
  Sn  Sn6  1  0.750000  0.855565  0.071395  1
  Sn  Sn7  1  0.750000  0.355565  0.428605  1
  Ir  Ir8  1  0.250000  0.259272  0.634760  1
  Ir  Ir9  1  0.250000  0.759272  0.865240  1
  Ir  Ir10  1  0.750000  0.750131  0.393790  1
  Ir  Ir11  1  0.750000  0.250131  0.106210  1
