# generated using pymatgen
data_Nd2Er6Be3Si12Pd
_symmetry_space_group_name_H-M   'P 1'
_cell_length_a   7.95167800
_cell_length_b   7.95167910
_cell_length_c   8.12955900
_cell_angle_alpha   90.00000000
_cell_angle_beta   90.00000000
_cell_angle_gamma   119.99998710
_symmetry_Int_Tables_number   1
_chemical_formula_structural   Nd2Er6Be3Si12Pd
_chemical_formula_sum   'Nd2 Er6 Be3 Si12 Pd1'
_cell_volume   445.15915149
_cell_formula_units_Z   1
loop_
 _symmetry_equiv_pos_site_id
 _symmetry_equiv_pos_as_xyz
  1  'x, y, z'
loop_
 _atom_site_type_symbol
 _atom_site_label
 _atom_site_symmetry_multiplicity
 _atom_site_fract_x
 _atom_site_fract_y
 _atom_site_fract_z
 _atom_site_occupancy
  Nd  Nd0  1  0.000000  0.000000  0.751210  1
  Nd  Nd1  1  0.000000  0.000000  0.248869  1
  Er  Er2  1  0.498548  0.501452  0.752366  1
  Er  Er3  1  0.498634  0.501366  0.247679  1
  Er  Er4  1  0.002905  0.501452  0.752366  1
  Er  Er5  1  0.002732  0.501366  0.247679  1
  Er  Er6  1  0.498548  0.997095  0.752366  1
  Er  Er7  1  0.498634  0.997268  0.247679  1
  Be  Be8  1  0.666667  0.333333  0.998896  1
  Be  Be9  1  0.333333  0.666667  0.000993  1
  Be  Be10  1  0.333333  0.666667  0.499369  1
  Si  Si11  1  0.825918  0.174082  0.000041  1
  Si  Si12  1  0.174220  0.825780  0.000056  1
  Si  Si13  1  0.348166  0.174082  0.000041  1
  Si  Si14  1  0.173126  0.826874  0.499807  1
  Si  Si15  1  0.651560  0.825780  0.000056  1
  Si  Si16  1  0.832839  0.167161  0.500168  1
  Si  Si17  1  0.825918  0.651834  0.000041  1
  Si  Si18  1  0.653749  0.826874  0.499807  1
  Si  Si19  1  0.174220  0.348440  0.000056  1
  Si  Si20  1  0.334322  0.167161  0.500168  1
  Si  Si21  1  0.173126  0.346251  0.499807  1
  Si  Si22  1  0.832839  0.665678  0.500168  1
  Pd  Pd23  1  0.666667  0.333333  0.500316  1
