# generated using pymatgen
data_K4Si8W2O23
_symmetry_space_group_name_H-M   'P 1'
_cell_length_a   6.86597253
_cell_length_b   7.84572917
_cell_length_c   11.18315991
_cell_angle_alpha   104.26285424
_cell_angle_beta   89.26932119
_cell_angle_gamma   106.89266644
_symmetry_Int_Tables_number   1
_chemical_formula_structural   K4Si8W2O23
_chemical_formula_sum   'K4 Si8 W2 O23'
_cell_volume   557.53319716
_cell_formula_units_Z   1
loop_
 _symmetry_equiv_pos_site_id
 _symmetry_equiv_pos_as_xyz
  1  'x, y, z'
loop_
 _atom_site_type_symbol
 _atom_site_label
 _atom_site_symmetry_multiplicity
 _atom_site_fract_x
 _atom_site_fract_y
 _atom_site_fract_z
 _atom_site_occupancy
  K  K0  1  0.280772  0.244431  0.482859  1
  K  K1  1  0.719228  0.755569  0.517141  1
  K  K2  1  0.338909  0.301825  0.149605  1
  K  K3  1  0.661091  0.698175  0.850395  1
  Si  Si4  1  0.965256  0.890797  0.211844  1
  Si  Si5  1  0.034744  0.109203  0.788156  1
  Si  Si6  1  0.173110  0.694775  0.377423  1
  Si  Si7  1  0.826890  0.305225  0.622577  1
  Si  Si8  1  0.511406  0.815667  0.215538  1
  Si  Si9  1  0.488594  0.184333  0.784462  1
  Si  Si10  1  0.170167  0.695351  0.004599  1
  Si  Si11  1  0.829833  0.304649  0.995401  1
  W  W12  1  0.787703  0.270140  0.308309  1
  W  W13  1  0.212297  0.729860  0.691691  1
  O  O14  1  0.373229  0.703178  0.085035  1
  O  O15  1  0.626771  0.296822  0.914965  1
  O  O16  1  0.405955  0.719654  0.325649  1
  O  O17  1  0.594045  0.280346  0.674351  1
  O  O18  1  0.725614  0.763189  0.189776  1
  O  O19  1  0.274386  0.236811  0.810224  1
  O  O20  1  0.544289  0.033300  0.252487  1
  O  O21  1  0.455711  0.966700  0.747513  1
  O  O22  1  0.056537  0.476819  0.336506  1
  O  O23  1  0.943463  0.523181  0.663494  1
  O  O24  1  0.986660  0.107032  0.257939  1
  O  O25  1  0.013340  0.892968  0.742061  1
  O  O26  1  0.618034  0.405070  0.364562  1
  O  O27  1  0.381966  0.594930  0.635438  1
  O  O28  1  0.075028  0.858663  0.079498  1
  O  O29  1  0.924972  0.141337  0.920502  1
  O  O30  1  0.766530  0.280118  0.128811  1
  O  O31  1  0.233470  0.719882  0.871189  1
  O  O32  1  0.000000  0.500000  0.000000  1
  O  O33  1  0.071680  0.820669  0.312715  1
  O  O34  1  0.928320  0.179331  0.687285  1
  O  O35  1  0.819833  0.213695  0.476330  1
  O  O36  1  0.180167  0.786305  0.523670  1
