# generated using pymatgen
data_Er4CdSnAu4
_symmetry_space_group_name_H-M   'P 1'
_cell_length_a   7.96387600
_cell_length_b   7.96387600
_cell_length_c   7.27839700
_cell_angle_alpha   90.00000000
_cell_angle_beta   90.00000000
_cell_angle_gamma   90.00000000
_symmetry_Int_Tables_number   1
_chemical_formula_structural   Er4CdSnAu4
_chemical_formula_sum   'Er8 Cd2 Sn2 Au8'
_cell_volume   461.62010888
_cell_formula_units_Z   2
loop_
 _symmetry_equiv_pos_site_id
 _symmetry_equiv_pos_as_xyz
  1  'x, y, z'
loop_
 _atom_site_type_symbol
 _atom_site_label
 _atom_site_symmetry_multiplicity
 _atom_site_fract_x
 _atom_site_fract_y
 _atom_site_fract_z
 _atom_site_occupancy
  Er  Er0  1  0.183891  0.183891  0.000000  1
  Er  Er1  1  0.316109  0.683891  0.500000  1
  Er  Er2  1  0.683891  0.316109  0.500000  1
  Er  Er3  1  0.816109  0.816109  0.000000  1
  Er  Er4  1  0.342723  0.657277  0.000000  1
  Er  Er5  1  0.657277  0.342723  0.000000  1
  Er  Er6  1  0.842723  0.842723  0.500000  1
  Er  Er7  1  0.157277  0.157277  0.500000  1
  Cd  Cd8  1  0.000000  0.500000  0.750000  1
  Cd  Cd9  1  0.500000  0.000000  0.250000  1
  Sn  Sn10  1  0.000000  0.500000  0.250000  1
  Sn  Sn11  1  0.500000  0.000000  0.750000  1
  Au  Au12  1  0.126570  0.869601  0.776206  1
  Au  Au13  1  0.869601  0.126570  0.223794  1
  Au  Au14  1  0.373430  0.369601  0.276206  1
  Au  Au15  1  0.630399  0.626570  0.723794  1
  Au  Au16  1  0.626570  0.630399  0.276206  1
  Au  Au17  1  0.873430  0.130399  0.776206  1
  Au  Au18  1  0.369601  0.373430  0.723794  1
  Au  Au19  1  0.130399  0.873430  0.223794  1
