# generated using pymatgen
data_Sr2LiCuN2
_symmetry_space_group_name_H-M   'P 1'
_cell_length_a   5.44838400
_cell_length_b   5.44838400
_cell_length_c   7.27398100
_cell_angle_alpha   90.00000000
_cell_angle_beta   90.00000000
_cell_angle_gamma   90.00000000
_symmetry_Int_Tables_number   1
_chemical_formula_structural   Sr2LiCuN2
_chemical_formula_sum   'Sr4 Li2 Cu2 N4'
_cell_volume   215.92731284
_cell_formula_units_Z   2
loop_
 _symmetry_equiv_pos_site_id
 _symmetry_equiv_pos_as_xyz
  1  'x, y, z'
loop_
 _atom_site_type_symbol
 _atom_site_label
 _atom_site_symmetry_multiplicity
 _atom_site_fract_x
 _atom_site_fract_y
 _atom_site_fract_z
 _atom_site_occupancy
  Sr  Sr0  1  0.000000  0.500000  0.750000  1
  Sr  Sr1  1  0.000000  0.500000  0.250000  1
  Sr  Sr2  1  0.500000  0.000000  0.250000  1
  Sr  Sr3  1  0.500000  0.000000  0.750000  1
  Li  Li4  1  0.000000  0.000000  0.500000  1
  Li  Li5  1  0.500000  0.500000  0.000000  1
  Cu  Cu6  1  0.500000  0.500000  0.500000  1
  Cu  Cu7  1  0.000000  0.000000  0.000000  1
  N  N8  1  0.745651  0.745651  0.500000  1
  N  N9  1  0.754349  0.245651  0.000000  1
  N  N10  1  0.254349  0.254349  0.500000  1
  N  N11  1  0.245651  0.754349  0.000000  1
