# generated using pymatgen
data_Gd6AlIn5(CuAu2)2
_symmetry_space_group_name_H-M   'P 1'
_cell_length_a   7.92428026
_cell_length_b   7.91087778
_cell_length_c   7.58452400
_cell_angle_alpha   90.00000000
_cell_angle_beta   89.88756708
_cell_angle_gamma   119.94407920
_symmetry_Int_Tables_number   1
_chemical_formula_structural   Gd6AlIn5(CuAu2)2
_chemical_formula_sum   'Gd6 Al1 In5 Cu2 Au4'
_cell_volume   411.99011588
_cell_formula_units_Z   1
loop_
 _symmetry_equiv_pos_site_id
 _symmetry_equiv_pos_as_xyz
  1  'x, y, z'
loop_
 _atom_site_type_symbol
 _atom_site_label
 _atom_site_symmetry_multiplicity
 _atom_site_fract_x
 _atom_site_fract_y
 _atom_site_fract_z
 _atom_site_occupancy
  Gd  Gd0  1  0.596948  0.997257  0.749050  1
  Gd  Gd1  1  0.003232  0.594445  0.748392  1
  Gd  Gd2  1  0.399892  0.402984  0.748772  1
  Gd  Gd3  1  0.996768  0.591213  0.251608  1
  Gd  Gd4  1  0.600108  0.003092  0.251228  1
  Gd  Gd5  1  0.403052  0.400310  0.250950  1
  Al  Al6  1  0.000000  0.241396  0.500000  1
  In  In7  1  0.757515  0.755687  0.999971  1
  In  In8  1  0.242485  0.998173  0.000029  1
  In  In9  1  0.000000  0.248799  0.000000  1
  In  In10  1  0.752419  0.753814  0.499902  1
  In  In11  1  0.247581  0.001396  0.500098  1
  Cu  Cu12  1  0.999809  0.012529  0.742219  1
  Cu  Cu13  1  0.000191  0.012721  0.257781  1
  Au  Au14  1  0.665360  0.332764  0.994457  1
  Au  Au15  1  0.674542  0.330280  0.505384  1
  Au  Au16  1  0.325458  0.655739  0.494616  1
  Au  Au17  1  0.334640  0.667405  0.005543  1
