# generated using pymatgen
data_Tb2Mn5(PRh)7
_symmetry_space_group_name_H-M   'P 1'
_cell_length_a   9.43857525
_cell_length_b   9.43845803
_cell_length_c   3.80611500
_cell_angle_alpha   90.00000000
_cell_angle_beta   90.00000000
_cell_angle_gamma   119.85834929
_symmetry_Int_Tables_number   1
_chemical_formula_structural   Tb2Mn5(PRh)7
_chemical_formula_sum   'Tb2 Mn5 P7 Rh7'
_cell_volume   294.06149371
_cell_formula_units_Z   1
loop_
 _symmetry_equiv_pos_site_id
 _symmetry_equiv_pos_as_xyz
  1  'x, y, z'
loop_
 _atom_site_type_symbol
 _atom_site_label
 _atom_site_symmetry_multiplicity
 _atom_site_fract_x
 _atom_site_fract_y
 _atom_site_fract_z
 _atom_site_occupancy
  Tb  Tb0  1  0.666487  0.332485  0.000000  1
  Tb  Tb1  1  0.333657  0.666950  0.500000  1
  Mn  Mn2  1  0.269229  0.113345  0.000000  1
  Mn  Mn3  1  0.843177  0.730332  0.000000  1
  Mn  Mn4  1  0.889666  0.158098  0.000000  1
  Mn  Mn5  1  0.775950  0.898210  0.500000  1
  Mn  Mn6  1  0.121648  0.223831  0.500000  1
  P  P7  1  0.298704  0.891469  0.000000  1
  P  P8  1  0.594983  0.703755  0.000000  1
  P  P9  1  0.111252  0.408301  0.000000  1
  P  P10  1  0.397138  0.277366  0.500000  1
  P  P11  1  0.878584  0.603354  0.500000  1
  P  P12  1  0.723982  0.117227  0.500000  1
  P  P13  1  0.997463  0.997776  0.000000  1
  Rh  Rh14  1  0.063405  0.635446  0.000000  1
  Rh  Rh15  1  0.572791  0.936968  0.000000  1
  Rh  Rh16  1  0.365118  0.429312  0.000000  1
  Rh  Rh17  1  0.442745  0.054123  0.500000  1
  Rh  Rh18  1  0.612667  0.558320  0.500000  1
  Rh  Rh19  1  0.946214  0.388779  0.500000  1
  Rh  Rh20  1  0.095139  0.874554  0.500000  1
