# generated using pymatgen
data_Tb2Si4Ni6(PRu2)3
_symmetry_space_group_name_H-M   'P 1'
_cell_length_a   9.37251700
_cell_length_b   9.37251914
_cell_length_c   3.75118700
_cell_angle_alpha   90.00000000
_cell_angle_beta   90.00000000
_cell_angle_gamma   120.00000210
_symmetry_Int_Tables_number   1
_chemical_formula_structural   Tb2Si4Ni6(PRu2)3
_chemical_formula_sum   'Tb2 Si4 Ni6 P3 Ru6'
_cell_volume   285.37236203
_cell_formula_units_Z   1
loop_
 _symmetry_equiv_pos_site_id
 _symmetry_equiv_pos_as_xyz
  1  'x, y, z'
loop_
 _atom_site_type_symbol
 _atom_site_label
 _atom_site_symmetry_multiplicity
 _atom_site_fract_x
 _atom_site_fract_y
 _atom_site_fract_z
 _atom_site_occupancy
  Tb  Tb0  1  0.666667  0.333333  0.000000  1
  Tb  Tb1  1  0.333333  0.666667  0.500000  1
  Si  Si2  1  0.287894  0.885795  0.000000  1
  Si  Si3  1  0.597903  0.712106  0.000000  1
  Si  Si4  1  0.114205  0.402097  0.000000  1
  Si  Si5  1  0.000000  0.000000  0.000000  1
  Ni  Ni6  1  0.059929  0.626802  0.000000  1
  Ni  Ni7  1  0.566872  0.940071  0.000000  1
  Ni  Ni8  1  0.373198  0.433128  0.000000  1
  Ni  Ni9  1  0.282536  0.127602  0.000000  1
  Ni  Ni10  1  0.845066  0.717464  0.000000  1
  Ni  Ni11  1  0.872398  0.154934  0.000000  1
  P  P12  1  0.401499  0.287479  0.500000  1
  P  P13  1  0.885980  0.598501  0.500000  1
  P  P14  1  0.712521  0.114020  0.500000  1
  Ru  Ru15  1  0.440212  0.054099  0.500000  1
  Ru  Ru16  1  0.613887  0.559788  0.500000  1
  Ru  Ru17  1  0.945901  0.386113  0.500000  1
  Ru  Ru18  1  0.092125  0.877318  0.500000  1
  Ru  Ru19  1  0.785193  0.907875  0.500000  1
  Ru  Ru20  1  0.122682  0.214807  0.500000  1
