# generated using pymatgen
data_HoFe(NiP)2
_symmetry_space_group_name_H-M   'P 1'
_cell_length_a   3.74971400
_cell_length_b   10.58921800
_cell_length_c   12.06761000
_cell_angle_alpha   90.00000000
_cell_angle_beta   90.00000000
_cell_angle_gamma   90.00000000
_symmetry_Int_Tables_number   1
_chemical_formula_structural   HoFe(NiP)2
_chemical_formula_sum   'Ho6 Fe6 Ni12 P12'
_cell_volume   479.16302690
_cell_formula_units_Z   6
loop_
 _symmetry_equiv_pos_site_id
 _symmetry_equiv_pos_as_xyz
  1  'x, y, z'
loop_
 _atom_site_type_symbol
 _atom_site_label
 _atom_site_symmetry_multiplicity
 _atom_site_fract_x
 _atom_site_fract_y
 _atom_site_fract_z
 _atom_site_occupancy
  Ho  Ho0  1  0.000000  0.500000  0.521091  1
  Ho  Ho1  1  0.500000  0.000000  0.478909  1
  Ho  Ho2  1  0.500000  0.819810  0.205377  1
  Ho  Ho3  1  0.500000  0.180190  0.205377  1
  Ho  Ho4  1  0.000000  0.680190  0.794623  1
  Ho  Ho5  1  0.000000  0.319810  0.794623  1
  Fe  Fe6  1  0.000000  0.500000  0.989982  1
  Fe  Fe7  1  0.500000  0.000000  0.010018  1
  Fe  Fe8  1  0.500000  0.333886  0.997287  1
  Fe  Fe9  1  0.500000  0.666114  0.997287  1
  Fe  Fe10  1  0.000000  0.166114  0.002713  1
  Fe  Fe11  1  0.000000  0.833886  0.002713  1
  Ni  Ni12  1  0.500000  0.303194  0.427977  1
  Ni  Ni13  1  0.500000  0.696806  0.427977  1
  Ni  Ni14  1  0.000000  0.196806  0.572023  1
  Ni  Ni15  1  0.000000  0.803194  0.572023  1
  Ni  Ni16  1  0.500000  0.878017  0.713156  1
  Ni  Ni17  1  0.500000  0.121983  0.713156  1
  Ni  Ni18  1  0.000000  0.621983  0.286844  1
  Ni  Ni19  1  0.000000  0.378017  0.286844  1
  Ni  Ni20  1  0.500000  0.500000  0.155636  1
  Ni  Ni21  1  0.000000  0.000000  0.844364  1
  Ni  Ni22  1  0.500000  0.500000  0.704374  1
  Ni  Ni23  1  0.000000  0.000000  0.295626  1
  P  P24  1  0.500000  0.313508  0.616084  1
  P  P25  1  0.500000  0.686492  0.616084  1
  P  P26  1  0.000000  0.186492  0.383916  1
  P  P27  1  0.000000  0.813508  0.383916  1
  P  P28  1  0.500000  0.500000  0.888577  1
  P  P29  1  0.000000  0.000000  0.111423  1
  P  P30  1  0.500000  0.840958  0.898552  1
  P  P31  1  0.500000  0.159042  0.898552  1
  P  P32  1  0.000000  0.659042  0.101448  1
  P  P33  1  0.000000  0.340958  0.101448  1
  P  P34  1  0.500000  0.500000  0.343361  1
  P  P35  1  0.000000  0.000000  0.656639  1
