# generated using pymatgen
data_TbDy4Zr3(Co4As3)4
_symmetry_space_group_name_H-M   'P 1'
_cell_length_a   12.74915000
_cell_length_b   12.74914896
_cell_length_c   3.84095500
_cell_angle_alpha   90.00000000
_cell_angle_beta   90.00000000
_cell_angle_gamma   120.00000788
_symmetry_Int_Tables_number   1
_chemical_formula_structural   TbDy4Zr3(Co4As3)4
_chemical_formula_sum   'Tb1 Dy4 Zr3 Co16 As12'
_cell_volume   540.66996252
_cell_formula_units_Z   1
loop_
 _symmetry_equiv_pos_site_id
 _symmetry_equiv_pos_as_xyz
  1  'x, y, z'
loop_
 _atom_site_type_symbol
 _atom_site_label
 _atom_site_symmetry_multiplicity
 _atom_site_fract_x
 _atom_site_fract_y
 _atom_site_fract_z
 _atom_site_occupancy
  Tb  Tb0  1  0.666667  0.333333  0.000000  1
  Dy  Dy1  1  0.183353  0.183353  0.500000  1
  Dy  Dy2  1  0.816647  0.999999  0.500000  1
  Dy  Dy3  1  0.000001  0.816647  0.500000  1
  Dy  Dy4  1  0.333333  0.666667  0.000000  1
  Zr  Zr5  1  0.562047  0.562081  0.000000  1
  Zr  Zr6  1  0.437919  0.999966  0.000000  1
  Zr  Zr7  1  0.000034  0.437953  0.000000  1
  Co  Co8  1  0.720298  0.720314  0.500000  1
  Co  Co9  1  0.279686  0.999984  0.500000  1
  Co  Co10  1  0.000016  0.279702  0.500000  1
  Co  Co11  1  0.178177  0.373780  0.000000  1
  Co  Co12  1  0.626220  0.804397  0.000000  1
  Co  Co13  1  0.195603  0.821823  0.000000  1
  Co  Co14  1  0.804418  0.626284  0.000000  1
  Co  Co15  1  0.821867  0.195582  0.000000  1
  Co  Co16  1  0.373716  0.178133  0.000000  1
  Co  Co17  1  0.357776  0.480109  0.500000  1
  Co  Co18  1  0.519891  0.877668  0.500000  1
  Co  Co19  1  0.122332  0.642224  0.500000  1
  Co  Co20  1  0.877806  0.520013  0.500000  1
  Co  Co21  1  0.642208  0.122194  0.500000  1
  Co  Co22  1  0.479987  0.357792  0.500000  1
  Co  Co23  1  0.000000  0.000000  0.000000  1
  As  As24  1  0.822732  0.822736  0.000000  1
  As  As25  1  0.177264  0.999996  0.000000  1
  As  As26  1  0.000004  0.177268  0.000000  1
  As  As27  1  0.173656  0.481304  0.500000  1
  As  As28  1  0.518696  0.692353  0.500000  1
  As  As29  1  0.307647  0.826344  0.500000  1
  As  As30  1  0.692395  0.518940  0.500000  1
  As  As31  1  0.826545  0.307605  0.500000  1
  As  As32  1  0.481060  0.173455  0.500000  1
  As  As33  1  0.352880  0.352863  0.000000  1
  As  As34  1  0.647137  0.000017  0.000000  1
  As  As35  1  0.999983  0.647120  0.000000  1
