# generated using pymatgen
data_Tm3LuOsRu7
_symmetry_space_group_name_H-M   'P 1'
_cell_length_a   5.30798025
_cell_length_b   5.19417498
_cell_length_c   8.86989202
_cell_angle_alpha   90.00635283
_cell_angle_beta   90.00052137
_cell_angle_gamma   120.38557806
_symmetry_Int_Tables_number   1
_chemical_formula_structural   Tm3LuOsRu7
_chemical_formula_sum   'Tm3 Lu1 Os1 Ru7'
_cell_volume   210.95717772
_cell_formula_units_Z   1
loop_
 _symmetry_equiv_pos_site_id
 _symmetry_equiv_pos_as_xyz
  1  'x, y, z'
loop_
 _atom_site_type_symbol
 _atom_site_label
 _atom_site_symmetry_multiplicity
 _atom_site_fract_x
 _atom_site_fract_y
 _atom_site_fract_z
 _atom_site_occupancy
  Tm  Tm0  1  0.332924  0.666951  0.433021  1
  Tm  Tm1  1  0.332877  0.666956  0.067348  1
  Tm  Tm2  1  0.669126  0.337013  0.932957  1
  Lu  Lu3  1  0.669279  0.337236  0.567018  1
  Os  Os4  1  0.165488  0.331769  0.749449  1
  Ru  Ru5  1  0.004441  0.007726  0.499888  1
  Ru  Ru6  1  0.004543  0.007910  0.000278  1
  Ru  Ru7  1  0.169109  0.822636  0.749371  1
  Ru  Ru8  1  0.651555  0.821693  0.749517  1
  Ru  Ru9  1  0.829395  0.658164  0.250407  1
  Ru  Ru10  1  0.828241  0.170104  0.250380  1
  Ru  Ru11  1  0.343021  0.171841  0.250366  1
