# generated using pymatgen
data_Sc4Co3Si6Ni3Ir
_symmetry_space_group_name_H-M   'P 1'
_cell_length_a   6.70945121
_cell_length_b   6.70945144
_cell_length_c   6.72119300
_cell_angle_alpha   109.50667756
_cell_angle_beta   109.50667825
_cell_angle_gamma   109.43574761
_symmetry_Int_Tables_number   1
_chemical_formula_structural   Sc4Co3Si6Ni3Ir
_chemical_formula_sum   'Sc4 Co3 Si6 Ni3 Ir1'
_cell_volume   232.81353122
_cell_formula_units_Z   1
loop_
 _symmetry_equiv_pos_site_id
 _symmetry_equiv_pos_as_xyz
  1  'x, y, z'
loop_
 _atom_site_type_symbol
 _atom_site_label
 _atom_site_symmetry_multiplicity
 _atom_site_fract_x
 _atom_site_fract_y
 _atom_site_fract_z
 _atom_site_occupancy
  Sc  Sc0  1  0.000000  0.000000  0.500000  1
  Sc  Sc1  1  0.006151  0.503076  0.003076  1
  Sc  Sc2  1  0.496924  0.993849  0.996924  1
  Sc  Sc3  1  0.496924  0.503076  0.500000  1
  Co  Co4  1  0.248974  0.497948  0.748974  1
  Co  Co5  1  0.248974  0.751026  0.500000  1
  Co  Co6  1  0.502052  0.751026  0.251026  1
  Si  Si7  1  0.669726  0.673657  0.999704  1
  Si  Si8  1  0.326343  0.996069  0.326047  1
  Si  Si9  1  0.003931  0.330274  0.329978  1
  Si  Si10  1  0.326343  0.330274  0.000296  1
  Si  Si11  1  0.669726  0.996069  0.670022  1
  Si  Si12  1  0.003931  0.673657  0.673953  1
  Ni  Ni13  1  0.749284  0.250716  0.500000  1
  Ni  Ni14  1  0.749284  0.498568  0.249284  1
  Ni  Ni15  1  0.501432  0.250716  0.750716  1
  Ir  Ir16  1  0.000000  0.000000  0.000000  1
