# generated using pymatgen
data_TbHo3Al18RePd5
_symmetry_space_group_name_H-M   'P 1'
_cell_length_a   7.63125046
_cell_length_b   7.63467090
_cell_length_c   9.49103153
_cell_angle_alpha   89.83179188
_cell_angle_beta   89.79090080
_cell_angle_gamma   119.35241998
_symmetry_Int_Tables_number   1
_chemical_formula_structural   TbHo3Al18RePd5
_chemical_formula_sum   'Tb1 Ho3 Al18 Re1 Pd5'
_cell_volume   481.96770922
_cell_formula_units_Z   1
loop_
 _symmetry_equiv_pos_site_id
 _symmetry_equiv_pos_as_xyz
  1  'x, y, z'
loop_
 _atom_site_type_symbol
 _atom_site_label
 _atom_site_symmetry_multiplicity
 _atom_site_fract_x
 _atom_site_fract_y
 _atom_site_fract_z
 _atom_site_occupancy
  Tb  Tb0  1  0.995587  0.673475  0.248332  1
  Ho  Ho1  1  0.004367  0.325826  0.752122  1
  Ho  Ho2  1  0.673922  0.995707  0.247923  1
  Ho  Ho3  1  0.326015  0.004591  0.752033  1
  Al  Al4  1  0.131307  0.131639  0.247299  1
  Al  Al5  1  0.868762  0.868905  0.752488  1
  Al  Al6  1  0.999868  0.330288  0.074296  1
  Al  Al7  1  0.000134  0.669252  0.924663  1
  Al  Al8  1  0.998614  0.662882  0.578967  1
  Al  Al9  1  0.337562  0.001872  0.422033  1
  Al  Al10  1  0.001361  0.336358  0.422092  1
  Al  Al11  1  0.663014  0.998706  0.578442  1
  Al  Al12  1  0.669110  0.000175  0.925246  1
  Al  Al13  1  0.331472  0.000588  0.074182  1
  Al  Al14  1  0.333858  0.333872  0.557211  1
  Al  Al15  1  0.665634  0.666142  0.443474  1
  Al  Al16  1  0.669803  0.670375  0.053138  1
  Al  Al17  1  0.329809  0.329838  0.946171  1
  Al  Al18  1  0.342261  0.549225  0.249228  1
  Al  Al19  1  0.658016  0.450537  0.750783  1
  Al  Al20  1  0.548731  0.341368  0.249237  1
  Al  Al21  1  0.450585  0.658181  0.750747  1
  Re  Re22  1  0.000133  0.000204  0.999740  1
  Pd  Pd23  1  0.672079  0.327846  0.999887  1
  Pd  Pd24  1  0.327957  0.672103  0.999905  1
  Pd  Pd25  1  0.327737  0.672364  0.500113  1
  Pd  Pd26  1  0.672282  0.327568  0.500102  1
  Pd  Pd27  1  0.000022  0.000114  0.500144  1
