# generated using pymatgen
data_Sc12In(RuI8)2
_symmetry_space_group_name_H-M   'P 1'
_cell_length_a   9.22848251
_cell_length_b   12.01119240
_cell_length_c   12.64396669
_cell_angle_alpha   117.45594211
_cell_angle_beta   101.09995672
_cell_angle_gamma   100.80766711
_symmetry_Int_Tables_number   1
_chemical_formula_structural   Sc12In(RuI8)2
_chemical_formula_sum   'Sc12 In1 Ru2 I16'
_cell_volume   1157.34038361
_cell_formula_units_Z   1
loop_
 _symmetry_equiv_pos_site_id
 _symmetry_equiv_pos_as_xyz
  1  'x, y, z'
loop_
 _atom_site_type_symbol
 _atom_site_label
 _atom_site_symmetry_multiplicity
 _atom_site_fract_x
 _atom_site_fract_y
 _atom_site_fract_z
 _atom_site_occupancy
  Sc  Sc0  1  0.103278  0.259504  0.351625  1
  Sc  Sc1  1  0.896722  0.740496  0.648375  1
  Sc  Sc2  1  0.760869  0.536744  0.322430  1
  Sc  Sc3  1  0.239131  0.463256  0.677570  1
  Sc  Sc4  1  0.299023  0.740714  0.647662  1
  Sc  Sc5  1  0.700977  0.259286  0.352338  1
  Sc  Sc6  1  0.163224  0.536358  0.321919  1
  Sc  Sc7  1  0.836776  0.463642  0.678081  1
  Sc  Sc8  1  0.410431  0.364593  0.283635  1
  Sc  Sc9  1  0.589569  0.635407  0.716365  1
  Sc  Sc10  1  0.460008  0.316413  0.519780  1
  Sc  Sc11  1  0.539992  0.683587  0.480220  1
  In  In12  1  0.000000  0.500000  0.500000  1
  Ru  Ru13  1  0.337876  0.500019  0.499607  1
  Ru  Ru14  1  0.662125  0.499981  0.500393  1
  I  I15  1  0.395243  0.742686  0.887589  1
  I  I16  1  0.604757  0.257314  0.112411  1
  I  I17  1  0.187884  0.962766  0.782759  1
  I  I18  1  0.812116  0.037234  0.217241  1
  I  I19  1  0.335387  0.091911  0.248548  1
  I  I20  1  0.664613  0.908089  0.751452  1
  I  I21  1  0.561392  0.438192  0.801910  1
  I  I22  1  0.438608  0.561808  0.198090  1
  I  I23  1  0.307755  0.829095  0.462748  1
  I  I24  1  0.692245  0.170905  0.537252  1
  I  I25  1  0.164523  0.170405  0.534695  1
  I  I26  1  0.835477  0.829595  0.465305  1
  I  I27  1  0.927361  0.573731  0.160965  1
  I  I28  1  0.072639  0.426269  0.839035  1
  I  I29  1  0.925886  0.742295  0.888197  1
  I  I30  1  0.074114  0.257705  0.111803  1
