# generated using pymatgen
data_Er8AlHgPt2
_symmetry_space_group_name_H-M   'P 1'
_cell_length_a   9.53500528
_cell_length_b   9.53500361
_cell_length_c   9.52665600
_cell_angle_alpha   60.02894915
_cell_angle_beta   60.02895496
_cell_angle_gamma   60.05015570
_symmetry_Int_Tables_number   1
_chemical_formula_structural   Er8AlHgPt2
_chemical_formula_sum   'Er16 Al2 Hg2 Pt4'
_cell_volume   612.94526201
_cell_formula_units_Z   2
loop_
 _symmetry_equiv_pos_site_id
 _symmetry_equiv_pos_as_xyz
  1  'x, y, z'
loop_
 _atom_site_type_symbol
 _atom_site_label
 _atom_site_symmetry_multiplicity
 _atom_site_fract_x
 _atom_site_fract_y
 _atom_site_fract_z
 _atom_site_occupancy
  Er  Er0  1  0.353822  0.353822  0.353861  1
  Er  Er1  1  0.353822  0.353822  0.938496  1
  Er  Er2  1  0.356277  0.932266  0.355729  1
  Er  Er3  1  0.932266  0.356277  0.355729  1
  Er  Er4  1  0.808743  0.190086  0.193118  1
  Er  Er5  1  0.190086  0.808743  0.808053  1
  Er  Er6  1  0.190086  0.808743  0.193118  1
  Er  Er7  1  0.808743  0.190086  0.808053  1
  Er  Er8  1  0.193026  0.193026  0.806974  1
  Er  Er9  1  0.809985  0.809985  0.190015  1
  Er  Er10  1  0.937282  0.563236  0.564780  1
  Er  Er11  1  0.563236  0.937282  0.934702  1
  Er  Er12  1  0.563236  0.937282  0.564780  1
  Er  Er13  1  0.937282  0.563236  0.934702  1
  Er  Er14  1  0.564837  0.564837  0.935163  1
  Er  Er15  1  0.935650  0.935650  0.564350  1
  Al  Al16  1  0.577081  0.261293  0.580814  1
  Al  Al17  1  0.261293  0.577081  0.580814  1
  Hg  Hg18  1  0.582839  0.582839  0.588429  1
  Hg  Hg19  1  0.582839  0.582839  0.245893  1
  Pt  Pt20  1  0.143196  0.143196  0.146145  1
  Pt  Pt21  1  0.143196  0.143196  0.567462  1
  Pt  Pt22  1  0.141983  0.569192  0.144412  1
  Pt  Pt23  1  0.569192  0.141983  0.144412  1
