# generated using pymatgen
data_Dy2Y6Cd2IrPt
_symmetry_space_group_name_H-M   'P 1'
_cell_length_a   9.67676515
_cell_length_b   9.67676463
_cell_length_c   9.65621900
_cell_angle_alpha   60.07020641
_cell_angle_beta   60.07020818
_cell_angle_gamma   60.19090739
_symmetry_Int_Tables_number   1
_chemical_formula_structural   Dy2Y6Cd2IrPt
_chemical_formula_sum   'Dy4 Y12 Cd4 Ir2 Pt2'
_cell_volume   640.96829537
_cell_formula_units_Z   2
loop_
 _symmetry_equiv_pos_site_id
 _symmetry_equiv_pos_as_xyz
  1  'x, y, z'
loop_
 _atom_site_type_symbol
 _atom_site_label
 _atom_site_symmetry_multiplicity
 _atom_site_fract_x
 _atom_site_fract_y
 _atom_site_fract_z
 _atom_site_occupancy
  Dy  Dy0  1  0.350781  0.350781  0.346499  1
  Dy  Dy1  1  0.350781  0.350781  0.951941  1
  Dy  Dy2  1  0.355246  0.945332  0.349712  1
  Dy  Dy3  1  0.945332  0.355246  0.349712  1
  Y  Y4  1  0.806275  0.190299  0.191442  1
  Y  Y5  1  0.190299  0.806275  0.811985  1
  Y  Y6  1  0.190299  0.806275  0.191442  1
  Y  Y7  1  0.806275  0.190299  0.811985  1
  Y  Y8  1  0.192115  0.192115  0.807885  1
  Y  Y9  1  0.810518  0.810518  0.189482  1
  Y  Y10  1  0.937955  0.563928  0.561683  1
  Y  Y11  1  0.563928  0.937955  0.936433  1
  Y  Y12  1  0.563928  0.937955  0.561683  1
  Y  Y13  1  0.937955  0.563928  0.936433  1
  Y  Y14  1  0.563122  0.563122  0.936878  1
  Y  Y15  1  0.937227  0.937227  0.562773  1
  Cd  Cd16  1  0.581129  0.581129  0.581304  1
  Cd  Cd17  1  0.581129  0.581129  0.256439  1
  Cd  Cd18  1  0.580905  0.256176  0.581460  1
  Cd  Cd19  1  0.256176  0.580905  0.581460  1
  Ir  Ir20  1  0.142243  0.571039  0.143360  1
  Ir  Ir21  1  0.571039  0.142243  0.143360  1
  Pt  Pt22  1  0.142674  0.142674  0.144634  1
  Pt  Pt23  1  0.142674  0.142674  0.570019  1
