# generated using pymatgen
data_InOsI18
_symmetry_space_group_name_H-M   'P 1'
_cell_length_a   10.12834023
_cell_length_b   10.12834075
_cell_length_c   10.12834207
_cell_angle_alpha   89.39791957
_cell_angle_beta   89.39791982
_cell_angle_gamma   89.39792667
_symmetry_Int_Tables_number   1
_chemical_formula_structural   InOsI18
_chemical_formula_sum   'In1 Os1 I18'
_cell_volume   1038.82766538
_cell_formula_units_Z   1
loop_
 _symmetry_equiv_pos_site_id
 _symmetry_equiv_pos_as_xyz
  1  'x, y, z'
loop_
 _atom_site_type_symbol
 _atom_site_label
 _atom_site_symmetry_multiplicity
 _atom_site_fract_x
 _atom_site_fract_y
 _atom_site_fract_z
 _atom_site_occupancy
  In  In0  1  0.500000  0.500000  0.500000  1
  Os  Os1  1  0.000000  0.000000  0.000000  1
  I  I2  1  0.734458  0.995582  0.019183  1
  I  I3  1  0.748656  0.120382  0.619155  1
  I  I4  1  0.019183  0.734458  0.995582  1
  I  I5  1  0.251344  0.879618  0.380845  1
  I  I6  1  0.120382  0.619155  0.748656  1
  I  I7  1  0.004418  0.980817  0.265542  1
  I  I8  1  0.619155  0.748656  0.120382  1
  I  I9  1  0.980817  0.265542  0.004418  1
  I  I10  1  0.879618  0.380845  0.251344  1
  I  I11  1  0.380845  0.251344  0.879618  1
  I  I12  1  0.995582  0.019183  0.734458  1
  I  I13  1  0.265542  0.004418  0.980817  1
  I  I14  1  0.791942  0.525231  0.490606  1
  I  I15  1  0.509394  0.208058  0.474769  1
  I  I16  1  0.474769  0.509394  0.208058  1
  I  I17  1  0.490606  0.791942  0.525231  1
  I  I18  1  0.525231  0.490606  0.791942  1
  I  I19  1  0.208058  0.474769  0.509394  1
