# generated using pymatgen
data_Er2LuIn3Rh2Pb
_symmetry_space_group_name_H-M   'P 1'
_cell_length_a   7.81185571
_cell_length_b   7.83187207
_cell_length_c   3.86865700
_cell_angle_alpha   90.00000000
_cell_angle_beta   90.00000000
_cell_angle_gamma   120.02698133
_symmetry_Int_Tables_number   1
_chemical_formula_structural   Er2LuIn3Rh2Pb
_chemical_formula_sum   'Er2 Lu1 In3 Rh2 Pb1'
_cell_volume   204.92385391
_cell_formula_units_Z   1
loop_
 _symmetry_equiv_pos_site_id
 _symmetry_equiv_pos_as_xyz
  1  'x, y, z'
loop_
 _atom_site_type_symbol
 _atom_site_label
 _atom_site_symmetry_multiplicity
 _atom_site_fract_x
 _atom_site_fract_y
 _atom_site_fract_z
 _atom_site_occupancy
  Er  Er0  1  0.385577  0.420092  0.500000  1
  Er  Er1  1  0.579746  0.965753  0.500000  1
  Lu  Lu2  1  0.036638  0.615931  0.500000  1
  In  In3  1  0.244207  0.986347  0.000000  1
  In  In4  1  0.743007  0.754971  0.000000  1
  In  In5  1  0.011823  0.256953  0.000000  1
  Rh  Rh6  1  0.330765  0.666181  0.000000  1
  Rh  Rh7  1  0.000021  0.999146  0.500000  1
  Pb  Pb8  1  0.668217  0.334626  0.000000  1
