# generated using pymatgen
data_Ce4Hf5NbSi8
_symmetry_space_group_name_H-M   'P 1'
_cell_length_a   7.29797780
_cell_length_b   7.29797725
_cell_length_c   13.40784300
_cell_angle_alpha   90.00000000
_cell_angle_beta   90.00000000
_cell_angle_gamma   90.05399860
_symmetry_Int_Tables_number   1
_chemical_formula_structural   Ce4Hf5NbSi8
_chemical_formula_sum   'Ce8 Hf10 Nb2 Si16'
_cell_volume   714.10778185
_cell_formula_units_Z   2
loop_
 _symmetry_equiv_pos_site_id
 _symmetry_equiv_pos_as_xyz
  1  'x, y, z'
loop_
 _atom_site_type_symbol
 _atom_site_label
 _atom_site_symmetry_multiplicity
 _atom_site_fract_x
 _atom_site_fract_y
 _atom_site_fract_z
 _atom_site_occupancy
  Ce  Ce0  1  0.995751  0.341424  0.214424  1
  Ce  Ce1  1  0.004249  0.658576  0.714424  1
  Ce  Ce2  1  0.157227  0.495558  0.465331  1
  Ce  Ce3  1  0.504442  0.842773  0.034669  1
  Ce  Ce4  1  0.842773  0.504442  0.965331  1
  Ce  Ce5  1  0.495558  0.157227  0.534669  1
  Ce  Ce6  1  0.341424  0.995751  0.785576  1
  Ce  Ce7  1  0.658576  0.004249  0.285576  1
  Hf  Hf8  1  0.325427  0.674573  0.250000  1
  Hf  Hf9  1  0.674573  0.325427  0.750000  1
  Hf  Hf10  1  0.148529  0.996806  0.376113  1
  Hf  Hf11  1  0.851471  0.003194  0.876113  1
  Hf  Hf12  1  0.505048  0.651965  0.623278  1
  Hf  Hf13  1  0.348035  0.494952  0.876722  1
  Hf  Hf14  1  0.494952  0.348035  0.123278  1
  Hf  Hf15  1  0.651965  0.505048  0.376722  1
  Hf  Hf16  1  0.996806  0.148529  0.623887  1
  Hf  Hf17  1  0.003194  0.851471  0.123887  1
  Nb  Nb18  1  0.174098  0.174098  0.000000  1
  Nb  Nb19  1  0.825902  0.825902  0.500000  1
  Si  Si20  1  0.363872  0.296451  0.315031  1
  Si  Si21  1  0.636128  0.703549  0.815031  1
  Si  Si22  1  0.202981  0.863004  0.565464  1
  Si  Si23  1  0.136996  0.797019  0.934536  1
  Si  Si24  1  0.797019  0.136996  0.065464  1
  Si  Si25  1  0.863004  0.202981  0.434536  1
  Si  Si26  1  0.296451  0.363872  0.684969  1
  Si  Si27  1  0.703549  0.636128  0.184969  1
  Si  Si28  1  0.293533  0.049464  0.184361  1
  Si  Si29  1  0.706467  0.950536  0.684361  1
  Si  Si30  1  0.452930  0.794801  0.435308  1
  Si  Si31  1  0.205199  0.547070  0.064692  1
  Si  Si32  1  0.547070  0.205199  0.935308  1
  Si  Si33  1  0.794801  0.452930  0.564692  1
  Si  Si34  1  0.049464  0.293533  0.815639  1
  Si  Si35  1  0.950536  0.706467  0.315639  1
