# generated using pymatgen
data_SmYCo12SiP6
_symmetry_space_group_name_H-M   'P 1'
_cell_length_a   9.05707200
_cell_length_b   9.05707299
_cell_length_c   3.61263900
_cell_angle_alpha   90.00000000
_cell_angle_beta   90.00000000
_cell_angle_gamma   120.00000369
_symmetry_Int_Tables_number   1
_chemical_formula_structural   SmYCo12SiP6
_chemical_formula_sum   'Sm1 Y1 Co12 Si1 P6'
_cell_volume   256.64385457
_cell_formula_units_Z   1
loop_
 _symmetry_equiv_pos_site_id
 _symmetry_equiv_pos_as_xyz
  1  'x, y, z'
loop_
 _atom_site_type_symbol
 _atom_site_label
 _atom_site_symmetry_multiplicity
 _atom_site_fract_x
 _atom_site_fract_y
 _atom_site_fract_z
 _atom_site_occupancy
  Sm  Sm0  1  0.333333  0.666667  0.500000  1
  Y  Y1  1  0.000000  0.000000  0.000000  1
  Co  Co2  1  0.099147  0.391243  0.000000  1
  Co  Co3  1  0.608757  0.707903  0.000000  1
  Co  Co4  1  0.292097  0.900853  0.000000  1
  Co  Co5  1  0.050379  0.768430  0.500000  1
  Co  Co6  1  0.231570  0.281949  0.500000  1
  Co  Co7  1  0.718051  0.949621  0.500000  1
  Co  Co8  1  0.823932  0.613690  0.000000  1
  Co  Co9  1  0.386310  0.210242  0.000000  1
  Co  Co10  1  0.789758  0.176068  0.000000  1
  Co  Co11  1  0.895417  0.433265  0.500000  1
  Co  Co12  1  0.566735  0.462152  0.500000  1
  Co  Co13  1  0.537848  0.104583  0.500000  1
  Si  Si14  1  0.666667  0.333333  0.000000  1
  P  P15  1  0.777477  0.735278  0.500000  1
  P  P16  1  0.264722  0.042199  0.500000  1
  P  P17  1  0.957801  0.222523  0.500000  1
  P  P18  1  0.070155  0.626857  0.000000  1
  P  P19  1  0.373143  0.443297  0.000000  1
  P  P20  1  0.556703  0.929845  0.000000  1
