# generated using pymatgen
data_Yb(TcN)4
_symmetry_space_group_name_H-M   'P 1'
_cell_length_a   5.98765661
_cell_length_b   5.98765728
_cell_length_c   5.98765800
_cell_angle_alpha   93.37753831
_cell_angle_beta   93.37754827
_cell_angle_gamma   151.90524811
_symmetry_Int_Tables_number   1
_chemical_formula_structural   Yb(TcN)4
_chemical_formula_sum   'Yb1 Tc4 N4'
_cell_volume   98.07143536
_cell_formula_units_Z   1
loop_
 _symmetry_equiv_pos_site_id
 _symmetry_equiv_pos_as_xyz
  1  'x, y, z'
loop_
 _atom_site_type_symbol
 _atom_site_label
 _atom_site_symmetry_multiplicity
 _atom_site_fract_x
 _atom_site_fract_y
 _atom_site_fract_z
 _atom_site_occupancy
  Yb  Yb0  1  0.000000  0.000000  0.000000  1
  Tc  Tc1  1  0.834331  0.392696  0.227027  1
  Tc  Tc2  1  0.607305  0.834331  0.441635  1
  Tc  Tc3  1  0.392696  0.165670  0.558366  1
  Tc  Tc4  1  0.165670  0.607305  0.772973  1
  N  N5  1  0.393030  0.718774  0.111803  1
  N  N6  1  0.718774  0.606971  0.325744  1
  N  N7  1  0.281227  0.393030  0.674257  1
  N  N8  1  0.606971  0.281227  0.888198  1
