# generated using pymatgen
data_Tb2ZrIr3
_symmetry_space_group_name_H-M   'P 1'
_cell_length_a   5.72718301
_cell_length_b   5.72718326
_cell_length_c   8.36631200
_cell_angle_alpha   90.00000000
_cell_angle_beta   90.00000000
_cell_angle_gamma   119.99935344
_symmetry_Int_Tables_number   1
_chemical_formula_structural   Tb2ZrIr3
_chemical_formula_sum   'Tb4 Zr2 Ir6'
_cell_volume   237.65647914
_cell_formula_units_Z   2
loop_
 _symmetry_equiv_pos_site_id
 _symmetry_equiv_pos_as_xyz
  1  'x, y, z'
loop_
 _atom_site_type_symbol
 _atom_site_label
 _atom_site_symmetry_multiplicity
 _atom_site_fract_x
 _atom_site_fract_y
 _atom_site_fract_z
 _atom_site_occupancy
  Tb  Tb0  1  0.666662  0.333338  0.562860  1
  Tb  Tb1  1  0.333338  0.666662  0.437140  1
  Tb  Tb2  1  0.333338  0.666662  0.062860  1
  Tb  Tb3  1  0.666662  0.333338  0.937140  1
  Zr  Zr4  1  0.000000  0.000000  0.500000  1
  Zr  Zr5  1  0.000000  0.000000  0.000000  1
  Ir  Ir6  1  0.175115  0.350315  0.750000  1
  Ir  Ir7  1  0.175126  0.824874  0.750000  1
  Ir  Ir8  1  0.649685  0.824885  0.750000  1
  Ir  Ir9  1  0.824885  0.649685  0.250000  1
  Ir  Ir10  1  0.824874  0.175126  0.250000  1
  Ir  Ir11  1  0.350315  0.175115  0.250000  1
