# generated using pymatgen
data_Ti9Cu(Sn3Mo)3
_symmetry_space_group_name_H-M   'P 1'
_cell_length_a   9.23991200
_cell_length_b   9.23991292
_cell_length_c   5.55729500
_cell_angle_alpha   90.00000000
_cell_angle_beta   90.00000000
_cell_angle_gamma   120.00000388
_symmetry_Int_Tables_number   1
_chemical_formula_structural   Ti9Cu(Sn3Mo)3
_chemical_formula_sum   'Ti9 Cu1 Sn9 Mo3'
_cell_volume   410.89398055
_cell_formula_units_Z   1
loop_
 _symmetry_equiv_pos_site_id
 _symmetry_equiv_pos_as_xyz
  1  'x, y, z'
loop_
 _atom_site_type_symbol
 _atom_site_label
 _atom_site_symmetry_multiplicity
 _atom_site_fract_x
 _atom_site_fract_y
 _atom_site_fract_z
 _atom_site_occupancy
  Ti  Ti0  1  0.846098  0.692195  0.738887  1
  Ti  Ti1  1  0.153902  0.846098  0.261113  1
  Ti  Ti2  1  0.692195  0.846098  0.261113  1
  Ti  Ti3  1  0.307805  0.153902  0.738887  1
  Ti  Ti4  1  0.846098  0.153902  0.738887  1
  Ti  Ti5  1  0.153902  0.307805  0.261113  1
  Ti  Ti6  1  0.500000  0.500000  0.000000  1
  Ti  Ti7  1  0.000000  0.500000  0.000000  1
  Ti  Ti8  1  0.500000  0.000000  0.000000  1
  Cu  Cu9  1  0.000000  0.000000  0.500000  1
  Sn  Sn10  1  0.201104  0.402209  0.754660  1
  Sn  Sn11  1  0.798896  0.201104  0.245340  1
  Sn  Sn12  1  0.402209  0.201104  0.245340  1
  Sn  Sn13  1  0.597791  0.798896  0.754660  1
  Sn  Sn14  1  0.201104  0.798896  0.754660  1
  Sn  Sn15  1  0.798896  0.597791  0.245340  1
  Sn  Sn16  1  0.666667  0.333333  0.730974  1
  Sn  Sn17  1  0.333333  0.666667  0.269026  1
  Sn  Sn18  1  0.000000  0.000000  0.000000  1
  Mo  Mo19  1  0.500000  0.000000  0.500000  1
  Mo  Mo20  1  0.000000  0.500000  0.500000  1
  Mo  Mo21  1  0.500000  0.500000  0.500000  1
