# generated using pymatgen
data_Na2Mn5(MoO4)6
_symmetry_space_group_name_H-M   'P 1'
_cell_length_a   7.18606448
_cell_length_b   8.89247703
_cell_length_c   10.62474349
_cell_angle_alpha   106.52913385
_cell_angle_beta   105.13633498
_cell_angle_gamma   102.37923589
_symmetry_Int_Tables_number   1
_chemical_formula_structural   Na2Mn5(MoO4)6
_chemical_formula_sum   'Na2 Mn5 Mo6 O24'
_cell_volume   596.95313257
_cell_formula_units_Z   1
loop_
 _symmetry_equiv_pos_site_id
 _symmetry_equiv_pos_as_xyz
  1  'x, y, z'
loop_
 _atom_site_type_symbol
 _atom_site_label
 _atom_site_symmetry_multiplicity
 _atom_site_fract_x
 _atom_site_fract_y
 _atom_site_fract_z
 _atom_site_occupancy
  Na  Na0  1  0.025515  0.502453  0.019267  1
  Na  Na1  1  0.283761  0.290942  0.298037  1
  Mn  Mn2  1  0.382729  0.954303  0.107706  1
  Mn  Mn3  1  0.628641  0.053103  0.898590  1
  Mn  Mn4  1  0.954596  0.792949  0.477047  1
  Mn  Mn5  1  0.035777  0.200398  0.515989  1
  Mn  Mn6  1  0.716005  0.718859  0.697339  1
  Mo  Mo7  1  0.405954  0.739375  0.373891  1
  Mo  Mo8  1  0.592191  0.274039  0.632202  1
  Mo  Mo9  1  0.888778  0.899837  0.163655  1
  Mo  Mo10  1  0.107515  0.084060  0.828421  1
  Mo  Mo11  1  0.783014  0.336386  0.237278  1
  Mo  Mo12  1  0.221373  0.666027  0.763491  1
  O  O13  1  0.249171  0.807040  0.468184  1
  O  O14  1  0.749851  0.202258  0.540360  1
  O  O15  1  0.674495  0.958061  0.074123  1
  O  O16  1  0.323888  0.026617  0.914503  1
  O  O17  1  0.846949  0.689540  0.081442  1
  O  O18  1  0.146923  0.292048  0.915141  1
  O  O19  1  0.119453  0.006701  0.147179  1
  O  O20  1  0.869360  0.970518  0.838850  1
  O  O21  1  0.444974  0.858482  0.267670  1
  O  O22  1  0.581312  0.176441  0.757446  1
  O  O23  1  0.270874  0.533070  0.258596  1
  O  O24  1  0.701833  0.495781  0.720837  1
  O  O25  1  0.795481  0.294398  0.063609  1
  O  O26  1  0.226081  0.702665  0.939605  1
  O  O27  1  0.825235  0.550388  0.323535  1
  O  O28  1  0.165598  0.452378  0.675952  1
  O  O29  1  0.920153  0.940354  0.347928  1
  O  O30  1  0.074545  0.052645  0.646684  1
  O  O31  1  0.975117  0.272804  0.337902  1
  O  O32  1  0.018635  0.733048  0.671337  1
  O  O33  1  0.646518  0.749290  0.500758  1
  O  O34  1  0.343288  0.231379  0.509403  1
  O  O35  1  0.536476  0.220654  0.225304  1
  O  O36  1  0.467942  0.770702  0.760748  1
