# generated using pymatgen
data_CaCl8
_symmetry_space_group_name_H-M   'P 1'
_cell_length_a   7.24969441
_cell_length_b   4.19229521
_cell_length_c   26.37095180
_cell_angle_alpha   73.79735026
_cell_angle_beta   65.31394030
_cell_angle_gamma   30.30197462
_symmetry_Int_Tables_number   1
_chemical_formula_structural   CaCl8
_chemical_formula_sum   'Ca1 Cl8'
_cell_volume   361.57885796
_cell_formula_units_Z   1
loop_
 _symmetry_equiv_pos_site_id
 _symmetry_equiv_pos_as_xyz
  1  'x, y, z'
loop_
 _atom_site_type_symbol
 _atom_site_label
 _atom_site_symmetry_multiplicity
 _atom_site_fract_x
 _atom_site_fract_y
 _atom_site_fract_z
 _atom_site_occupancy
  Ca  Ca0  1  0.017587  0.487602  0.568322  1
  Cl  Cl1  1  0.438555  0.862968  0.815742  1
  Cl  Cl2  1  0.959518  0.328956  0.258663  1
  Cl  Cl3  1  0.828117  0.371687  0.510669  1
  Cl  Cl4  1  0.009455  0.272293  0.180262  1
  Cl  Cl5  1  0.208726  0.601372  0.625430  1
  Cl  Cl6  1  0.725376  0.301409  0.991866  1
  Cl  Cl7  1  0.022650  0.786226  0.916809  1
  Cl  Cl8  1  0.740371  0.761370  0.742244  1
