# generated using pymatgen
data_NdHoReB6
_symmetry_space_group_name_H-M   'P 1'
_cell_length_a   3.72555100
_cell_length_b   9.24693100
_cell_length_c   11.70292400
_cell_angle_alpha   90.00000000
_cell_angle_beta   90.00000000
_cell_angle_gamma   90.00000000
_symmetry_Int_Tables_number   1
_chemical_formula_structural   NdHoReB6
_chemical_formula_sum   'Nd4 Ho4 Re4 B24'
_cell_volume   403.16471404
_cell_formula_units_Z   4
loop_
 _symmetry_equiv_pos_site_id
 _symmetry_equiv_pos_as_xyz
  1  'x, y, z'
loop_
 _atom_site_type_symbol
 _atom_site_label
 _atom_site_symmetry_multiplicity
 _atom_site_fract_x
 _atom_site_fract_y
 _atom_site_fract_z
 _atom_site_occupancy
  Nd  Nd0  1  0.000000  0.322942  0.414003  1
  Nd  Nd1  1  0.000000  0.677058  0.585997  1
  Nd  Nd2  1  0.000000  0.822942  0.085997  1
  Nd  Nd3  1  0.000000  0.177058  0.914003  1
  Ho  Ho4  1  0.000000  0.943118  0.369468  1
  Ho  Ho5  1  0.000000  0.056882  0.630532  1
  Ho  Ho6  1  0.000000  0.443118  0.130532  1
  Ho  Ho7  1  0.000000  0.556882  0.869468  1
  Re  Re8  1  0.000000  0.639477  0.319548  1
  Re  Re9  1  0.000000  0.360523  0.680452  1
  Re  Re10  1  0.000000  0.139477  0.180452  1
  Re  Re11  1  0.000000  0.860523  0.819548  1
  B  B12  1  0.500000  0.555042  0.430678  1
  B  B13  1  0.500000  0.444958  0.569322  1
  B  B14  1  0.500000  0.055042  0.069322  1
  B  B15  1  0.500000  0.944958  0.930678  1
  B  B16  1  0.500000  0.749993  0.416334  1
  B  B17  1  0.500000  0.250007  0.583666  1
  B  B18  1  0.500000  0.249993  0.083666  1
  B  B19  1  0.500000  0.750007  0.916334  1
  B  B20  1  0.500000  0.791546  0.266529  1
  B  B21  1  0.500000  0.208454  0.733471  1
  B  B22  1  0.500000  0.291546  0.233471  1
  B  B23  1  0.500000  0.708454  0.766529  1
  B  B24  1  0.500000  0.629943  0.186711  1
  B  B25  1  0.500000  0.370057  0.813289  1
  B  B26  1  0.500000  0.129943  0.313289  1
  B  B27  1  0.500000  0.870057  0.686711  1
  B  B28  1  0.500000  0.984070  0.213164  1
  B  B29  1  0.500000  0.015930  0.786836  1
  B  B30  1  0.500000  0.484070  0.286836  1
  B  B31  1  0.500000  0.515930  0.713164  1
  B  B32  1  0.500000  0.596570  0.026817  1
  B  B33  1  0.500000  0.403430  0.973183  1
  B  B34  1  0.500000  0.096570  0.473183  1
  B  B35  1  0.500000  0.903430  0.526817  1
