# generated using pymatgen
data_Er8Tm2Hg3Bi2Au
_symmetry_space_group_name_H-M   'P 1'
_cell_length_a   8.69909963
_cell_length_b   8.69909914
_cell_length_c   8.72261419
_cell_angle_alpha   123.89650283
_cell_angle_beta   123.89650166
_cell_angle_gamma   83.20000222
_symmetry_Int_Tables_number   1
_chemical_formula_structural   Er8Tm2Hg3Bi2Au
_chemical_formula_sum   'Er8 Tm2 Hg3 Bi2 Au1'
_cell_volume   436.64398158
_cell_formula_units_Z   1
loop_
 _symmetry_equiv_pos_site_id
 _symmetry_equiv_pos_as_xyz
  1  'x, y, z'
loop_
 _atom_site_type_symbol
 _atom_site_label
 _atom_site_symmetry_multiplicity
 _atom_site_fract_x
 _atom_site_fract_y
 _atom_site_fract_z
 _atom_site_occupancy
  Er  Er0  1  0.502415  0.008789  0.800379  1
  Er  Er1  1  0.202035  0.708409  0.199621  1
  Er  Er2  1  0.014875  0.198266  0.500000  1
  Er  Er3  1  0.701977  0.507333  0.500000  1
  Er  Er4  1  0.491211  0.997585  0.199621  1
  Er  Er5  1  0.791591  0.297965  0.800379  1
  Er  Er6  1  0.992667  0.798023  0.500000  1
  Er  Er7  1  0.301734  0.485125  0.500000  1
  Tm  Tm8  1  0.498109  0.495691  0.993801  1
  Tm  Tm9  1  0.004309  0.001891  0.006199  1
  Hg  Hg10  1  0.140811  0.641020  0.781831  1
  Hg  Hg11  1  0.858980  0.359189  0.218169  1
  Hg  Hg12  1  0.640526  0.859474  0.500000  1
  Bi  Bi13  1  0.248405  0.251595  0.000000  1
  Bi  Bi14  1  0.748405  0.751595  0.000000  1
  Au  Au15  1  0.361950  0.138050  0.500000  1
