# generated using pymatgen
data_Gd4Sc4Re3B24Ir
_symmetry_space_group_name_H-M   'P 1'
_cell_length_a   3.52513700
_cell_length_b   9.11417659
_cell_length_c   11.51404400
_cell_angle_alpha   90.05088879
_cell_angle_beta   90.00000000
_cell_angle_gamma   90.00000000
_symmetry_Int_Tables_number   1
_chemical_formula_structural   Gd4Sc4Re3B24Ir
_chemical_formula_sum   'Gd4 Sc4 Re3 B24 Ir1'
_cell_volume   369.93136295
_cell_formula_units_Z   1
loop_
 _symmetry_equiv_pos_site_id
 _symmetry_equiv_pos_as_xyz
  1  'x, y, z'
loop_
 _atom_site_type_symbol
 _atom_site_label
 _atom_site_symmetry_multiplicity
 _atom_site_fract_x
 _atom_site_fract_y
 _atom_site_fract_z
 _atom_site_occupancy
  Gd  Gd0  1  0.500000  0.317735  0.415486  1
  Gd  Gd1  1  0.500000  0.679687  0.589170  1
  Gd  Gd2  1  0.500000  0.178870  0.913057  1
  Gd  Gd3  1  0.500000  0.823721  0.082346  1
  Sc  Sc4  1  0.500000  0.441344  0.126772  1
  Sc  Sc5  1  0.500000  0.555868  0.871498  1
  Sc  Sc6  1  0.500000  0.054796  0.628409  1
  Sc  Sc7  1  0.500000  0.947182  0.371451  1
  Re  Re8  1  0.500000  0.141080  0.182952  1
  Re  Re9  1  0.500000  0.859084  0.818125  1
  Re  Re10  1  0.500000  0.359559  0.680772  1
  B  B11  1  0.000000  0.095612  0.473727  1
  B  B12  1  0.000000  0.901853  0.525657  1
  B  B13  1  0.000000  0.403526  0.974289  1
  B  B14  1  0.000000  0.597195  0.027239  1
  B  B15  1  0.000000  0.128928  0.317359  1
  B  B16  1  0.000000  0.870633  0.683562  1
  B  B17  1  0.000000  0.371446  0.816201  1
  B  B18  1  0.000000  0.629119  0.182193  1
  B  B19  1  0.000000  0.054758  0.068159  1
  B  B20  1  0.000000  0.945497  0.931706  1
  B  B21  1  0.000000  0.445335  0.567659  1
  B  B22  1  0.000000  0.555899  0.432485  1
  B  B23  1  0.000000  0.482587  0.285574  1
  B  B24  1  0.000000  0.518695  0.714496  1
  B  B25  1  0.000000  0.018271  0.785011  1
  B  B26  1  0.000000  0.981807  0.214621  1
  B  B27  1  0.000000  0.253535  0.082558  1
  B  B28  1  0.000000  0.746702  0.917978  1
  B  B29  1  0.000000  0.245743  0.582087  1
  B  B30  1  0.000000  0.753810  0.418441  1
  B  B31  1  0.000000  0.294882  0.235680  1
  B  B32  1  0.000000  0.705232  0.765852  1
  B  B33  1  0.000000  0.205471  0.734443  1
  B  B34  1  0.000000  0.793878  0.264876  1
  Ir  Ir35  1  0.500000  0.640657  0.318106  1
