# generated using pymatgen
data_Tb3AlIn2Au3
_symmetry_space_group_name_H-M   'P 1'
_cell_length_a   7.69948698
_cell_length_b   7.69948672
_cell_length_c   4.02169300
_cell_angle_alpha   90.00000000
_cell_angle_beta   90.00000000
_cell_angle_gamma   120.74099591
_symmetry_Int_Tables_number   1
_chemical_formula_structural   Tb3AlIn2Au3
_chemical_formula_sum   'Tb3 Al1 In2 Au3'
_cell_volume   204.91401576
_cell_formula_units_Z   1
loop_
 _symmetry_equiv_pos_site_id
 _symmetry_equiv_pos_as_xyz
  1  'x, y, z'
loop_
 _atom_site_type_symbol
 _atom_site_label
 _atom_site_symmetry_multiplicity
 _atom_site_fract_x
 _atom_site_fract_y
 _atom_site_fract_z
 _atom_site_occupancy
  Tb  Tb0  1  0.592751  0.000964  0.500000  1
  Tb  Tb1  1  0.411111  0.411111  0.500000  1
  Tb  Tb2  1  0.000964  0.592751  0.500000  1
  Al  Al3  1  0.745973  0.745973  0.000000  1
  In  In4  1  0.999677  0.254278  0.000000  1
  In  In5  1  0.254278  0.999677  0.000000  1
  Au  Au6  1  0.350021  0.670830  0.000000  1
  Au  Au7  1  0.670830  0.350021  0.000000  1
  Au  Au8  1  0.974396  0.974396  0.500000  1
