# generated using pymatgen
data_Sc20Si2Bi9Sb
_symmetry_space_group_name_H-M   'P 1'
_cell_length_a   7.62491791
_cell_length_b   8.88815700
_cell_length_c   11.25315905
_cell_angle_alpha   90.00000000
_cell_angle_beta   90.04568976
_cell_angle_gamma   90.00000000
_symmetry_Int_Tables_number   1
_chemical_formula_structural   Sc20Si2Bi9Sb
_chemical_formula_sum   'Sc20 Si2 Bi9 Sb1'
_cell_volume   762.64285979
_cell_formula_units_Z   1
loop_
 _symmetry_equiv_pos_site_id
 _symmetry_equiv_pos_as_xyz
  1  'x, y, z'
loop_
 _atom_site_type_symbol
 _atom_site_label
 _atom_site_symmetry_multiplicity
 _atom_site_fract_x
 _atom_site_fract_y
 _atom_site_fract_z
 _atom_site_occupancy
  Sc  Sc0  1  0.019039  0.250000  0.510054  1
  Sc  Sc1  1  0.963423  0.750000  0.487927  1
  Sc  Sc2  1  0.476584  0.750000  0.010207  1
  Sc  Sc3  1  0.535116  0.250000  0.989348  1
  Sc  Sc4  1  0.345143  0.250000  0.282392  1
  Sc  Sc5  1  0.644955  0.750000  0.705529  1
  Sc  Sc6  1  0.153965  0.750000  0.786599  1
  Sc  Sc7  1  0.854547  0.250000  0.205164  1
  Sc  Sc8  1  0.168992  0.250000  0.792022  1
  Sc  Sc9  1  0.811356  0.750000  0.223866  1
  Sc  Sc10  1  0.329029  0.750000  0.290052  1
  Sc  Sc11  1  0.695295  0.250000  0.729499  1
  Sc  Sc12  1  0.183034  0.071125  0.053505  1
  Sc  Sc13  1  0.810993  0.948989  0.941453  1
  Sc  Sc14  1  0.315445  0.925790  0.553965  1
  Sc  Sc15  1  0.810993  0.551011  0.941453  1
  Sc  Sc16  1  0.691419  0.047582  0.439534  1
  Sc  Sc17  1  0.183034  0.428875  0.053505  1
  Sc  Sc18  1  0.691419  0.452418  0.439534  1
  Sc  Sc19  1  0.315445  0.574210  0.553965  1
  Si  Si20  1  0.590667  0.750000  0.463317  1
  Si  Si21  1  0.906489  0.250000  0.963401  1
  Bi  Bi22  1  0.411966  0.250000  0.543380  1
  Bi  Bi23  1  0.065137  0.003120  0.324151  1
  Bi  Bi24  1  0.937543  0.995062  0.675328  1
  Bi  Bi25  1  0.435623  0.997191  0.824886  1
  Bi  Bi26  1  0.937543  0.504938  0.675328  1
  Bi  Bi27  1  0.562892  0.003735  0.175080  1
  Bi  Bi28  1  0.065137  0.496880  0.324151  1
  Bi  Bi29  1  0.562892  0.496265  0.175080  1
  Bi  Bi30  1  0.435623  0.502809  0.824886  1
  Sb  Sb31  1  0.089266  0.750000  0.041435  1
