# generated using pymatgen
data_Li4Tb3Sm9Au20
_symmetry_space_group_name_H-M   'P 1'
_cell_length_a   8.53076816
_cell_length_b   8.53076850
_cell_length_c   13.51333000
_cell_angle_alpha   90.01096783
_cell_angle_beta   89.98902545
_cell_angle_gamma   127.05753286
_symmetry_Int_Tables_number   1
_chemical_formula_structural   Li4Tb3Sm9Au20
_chemical_formula_sum   'Li4 Tb3 Sm9 Au20'
_cell_volume   784.79878665
_cell_formula_units_Z   1
loop_
 _symmetry_equiv_pos_site_id
 _symmetry_equiv_pos_as_xyz
  1  'x, y, z'
loop_
 _atom_site_type_symbol
 _atom_site_label
 _atom_site_symmetry_multiplicity
 _atom_site_fract_x
 _atom_site_fract_y
 _atom_site_fract_z
 _atom_site_occupancy
  Li  Li0  1  0.721852  0.278148  0.250512  1
  Li  Li1  1  0.277152  0.722848  0.749277  1
  Li  Li2  1  0.532665  0.467335  0.250100  1
  Li  Li3  1  0.467830  0.532170  0.749515  1
  Tb  Tb4  1  0.629959  0.370041  0.464520  1
  Tb  Tb5  1  0.370110  0.629890  0.535716  1
  Tb  Tb6  1  0.629967  0.370033  0.035449  1
  Sm  Sm7  1  0.929896  0.070104  0.250693  1
  Sm  Sm8  1  0.069039  0.930961  0.749196  1
  Sm  Sm9  1  0.317237  0.682763  0.250366  1
  Sm  Sm10  1  0.682751  0.317249  0.748927  1
  Sm  Sm11  1  0.369953  0.630047  0.963919  1
  Sm  Sm12  1  0.880719  0.119281  0.949638  1
  Sm  Sm13  1  0.119114  0.880886  0.050484  1
  Sm  Sm14  1  0.880781  0.119219  0.550279  1
  Sm  Sm15  1  0.119177  0.880823  0.449771  1
  Au  Au16  1  0.324672  0.071428  0.250330  1
  Au  Au17  1  0.071674  0.324799  0.750024  1
  Au  Au18  1  0.675201  0.928326  0.750024  1
  Au  Au19  1  0.928572  0.675328  0.250330  1
  Au  Au20  1  0.570784  0.006893  0.395498  1
  Au  Au21  1  0.007220  0.571072  0.604223  1
  Au  Au22  1  0.572636  0.008377  0.105411  1
  Au  Au23  1  0.003239  0.568952  0.895078  1
  Au  Au24  1  0.428928  0.992780  0.604223  1
  Au  Au25  1  0.993107  0.429216  0.395498  1
  Au  Au26  1  0.431048  0.996761  0.895078  1
  Au  Au27  1  0.991623  0.427364  0.105411  1
  Au  Au28  1  0.682561  0.736366  0.393051  1
  Au  Au29  1  0.736390  0.682664  0.606680  1
  Au  Au30  1  0.685786  0.737596  0.107819  1
  Au  Au31  1  0.739163  0.684183  0.892705  1
  Au  Au32  1  0.317336  0.263610  0.606680  1
  Au  Au33  1  0.263634  0.317439  0.393051  1
  Au  Au34  1  0.315817  0.260837  0.892705  1
  Au  Au35  1  0.262404  0.314214  0.107819  1
