# generated using pymatgen
data_Ti6Tc3SnOs2
_symmetry_space_group_name_H-M   'P 1'
_cell_length_a   4.43568500
_cell_length_b   6.31186400
_cell_length_c   13.35021100
_cell_angle_alpha   90.00000000
_cell_angle_beta   89.99797095
_cell_angle_gamma   90.00000000
_symmetry_Int_Tables_number   1
_chemical_formula_structural   Ti6Tc3SnOs2
_chemical_formula_sum   'Ti12 Tc6 Sn2 Os4'
_cell_volume   373.77173758
_cell_formula_units_Z   2
loop_
 _symmetry_equiv_pos_site_id
 _symmetry_equiv_pos_as_xyz
  1  'x, y, z'
loop_
 _atom_site_type_symbol
 _atom_site_label
 _atom_site_symmetry_multiplicity
 _atom_site_fract_x
 _atom_site_fract_y
 _atom_site_fract_z
 _atom_site_occupancy
  Ti  Ti0  1  0.499969  0.235659  0.987889  1
  Ti  Ti1  1  0.499969  0.764342  0.987889  1
  Ti  Ti2  1  0.000069  0.264376  0.178773  1
  Ti  Ti3  1  0.000069  0.735623  0.178773  1
  Ti  Ti4  1  0.500025  0.256509  0.344369  1
  Ti  Ti5  1  0.500025  0.743491  0.344369  1
  Ti  Ti6  1  0.999998  0.250474  0.503021  1
  Ti  Ti7  1  0.999998  0.749526  0.503021  1
  Ti  Ti8  1  0.499975  0.249526  0.663656  1
  Ti  Ti9  1  0.499975  0.750474  0.663656  1
  Ti  Ti10  1  0.999966  0.243482  0.822297  1
  Ti  Ti11  1  0.999966  0.756517  0.822297  1
  Tc  Tc12  1  0.999989  0.000000  0.999507  1
  Tc  Tc13  1  0.500041  0.499999  0.167150  1
  Tc  Tc14  1  0.000032  0.000000  0.333506  1
  Tc  Tc15  1  0.499998  0.499999  0.502642  1
  Tc  Tc16  1  0.999977  0.000000  0.664042  1
  Tc  Tc17  1  0.499960  0.499999  0.833177  1
  Sn  Sn18  1  0.999953  0.499999  0.997810  1
  Sn  Sn19  1  0.500081  0.000000  0.168787  1
  Os  Os20  1  0.000026  0.499999  0.337751  1
  Os  Os21  1  0.500003  0.000000  0.500628  1
  Os  Os22  1  0.999975  0.499999  0.666059  1
  Os  Os23  1  0.499969  0.000000  0.828933  1
