# generated using pymatgen
data_Tb5Dy15(IrRu)6
_symmetry_space_group_name_H-M   'P 1'
_cell_length_a   10.86165630
_cell_length_b   10.85598009
_cell_length_c   6.41212908
_cell_angle_alpha   90.01289244
_cell_angle_beta   89.95657818
_cell_angle_gamma   90.00788188
_symmetry_Int_Tables_number   1
_chemical_formula_structural   Tb5Dy15(IrRu)6
_chemical_formula_sum   'Tb5 Dy15 Ir6 Ru6'
_cell_volume   756.07906109
_cell_formula_units_Z   1
loop_
 _symmetry_equiv_pos_site_id
 _symmetry_equiv_pos_as_xyz
  1  'x, y, z'
loop_
 _atom_site_type_symbol
 _atom_site_label
 _atom_site_symmetry_multiplicity
 _atom_site_fract_x
 _atom_site_fract_y
 _atom_site_fract_z
 _atom_site_occupancy
  Tb  Tb0  1  0.292768  0.086736  0.379162  1
  Tb  Tb1  1  0.292570  0.913361  0.879179  1
  Tb  Tb2  1  0.708067  0.087084  0.878545  1
  Tb  Tb3  1  0.708058  0.913246  0.378563  1
  Tb  Tb4  1  0.587835  0.793031  0.879383  1
  Dy  Dy5  1  0.587715  0.206755  0.379656  1
  Dy  Dy6  1  0.413114  0.793385  0.378814  1
  Dy  Dy7  1  0.413236  0.206667  0.878847  1
  Dy  Dy8  1  0.206137  0.413317  0.620592  1
  Dy  Dy9  1  0.206123  0.586671  0.120656  1
  Dy  Dy10  1  0.793638  0.412466  0.121098  1
  Dy  Dy11  1  0.793753  0.587426  0.620940  1
  Dy  Dy12  1  0.913338  0.706983  0.120457  1
  Dy  Dy13  1  0.913256  0.293029  0.620456  1
  Dy  Dy14  1  0.086210  0.707448  0.621401  1
  Dy  Dy15  1  0.086222  0.292555  0.121375  1
  Dy  Dy16  1  0.998511  0.000678  0.499859  1
  Dy  Dy17  1  0.998564  0.999289  0.999807  1
  Dy  Dy18  1  0.499869  0.500185  0.000279  1
  Dy  Dy19  1  0.499961  0.499603  0.500155  1
  Ir  Ir20  1  0.153435  0.153787  0.750692  1
  Ir  Ir21  1  0.153408  0.846195  0.250688  1
  Ir  Ir22  1  0.652183  0.348411  0.749536  1
  Ir  Ir23  1  0.652281  0.651335  0.250154  1
  Ir  Ir24  1  0.347601  0.347338  0.250164  1
  Ir  Ir25  1  0.347351  0.652576  0.750029  1
  Ru  Ru26  1  0.847636  0.152953  0.249950  1
  Ru  Ru27  1  0.847873  0.847086  0.749789  1
  Ru  Ru28  1  0.500007  0.000372  0.124124  1
  Ru  Ru29  1  0.500011  0.000017  0.623675  1
  Ru  Ru30  1  0.999643  0.500346  0.875955  1
  Ru  Ru31  1  0.999620  0.499669  0.376021  1
