# generated using pymatgen
data_LiSc4NiIr2
_symmetry_space_group_name_H-M   'P 1'
_cell_length_a   6.54848600
_cell_length_b   4.54435400
_cell_length_c   9.15237200
_cell_angle_alpha   90.00000000
_cell_angle_beta   89.99899797
_cell_angle_gamma   89.99997478
_symmetry_Int_Tables_number   1
_chemical_formula_structural   LiSc4NiIr2
_chemical_formula_sum   'Li2 Sc8 Ni2 Ir4'
_cell_volume   272.36213018
_cell_formula_units_Z   2
loop_
 _symmetry_equiv_pos_site_id
 _symmetry_equiv_pos_as_xyz
  1  'x, y, z'
loop_
 _atom_site_type_symbol
 _atom_site_label
 _atom_site_symmetry_multiplicity
 _atom_site_fract_x
 _atom_site_fract_y
 _atom_site_fract_z
 _atom_site_occupancy
  Li  Li0  1  0.750001  0.250000  0.124743  1
  Li  Li1  1  0.250000  0.750000  0.375238  1
  Sc  Sc2  1  0.496591  0.750000  0.120002  1
  Sc  Sc3  1  0.003407  0.750000  0.120001  1
  Sc  Sc4  1  0.503443  0.250000  0.379975  1
  Sc  Sc5  1  0.996554  0.250000  0.379977  1
  Sc  Sc6  1  0.997870  0.750000  0.629357  1
  Sc  Sc7  1  0.502139  0.750000  0.629355  1
  Sc  Sc8  1  0.002112  0.250000  0.870646  1
  Sc  Sc9  1  0.497885  0.250000  0.870647  1
  Ni  Ni10  1  0.750000  0.250000  0.626108  1
  Ni  Ni11  1  0.249997  0.750000  0.873988  1
  Ir  Ir12  1  0.249998  0.250000  0.125297  1
  Ir  Ir13  1  0.749998  0.750000  0.374686  1
  Ir  Ir14  1  0.250001  0.250000  0.623903  1
  Ir  Ir15  1  0.750000  0.750000  0.876078  1
