# generated using pymatgen
data_Er2ThSc(Ga3Ir)6
_symmetry_space_group_name_H-M   'P 1'
_cell_length_a   7.60754708
_cell_length_b   7.60152546
_cell_length_c   9.45968600
_cell_angle_alpha   90.00000000
_cell_angle_beta   90.00000000
_cell_angle_gamma   119.82223542
_symmetry_Int_Tables_number   1
_chemical_formula_structural   Er2ThSc(Ga3Ir)6
_chemical_formula_sum   'Er2 Th1 Sc1 Ga18 Ir6'
_cell_volume   474.60019525
_cell_formula_units_Z   1
loop_
 _symmetry_equiv_pos_site_id
 _symmetry_equiv_pos_as_xyz
  1  'x, y, z'
loop_
 _atom_site_type_symbol
 _atom_site_label
 _atom_site_symmetry_multiplicity
 _atom_site_fract_x
 _atom_site_fract_y
 _atom_site_fract_z
 _atom_site_occupancy
  Er  Er0  1  0.670129  0.997263  0.750000  1
  Er  Er1  1  0.330221  0.001658  0.250000  1
  Th  Th2  1  0.996664  0.668808  0.750000  1
  Sc  Sc3  1  0.002147  0.331528  0.250000  1
  Ga  Ga4  1  0.129387  0.132375  0.750000  1
  Ga  Ga5  1  0.874775  0.877831  0.250000  1
  Ga  Ga6  1  0.998915  0.328433  0.574562  1
  Ga  Ga7  1  0.001357  0.661725  0.410738  1
  Ga  Ga8  1  0.001357  0.661725  0.089262  1
  Ga  Ga9  1  0.340944  0.004916  0.922386  1
  Ga  Ga10  1  0.998915  0.328433  0.925438  1
  Ga  Ga11  1  0.669222  0.005493  0.084029  1
  Ga  Ga12  1  0.669222  0.005493  0.415971  1
  Ga  Ga13  1  0.340944  0.004916  0.577614  1
  Ga  Ga14  1  0.327747  0.330414  0.070423  1
  Ga  Ga15  1  0.662661  0.668344  0.939441  1
  Ga  Ga16  1  0.662661  0.668344  0.560559  1
  Ga  Ga17  1  0.327747  0.330414  0.429577  1
  Ga  Ga18  1  0.342304  0.546699  0.750000  1
  Ga  Ga19  1  0.659676  0.450432  0.250000  1
  Ga  Ga20  1  0.541746  0.335967  0.750000  1
  Ga  Ga21  1  0.448871  0.659855  0.250000  1
  Ir  Ir22  1  0.673583  0.331215  0.500466  1
  Ir  Ir23  1  0.326700  0.671564  0.500305  1
  Ir  Ir24  1  0.326700  0.671564  0.999695  1
  Ir  Ir25  1  0.673583  0.331215  0.999534  1
  Ir  Ir26  1  0.000911  0.996690  0.500689  1
  Ir  Ir27  1  0.000911  0.996690  0.999311  1
