# generated using pymatgen
data_YbHo3(B6Os)2
_symmetry_space_group_name_H-M   'P 1'
_cell_length_a   3.64223700
_cell_length_b   9.14303015
_cell_length_c   11.53070550
_cell_angle_alpha   89.82874927
_cell_angle_beta   90.00000000
_cell_angle_gamma   90.00000000
_symmetry_Int_Tables_number   1
_chemical_formula_structural   YbHo3(B6Os)2
_chemical_formula_sum   'Yb2 Ho6 B24 Os4'
_cell_volume   383.98326264
_cell_formula_units_Z   2
loop_
 _symmetry_equiv_pos_site_id
 _symmetry_equiv_pos_as_xyz
  1  'x, y, z'
loop_
 _atom_site_type_symbol
 _atom_site_label
 _atom_site_symmetry_multiplicity
 _atom_site_fract_x
 _atom_site_fract_y
 _atom_site_fract_z
 _atom_site_occupancy
  Yb  Yb0  1  0.000000  0.324580  0.414522  1
  Yb  Yb1  1  0.000000  0.675420  0.585478  1
  Ho  Ho2  1  0.000000  0.822023  0.086345  1
  Ho  Ho3  1  0.000000  0.177977  0.913655  1
  Ho  Ho4  1  0.000000  0.942050  0.370182  1
  Ho  Ho5  1  0.000000  0.057950  0.629819  1
  Ho  Ho6  1  0.000000  0.442747  0.130143  1
  Ho  Ho7  1  0.000000  0.557253  0.869856  1
  B  B8  1  0.500000  0.553945  0.432445  1
  B  B9  1  0.500000  0.446055  0.567555  1
  B  B10  1  0.500000  0.053535  0.066621  1
  B  B11  1  0.500000  0.946465  0.933379  1
  B  B12  1  0.500000  0.747854  0.417836  1
  B  B13  1  0.500000  0.252146  0.582164  1
  B  B14  1  0.500000  0.248104  0.081123  1
  B  B15  1  0.500000  0.751896  0.918877  1
  B  B16  1  0.500000  0.790988  0.264675  1
  B  B17  1  0.500000  0.209012  0.735325  1
  B  B18  1  0.500000  0.289937  0.234133  1
  B  B19  1  0.500000  0.710062  0.765867  1
  B  B20  1  0.500000  0.631407  0.185248  1
  B  B21  1  0.500000  0.368593  0.814752  1
  B  B22  1  0.500000  0.130814  0.313665  1
  B  B23  1  0.500000  0.869186  0.686335  1
  B  B24  1  0.500000  0.983061  0.211486  1
  B  B25  1  0.500000  0.016939  0.788514  1
  B  B26  1  0.500000  0.483840  0.288044  1
  B  B27  1  0.500000  0.516160  0.711956  1
  B  B28  1  0.500000  0.603747  0.028610  1
  B  B29  1  0.500000  0.396253  0.971390  1
  B  B30  1  0.500000  0.099678  0.472376  1
  B  B31  1  0.500000  0.900322  0.527624  1
  Os  Os32  1  0.000000  0.639627  0.319216  1
  Os  Os33  1  0.000000  0.360373  0.680784  1
  Os  Os34  1  0.000000  0.136535  0.177654  1
  Os  Os35  1  0.000000  0.863465  0.822346  1
