# generated using pymatgen
data_HoEr4GaBiPt
_symmetry_space_group_name_H-M   'P 1'
_cell_length_a   8.65590972
_cell_length_b   8.65591018
_cell_length_c   8.70619923
_cell_angle_alpha   125.27095479
_cell_angle_beta   125.27095067
_cell_angle_gamma   80.70038907
_symmetry_Int_Tables_number   1
_chemical_formula_structural   HoEr4GaBiPt
_chemical_formula_sum   'Ho2 Er8 Ga2 Bi2 Pt2'
_cell_volume   420.10489376
_cell_formula_units_Z   2
loop_
 _symmetry_equiv_pos_site_id
 _symmetry_equiv_pos_as_xyz
  1  'x, y, z'
loop_
 _atom_site_type_symbol
 _atom_site_label
 _atom_site_symmetry_multiplicity
 _atom_site_fract_x
 _atom_site_fract_y
 _atom_site_fract_z
 _atom_site_occupancy
  Ho  Ho0  1  0.698954  0.526843  0.500000  1
  Ho  Ho1  1  0.973157  0.801046  0.500000  1
  Er  Er2  1  0.000307  0.000401  0.000708  1
  Er  Er3  1  0.499599  0.499693  0.999292  1
  Er  Er4  1  0.786040  0.286090  0.798669  1
  Er  Er5  1  0.213910  0.713960  0.201331  1
  Er  Er6  1  0.487372  0.987422  0.201331  1
  Er  Er7  1  0.300776  0.472568  0.500000  1
  Er  Er8  1  0.027432  0.199224  0.500000  1
  Er  Er9  1  0.512578  0.012628  0.798669  1
  Ga  Ga10  1  0.138503  0.638150  0.776652  1
  Ga  Ga11  1  0.861850  0.361497  0.223348  1
  Bi  Bi12  1  0.249989  0.250011  0.000000  1
  Bi  Bi13  1  0.749989  0.750011  0.000000  1
  Pt  Pt14  1  0.636489  0.863511  0.500000  1
  Pt  Pt15  1  0.363055  0.136945  0.500000  1
