# generated using pymatgen
data_Na4Mn(CdS2)3
_symmetry_space_group_name_H-M   'P 1'
_cell_length_a   10.27121478
_cell_length_b   10.26687081
_cell_length_c   7.18334505
_cell_angle_alpha   69.71800509
_cell_angle_beta   69.97127980
_cell_angle_gamma   82.91890285
_symmetry_Int_Tables_number   1
_chemical_formula_structural   Na4Mn(CdS2)3
_chemical_formula_sum   'Na8 Mn2 Cd6 S12'
_cell_volume   667.55835052
_cell_formula_units_Z   2
loop_
 _symmetry_equiv_pos_site_id
 _symmetry_equiv_pos_as_xyz
  1  'x, y, z'
loop_
 _atom_site_type_symbol
 _atom_site_label
 _atom_site_symmetry_multiplicity
 _atom_site_fract_x
 _atom_site_fract_y
 _atom_site_fract_z
 _atom_site_occupancy
  Na  Na0  1  0.991452  0.816663  0.128034  1
  Na  Na1  1  0.187212  0.012480  0.362861  1
  Na  Na2  1  0.015999  0.180665  0.868215  1
  Na  Na3  1  0.822124  0.990426  0.630580  1
  Na  Na4  1  0.282593  0.721147  0.246795  1
  Na  Na5  1  0.718826  0.278607  0.752220  1
  Na  Na6  1  0.571139  0.427874  0.249429  1
  Na  Na7  1  0.425700  0.573736  0.752972  1
  Mn  Mn8  1  0.213822  0.366845  0.297133  1
  Mn  Mn9  1  0.443899  0.922422  0.738666  1
  Cd  Cd10  1  0.087027  0.557805  0.751718  1
  Cd  Cd11  1  0.915336  0.439052  0.250281  1
  Cd  Cd12  1  0.555912  0.086547  0.255258  1
  Cd  Cd13  1  0.361697  0.217114  0.801869  1
  Cd  Cd14  1  0.779190  0.639040  0.700838  1
  Cd  Cd15  1  0.632441  0.784372  0.198708  1
  S  S16  1  0.229296  0.991556  0.956789  1
  S  S17  1  0.012199  0.222208  0.463963  1
  S  S18  1  0.780153  0.001673  0.033726  1
  S  S19  1  0.588090  0.136174  0.564735  1
  S  S20  1  0.853359  0.409322  0.947142  1
  S  S21  1  0.409712  0.855013  0.463531  1
  S  S22  1  0.000692  0.780745  0.531654  1
  S  S23  1  0.148687  0.581157  0.061289  1
  S  S24  1  0.426400  0.292053  0.067960  1
  S  S25  1  0.705506  0.558341  0.446429  1
  S  S26  1  0.555264  0.722593  0.933446  1
  S  S27  1  0.286277  0.434369  0.543758  1
