# generated using pymatgen
data_LuHf3NbSi4
_symmetry_space_group_name_H-M   'P 1'
_cell_length_a   7.09177100
_cell_length_b   7.09177100
_cell_length_c   12.92204600
_cell_angle_alpha   90.00000000
_cell_angle_beta   90.00000000
_cell_angle_gamma   90.00000000
_symmetry_Int_Tables_number   1
_chemical_formula_structural   LuHf3NbSi4
_chemical_formula_sum   'Lu4 Hf12 Nb4 Si16'
_cell_volume   649.89124956
_cell_formula_units_Z   4
loop_
 _symmetry_equiv_pos_site_id
 _symmetry_equiv_pos_as_xyz
  1  'x, y, z'
loop_
 _atom_site_type_symbol
 _atom_site_label
 _atom_site_symmetry_multiplicity
 _atom_site_fract_x
 _atom_site_fract_y
 _atom_site_fract_z
 _atom_site_occupancy
  Lu  Lu0  1  0.496825  0.154486  0.533526  1
  Lu  Lu1  1  0.503175  0.845514  0.033526  1
  Lu  Lu2  1  0.654486  0.003175  0.283526  1
  Lu  Lu3  1  0.345514  0.996825  0.783526  1
  Hf  Hf4  1  0.849367  0.498005  0.966095  1
  Hf  Hf5  1  0.150633  0.501995  0.466095  1
  Hf  Hf6  1  0.998005  0.650633  0.716095  1
  Hf  Hf7  1  0.001995  0.349367  0.216095  1
  Hf  Hf8  1  0.494662  0.355732  0.126092  1
  Hf  Hf9  1  0.505338  0.644268  0.626092  1
  Hf  Hf10  1  0.855732  0.005338  0.876092  1
  Hf  Hf11  1  0.144268  0.994662  0.376092  1
  Hf  Hf12  1  0.646428  0.502940  0.373858  1
  Hf  Hf13  1  0.353572  0.497060  0.873858  1
  Hf  Hf14  1  0.002940  0.853572  0.123858  1
  Hf  Hf15  1  0.997060  0.146428  0.623858  1
  Nb  Nb16  1  0.680623  0.325897  0.750130  1
  Nb  Nb17  1  0.319377  0.674103  0.250130  1
  Nb  Nb18  1  0.825897  0.819377  0.500130  1
  Nb  Nb19  1  0.174103  0.180623  0.000130  1
  Si  Si20  1  0.799800  0.149980  0.070958  1
  Si  Si21  1  0.200200  0.850020  0.570958  1
  Si  Si22  1  0.649980  0.700200  0.820958  1
  Si  Si23  1  0.350020  0.299800  0.320958  1
  Si  Si24  1  0.859147  0.208225  0.428889  1
  Si  Si25  1  0.140853  0.791775  0.928889  1
  Si  Si26  1  0.708225  0.640853  0.178889  1
  Si  Si27  1  0.291775  0.359147  0.678889  1
  Si  Si28  1  0.551565  0.203799  0.935176  1
  Si  Si29  1  0.448435  0.796201  0.435176  1
  Si  Si30  1  0.703799  0.948435  0.685176  1
  Si  Si31  1  0.296201  0.051565  0.185176  1
  Si  Si32  1  0.803115  0.452270  0.565275  1
  Si  Si33  1  0.196885  0.547730  0.065275  1
  Si  Si34  1  0.952270  0.696885  0.315275  1
  Si  Si35  1  0.047730  0.303115  0.815275  1
