# generated using pymatgen
data_Zr3Co8P6Os
_symmetry_space_group_name_H-M   'P 1'
_cell_length_a   3.66601400
_cell_length_b   10.29116200
_cell_length_c   12.02295400
_cell_angle_alpha   90.00000000
_cell_angle_beta   90.00000000
_cell_angle_gamma   90.00000000
_symmetry_Int_Tables_number   1
_chemical_formula_structural   Zr3Co8P6Os
_chemical_formula_sum   'Zr6 Co16 P12 Os2'
_cell_volume   453.59652566
_cell_formula_units_Z   2
loop_
 _symmetry_equiv_pos_site_id
 _symmetry_equiv_pos_as_xyz
  1  'x, y, z'
loop_
 _atom_site_type_symbol
 _atom_site_label
 _atom_site_symmetry_multiplicity
 _atom_site_fract_x
 _atom_site_fract_y
 _atom_site_fract_z
 _atom_site_occupancy
  Zr  Zr0  1  0.000000  0.500000  0.530200  1
  Zr  Zr1  1  0.500000  0.000000  0.469800  1
  Zr  Zr2  1  0.500000  0.820081  0.209743  1
  Zr  Zr3  1  0.500000  0.179919  0.209743  1
  Zr  Zr4  1  0.000000  0.679919  0.790257  1
  Zr  Zr5  1  0.000000  0.320081  0.790257  1
  Co  Co6  1  0.000000  0.500000  0.986132  1
  Co  Co7  1  0.500000  0.000000  0.013868  1
  Co  Co8  1  0.500000  0.299589  0.432915  1
  Co  Co9  1  0.500000  0.700411  0.432915  1
  Co  Co10  1  0.000000  0.200411  0.567085  1
  Co  Co11  1  0.000000  0.799589  0.567085  1
  Co  Co12  1  0.500000  0.876623  0.705922  1
  Co  Co13  1  0.500000  0.123377  0.705922  1
  Co  Co14  1  0.000000  0.623377  0.294078  1
  Co  Co15  1  0.000000  0.376623  0.294078  1
  Co  Co16  1  0.500000  0.332479  0.988436  1
  Co  Co17  1  0.500000  0.667521  0.988436  1
  Co  Co18  1  0.000000  0.167521  0.011564  1
  Co  Co19  1  0.000000  0.832479  0.011564  1
  Co  Co20  1  0.500000  0.500000  0.703381  1
  Co  Co21  1  0.000000  0.000000  0.296619  1
  P  P22  1  0.500000  0.316793  0.616877  1
  P  P23  1  0.500000  0.683207  0.616877  1
  P  P24  1  0.000000  0.183207  0.383123  1
  P  P25  1  0.000000  0.816793  0.383123  1
  P  P26  1  0.500000  0.500000  0.877600  1
  P  P27  1  0.000000  0.000000  0.122400  1
  P  P28  1  0.500000  0.844465  0.889789  1
  P  P29  1  0.500000  0.155535  0.889789  1
  P  P30  1  0.000000  0.655535  0.110211  1
  P  P31  1  0.000000  0.344465  0.110211  1
  P  P32  1  0.500000  0.500000  0.357973  1
  P  P33  1  0.000000  0.000000  0.642027  1
  Os  Os34  1  0.500000  0.500000  0.163253  1
  Os  Os35  1  0.000000  0.000000  0.836747  1
