# generated using pymatgen
data_Tb11Nd8TmSi16
_symmetry_space_group_name_H-M   'P 1'
_cell_length_a   7.79484811
_cell_length_b   7.79484811
_cell_length_c   14.44432227
_cell_angle_alpha   89.98413022
_cell_angle_beta   90.01586978
_cell_angle_gamma   89.98871080
_symmetry_Int_Tables_number   1
_chemical_formula_structural   Tb11Nd8TmSi16
_chemical_formula_sum   'Tb11 Nd8 Tm1 Si16'
_cell_volume   877.63198420
_cell_formula_units_Z   1
loop_
 _symmetry_equiv_pos_site_id
 _symmetry_equiv_pos_as_xyz
  1  'x, y, z'
loop_
 _atom_site_type_symbol
 _atom_site_label
 _atom_site_symmetry_multiplicity
 _atom_site_fract_x
 _atom_site_fract_y
 _atom_site_fract_z
 _atom_site_occupancy
  Tb  Tb0  1  0.491664  0.362412  0.124032  1
  Tb  Tb1  1  0.991261  0.137662  0.625753  1
  Tb  Tb2  1  0.862392  0.008912  0.874740  1
  Tb  Tb3  1  0.137662  0.991261  0.374247  1
  Tb  Tb4  1  0.508899  0.637537  0.624999  1
  Tb  Tb5  1  0.362412  0.491664  0.875968  1
  Tb  Tb6  1  0.637537  0.508899  0.375001  1
  Tb  Tb7  1  0.008912  0.862392  0.125260  1
  Tb  Tb8  1  0.316548  0.316548  0.500000  1
  Tb  Tb9  1  0.182818  0.816447  0.750147  1
  Tb  Tb10  1  0.816447  0.182818  0.249853  1
  Nd  Nd11  1  0.640157  0.992555  0.457156  1
  Nd  Nd12  1  0.359791  0.007425  0.957192  1
  Nd  Nd13  1  0.992555  0.640157  0.542844  1
  Nd  Nd14  1  0.493246  0.859612  0.206710  1
  Nd  Nd15  1  0.507497  0.140196  0.707695  1
  Nd  Nd16  1  0.859612  0.493246  0.793290  1
  Nd  Nd17  1  0.140196  0.507497  0.292305  1
  Nd  Nd18  1  0.007425  0.359791  0.042808  1
  Tm  Tm19  1  0.683726  0.683726  0.000000  1
  Si  Si20  1  0.291559  0.934685  0.560655  1
  Si  Si21  1  0.707982  0.063435  0.060563  1
  Si  Si22  1  0.934685  0.291559  0.439345  1
  Si  Si23  1  0.434556  0.209218  0.310228  1
  Si  Si24  1  0.566008  0.790285  0.812226  1
  Si  Si25  1  0.209218  0.434556  0.689772  1
  Si  Si26  1  0.790285  0.566008  0.187774  1
  Si  Si27  1  0.063435  0.707982  0.939437  1
  Si  Si28  1  0.796095  0.845722  0.690375  1
  Si  Si29  1  0.204450  0.153879  0.189467  1
  Si  Si30  1  0.845722  0.796095  0.309625  1
  Si  Si31  1  0.346212  0.704419  0.439801  1
  Si  Si32  1  0.654294  0.296449  0.940035  1
  Si  Si33  1  0.704419  0.346212  0.560199  1
  Si  Si34  1  0.296449  0.654294  0.059965  1
  Si  Si35  1  0.153879  0.204450  0.810533  1
