# generated using pymatgen
data_Ba2La2Os6O19
_symmetry_space_group_name_H-M   'P 1'
_cell_length_a   8.11397845
_cell_length_b   8.01060295
_cell_length_c   8.01060401
_cell_angle_alpha   108.70596435
_cell_angle_beta   109.58930595
_cell_angle_gamma   109.59432682
_symmetry_Int_Tables_number   1
_chemical_formula_structural   Ba2La2Os6O19
_chemical_formula_sum   'Ba2 La2 Os6 O19'
_cell_volume   403.36098091
_cell_formula_units_Z   1
loop_
 _symmetry_equiv_pos_site_id
 _symmetry_equiv_pos_as_xyz
  1  'x, y, z'
loop_
 _atom_site_type_symbol
 _atom_site_label
 _atom_site_symmetry_multiplicity
 _atom_site_fract_x
 _atom_site_fract_y
 _atom_site_fract_z
 _atom_site_occupancy
  Ba  Ba0  1  0.001184  0.999704  0.332880  1
  Ba  Ba1  1  0.998816  0.331696  0.998520  1
  La  La2  1  0.701396  0.696528  0.697899  1
  La  La3  1  0.298604  0.996504  0.995132  1
  Os  Os4  1  0.365903  0.501295  0.861803  1
  Os  Os5  1  0.863611  0.363905  0.501188  1
  Os  Os6  1  0.500000  0.137768  0.637768  1
  Os  Os7  1  0.136389  0.637576  0.500294  1
  Os  Os8  1  0.500000  0.864565  0.364565  1
  Os  Os9  1  0.634097  0.495900  0.135392  1
  O  O10  1  0.338400  0.006273  0.330545  1
  O  O11  1  0.333806  0.327606  0.999537  1
  O  O12  1  0.000000  0.668841  0.668841  1
  O  O13  1  0.666194  0.665732  0.993801  1
  O  O14  1  0.000000  0.334826  0.334826  1
  O  O15  1  0.661600  0.992145  0.667873  1
  O  O16  1  0.000000  0.965315  0.965315  1
  O  O17  1  0.370835  0.303782  0.644609  1
  O  O18  1  0.071180  0.348766  0.701131  1
  O  O19  1  0.723163  0.365831  0.660749  1
  O  O20  1  0.366905  0.659967  0.718993  1
  O  O21  1  0.276837  0.937585  0.642668  1
  O  O22  1  0.633095  0.352087  0.293061  1
  O  O23  1  0.296932  0.648065  0.365065  1
  O  O24  1  0.703068  0.068132  0.351132  1
  O  O25  1  0.928820  0.629950  0.277586  1
  O  O26  1  0.652171  0.714623  0.363427  1
  O  O27  1  0.629165  0.273773  0.932949  1
  O  O28  1  0.347829  0.711257  0.062452  1
