# generated using pymatgen
data_Tb2Dy14Cd2Hg2Pd3Pt
_symmetry_space_group_name_H-M   'P 1'
_cell_length_a   9.67911069
_cell_length_b   9.67911105
_cell_length_c   9.67294700
_cell_angle_alpha   60.02106086
_cell_angle_beta   60.02105962
_cell_angle_gamma   60.05241060
_symmetry_Int_Tables_number   1
_chemical_formula_structural   Tb2Dy14Cd2Hg2Pd3Pt
_chemical_formula_sum   'Tb2 Dy14 Cd2 Hg2 Pd3 Pt1'
_cell_volume   641.24611694
_cell_formula_units_Z   1
loop_
 _symmetry_equiv_pos_site_id
 _symmetry_equiv_pos_as_xyz
  1  'x, y, z'
loop_
 _atom_site_type_symbol
 _atom_site_label
 _atom_site_symmetry_multiplicity
 _atom_site_fract_x
 _atom_site_fract_y
 _atom_site_fract_z
 _atom_site_occupancy
  Tb  Tb0  1  0.566539  0.565595  0.933933  1
  Tb  Tb1  1  0.935038  0.934723  0.565119  1
  Dy  Dy2  1  0.355573  0.353384  0.349768  1
  Dy  Dy3  1  0.355573  0.353384  0.941275  1
  Dy  Dy4  1  0.360111  0.931380  0.354254  1
  Dy  Dy5  1  0.929769  0.359702  0.355264  1
  Dy  Dy6  1  0.810146  0.188243  0.190343  1
  Dy  Dy7  1  0.188288  0.811293  0.809671  1
  Dy  Dy8  1  0.188288  0.811293  0.190748  1
  Dy  Dy9  1  0.810146  0.188243  0.811268  1
  Dy  Dy10  1  0.189983  0.190084  0.809967  1
  Dy  Dy11  1  0.809464  0.811625  0.189455  1
  Dy  Dy12  1  0.934740  0.564698  0.565738  1
  Dy  Dy13  1  0.564849  0.935234  0.935670  1
  Dy  Dy14  1  0.564849  0.935234  0.564247  1
  Dy  Dy15  1  0.934740  0.564698  0.934825  1
  Cd  Cd16  1  0.578897  0.254828  0.583137  1
  Cd  Cd17  1  0.255614  0.579233  0.582575  1
  Hg  Hg18  1  0.584901  0.585147  0.588465  1
  Hg  Hg19  1  0.584901  0.585147  0.241486  1
  Pd  Pd20  1  0.144074  0.144378  0.148181  1
  Pd  Pd21  1  0.144074  0.144378  0.563368  1
  Pd  Pd22  1  0.141616  0.566869  0.145758  1
  Pt  Pt23  1  0.567824  0.141204  0.145486  1
