# generated using pymatgen
data_Tm7Sc3Si5As
_symmetry_space_group_name_H-M   'P 1'
_cell_length_a   8.23509043
_cell_length_b   8.24540701
_cell_length_c   6.01931065
_cell_angle_alpha   90.05222071
_cell_angle_beta   89.96599722
_cell_angle_gamma   119.97366984
_symmetry_Int_Tables_number   1
_chemical_formula_structural   Tm7Sc3Si5As
_chemical_formula_sum   'Tm7 Sc3 Si5 As1'
_cell_volume   354.05671845
_cell_formula_units_Z   1
loop_
 _symmetry_equiv_pos_site_id
 _symmetry_equiv_pos_as_xyz
  1  'x, y, z'
loop_
 _atom_site_type_symbol
 _atom_site_label
 _atom_site_symmetry_multiplicity
 _atom_site_fract_x
 _atom_site_fract_y
 _atom_site_fract_z
 _atom_site_occupancy
  Tm  Tm0  1  0.995575  0.752252  0.751482  1
  Tm  Tm1  1  0.999888  0.244422  0.248646  1
  Tm  Tm2  1  0.756162  0.754938  0.248615  1
  Tm  Tm3  1  0.756792  0.000762  0.751542  1
  Tm  Tm4  1  0.243697  0.246939  0.751642  1
  Tm  Tm5  1  0.245237  0.000669  0.248629  1
  Tm  Tm6  1  0.333226  0.664476  0.498888  1
  Sc  Sc7  1  0.668740  0.335850  0.001296  1
  Sc  Sc8  1  0.669274  0.336610  0.498224  1
  Sc  Sc9  1  0.332716  0.663683  0.001487  1
  Si  Si10  1  0.398766  0.394159  0.245001  1
  Si  Si11  1  0.998423  0.602700  0.245069  1
  Si  Si12  1  0.996371  0.395248  0.754747  1
  Si  Si13  1  0.603928  0.601272  0.755112  1
  Si  Si14  1  0.606640  0.002974  0.245706  1
  As  As15  1  0.394567  0.003045  0.753913  1
