# generated using pymatgen
data_Nd8Ta7S22
_symmetry_space_group_name_H-M   'P 1'
_cell_length_a   15.97740500
_cell_length_b   15.97740501
_cell_length_c   5.69339300
_cell_angle_alpha   90.00000000
_cell_angle_beta   90.00000000
_cell_angle_gamma   90.74234037
_symmetry_Int_Tables_number   1
_chemical_formula_structural   Nd8Ta7S22
_chemical_formula_sum   'Nd16 Ta14 S44'
_cell_volume   1453.27297887
_cell_formula_units_Z   2
loop_
 _symmetry_equiv_pos_site_id
 _symmetry_equiv_pos_as_xyz
  1  'x, y, z'
loop_
 _atom_site_type_symbol
 _atom_site_label
 _atom_site_symmetry_multiplicity
 _atom_site_fract_x
 _atom_site_fract_y
 _atom_site_fract_z
 _atom_site_occupancy
  Nd  Nd0  1  0.860368  0.987718  0.920527  1
  Nd  Nd1  1  0.139632  0.012282  0.920527  1
  Nd  Nd2  1  0.012282  0.139632  0.420527  1
  Nd  Nd3  1  0.987718  0.860368  0.420527  1
  Nd  Nd4  1  0.734867  0.110035  0.441532  1
  Nd  Nd5  1  0.265133  0.889965  0.441532  1
  Nd  Nd6  1  0.889965  0.265133  0.941532  1
  Nd  Nd7  1  0.110035  0.734867  0.941532  1
  Nd  Nd8  1  0.611111  0.236505  0.910466  1
  Nd  Nd9  1  0.388889  0.763495  0.910466  1
  Nd  Nd10  1  0.763495  0.388889  0.410466  1
  Nd  Nd11  1  0.236505  0.611111  0.410466  1
  Nd  Nd12  1  0.484362  0.361614  0.432941  1
  Nd  Nd13  1  0.515638  0.638386  0.432941  1
  Nd  Nd14  1  0.638386  0.515638  0.932941  1
  Nd  Nd15  1  0.361614  0.484362  0.932941  1
  Ta  Ta16  1  0.500000  0.000000  0.998265  1
  Ta  Ta17  1  0.000000  0.500000  0.498265  1
  Ta  Ta18  1  0.428427  0.070126  0.501726  1
  Ta  Ta19  1  0.571573  0.929874  0.501726  1
  Ta  Ta20  1  0.929874  0.571573  0.001726  1
  Ta  Ta21  1  0.070126  0.428427  0.001726  1
  Ta  Ta22  1  0.355455  0.142939  0.998968  1
  Ta  Ta23  1  0.644545  0.857061  0.998968  1
  Ta  Ta24  1  0.857061  0.644545  0.498968  1
  Ta  Ta25  1  0.142939  0.355455  0.498968  1
  Ta  Ta26  1  0.287321  0.213445  0.500495  1
  Ta  Ta27  1  0.712679  0.786555  0.500495  1
  Ta  Ta28  1  0.786555  0.712679  0.000495  1
  Ta  Ta29  1  0.213445  0.287321  0.000495  1
  S  S30  1  0.570906  0.073732  0.667046  1
  S  S31  1  0.429094  0.926268  0.667046  1
  S  S32  1  0.926268  0.429094  0.167046  1
  S  S33  1  0.073732  0.570906  0.167046  1
  S  S34  1  0.358428  0.001476  0.166483  1
  S  S35  1  0.641572  0.998524  0.166483  1
  S  S36  1  0.998524  0.641572  0.666483  1
  S  S37  1  0.001476  0.358428  0.666483  1
  S  S38  1  0.496311  0.141406  0.171781  1
  S  S39  1  0.503689  0.858594  0.171781  1
  S  S40  1  0.858594  0.503689  0.671781  1
  S  S41  1  0.141406  0.496311  0.671781  1
  S  S42  1  0.285300  0.070261  0.665228  1
  S  S43  1  0.714700  0.929739  0.665228  1
  S  S44  1  0.929739  0.714700  0.165228  1
  S  S45  1  0.070261  0.285300  0.165228  1
  S  S46  1  0.431069  0.211563  0.669984  1
  S  S47  1  0.568931  0.788437  0.669984  1
  S  S48  1  0.788437  0.568931  0.169984  1
  S  S49  1  0.211563  0.431069  0.169984  1
  S  S50  1  0.212766  0.146515  0.171329  1
  S  S51  1  0.787234  0.853485  0.171329  1
  S  S52  1  0.853485  0.787234  0.671329  1
  S  S53  1  0.146515  0.212766  0.671329  1
  S  S54  1  0.355593  0.285528  0.165629  1
  S  S55  1  0.644407  0.714472  0.165629  1
  S  S56  1  0.714472  0.644407  0.665629  1
  S  S57  1  0.285528  0.355593  0.665629  1
  S  S58  1  0.888018  0.012709  0.421962  1
  S  S59  1  0.111982  0.987291  0.421962  1
  S  S60  1  0.388205  0.513008  0.427057  1
  S  S61  1  0.611795  0.486992  0.427057  1
  S  S62  1  0.486992  0.611795  0.927057  1
  S  S63  1  0.513008  0.388205  0.927057  1
  S  S64  1  0.263532  0.637207  0.916944  1
  S  S65  1  0.736468  0.362793  0.916944  1
  S  S66  1  0.362793  0.736468  0.416944  1
  S  S67  1  0.637207  0.263532  0.416944  1
  S  S68  1  0.138679  0.762796  0.431372  1
  S  S69  1  0.861321  0.237204  0.431372  1
  S  S70  1  0.237204  0.861321  0.931372  1
  S  S71  1  0.762796  0.138679  0.931372  1
  S  S72  1  0.012709  0.888018  0.921962  1
  S  S73  1  0.987291  0.111982  0.921962  1
