# generated using pymatgen
data_ErTmU2(B4Ru)4
_symmetry_space_group_name_H-M   'P 1'
_cell_length_a   3.53802700
_cell_length_b   5.94899450
_cell_length_c   11.51109128
_cell_angle_alpha   89.86990044
_cell_angle_beta   90.00000000
_cell_angle_gamma   90.00000000
_symmetry_Int_Tables_number   1
_chemical_formula_structural   ErTmU2(B4Ru)4
_chemical_formula_sum   'Er1 Tm1 U2 B16 Ru4'
_cell_volume   242.28140782
_cell_formula_units_Z   1
loop_
 _symmetry_equiv_pos_site_id
 _symmetry_equiv_pos_as_xyz
  1  'x, y, z'
loop_
 _atom_site_type_symbol
 _atom_site_label
 _atom_site_symmetry_multiplicity
 _atom_site_fract_x
 _atom_site_fract_y
 _atom_site_fract_z
 _atom_site_occupancy
  Er  Er0  1  0.000000  0.870671  0.851708  1
  Tm  Tm1  1  0.000000  0.129375  0.148306  1
  U  U2  1  0.000000  0.628941  0.349107  1
  U  U3  1  0.000000  0.371003  0.650858  1
  B  B4  1  0.500000  0.790408  0.187111  1
  B  B5  1  0.500000  0.209917  0.812825  1
  B  B6  1  0.500000  0.291369  0.312786  1
  B  B7  1  0.500000  0.708432  0.687086  1
  B  B8  1  0.500000  0.864398  0.030840  1
  B  B9  1  0.500000  0.135708  0.969383  1
  B  B10  1  0.500000  0.367897  0.467472  1
  B  B11  1  0.500000  0.632015  0.532577  1
  B  B12  1  0.500000  0.886015  0.452752  1
  B  B13  1  0.500000  0.114134  0.547266  1
  B  B14  1  0.500000  0.386190  0.046376  1
  B  B15  1  0.500000  0.613513  0.953806  1
  B  B16  1  0.500000  0.975879  0.307230  1
  B  B17  1  0.500000  0.024333  0.692619  1
  B  B18  1  0.500000  0.474254  0.191995  1
  B  B19  1  0.500000  0.525478  0.807949  1
  Ru  Ru20  1  0.000000  0.639725  0.094849  1
  Ru  Ru21  1  0.000000  0.360309  0.905225  1
  Ru  Ru22  1  0.000000  0.141230  0.406413  1
  Ru  Ru23  1  0.000000  0.858806  0.593459  1
