# generated using pymatgen
data_Y6TcIr
_symmetry_space_group_name_H-M   'P 1'
_cell_length_a   6.37201570
_cell_length_b   7.39400788
_cell_length_c   9.22753900
_cell_angle_alpha   90.00000000
_cell_angle_beta   90.00000000
_cell_angle_gamma   89.75035968
_symmetry_Int_Tables_number   1
_chemical_formula_structural   Y6TcIr
_chemical_formula_sum   'Y12 Tc2 Ir2'
_cell_volume   434.74892194
_cell_formula_units_Z   2
loop_
 _symmetry_equiv_pos_site_id
 _symmetry_equiv_pos_as_xyz
  1  'x, y, z'
loop_
 _atom_site_type_symbol
 _atom_site_label
 _atom_site_symmetry_multiplicity
 _atom_site_fract_x
 _atom_site_fract_y
 _atom_site_fract_z
 _atom_site_occupancy
  Y  Y0  1  0.633027  0.039270  0.250000  1
  Y  Y1  1  0.366973  0.960730  0.750000  1
  Y  Y2  1  0.129760  0.461984  0.750000  1
  Y  Y3  1  0.870240  0.538016  0.250000  1
  Y  Y4  1  0.173171  0.177446  0.064389  1
  Y  Y5  1  0.826829  0.822554  0.935611  1
  Y  Y6  1  0.668556  0.325340  0.937088  1
  Y  Y7  1  0.826829  0.822554  0.564389  1
  Y  Y8  1  0.331444  0.674660  0.062912  1
  Y  Y9  1  0.173171  0.177446  0.435611  1
  Y  Y10  1  0.331444  0.674660  0.437088  1
  Y  Y11  1  0.668556  0.325340  0.562912  1
  Tc  Tc12  1  0.460944  0.383779  0.250000  1
  Tc  Tc13  1  0.539056  0.616221  0.750000  1
  Ir  Ir14  1  0.959819  0.115288  0.750000  1
  Ir  Ir15  1  0.040181  0.884712  0.250000  1
