# generated using pymatgen
data_Tb17(MgRh4)3
_symmetry_space_group_name_H-M   'P 1'
_cell_length_a   10.80272100
_cell_length_b   10.80272100
_cell_length_c   6.31962200
_cell_angle_alpha   90.00000000
_cell_angle_beta   90.00000000
_cell_angle_gamma   90.00000000
_symmetry_Int_Tables_number   1
_chemical_formula_structural   Tb17(MgRh4)3
_chemical_formula_sum   'Tb17 Mg3 Rh12'
_cell_volume   737.49218381
_cell_formula_units_Z   1
loop_
 _symmetry_equiv_pos_site_id
 _symmetry_equiv_pos_as_xyz
  1  'x, y, z'
loop_
 _atom_site_type_symbol
 _atom_site_label
 _atom_site_symmetry_multiplicity
 _atom_site_fract_x
 _atom_site_fract_y
 _atom_site_fract_z
 _atom_site_occupancy
  Tb  Tb0  1  0.283508  0.087131  0.382174  1
  Tb  Tb1  1  0.283816  0.914937  0.879924  1
  Tb  Tb2  1  0.716184  0.085063  0.879924  1
  Tb  Tb3  1  0.716492  0.912869  0.382174  1
  Tb  Tb4  1  0.586286  0.785248  0.878832  1
  Tb  Tb5  1  0.590036  0.206829  0.379322  1
  Tb  Tb6  1  0.409964  0.793171  0.379322  1
  Tb  Tb7  1  0.413714  0.214752  0.878832  1
  Tb  Tb8  1  0.206829  0.409964  0.620678  1
  Tb  Tb9  1  0.214752  0.586286  0.121168  1
  Tb  Tb10  1  0.785248  0.413714  0.121168  1
  Tb  Tb11  1  0.793171  0.590036  0.620678  1
  Tb  Tb12  1  0.914937  0.716184  0.120076  1
  Tb  Tb13  1  0.912869  0.283508  0.617826  1
  Tb  Tb14  1  0.087131  0.716492  0.617826  1
  Tb  Tb15  1  0.085063  0.283816  0.120076  1
  Tb  Tb16  1  0.500000  0.500000  0.500000  1
  Mg  Mg17  1  0.000000  0.000000  0.500000  1
  Mg  Mg18  1  0.000000  0.000000  0.000000  1
  Mg  Mg19  1  0.500000  0.500000  0.000000  1
  Rh  Rh20  1  0.846999  0.153414  0.247078  1
  Rh  Rh21  1  0.846586  0.846999  0.752922  1
  Rh  Rh22  1  0.153414  0.153001  0.752922  1
  Rh  Rh23  1  0.153001  0.846586  0.247078  1
  Rh  Rh24  1  0.656438  0.345857  0.745719  1
  Rh  Rh25  1  0.654143  0.656438  0.254281  1
  Rh  Rh26  1  0.345857  0.343562  0.254281  1
  Rh  Rh27  1  0.343562  0.654143  0.745719  1
  Rh  Rh28  1  0.500000  0.000000  0.120773  1
  Rh  Rh29  1  0.500000  0.000000  0.625161  1
  Rh  Rh30  1  0.000000  0.500000  0.879227  1
  Rh  Rh31  1  0.000000  0.500000  0.374839  1
