# generated using pymatgen
data_LuMn2(FeP)3
_symmetry_space_group_name_H-M   'P 1'
_cell_length_a   3.62308600
_cell_length_b   10.21448600
_cell_length_c   12.05447700
_cell_angle_alpha   90.00000000
_cell_angle_beta   90.00000000
_cell_angle_gamma   90.00000000
_symmetry_Int_Tables_number   1
_chemical_formula_structural   LuMn2(FeP)3
_chemical_formula_sum   'Lu4 Mn8 Fe12 P12'
_cell_volume   446.11161739
_cell_formula_units_Z   4
loop_
 _symmetry_equiv_pos_site_id
 _symmetry_equiv_pos_as_xyz
  1  'x, y, z'
loop_
 _atom_site_type_symbol
 _atom_site_label
 _atom_site_symmetry_multiplicity
 _atom_site_fract_x
 _atom_site_fract_y
 _atom_site_fract_z
 _atom_site_occupancy
  Lu  Lu0  1  0.250000  0.580735  0.710177  1
  Lu  Lu1  1  0.250000  0.919265  0.210177  1
  Lu  Lu2  1  0.750000  0.419265  0.289823  1
  Lu  Lu3  1  0.750000  0.080735  0.789823  1
  Mn  Mn4  1  0.250000  0.706483  0.991437  1
  Mn  Mn5  1  0.250000  0.793517  0.491437  1
  Mn  Mn6  1  0.750000  0.293517  0.008563  1
  Mn  Mn7  1  0.750000  0.206483  0.508563  1
  Mn  Mn8  1  0.250000  0.408466  0.490525  1
  Mn  Mn9  1  0.250000  0.091534  0.990525  1
  Mn  Mn10  1  0.750000  0.591534  0.509475  1
  Mn  Mn11  1  0.750000  0.908466  0.009475  1
  Fe  Fe12  1  0.250000  0.220370  0.172833  1
  Fe  Fe13  1  0.250000  0.279630  0.672833  1
  Fe  Fe14  1  0.750000  0.779630  0.827167  1
  Fe  Fe15  1  0.750000  0.720370  0.327167  1
  Fe  Fe16  1  0.250000  0.877372  0.695747  1
  Fe  Fe17  1  0.250000  0.622628  0.195747  1
  Fe  Fe18  1  0.750000  0.122628  0.304253  1
  Fe  Fe19  1  0.750000  0.377372  0.804253  1
  Fe  Fe20  1  0.250000  0.462751  0.935918  1
  Fe  Fe21  1  0.250000  0.037249  0.435918  1
  Fe  Fe22  1  0.750000  0.537249  0.064082  1
  Fe  Fe23  1  0.750000  0.962751  0.564082  1
  P  P24  1  0.250000  0.422696  0.114530  1
  P  P25  1  0.250000  0.077304  0.614530  1
  P  P26  1  0.750000  0.577304  0.885470  1
  P  P27  1  0.750000  0.922696  0.385470  1
  P  P28  1  0.250000  0.267006  0.861871  1
  P  P29  1  0.250000  0.232994  0.361871  1
  P  P30  1  0.750000  0.732994  0.138129  1
  P  P31  1  0.750000  0.767006  0.638129  1
  P  P32  1  0.250000  0.601392  0.380503  1
  P  P33  1  0.250000  0.898608  0.880503  1
  P  P34  1  0.750000  0.398608  0.619497  1
  P  P35  1  0.750000  0.101392  0.119497  1
