# generated using pymatgen
data_Hf4TiGa3
_symmetry_space_group_name_H-M   'P 1'
_cell_length_a   7.94744200
_cell_length_b   7.94744142
_cell_length_c   5.57595900
_cell_angle_alpha   90.00000000
_cell_angle_beta   90.00000000
_cell_angle_gamma   120.00000240
_symmetry_Int_Tables_number   1
_chemical_formula_structural   Hf4TiGa3
_chemical_formula_sum   'Hf8 Ti2 Ga6'
_cell_volume   305.00355098
_cell_formula_units_Z   2
loop_
 _symmetry_equiv_pos_site_id
 _symmetry_equiv_pos_as_xyz
  1  'x, y, z'
loop_
 _atom_site_type_symbol
 _atom_site_label
 _atom_site_symmetry_multiplicity
 _atom_site_fract_x
 _atom_site_fract_y
 _atom_site_fract_z
 _atom_site_occupancy
  Hf  Hf0  1  0.241479  0.000000  0.251456  1
  Hf  Hf1  1  0.758521  0.000000  0.748544  1
  Hf  Hf2  1  0.000000  0.241479  0.251456  1
  Hf  Hf3  1  0.000000  0.758521  0.748544  1
  Hf  Hf4  1  0.758521  0.758521  0.251456  1
  Hf  Hf5  1  0.241479  0.241479  0.748544  1
  Hf  Hf6  1  0.333333  0.666667  0.000000  1
  Hf  Hf7  1  0.666667  0.333333  0.000000  1
  Ti  Ti8  1  0.666667  0.333333  0.500000  1
  Ti  Ti9  1  0.333333  0.666667  0.500000  1
  Ga  Ga10  1  0.603500  0.000000  0.260068  1
  Ga  Ga11  1  0.396500  0.000000  0.739932  1
  Ga  Ga12  1  0.000000  0.603500  0.260068  1
  Ga  Ga13  1  0.000000  0.396500  0.739932  1
  Ga  Ga14  1  0.396500  0.396500  0.260068  1
  Ga  Ga15  1  0.603500  0.603500  0.739932  1
