# generated using pymatgen
data_CaLaCuNi6
_symmetry_space_group_name_H-M   'P 1'
_cell_length_a   5.03667841
_cell_length_b   5.03667714
_cell_length_c   12.52358112
_cell_angle_alpha   78.39941764
_cell_angle_beta   78.39942224
_cell_angle_gamma   59.99999824
_symmetry_Int_Tables_number   1
_chemical_formula_structural   CaLaCuNi6
_chemical_formula_sum   'Ca2 La2 Cu2 Ni12'
_cell_volume   267.61629214
_cell_formula_units_Z   2
loop_
 _symmetry_equiv_pos_site_id
 _symmetry_equiv_pos_as_xyz
  1  'x, y, z'
loop_
 _atom_site_type_symbol
 _atom_site_label
 _atom_site_symmetry_multiplicity
 _atom_site_fract_x
 _atom_site_fract_y
 _atom_site_fract_z
 _atom_site_occupancy
  Ca  Ca0  1  0.850623  0.850623  0.448132  1
  Ca  Ca1  1  0.149377  0.149377  0.551868  1
  La  La2  1  0.947338  0.947338  0.157986  1
  La  La3  1  0.052662  0.052662  0.842014  1
  Cu  Cu4  1  0.722055  0.722055  0.833834  1
  Cu  Cu5  1  0.277945  0.277945  0.166166  1
  Ni  Ni6  1  0.500000  0.500000  0.500000  1
  Ni  Ni7  1  0.611828  0.611828  0.164515  1
  Ni  Ni8  1  0.388172  0.388172  0.835485  1
  Ni  Ni9  1  0.000000  0.500000  0.000000  1
  Ni  Ni10  1  0.500000  0.000000  0.000000  1
  Ni  Ni11  1  0.500000  0.500000  0.000000  1
  Ni  Ni12  1  0.391534  0.391534  0.330096  1
  Ni  Ni13  1  0.886837  0.391534  0.330096  1
  Ni  Ni14  1  0.391534  0.886837  0.330096  1
  Ni  Ni15  1  0.608466  0.608466  0.669904  1
  Ni  Ni16  1  0.113163  0.608466  0.669904  1
  Ni  Ni17  1  0.608466  0.113163  0.669904  1
