# generated using pymatgen
data_Ba2VNi3As4
_symmetry_space_group_name_H-M   'P 1'
_cell_length_a   5.77186700
_cell_length_b   6.92924203
_cell_length_c   5.79050062
_cell_angle_alpha   65.27517799
_cell_angle_beta   90.00003971
_cell_angle_gamma   90.00004143
_symmetry_Int_Tables_number   1
_chemical_formula_structural   Ba2VNi3As4
_chemical_formula_sum   'Ba2 V1 Ni3 As4'
_cell_volume   210.35866796
_cell_formula_units_Z   1
loop_
 _symmetry_equiv_pos_site_id
 _symmetry_equiv_pos_as_xyz
  1  'x, y, z'
loop_
 _atom_site_type_symbol
 _atom_site_label
 _atom_site_symmetry_multiplicity
 _atom_site_fract_x
 _atom_site_fract_y
 _atom_site_fract_z
 _atom_site_occupancy
  Ba  Ba0  1  0.992201  0.000001  0.999999  1
  Ba  Ba1  1  0.507946  0.999999  0.500000  1
  V  V2  1  0.250349  0.500000  0.500002  1
  Ni  Ni3  1  0.249759  0.499999  0.000000  1
  Ni  Ni4  1  0.750503  0.500001  0.000000  1
  Ni  Ni5  1  0.749551  0.499999  0.500000  1
  As  As6  1  0.500003  0.699686  0.149089  1
  As  As7  1  0.999841  0.699270  0.650723  1
  As  As8  1  0.999842  0.300729  0.349276  1
  As  As9  1  0.500005  0.300313  0.850911  1
