# generated using pymatgen
data_SmTh(Mn9Si4)2
_symmetry_space_group_name_H-M   'P 1'
_cell_length_a   8.04710511
_cell_length_b   8.04738519
_cell_length_c   8.04844322
_cell_angle_alpha   121.56711823
_cell_angle_beta   121.55838077
_cell_angle_gamma   87.30219673
_symmetry_Int_Tables_number   1
_chemical_formula_structural   SmTh(Mn9Si4)2
_chemical_formula_sum   'Sm1 Th1 Mn18 Si8'
_cell_volume   359.44598086
_cell_formula_units_Z   1
loop_
 _symmetry_equiv_pos_site_id
 _symmetry_equiv_pos_as_xyz
  1  'x, y, z'
loop_
 _atom_site_type_symbol
 _atom_site_label
 _atom_site_symmetry_multiplicity
 _atom_site_fract_x
 _atom_site_fract_y
 _atom_site_fract_z
 _atom_site_occupancy
  Sm  Sm0  1  0.250015  0.250000  0.999996  1
  Th  Th1  1  0.750006  0.749973  0.000007  1
  Mn  Mn2  1  0.941593  0.808727  0.750807  1
  Mn  Mn3  1  0.795781  0.297018  0.739697  1
  Mn  Mn4  1  0.297094  0.557281  0.501151  1
  Mn  Mn5  1  0.203034  0.704189  0.260296  1
  Mn  Mn6  1  0.704084  0.443916  0.501181  1
  Mn  Mn7  1  0.942692  0.202879  0.498800  1
  Mn  Mn8  1  0.057989  0.190761  0.249248  1
  Mn  Mn9  1  0.309341  0.442023  0.750878  1
  Mn  Mn10  1  0.056081  0.795927  0.498829  1
  Mn  Mn11  1  0.558444  0.309292  0.867241  1
  Mn  Mn12  1  0.443855  0.942739  0.739698  1
  Mn  Mn13  1  0.808772  0.057955  0.867219  1
  Mn  Mn14  1  0.442081  0.691206  0.132797  1
  Mn  Mn15  1  0.691156  0.558418  0.249077  1
  Mn  Mn16  1  0.190728  0.941518  0.132755  1
  Mn  Mn17  1  0.999960  0.500021  0.499971  1
  Mn  Mn18  1  0.557284  0.056092  0.260299  1
  Mn  Mn19  1  0.499957  0.000017  0.499971  1
  Si  Si20  1  0.295628  0.798321  0.851193  1
  Si  Si21  1  0.798273  0.947107  0.502633  1
  Si  Si22  1  0.947115  0.444511  0.148841  1
  Si  Si23  1  0.444531  0.295598  0.497363  1
  Si  Si24  1  0.055519  0.552899  0.851189  1
  Si  Si25  1  0.204404  0.055497  0.502666  1
  Si  Si26  1  0.701696  0.204400  0.148869  1
  Si  Si27  1  0.552885  0.701714  0.497327  1
