# generated using pymatgen
data_Tb6Sm2Hf12Si15Pd
_symmetry_space_group_name_H-M   'P 1'
_cell_length_a   7.29489304
_cell_length_b   7.35335596
_cell_length_c   13.47205353
_cell_angle_alpha   89.98923688
_cell_angle_beta   89.87397778
_cell_angle_gamma   90.09407901
_symmetry_Int_Tables_number   1
_chemical_formula_structural   Tb6Sm2Hf12Si15Pd
_chemical_formula_sum   'Tb6 Sm2 Hf12 Si15 Pd1'
_cell_volume   722.66442168
_cell_formula_units_Z   1
loop_
 _symmetry_equiv_pos_site_id
 _symmetry_equiv_pos_as_xyz
  1  'x, y, z'
loop_
 _atom_site_type_symbol
 _atom_site_label
 _atom_site_symmetry_multiplicity
 _atom_site_fract_x
 _atom_site_fract_y
 _atom_site_fract_z
 _atom_site_occupancy
  Tb  Tb0  1  0.157168  0.497246  0.465125  1
  Tb  Tb1  1  0.503851  0.843061  0.033556  1
  Tb  Tb2  1  0.843020  0.502212  0.965124  1
  Tb  Tb3  1  0.496858  0.155114  0.537417  1
  Tb  Tb4  1  0.343603  0.998112  0.785208  1
  Tb  Tb5  1  0.660836  0.998718  0.283893  1
  Sm  Sm6  1  0.992608  0.346460  0.214884  1
  Sm  Sm7  1  0.006068  0.655684  0.715193  1
  Hf  Hf8  1  0.174800  0.176064  0.999072  1
  Hf  Hf9  1  0.826709  0.825170  0.500168  1
  Hf  Hf10  1  0.326159  0.679838  0.249933  1
  Hf  Hf11  1  0.674918  0.324030  0.750169  1
  Hf  Hf12  1  0.149920  0.999685  0.374157  1
  Hf  Hf13  1  0.850449  0.004032  0.874625  1
  Hf  Hf14  1  0.504787  0.650082  0.624496  1
  Hf  Hf15  1  0.351659  0.494937  0.874939  1
  Hf  Hf16  1  0.493074  0.348699  0.124265  1
  Hf  Hf17  1  0.648274  0.508165  0.380003  1
  Hf  Hf18  1  0.996477  0.149402  0.626166  1
  Hf  Hf19  1  0.001199  0.848318  0.123635  1
  Si  Si20  1  0.635925  0.706221  0.818347  1
  Si  Si21  1  0.205289  0.863770  0.566212  1
  Si  Si22  1  0.137416  0.795650  0.932504  1
  Si  Si23  1  0.794649  0.136166  0.065737  1
  Si  Si24  1  0.860574  0.200338  0.435304  1
  Si  Si25  1  0.296893  0.362047  0.683524  1
  Si  Si26  1  0.702457  0.639367  0.182491  1
  Si  Si27  1  0.291734  0.045382  0.182413  1
  Si  Si28  1  0.705271  0.951651  0.685652  1
  Si  Si29  1  0.449886  0.796398  0.436198  1
  Si  Si30  1  0.205969  0.550420  0.063079  1
  Si  Si31  1  0.548367  0.204971  0.935195  1
  Si  Si32  1  0.794386  0.449116  0.565773  1
  Si  Si33  1  0.048600  0.294291  0.815043  1
  Si  Si34  1  0.950555  0.707317  0.314183  1
  Pd  Pd35  1  0.369596  0.291870  0.316314  1
