# generated using pymatgen
data_Ta4(CuPt3)3
_symmetry_space_group_name_H-M   'P 1'
_cell_length_a   4.59996200
_cell_length_b   4.81572900
_cell_length_c   11.12564600
_cell_angle_alpha   90.00000000
_cell_angle_beta   90.00000000
_cell_angle_gamma   90.00000000
_symmetry_Int_Tables_number   1
_chemical_formula_structural   Ta4(CuPt3)3
_chemical_formula_sum   'Ta4 Cu3 Pt9'
_cell_volume   246.45720603
_cell_formula_units_Z   1
loop_
 _symmetry_equiv_pos_site_id
 _symmetry_equiv_pos_as_xyz
  1  'x, y, z'
loop_
 _atom_site_type_symbol
 _atom_site_label
 _atom_site_symmetry_multiplicity
 _atom_site_fract_x
 _atom_site_fract_y
 _atom_site_fract_z
 _atom_site_occupancy
  Ta  Ta0  1  0.500000  0.662904  0.250067  1
  Ta  Ta1  1  0.500000  0.662904  0.749933  1
  Ta  Ta2  1  0.000000  0.339559  0.000000  1
  Ta  Ta3  1  0.000000  0.339572  0.500000  1
  Cu  Cu4  1  0.000000  0.327830  0.248730  1
  Cu  Cu5  1  0.000000  0.327830  0.751270  1
  Cu  Cu6  1  0.500000  0.673457  0.000000  1
  Pt  Pt7  1  0.500000  0.663357  0.500000  1
  Pt  Pt8  1  0.500000  0.175451  0.371210  1
  Pt  Pt9  1  0.500000  0.180961  0.877375  1
  Pt  Pt10  1  0.500000  0.180961  0.122625  1
  Pt  Pt11  1  0.500000  0.175451  0.628790  1
  Pt  Pt12  1  0.000000  0.826943  0.370164  1
  Pt  Pt13  1  0.000000  0.817939  0.875857  1
  Pt  Pt14  1  0.000000  0.817939  0.124143  1
  Pt  Pt15  1  0.000000  0.826943  0.629836  1
