# generated using pymatgen
data_SmDy4(ThS4)3
_symmetry_space_group_name_H-M   'P 1'
_cell_length_a   10.69426107
_cell_length_b   3.89930700
_cell_length_c   10.46003200
_cell_angle_alpha   90.00000000
_cell_angle_beta   89.99321725
_cell_angle_gamma   90.00000000
_symmetry_Int_Tables_number   1
_chemical_formula_structural   SmDy4(ThS4)3
_chemical_formula_sum   'Sm1 Dy4 Th3 S12'
_cell_volume   436.18549730
_cell_formula_units_Z   1
loop_
 _symmetry_equiv_pos_site_id
 _symmetry_equiv_pos_as_xyz
  1  'x, y, z'
loop_
 _atom_site_type_symbol
 _atom_site_label
 _atom_site_symmetry_multiplicity
 _atom_site_fract_x
 _atom_site_fract_y
 _atom_site_fract_z
 _atom_site_occupancy
  Sm  Sm0  1  0.696332  0.750000  0.495589  1
  Dy  Dy1  1  0.486462  0.250000  0.187392  1
  Dy  Dy2  1  0.984602  0.250000  0.315065  1
  Dy  Dy3  1  0.516023  0.750000  0.812520  1
  Dy  Dy4  1  0.011797  0.750000  0.685062  1
  Th  Th5  1  0.196928  0.750000  0.999982  1
  Th  Th6  1  0.306285  0.250000  0.502031  1
  Th  Th7  1  0.802437  0.250000  0.002579  1
  S  S8  1  0.546348  0.250000  0.628361  1
  S  S9  1  0.046059  0.250000  0.870840  1
  S  S10  1  0.452018  0.750000  0.370136  1
  S  S11  1  0.955181  0.750000  0.129291  1
  S  S12  1  0.615054  0.750000  0.055556  1
  S  S13  1  0.117134  0.750000  0.444943  1
  S  S14  1  0.384566  0.250000  0.943999  1
  S  S15  1  0.881970  0.250000  0.554517  1
  S  S16  1  0.727990  0.250000  0.293246  1
  S  S17  1  0.226083  0.250000  0.202865  1
  S  S18  1  0.271905  0.750000  0.705675  1
  S  S19  1  0.774825  0.750000  0.800352  1
