# generated using pymatgen
data_TbEr5Mn2(Co4P3)4
_symmetry_space_group_name_H-M   'P 1'
_cell_length_a   3.67617100
_cell_length_b   10.50288500
_cell_length_c   12.15720500
_cell_angle_alpha   90.00000000
_cell_angle_beta   90.00000000
_cell_angle_gamma   90.00000000
_symmetry_Int_Tables_number   1
_chemical_formula_structural   TbEr5Mn2(Co4P3)4
_chemical_formula_sum   'Tb1 Er5 Mn2 Co16 P12'
_cell_volume   469.39456317
_cell_formula_units_Z   1
loop_
 _symmetry_equiv_pos_site_id
 _symmetry_equiv_pos_as_xyz
  1  'x, y, z'
loop_
 _atom_site_type_symbol
 _atom_site_label
 _atom_site_symmetry_multiplicity
 _atom_site_fract_x
 _atom_site_fract_y
 _atom_site_fract_z
 _atom_site_occupancy
  Tb  Tb0  1  0.750000  0.250000  0.477131  1
  Er  Er1  1  0.250000  0.750000  0.522933  1
  Er  Er2  1  0.250000  0.931714  0.794793  1
  Er  Er3  1  0.250000  0.568286  0.794793  1
  Er  Er4  1  0.750000  0.068265  0.204972  1
  Er  Er5  1  0.750000  0.431735  0.204972  1
  Mn  Mn6  1  0.250000  0.250000  0.841371  1
  Mn  Mn7  1  0.750000  0.750000  0.159324  1
  Co  Co8  1  0.250000  0.250000  0.296048  1
  Co  Co9  1  0.750000  0.750000  0.703060  1
  Co  Co10  1  0.750000  0.250000  0.013321  1
  Co  Co11  1  0.250000  0.750000  0.986413  1
  Co  Co12  1  0.250000  0.417177  0.006194  1
  Co  Co13  1  0.250000  0.082823  0.006194  1
  Co  Co14  1  0.750000  0.582975  0.993725  1
  Co  Co15  1  0.750000  0.917025  0.993725  1
  Co  Co16  1  0.250000  0.454280  0.569702  1
  Co  Co17  1  0.250000  0.045720  0.569702  1
  Co  Co18  1  0.750000  0.547419  0.430413  1
  Co  Co19  1  0.750000  0.952581  0.430413  1
  Co  Co20  1  0.250000  0.870743  0.290839  1
  Co  Co21  1  0.250000  0.629257  0.290839  1
  Co  Co22  1  0.750000  0.128886  0.709445  1
  Co  Co23  1  0.750000  0.371114  0.709445  1
  P  P24  1  0.250000  0.250000  0.117163  1
  P  P25  1  0.750000  0.750000  0.882430  1
  P  P26  1  0.250000  0.250000  0.655502  1
  P  P27  1  0.750000  0.750000  0.345877  1
  P  P28  1  0.250000  0.439139  0.383076  1
  P  P29  1  0.250000  0.060861  0.383076  1
  P  P30  1  0.750000  0.562002  0.616513  1
  P  P31  1  0.750000  0.937998  0.616513  1
  P  P32  1  0.250000  0.902799  0.107776  1
  P  P33  1  0.250000  0.597201  0.107776  1
  P  P34  1  0.750000  0.096994  0.892266  1
  P  P35  1  0.750000  0.403006  0.892266  1
