# generated using pymatgen
data_Ca2SmGa3(Ni3Sn)3
_symmetry_space_group_name_H-M   'P 1'
_cell_length_a   4.07361100
_cell_length_b   9.22918826
_cell_length_c   9.22918797
_cell_angle_alpha   60.15686755
_cell_angle_beta   90.00000000
_cell_angle_gamma   90.00000000
_symmetry_Int_Tables_number   1
_chemical_formula_structural   Ca2SmGa3(Ni3Sn)3
_chemical_formula_sum   'Ca2 Sm1 Ga3 Ni9 Sn3'
_cell_volume   300.96881952
_cell_formula_units_Z   1
loop_
 _symmetry_equiv_pos_site_id
 _symmetry_equiv_pos_as_xyz
  1  'x, y, z'
loop_
 _atom_site_type_symbol
 _atom_site_label
 _atom_site_symmetry_multiplicity
 _atom_site_fract_x
 _atom_site_fract_y
 _atom_site_fract_z
 _atom_site_occupancy
  Ca  Ca0  1  0.500000  0.333474  0.333089  1
  Ca  Ca1  1  0.500000  0.666911  0.666526  1
  Sm  Sm2  1  0.000000  0.999537  0.000463  1
  Ga  Ga3  1  0.500000  0.739597  0.260403  1
  Ga  Ga4  1  0.500000  0.260256  0.000265  1
  Ga  Ga5  1  0.500000  0.999735  0.739744  1
  Ni  Ni6  1  0.000000  0.208367  0.158573  1
  Ni  Ni7  1  0.000000  0.158509  0.633700  1
  Ni  Ni8  1  0.000000  0.633508  0.207903  1
  Ni  Ni9  1  0.000000  0.841427  0.791633  1
  Ni  Ni10  1  0.000000  0.366300  0.841491  1
  Ni  Ni11  1  0.000000  0.792097  0.366492  1
  Ni  Ni12  1  0.500000  0.277142  0.722858  1
  Ni  Ni13  1  0.500000  0.722189  0.000187  1
  Ni  Ni14  1  0.500000  0.999813  0.277811  1
  Sn  Sn15  1  0.000000  0.467401  0.532599  1
  Sn  Sn16  1  0.000000  0.533159  0.999521  1
  Sn  Sn17  1  0.000000  0.000479  0.466841  1
