# generated using pymatgen
data_LiLa4Pr12Cd3(IrPt)2
_symmetry_space_group_name_H-M   'P 1'
_cell_length_a   10.10735546
_cell_length_b   10.10735457
_cell_length_c   10.09539000
_cell_angle_alpha   60.03915039
_cell_angle_beta   60.03915329
_cell_angle_gamma   60.15318563
_symmetry_Int_Tables_number   1
_chemical_formula_structural   LiLa4Pr12Cd3(IrPt)2
_chemical_formula_sum   'Li1 La4 Pr12 Cd3 Ir2 Pt2'
_cell_volume   730.53454103
_cell_formula_units_Z   1
loop_
 _symmetry_equiv_pos_site_id
 _symmetry_equiv_pos_as_xyz
  1  'x, y, z'
loop_
 _atom_site_type_symbol
 _atom_site_label
 _atom_site_symmetry_multiplicity
 _atom_site_fract_x
 _atom_site_fract_y
 _atom_site_fract_z
 _atom_site_occupancy
  Li  Li0  1  0.575619  0.575619  0.575548  1
  La  La1  1  0.349767  0.349767  0.344587  1
  La  La2  1  0.349192  0.349192  0.958244  1
  La  La3  1  0.353789  0.952549  0.346735  1
  La  La4  1  0.952549  0.353789  0.346735  1
  Pr  Pr5  1  0.806426  0.190177  0.191457  1
  Pr  Pr6  1  0.186559  0.808314  0.815290  1
  Pr  Pr7  1  0.190177  0.806426  0.191457  1
  Pr  Pr8  1  0.808314  0.186559  0.815290  1
  Pr  Pr9  1  0.191510  0.191510  0.808771  1
  Pr  Pr10  1  0.812569  0.812569  0.187498  1
  Pr  Pr11  1  0.937613  0.564731  0.562912  1
  Pr  Pr12  1  0.563867  0.937660  0.935575  1
  Pr  Pr13  1  0.564731  0.937613  0.562912  1
  Pr  Pr14  1  0.937660  0.563867  0.935575  1
  Pr  Pr15  1  0.563922  0.563922  0.936563  1
  Pr  Pr16  1  0.937109  0.937109  0.562505  1
  Cd  Cd17  1  0.581753  0.581753  0.257537  1
  Cd  Cd18  1  0.580930  0.258225  0.581218  1
  Cd  Cd19  1  0.258225  0.580930  0.581218  1
  Ir  Ir20  1  0.142262  0.571333  0.143088  1
  Ir  Ir21  1  0.571333  0.142262  0.143088  1
  Pt  Pt22  1  0.142275  0.142275  0.144196  1
  Pt  Pt23  1  0.141845  0.141845  0.571995  1
