# generated using pymatgen
data_YEr3Lu4In3Ir
_symmetry_space_group_name_H-M   'P 1'
_cell_length_a   10.23523200
_cell_length_b   10.23523306
_cell_length_c   7.06046000
_cell_angle_alpha   90.00000000
_cell_angle_beta   90.00000000
_cell_angle_gamma   120.00000949
_symmetry_Int_Tables_number   1
_chemical_formula_structural   YEr3Lu4In3Ir
_chemical_formula_sum   'Y2 Er6 Lu8 In6 Ir2'
_cell_volume   640.55881877
_cell_formula_units_Z   2
loop_
 _symmetry_equiv_pos_site_id
 _symmetry_equiv_pos_as_xyz
  1  'x, y, z'
loop_
 _atom_site_type_symbol
 _atom_site_label
 _atom_site_symmetry_multiplicity
 _atom_site_fract_x
 _atom_site_fract_y
 _atom_site_fract_z
 _atom_site_occupancy
  Y  Y0  1  0.000000  0.000000  0.496042  1
  Y  Y1  1  0.000000  0.000000  0.996042  1
  Er  Er2  1  0.466247  0.533753  0.480877  1
  Er  Er3  1  0.067507  0.533753  0.480877  1
  Er  Er4  1  0.466247  0.932493  0.480877  1
  Er  Er5  1  0.533753  0.466247  0.980877  1
  Er  Er6  1  0.932493  0.466247  0.980877  1
  Er  Er7  1  0.533753  0.067507  0.980877  1
  Lu  Lu8  1  0.821821  0.178179  0.277898  1
  Lu  Lu9  1  0.356357  0.178179  0.277898  1
  Lu  Lu10  1  0.821821  0.643643  0.277898  1
  Lu  Lu11  1  0.178179  0.821821  0.777898  1
  Lu  Lu12  1  0.643643  0.821821  0.777898  1
  Lu  Lu13  1  0.178179  0.356357  0.777898  1
  Lu  Lu14  1  0.333333  0.666667  0.095971  1
  Lu  Lu15  1  0.666667  0.333333  0.595971  1
  In  In16  1  0.163261  0.836739  0.232214  1
  In  In17  1  0.673477  0.836739  0.232214  1
  In  In18  1  0.163261  0.326523  0.232214  1
  In  In19  1  0.836739  0.163261  0.732214  1
  In  In20  1  0.326523  0.163261  0.732214  1
  In  In21  1  0.836739  0.673477  0.732214  1
  Ir  Ir22  1  0.333333  0.666667  0.707299  1
  Ir  Ir23  1  0.666667  0.333333  0.207299  1
