# generated using pymatgen
data_Li4SmHo3Si8
_symmetry_space_group_name_H-M   'P 1'
_cell_length_a   3.80597100
_cell_length_b   7.58951916
_cell_length_c   10.17937686
_cell_angle_alpha   89.89022529
_cell_angle_beta   90.00000000
_cell_angle_gamma   90.00000000
_symmetry_Int_Tables_number   1
_chemical_formula_structural   Li4SmHo3Si8
_chemical_formula_sum   'Li4 Sm1 Ho3 Si8'
_cell_volume   294.03574719
_cell_formula_units_Z   1
loop_
 _symmetry_equiv_pos_site_id
 _symmetry_equiv_pos_as_xyz
  1  'x, y, z'
loop_
 _atom_site_type_symbol
 _atom_site_label
 _atom_site_symmetry_multiplicity
 _atom_site_fract_x
 _atom_site_fract_y
 _atom_site_fract_z
 _atom_site_occupancy
  Li  Li0  1  0.250000  0.991740  0.392061  1
  Li  Li1  1  0.250000  0.488140  0.107148  1
  Li  Li2  1  0.750000  0.011703  0.610148  1
  Li  Li3  1  0.750000  0.510393  0.892953  1
  Sm  Sm4  1  0.750000  0.358012  0.363164  1
  Ho  Ho5  1  0.250000  0.137928  0.862927  1
  Ho  Ho6  1  0.250000  0.640222  0.636255  1
  Ho  Ho7  1  0.750000  0.860448  0.135889  1
  Si  Si8  1  0.250000  0.231891  0.572163  1
  Si  Si9  1  0.250000  0.732447  0.931749  1
  Si  Si10  1  0.750000  0.772058  0.431711  1
  Si  Si11  1  0.750000  0.263208  0.064603  1
  Si  Si12  1  0.250000  0.659955  0.320565  1
  Si  Si13  1  0.250000  0.152739  0.176164  1
  Si  Si14  1  0.750000  0.345154  0.681749  1
  Si  Si15  1  0.750000  0.843961  0.820748  1
