# generated using pymatgen
data_HoTm2Th11Os6
_symmetry_space_group_name_H-M   'P 1'
_cell_length_a   9.89015077
_cell_length_b   9.95224892
_cell_length_c   6.36359371
_cell_angle_alpha   90.07464384
_cell_angle_beta   90.03907692
_cell_angle_gamma   120.16519375
_symmetry_Int_Tables_number   1
_chemical_formula_structural   HoTm2Th11Os6
_chemical_formula_sum   'Ho1 Tm2 Th11 Os6'
_cell_volume   541.54056452
_cell_formula_units_Z   1
loop_
 _symmetry_equiv_pos_site_id
 _symmetry_equiv_pos_as_xyz
  1  'x, y, z'
loop_
 _atom_site_type_symbol
 _atom_site_label
 _atom_site_symmetry_multiplicity
 _atom_site_fract_x
 _atom_site_fract_y
 _atom_site_fract_z
 _atom_site_occupancy
  Ho  Ho0  1  0.928445  0.464154  0.800539  1
  Tm  Tm1  1  0.459678  0.536443  0.299656  1
  Tm  Tm2  1  0.074030  0.535925  0.302116  1
  Th  Th3  1  0.252805  0.128769  0.509747  1
  Th  Th4  1  0.540725  0.079711  0.796075  1
  Th  Th5  1  0.745549  0.872318  0.014092  1
  Th  Th6  1  0.667730  0.334176  0.273268  1
  Th  Th7  1  0.126529  0.869777  0.010583  1
  Th  Th8  1  0.459936  0.917001  0.295119  1
  Th  Th9  1  0.537675  0.466465  0.801280  1
  Th  Th10  1  0.874641  0.130491  0.512080  1
  Th  Th11  1  0.125673  0.256225  0.015483  1
  Th  Th12  1  0.873240  0.745086  0.509822  1
  Th  Th13  1  0.331828  0.664598  0.769171  1
  Os  Os14  1  0.812918  0.628486  0.047939  1
  Os  Os15  1  0.813985  0.183977  0.045999  1
  Os  Os16  1  0.629569  0.812650  0.545184  1
  Os  Os17  1  0.371762  0.187545  0.042115  1
  Os  Os18  1  0.186309  0.370213  0.550821  1
  Os  Os19  1  0.186972  0.815991  0.542909  1
