# generated using pymatgen
data_Ho7Er(MgSn4)2
_symmetry_space_group_name_H-M   'P 1'
_cell_length_a   7.64657603
_cell_length_b   8.21453301
_cell_length_c   15.23697503
_cell_angle_alpha   89.99980814
_cell_angle_beta   90.00711267
_cell_angle_gamma   90.00648782
_symmetry_Int_Tables_number   1
_chemical_formula_structural   Ho7Er(MgSn4)2
_chemical_formula_sum   'Ho14 Er2 Mg4 Sn16'
_cell_volume   957.08087931
_cell_formula_units_Z   2
loop_
 _symmetry_equiv_pos_site_id
 _symmetry_equiv_pos_as_xyz
  1  'x, y, z'
loop_
 _atom_site_type_symbol
 _atom_site_label
 _atom_site_symmetry_multiplicity
 _atom_site_fract_x
 _atom_site_fract_y
 _atom_site_fract_z
 _atom_site_occupancy
  Ho  Ho0  1  0.998965  0.184821  0.090672  1
  Ho  Ho1  1  0.001035  0.815179  0.909328  1
  Ho  Ho2  1  0.501024  0.684820  0.909285  1
  Ho  Ho3  1  0.000988  0.815190  0.590705  1
  Ho  Ho4  1  0.498976  0.315180  0.090715  1
  Ho  Ho5  1  0.999012  0.184810  0.409295  1
  Ho  Ho6  1  0.498991  0.315189  0.409289  1
  Ho  Ho7  1  0.501009  0.684811  0.590711  1
  Ho  Ho8  1  0.335125  0.169019  0.628743  1
  Ho  Ho9  1  0.664875  0.830981  0.371257  1
  Ho  Ho10  1  0.164837  0.669067  0.371198  1
  Ho  Ho11  1  0.664864  0.830961  0.128733  1
  Ho  Ho12  1  0.835163  0.330933  0.628802  1
  Ho  Ho13  1  0.335136  0.169039  0.871267  1
  Er  Er14  1  0.835135  0.330994  0.871286  1
  Er  Er15  1  0.164865  0.669006  0.128714  1
  Mg  Mg16  1  0.159286  0.505425  0.750022  1
  Mg  Mg17  1  0.840714  0.494575  0.249978  1
  Mg  Mg18  1  0.340662  0.005421  0.249986  1
  Mg  Mg19  1  0.659338  0.994579  0.750014  1
  Sn  Sn20  1  0.021429  0.091589  0.750070  1
  Sn  Sn21  1  0.978571  0.908411  0.249930  1
  Sn  Sn22  1  0.478310  0.591499  0.249933  1
  Sn  Sn23  1  0.521690  0.408501  0.750067  1
  Sn  Sn24  1  0.182491  0.463002  0.538460  1
  Sn  Sn25  1  0.817509  0.536998  0.461540  1
  Sn  Sn26  1  0.317528  0.963012  0.461544  1
  Sn  Sn27  1  0.817700  0.536922  0.038396  1
  Sn  Sn28  1  0.682472  0.036988  0.538456  1
  Sn  Sn29  1  0.182300  0.463078  0.961604  1
  Sn  Sn30  1  0.682602  0.037139  0.961484  1
  Sn  Sn31  1  0.317398  0.962861  0.038516  1
  Sn  Sn32  1  0.302550  0.846800  0.750011  1
  Sn  Sn33  1  0.697450  0.153200  0.249989  1
  Sn  Sn34  1  0.197441  0.346898  0.249963  1
  Sn  Sn35  1  0.802559  0.653102  0.750037  1
