# generated using pymatgen
data_Er9Lu(SiBi2)2
_symmetry_space_group_name_H-M   'P 1'
_cell_length_a   11.89054200
_cell_length_b   9.12932700
_cell_length_c   7.98181300
_cell_angle_alpha   90.00000000
_cell_angle_beta   90.00000000
_cell_angle_gamma   90.00000000
_symmetry_Int_Tables_number   1
_chemical_formula_structural   Er9Lu(SiBi2)2
_chemical_formula_sum   'Er18 Lu2 Si4 Bi8'
_cell_volume   866.44692203
_cell_formula_units_Z   2
loop_
 _symmetry_equiv_pos_site_id
 _symmetry_equiv_pos_as_xyz
  1  'x, y, z'
loop_
 _atom_site_type_symbol
 _atom_site_label
 _atom_site_symmetry_multiplicity
 _atom_site_fract_x
 _atom_site_fract_y
 _atom_site_fract_z
 _atom_site_occupancy
  Er  Er0  1  0.061293  0.555004  0.820765  1
  Er  Er1  1  0.561293  0.944996  0.679235  1
  Er  Er2  1  0.938689  0.054609  0.179157  1
  Er  Er3  1  0.438689  0.445391  0.320843  1
  Er  Er4  1  0.938689  0.445391  0.179157  1
  Er  Er5  1  0.438689  0.054609  0.320843  1
  Er  Er6  1  0.061293  0.944996  0.820765  1
  Er  Er7  1  0.561293  0.555004  0.679235  1
  Er  Er8  1  0.998906  0.250000  0.539113  1
  Er  Er9  1  0.498906  0.250000  0.960887  1
  Er  Er10  1  0.210779  0.750000  0.166355  1
  Er  Er11  1  0.710779  0.750000  0.333645  1
  Er  Er12  1  0.789093  0.250000  0.833808  1
  Er  Er13  1  0.289093  0.250000  0.666192  1
  Er  Er14  1  0.294145  0.750000  0.638798  1
  Er  Er15  1  0.794145  0.750000  0.861202  1
  Er  Er16  1  0.705739  0.250000  0.361176  1
  Er  Er17  1  0.205739  0.250000  0.138824  1
  Lu  Lu18  1  0.001220  0.750000  0.460719  1
  Lu  Lu19  1  0.501220  0.750000  0.039281  1
  Si  Si20  1  0.476746  0.750000  0.408959  1
  Si  Si21  1  0.976746  0.750000  0.091041  1
  Si  Si22  1  0.523360  0.250000  0.589976  1
  Si  Si23  1  0.023360  0.250000  0.910024  1
  Bi  Bi24  1  0.325353  0.511136  0.934103  1
  Bi  Bi25  1  0.825353  0.988864  0.565897  1
  Bi  Bi26  1  0.674672  0.010143  0.066280  1
  Bi  Bi27  1  0.174672  0.489857  0.433720  1
  Bi  Bi28  1  0.674672  0.489857  0.066280  1
  Bi  Bi29  1  0.174672  0.010143  0.433720  1
  Bi  Bi30  1  0.325353  0.988864  0.934103  1
  Bi  Bi31  1  0.825353  0.511136  0.565897  1
