# generated using pymatgen
data_Nd10IrOs2Rh
_symmetry_space_group_name_H-M   'P 1'
_cell_length_a   8.96301629
_cell_length_b   8.96275368
_cell_length_c   7.40432548
_cell_angle_alpha   83.61714327
_cell_angle_beta   83.58802107
_cell_angle_gamma   43.59364375
_symmetry_Int_Tables_number   1
_chemical_formula_structural   Nd10IrOs2Rh
_chemical_formula_sum   'Nd10 Ir1 Os2 Rh1'
_cell_volume   407.18349247
_cell_formula_units_Z   1
loop_
 _symmetry_equiv_pos_site_id
 _symmetry_equiv_pos_as_xyz
  1  'x, y, z'
loop_
 _atom_site_type_symbol
 _atom_site_label
 _atom_site_symmetry_multiplicity
 _atom_site_fract_x
 _atom_site_fract_y
 _atom_site_fract_z
 _atom_site_occupancy
  Nd  Nd0  1  0.020975  0.796010  0.916015  1
  Nd  Nd1  1  0.204102  0.978980  0.584653  1
  Nd  Nd2  1  0.983543  0.201608  0.080882  1
  Nd  Nd3  1  0.798074  0.016041  0.418965  1
  Nd  Nd4  1  0.350528  0.212331  0.816407  1
  Nd  Nd5  1  0.787903  0.649144  0.683952  1
  Nd  Nd6  1  0.645023  0.789058  0.181880  1
  Nd  Nd7  1  0.213887  0.353756  0.317228  1
  Nd  Nd8  1  0.567633  0.432042  0.750894  1
  Nd  Nd9  1  0.430391  0.569048  0.249596  1
  Ir  Ir10  1  0.598715  0.177111  0.075027  1
  Os  Os11  1  0.177136  0.601226  0.572143  1
  Os  Os12  1  0.398570  0.823359  0.927213  1
  Rh  Rh13  1  0.823521  0.400285  0.425147  1
