# generated using pymatgen
data_Sr3Co4(TcAs3)2
_symmetry_space_group_name_H-M   'P 1'
_cell_length_a   8.75753954
_cell_length_b   8.77016581
_cell_length_c   8.77016533
_cell_angle_alpha   153.78238776
_cell_angle_beta   92.81843093
_cell_angle_gamma   93.08714497
_symmetry_Int_Tables_number   1
_chemical_formula_structural   Sr3Co4(TcAs3)2
_chemical_formula_sum   'Sr3 Co4 Tc2 As6'
_cell_volume   289.80289759
_cell_formula_units_Z   1
loop_
 _symmetry_equiv_pos_site_id
 _symmetry_equiv_pos_as_xyz
  1  'x, y, z'
loop_
 _atom_site_type_symbol
 _atom_site_label
 _atom_site_symmetry_multiplicity
 _atom_site_fract_x
 _atom_site_fract_y
 _atom_site_fract_z
 _atom_site_occupancy
  Sr  Sr0  1  0.329830  0.333839  0.995990  1
  Sr  Sr1  1  0.672880  0.666838  0.006042  1
  Sr  Sr2  1  0.995941  0.999324  0.996617  1
  Co  Co3  1  0.756975  0.504187  0.252788  1
  Co  Co4  1  0.082902  0.828986  0.253915  1
  Co  Co5  1  0.411944  0.166829  0.245115  1
  Co  Co6  1  0.923461  0.166364  0.757098  1
  Tc  Tc7  1  0.580144  0.835261  0.744882  1
  Tc  Tc8  1  0.243379  0.498285  0.745093  1
  As  As9  1  0.303197  0.666654  0.636541  1
  As  As10  1  0.689366  0.331046  0.358320  1
  As  As11  1  0.972048  0.324980  0.647069  1
  As  As12  1  0.361639  0.003189  0.358450  1
  As  As13  1  0.022306  0.666314  0.355992  1
  As  As14  1  0.653989  0.007901  0.646089  1
