# generated using pymatgen
data_Ac3Mg3TlIn2
_symmetry_space_group_name_H-M   'P 1'
_cell_length_a   8.00564900
_cell_length_b   8.00564976
_cell_length_c   4.99469300
_cell_angle_alpha   90.00000000
_cell_angle_beta   90.00000000
_cell_angle_gamma   120.00000098
_symmetry_Int_Tables_number   1
_chemical_formula_structural   Ac3Mg3TlIn2
_chemical_formula_sum   'Ac3 Mg3 Tl1 In2'
_cell_volume   277.22510592
_cell_formula_units_Z   1
loop_
 _symmetry_equiv_pos_site_id
 _symmetry_equiv_pos_as_xyz
  1  'x, y, z'
loop_
 _atom_site_type_symbol
 _atom_site_label
 _atom_site_symmetry_multiplicity
 _atom_site_fract_x
 _atom_site_fract_y
 _atom_site_fract_z
 _atom_site_occupancy
  Ac  Ac0  1  0.574979  0.000000  0.000000  1
  Ac  Ac1  1  0.000000  0.574979  0.000000  1
  Ac  Ac2  1  0.425021  0.425021  0.000000  1
  Mg  Mg3  1  0.240650  0.000000  0.500000  1
  Mg  Mg4  1  0.000000  0.240650  0.500000  1
  Mg  Mg5  1  0.759350  0.759350  0.500000  1
  Tl  Tl6  1  0.000000  0.000000  0.000000  1
  In  In7  1  0.333333  0.666667  0.500000  1
  In  In8  1  0.666667  0.333333  0.500000  1
