# generated using pymatgen
data_Eu4GaSnPt4
_symmetry_space_group_name_H-M   'P 1'
_cell_length_a   5.80903466
_cell_length_b   5.80903449
_cell_length_c   8.27462266
_cell_angle_alpha   101.29375521
_cell_angle_beta   101.29375613
_cell_angle_gamma   60.59627499
_symmetry_Int_Tables_number   1
_chemical_formula_structural   Eu4GaSnPt4
_chemical_formula_sum   'Eu4 Ga1 Sn1 Pt4'
_cell_volume   236.91669767
_cell_formula_units_Z   1
loop_
 _symmetry_equiv_pos_site_id
 _symmetry_equiv_pos_as_xyz
  1  'x, y, z'
loop_
 _atom_site_type_symbol
 _atom_site_label
 _atom_site_symmetry_multiplicity
 _atom_site_fract_x
 _atom_site_fract_y
 _atom_site_fract_z
 _atom_site_occupancy
  Eu  Eu0  1  0.790071  0.508678  0.149646  1
  Eu  Eu1  1  0.491321  0.209929  0.350354  1
  Eu  Eu2  1  0.510694  0.787615  0.649186  1
  Eu  Eu3  1  0.212386  0.489306  0.850814  1
  Ga  Ga4  1  0.128515  0.871484  0.250000  1
  Sn  Sn5  1  0.852936  0.147063  0.749999  1
  Pt  Pt6  1  0.733653  0.993933  0.008558  1
  Pt  Pt7  1  0.006067  0.266346  0.491442  1
  Pt  Pt8  1  0.008287  0.733931  0.489713  1
  Pt  Pt9  1  0.266068  0.991713  0.010288  1
