# generated using pymatgen
data_Cs4(PtO2)3
_symmetry_space_group_name_H-M   'P 1'
_cell_length_a   6.44353838
_cell_length_b   6.44354295
_cell_length_c   8.57492800
_cell_angle_alpha   88.10926887
_cell_angle_beta   88.10918745
_cell_angle_gamma   64.80346108
_symmetry_Int_Tables_number   1
_chemical_formula_structural   Cs4(PtO2)3
_chemical_formula_sum   'Cs4 Pt3 O6'
_cell_volume   321.90349336
_cell_formula_units_Z   1
loop_
 _symmetry_equiv_pos_site_id
 _symmetry_equiv_pos_as_xyz
  1  'x, y, z'
loop_
 _atom_site_type_symbol
 _atom_site_label
 _atom_site_symmetry_multiplicity
 _atom_site_fract_x
 _atom_site_fract_y
 _atom_site_fract_z
 _atom_site_occupancy
  Cs  Cs0  1  0.674996  0.674996  0.622386  1
  Cs  Cs1  1  0.325004  0.325004  0.377614  1
  Cs  Cs2  1  0.654794  0.654794  0.112251  1
  Cs  Cs3  1  0.345206  0.345206  0.887749  1
  Pt  Pt4  1  0.000000  0.000000  0.000000  1
  Pt  Pt5  1  0.962528  0.962528  0.324331  1
  Pt  Pt6  1  0.037472  0.037472  0.675669  1
  O  O7  1  0.108732  0.728619  0.151920  1
  O  O8  1  0.728619  0.108733  0.151920  1
  O  O9  1  0.891268  0.271381  0.848080  1
  O  O10  1  0.271381  0.891267  0.848080  1
  O  O11  1  0.183339  0.816662  0.500000  1
  O  O12  1  0.816661  0.183338  0.500000  1
