# generated using pymatgen
data_LaTh3(Zn5Sn)2
_symmetry_space_group_name_H-M   'P 1'
_cell_length_a   8.61491501
_cell_length_b   8.61491663
_cell_length_c   9.09431374
_cell_angle_alpha   90.05721730
_cell_angle_beta   89.94278252
_cell_angle_gamma   149.56168616
_symmetry_Int_Tables_number   1
_chemical_formula_structural   LaTh3(Zn5Sn)2
_chemical_formula_sum   'La1 Th3 Zn10 Sn2'
_cell_volume   341.93683775
_cell_formula_units_Z   1
loop_
 _symmetry_equiv_pos_site_id
 _symmetry_equiv_pos_as_xyz
  1  'x, y, z'
loop_
 _atom_site_type_symbol
 _atom_site_label
 _atom_site_symmetry_multiplicity
 _atom_site_fract_x
 _atom_site_fract_y
 _atom_site_fract_z
 _atom_site_occupancy
  La  La0  1  0.000000  0.000000  0.000000  1
  Th  Th1  1  0.205133  0.794867  0.250407  1
  Th  Th2  1  0.794867  0.205133  0.749593  1
  Th  Th3  1  0.000000  0.000000  0.500000  1
  Zn  Zn4  1  0.815390  0.184610  0.393010  1
  Zn  Zn5  1  0.184610  0.815390  0.606990  1
  Zn  Zn6  1  0.814265  0.185735  0.107346  1
  Zn  Zn7  1  0.185735  0.814265  0.892654  1
  Zn  Zn8  1  0.657040  0.342960  0.483133  1
  Zn  Zn9  1  0.342960  0.657040  0.516867  1
  Zn  Zn10  1  0.657958  0.342042  0.017134  1
  Zn  Zn11  1  0.342042  0.657958  0.982866  1
  Zn  Zn12  1  0.394804  0.605196  0.251623  1
  Zn  Zn13  1  0.605196  0.394804  0.748377  1
  Sn  Sn14  1  0.555423  0.444577  0.251685  1
  Sn  Sn15  1  0.444577  0.555423  0.748315  1
