# generated using pymatgen
data_Sc2GaCo5B2
_symmetry_space_group_name_H-M   'P 1'
_cell_length_a   8.76595000
_cell_length_b   8.76595000
_cell_length_c   2.95686000
_cell_angle_alpha   90.00000000
_cell_angle_beta   90.00000000
_cell_angle_gamma   90.00000000
_symmetry_Int_Tables_number   1
_chemical_formula_structural   Sc2GaCo5B2
_chemical_formula_sum   'Sc4 Ga2 Co10 B4'
_cell_volume   227.21067953
_cell_formula_units_Z   2
loop_
 _symmetry_equiv_pos_site_id
 _symmetry_equiv_pos_as_xyz
  1  'x, y, z'
loop_
 _atom_site_type_symbol
 _atom_site_label
 _atom_site_symmetry_multiplicity
 _atom_site_fract_x
 _atom_site_fract_y
 _atom_site_fract_z
 _atom_site_occupancy
  Sc  Sc0  1  0.675633  0.175633  0.000000  1
  Sc  Sc1  1  0.324367  0.824367  0.000000  1
  Sc  Sc2  1  0.175633  0.324367  0.000000  1
  Sc  Sc3  1  0.824367  0.675633  0.000000  1
  Ga  Ga4  1  0.000000  0.000000  0.000000  1
  Ga  Ga5  1  0.500000  0.500000  0.000000  1
  Co  Co6  1  0.222664  0.069392  0.500000  1
  Co  Co7  1  0.777336  0.930608  0.500000  1
  Co  Co8  1  0.069392  0.777336  0.500000  1
  Co  Co9  1  0.722664  0.430608  0.500000  1
  Co  Co10  1  0.930608  0.222664  0.500000  1
  Co  Co11  1  0.277336  0.569392  0.500000  1
  Co  Co12  1  0.569392  0.722664  0.500000  1
  Co  Co13  1  0.430608  0.277336  0.500000  1
  Co  Co14  1  0.500000  0.000000  0.500000  1
  Co  Co15  1  0.000000  0.500000  0.500000  1
  B  B16  1  0.120370  0.620370  0.000000  1
  B  B17  1  0.879630  0.379630  0.000000  1
  B  B18  1  0.620370  0.879630  0.000000  1
  B  B19  1  0.379630  0.120370  0.000000  1
