# generated using pymatgen
data_SmY2Sc3(SnPt)6
_symmetry_space_group_name_H-M   'P 1'
_cell_length_a   7.54842300
_cell_length_b   7.55455726
_cell_length_c   7.71250200
_cell_angle_alpha   90.00000000
_cell_angle_beta   90.00000000
_cell_angle_gamma   119.97476511
_symmetry_Int_Tables_number   1
_chemical_formula_structural   SmY2Sc3(SnPt)6
_chemical_formula_sum   'Sm1 Y2 Sc3 Sn6 Pt6'
_cell_volume   380.97944563
_cell_formula_units_Z   1
loop_
 _symmetry_equiv_pos_site_id
 _symmetry_equiv_pos_as_xyz
  1  'x, y, z'
loop_
 _atom_site_type_symbol
 _atom_site_label
 _atom_site_symmetry_multiplicity
 _atom_site_fract_x
 _atom_site_fract_y
 _atom_site_fract_z
 _atom_site_occupancy
  Sm  Sm0  1  0.405565  0.999570  0.750000  1
  Y  Y1  1  0.595833  0.596338  0.750000  1
  Y  Y2  1  0.000811  0.404407  0.750000  1
  Sc  Sc3  1  0.392325  0.001736  0.250000  1
  Sc  Sc4  1  0.609078  0.606972  0.250000  1
  Sc  Sc5  1  0.998582  0.391198  0.250000  1
  Sn  Sn6  1  0.268009  0.269329  0.009173  1
  Sn  Sn7  1  0.000232  0.731340  0.009226  1
  Sn  Sn8  1  0.000232  0.731340  0.490774  1
  Sn  Sn9  1  0.731411  0.999171  0.488846  1
  Sn  Sn10  1  0.268009  0.269329  0.490827  1
  Sn  Sn11  1  0.731411  0.999171  0.011154  1
  Pt  Pt12  1  0.996568  0.999943  0.750000  1
  Pt  Pt13  1  0.000714  0.000045  0.250000  1
  Pt  Pt14  1  0.667680  0.334807  0.036836  1
  Pt  Pt15  1  0.332930  0.665248  0.458867  1
  Pt  Pt16  1  0.332930  0.665248  0.041133  1
  Pt  Pt17  1  0.667680  0.334807  0.463164  1
