# generated using pymatgen
data_Zr3TcSn3Rh2
_symmetry_space_group_name_H-M   'P 1'
_cell_length_a   7.60929900
_cell_length_b   7.60929904
_cell_length_c   6.96992300
_cell_angle_alpha   90.00000000
_cell_angle_beta   90.00000000
_cell_angle_gamma   120.00000416
_symmetry_Int_Tables_number   1
_chemical_formula_structural   Zr3TcSn3Rh2
_chemical_formula_sum   'Zr6 Tc2 Sn6 Rh4'
_cell_volume   349.50057569
_cell_formula_units_Z   2
loop_
 _symmetry_equiv_pos_site_id
 _symmetry_equiv_pos_as_xyz
  1  'x, y, z'
loop_
 _atom_site_type_symbol
 _atom_site_label
 _atom_site_symmetry_multiplicity
 _atom_site_fract_x
 _atom_site_fract_y
 _atom_site_fract_z
 _atom_site_occupancy
  Zr  Zr0  1  0.608372  0.009348  0.750000  1
  Zr  Zr1  1  0.400976  0.391628  0.750000  1
  Zr  Zr2  1  0.990652  0.599024  0.750000  1
  Zr  Zr3  1  0.612526  0.013567  0.250000  1
  Zr  Zr4  1  0.401041  0.387474  0.250000  1
  Zr  Zr5  1  0.986433  0.598959  0.250000  1
  Tc  Tc6  1  0.666667  0.333333  0.997750  1
  Tc  Tc7  1  0.666667  0.333333  0.502250  1
  Sn  Sn8  1  0.269889  0.993908  0.999895  1
  Sn  Sn9  1  0.724019  0.730111  0.500105  1
  Sn  Sn10  1  0.006092  0.275981  0.500105  1
  Sn  Sn11  1  0.006092  0.275981  0.999895  1
  Sn  Sn12  1  0.724019  0.730111  0.999895  1
  Sn  Sn13  1  0.269889  0.993908  0.500105  1
  Rh  Rh14  1  0.333333  0.666667  0.012695  1
  Rh  Rh15  1  0.333333  0.666667  0.487305  1
  Rh  Rh16  1  0.000000  0.000000  0.750000  1
  Rh  Rh17  1  0.000000  0.000000  0.250000  1
