# generated using pymatgen
data_Zr7Pd10
_symmetry_space_group_name_H-M   'P 1'
_cell_length_a   8.20043401
_cell_length_b   8.20043367
_cell_length_c   9.71192300
_cell_angle_alpha   90.00000000
_cell_angle_beta   90.00000000
_cell_angle_gamma   107.21139917
_symmetry_Int_Tables_number   1
_chemical_formula_structural   Zr7Pd10
_chemical_formula_sum   'Zr14 Pd20'
_cell_volume   623.85272082
_cell_formula_units_Z   2
loop_
 _symmetry_equiv_pos_site_id
 _symmetry_equiv_pos_as_xyz
  1  'x, y, z'
loop_
 _atom_site_type_symbol
 _atom_site_label
 _atom_site_symmetry_multiplicity
 _atom_site_fract_x
 _atom_site_fract_y
 _atom_site_fract_z
 _atom_site_occupancy
  Zr  Zr0  1  0.190806  0.809194  0.000000  1
  Zr  Zr1  1  0.690806  0.309194  0.500000  1
  Zr  Zr2  1  0.314191  0.314191  0.685857  1
  Zr  Zr3  1  0.685809  0.685809  0.314143  1
  Zr  Zr4  1  0.809194  0.190806  0.000000  1
  Zr  Zr5  1  0.002034  0.502034  0.750000  1
  Zr  Zr6  1  0.997966  0.497966  0.250000  1
  Zr  Zr7  1  0.814191  0.814191  0.814143  1
  Zr  Zr8  1  0.500000  0.500000  0.000000  1
  Zr  Zr9  1  0.497966  0.997966  0.250000  1
  Zr  Zr10  1  0.309194  0.690806  0.500000  1
  Zr  Zr11  1  0.502034  0.002034  0.750000  1
  Zr  Zr12  1  0.185809  0.185809  0.185857  1
  Zr  Zr13  1  0.000000  0.000000  0.500000  1
  Pd  Pd14  1  0.895282  0.895282  0.104610  1
  Pd  Pd15  1  0.642870  0.350258  0.207972  1
  Pd  Pd16  1  0.062852  0.354409  0.496680  1
  Pd  Pd17  1  0.649742  0.357130  0.792028  1
  Pd  Pd18  1  0.850258  0.142870  0.292028  1
  Pd  Pd19  1  0.142870  0.850258  0.292028  1
  Pd  Pd20  1  0.604718  0.604718  0.604610  1
  Pd  Pd21  1  0.437148  0.145591  0.996680  1
  Pd  Pd22  1  0.357130  0.649742  0.792028  1
  Pd  Pd23  1  0.149742  0.857130  0.707972  1
  Pd  Pd24  1  0.145591  0.437148  0.996680  1
  Pd  Pd25  1  0.562852  0.854409  0.003320  1
  Pd  Pd26  1  0.937148  0.645591  0.503320  1
  Pd  Pd27  1  0.645591  0.937148  0.503320  1
  Pd  Pd28  1  0.104718  0.104718  0.895390  1
  Pd  Pd29  1  0.395282  0.395282  0.395390  1
  Pd  Pd30  1  0.854409  0.562852  0.003320  1
  Pd  Pd31  1  0.354409  0.062852  0.496680  1
  Pd  Pd32  1  0.857130  0.149742  0.707972  1
  Pd  Pd33  1  0.350258  0.642870  0.207972  1
