# generated using pymatgen
data_Dy16MgHg3(IrPt)2
_symmetry_space_group_name_H-M   'P 1'
_cell_length_a   9.64464507
_cell_length_b   9.65256173
_cell_length_c   9.63153100
_cell_angle_alpha   60.07205047
_cell_angle_beta   60.04497259
_cell_angle_gamma   60.15019405
_symmetry_Int_Tables_number   1
_chemical_formula_structural   Dy16MgHg3(IrPt)2
_chemical_formula_sum   'Dy16 Mg1 Hg3 Ir2 Pt2'
_cell_volume   635.30760751
_cell_formula_units_Z   1
loop_
 _symmetry_equiv_pos_site_id
 _symmetry_equiv_pos_as_xyz
  1  'x, y, z'
loop_
 _atom_site_type_symbol
 _atom_site_label
 _atom_site_symmetry_multiplicity
 _atom_site_fract_x
 _atom_site_fract_y
 _atom_site_fract_z
 _atom_site_occupancy
  Dy  Dy0  1  0.351428  0.350341  0.345602  1
  Dy  Dy1  1  0.351428  0.350341  0.952629  1
  Dy  Dy2  1  0.357034  0.944893  0.349036  1
  Dy  Dy3  1  0.935258  0.359159  0.352791  1
  Dy  Dy4  1  0.804681  0.191257  0.192669  1
  Dy  Dy5  1  0.187709  0.808149  0.813971  1
  Dy  Dy6  1  0.187709  0.808149  0.190170  1
  Dy  Dy7  1  0.804681  0.191257  0.811393  1
  Dy  Dy8  1  0.189180  0.190340  0.810239  1
  Dy  Dy9  1  0.809273  0.809618  0.190555  1
  Dy  Dy10  1  0.936671  0.564620  0.562131  1
  Dy  Dy11  1  0.563177  0.938120  0.936642  1
  Dy  Dy12  1  0.563177  0.938120  0.562063  1
  Dy  Dy13  1  0.936671  0.564620  0.936579  1
  Dy  Dy14  1  0.562023  0.563833  0.937072  1
  Dy  Dy15  1  0.935989  0.937701  0.563155  1
  Mg  Mg16  1  0.284003  0.571028  0.572485  1
  Hg  Hg17  1  0.582556  0.587725  0.587775  1
  Hg  Hg18  1  0.582556  0.587725  0.241944  1
  Hg  Hg19  1  0.582409  0.241455  0.588067  1
  Ir  Ir20  1  0.138885  0.572739  0.144188  1
  Ir  Ir21  1  0.572875  0.141675  0.142725  1
  Pt  Pt22  1  0.140313  0.143568  0.146097  1
  Pt  Pt23  1  0.140313  0.143568  0.570023  1
