# generated using pymatgen
data_NaSmTh2(Ga3Ir)6
_symmetry_space_group_name_H-M   'P 1'
_cell_length_a   7.65081400
_cell_length_b   7.67391729
_cell_length_c   9.55254900
_cell_angle_alpha   90.00000000
_cell_angle_beta   90.00000000
_cell_angle_gamma   119.70213136
_symmetry_Int_Tables_number   1
_chemical_formula_structural   NaSmTh2(Ga3Ir)6
_chemical_formula_sum   'Na1 Sm1 Th2 Ga18 Ir6'
_cell_volume   487.15862783
_cell_formula_units_Z   1
loop_
 _symmetry_equiv_pos_site_id
 _symmetry_equiv_pos_as_xyz
  1  'x, y, z'
loop_
 _atom_site_type_symbol
 _atom_site_label
 _atom_site_symmetry_multiplicity
 _atom_site_fract_x
 _atom_site_fract_y
 _atom_site_fract_z
 _atom_site_occupancy
  Na  Na0  1  0.669157  0.993302  0.250000  1
  Sm  Sm1  1  0.331477  0.003653  0.750000  1
  Th  Th2  1  0.996937  0.669136  0.250000  1
  Th  Th3  1  0.001177  0.331435  0.750000  1
  Ga  Ga4  1  0.127234  0.126026  0.250000  1
  Ga  Ga5  1  0.867715  0.872046  0.750000  1
  Ga  Ga6  1  0.995510  0.323240  0.084384  1
  Ga  Ga7  1  0.998926  0.670227  0.917336  1
  Ga  Ga8  1  0.998926  0.670227  0.582664  1
  Ga  Ga9  1  0.346662  0.004356  0.419712  1
  Ga  Ga10  1  0.995510  0.323240  0.415616  1
  Ga  Ga11  1  0.661586  0.997311  0.571105  1
  Ga  Ga12  1  0.661586  0.997311  0.928895  1
  Ga  Ga13  1  0.346662  0.004356  0.080288  1
  Ga  Ga14  1  0.335566  0.332158  0.561920  1
  Ga  Ga15  1  0.662780  0.671833  0.439931  1
  Ga  Ga16  1  0.662780  0.671833  0.060069  1
  Ga  Ga17  1  0.335566  0.332158  0.938080  1
  Ga  Ga18  1  0.340287  0.547405  0.250000  1
  Ga  Ga19  1  0.657783  0.455680  0.750000  1
  Ga  Ga20  1  0.545544  0.337219  0.250000  1
  Ga  Ga21  1  0.457901  0.665924  0.750000  1
  Ir  Ir22  1  0.676620  0.335899  0.998803  1
  Ir  Ir23  1  0.321650  0.665198  0.998704  1
  Ir  Ir24  1  0.321650  0.665198  0.501296  1
  Ir  Ir25  1  0.676620  0.335899  0.501197  1
  Ir  Ir26  1  0.003097  0.998864  0.998929  1
  Ir  Ir27  1  0.003097  0.998864  0.501071  1
