# generated using pymatgen
data_Y12In3SiTc
_symmetry_space_group_name_H-M   'P 1'
_cell_length_a   8.47102521
_cell_length_b   8.47102590
_cell_length_c   8.47102500
_cell_angle_alpha   110.32902323
_cell_angle_beta   110.32902496
_cell_angle_gamma   107.76891265
_symmetry_Int_Tables_number   1
_chemical_formula_structural   Y12In3SiTc
_chemical_formula_sum   'Y12 In3 Si1 Tc1'
_cell_volume   467.62687518
_cell_formula_units_Z   1
loop_
 _symmetry_equiv_pos_site_id
 _symmetry_equiv_pos_as_xyz
  1  'x, y, z'
loop_
 _atom_site_type_symbol
 _atom_site_label
 _atom_site_symmetry_multiplicity
 _atom_site_fract_x
 _atom_site_fract_y
 _atom_site_fract_z
 _atom_site_occupancy
  Y  Y0  1  0.460195  0.205192  0.255212  1
  Y  Y1  1  0.551512  0.800840  0.750542  1
  Y  Y2  1  0.949979  0.205192  0.744997  1
  Y  Y3  1  0.205165  0.949979  0.744815  1
  Y  Y4  1  0.050297  0.800840  0.249328  1
  Y  Y5  1  0.800842  0.050286  0.249444  1
  Y  Y6  1  0.205247  0.460376  0.255128  1
  Y  Y7  1  0.800952  0.551473  0.750521  1
  Y  Y8  1  0.305955  0.305917  0.614568  1
  Y  Y9  1  0.691443  0.691487  0.385527  1
  Y  Y10  1  0.305961  0.691487  0.000044  1
  Y  Y11  1  0.691348  0.305917  0.999962  1
  In  In12  1  0.498630  0.998570  0.499940  1
  In  In13  1  0.998637  0.498588  0.499951  1
  In  In14  1  0.010258  0.010262  0.000004  1
  Si  Si15  1  0.620255  0.620268  0.000013  1
  Tc  Tc16  1  0.353325  0.353328  0.000003  1
