# generated using pymatgen
data_LiTm4Co19P12
_symmetry_space_group_name_H-M   'P 1'
_cell_length_a   3.64696300
_cell_length_b   10.23245427
_cell_length_c   11.76920264
_cell_angle_alpha   89.92345504
_cell_angle_beta   90.00000000
_cell_angle_gamma   90.00000000
_symmetry_Int_Tables_number   1
_chemical_formula_structural   LiTm4Co19P12
_chemical_formula_sum   'Li1 Tm4 Co19 P12'
_cell_volume   439.19544027
_cell_formula_units_Z   1
loop_
 _symmetry_equiv_pos_site_id
 _symmetry_equiv_pos_as_xyz
  1  'x, y, z'
loop_
 _atom_site_type_symbol
 _atom_site_label
 _atom_site_symmetry_multiplicity
 _atom_site_fract_x
 _atom_site_fract_y
 _atom_site_fract_z
 _atom_site_occupancy
  Li  Li0  1  0.250000  0.703593  0.990459  1
  Tm  Tm1  1  0.250000  0.581413  0.701879  1
  Tm  Tm2  1  0.250000  0.919789  0.203734  1
  Tm  Tm3  1  0.750000  0.418433  0.297494  1
  Tm  Tm4  1  0.750000  0.080116  0.796750  1
  Co  Co5  1  0.250000  0.783181  0.493325  1
  Co  Co6  1  0.750000  0.288477  0.010348  1
  Co  Co7  1  0.750000  0.217215  0.506329  1
  Co  Co8  1  0.250000  0.406808  0.487158  1
  Co  Co9  1  0.250000  0.095272  0.986803  1
  Co  Co10  1  0.750000  0.592708  0.514306  1
  Co  Co11  1  0.750000  0.908340  0.013896  1
  Co  Co12  1  0.250000  0.223598  0.176040  1
  Co  Co13  1  0.250000  0.278150  0.675587  1
  Co  Co14  1  0.750000  0.779430  0.821279  1
  Co  Co15  1  0.750000  0.720609  0.327675  1
  Co  Co16  1  0.250000  0.883949  0.697787  1
  Co  Co17  1  0.250000  0.619410  0.200580  1
  Co  Co18  1  0.750000  0.118069  0.299761  1
  Co  Co19  1  0.750000  0.379879  0.800667  1
  Co  Co20  1  0.250000  0.464357  0.931905  1
  Co  Co21  1  0.250000  0.033389  0.430805  1
  Co  Co22  1  0.750000  0.534283  0.067307  1
  Co  Co23  1  0.750000  0.968037  0.567276  1
  P  P24  1  0.250000  0.422037  0.113195  1
  P  P25  1  0.250000  0.081075  0.611787  1
  P  P26  1  0.750000  0.578003  0.883453  1
  P  P27  1  0.750000  0.919437  0.387333  1
  P  P28  1  0.250000  0.267422  0.867783  1
  P  P29  1  0.250000  0.231416  0.368799  1
  P  P30  1  0.750000  0.731795  0.137495  1
  P  P31  1  0.750000  0.770138  0.630707  1
  P  P32  1  0.250000  0.600815  0.392883  1
  P  P33  1  0.250000  0.899044  0.890741  1
  P  P34  1  0.750000  0.398072  0.608867  1
  P  P35  1  0.750000  0.102242  0.107807  1
