# generated using pymatgen
data_Ho5NiRhO12
_symmetry_space_group_name_H-M   'P 1'
_cell_length_a   6.77989322
_cell_length_b   6.77989234
_cell_length_c   7.23921831
_cell_angle_alpha   74.41725843
_cell_angle_beta   74.41726752
_cell_angle_gamma   51.02849330
_symmetry_Int_Tables_number   1
_chemical_formula_structural   Ho5NiRhO12
_chemical_formula_sum   'Ho5 Ni1 Rh1 O12'
_cell_volume   246.98422019
_cell_formula_units_Z   1
loop_
 _symmetry_equiv_pos_site_id
 _symmetry_equiv_pos_as_xyz
  1  'x, y, z'
loop_
 _atom_site_type_symbol
 _atom_site_label
 _atom_site_symmetry_multiplicity
 _atom_site_fract_x
 _atom_site_fract_y
 _atom_site_fract_z
 _atom_site_occupancy
  Ho  Ho0  1  0.299834  0.307979  0.358104  1
  Ho  Ho1  1  0.692021  0.700166  0.641896  1
  Ho  Ho2  1  0.308769  0.308483  0.832084  1
  Ho  Ho3  1  0.691517  0.691231  0.167916  1
  Ho  Ho4  1  0.002964  0.997036  0.500000  1
  Ni  Ni5  1  0.248886  0.751114  0.000000  1
  Rh  Rh6  1  0.758061  0.241939  0.000000  1
  O  O7  1  0.900431  0.433260  0.916352  1
  O  O8  1  0.420114  0.901459  0.918120  1
  O  O9  1  0.098541  0.579886  0.081880  1
  O  O10  1  0.566740  0.099569  0.083648  1
  O  O11  1  0.098747  0.595917  0.574681  1
  O  O12  1  0.600104  0.094774  0.574751  1
  O  O13  1  0.905226  0.399896  0.425249  1
  O  O14  1  0.404083  0.901253  0.425319  1
  O  O15  1  0.992055  0.007650  0.815366  1
  O  O16  1  0.992350  0.007945  0.184634  1
  O  O17  1  0.509844  0.490285  0.810982  1
  O  O18  1  0.509715  0.490156  0.189018  1
