# generated using pymatgen
data_Yb5SnPdRh
_symmetry_space_group_name_H-M   'P 1'
_cell_length_a   8.99116530
_cell_length_b   8.99107375
_cell_length_c   8.95048000
_cell_angle_alpha   128.78296084
_cell_angle_beta   128.78317060
_cell_angle_gamma   75.69484258
_symmetry_Int_Tables_number   1
_chemical_formula_structural   Yb5SnPdRh
_chemical_formula_sum   'Yb10 Sn2 Pd2 Rh2'
_cell_volume   426.92821904
_cell_formula_units_Z   2
loop_
 _symmetry_equiv_pos_site_id
 _symmetry_equiv_pos_as_xyz
  1  'x, y, z'
loop_
 _atom_site_type_symbol
 _atom_site_label
 _atom_site_symmetry_multiplicity
 _atom_site_fract_x
 _atom_site_fract_y
 _atom_site_fract_z
 _atom_site_occupancy
  Yb  Yb0  1  0.000002  0.000002  0.000000  1
  Yb  Yb1  1  0.500002  0.500006  0.000009  1
  Yb  Yb2  1  0.805729  0.305741  0.848429  1
  Yb  Yb3  1  0.194270  0.694276  0.151569  1
  Yb  Yb4  1  0.457288  0.957305  0.151567  1
  Yb  Yb5  1  0.293102  0.468769  0.500010  1
  Yb  Yb6  1  0.031244  0.206905  0.500005  1
  Yb  Yb7  1  0.542692  0.042694  0.848423  1
  Yb  Yb8  1  0.706903  0.531251  0.500007  1
  Yb  Yb9  1  0.968759  0.793103  0.500010  1
  Sn  Sn10  1  0.250250  0.249793  0.000093  1
  Sn  Sn11  1  0.749773  0.750146  0.999903  1
  Pd  Pd12  1  0.628244  0.871773  0.500013  1
  Pd  Pd13  1  0.371759  0.128254  0.500005  1
  Rh  Rh14  1  0.130060  0.630050  0.760121  1
  Rh  Rh15  1  0.869924  0.369931  0.239837  1
