# generated using pymatgen
data_LiSc4Co12Ni7P12
_symmetry_space_group_name_H-M   'P 1'
_cell_length_a   3.61070000
_cell_length_b   10.11581800
_cell_length_c   11.80674623
_cell_angle_alpha   90.07125828
_cell_angle_beta   90.00000000
_cell_angle_gamma   90.00000000
_symmetry_Int_Tables_number   1
_chemical_formula_structural   LiSc4Co12Ni7P12
_chemical_formula_sum   'Li1 Sc4 Co12 Ni7 P12'
_cell_volume   431.24324566
_cell_formula_units_Z   1
loop_
 _symmetry_equiv_pos_site_id
 _symmetry_equiv_pos_as_xyz
  1  'x, y, z'
loop_
 _atom_site_type_symbol
 _atom_site_label
 _atom_site_symmetry_multiplicity
 _atom_site_fract_x
 _atom_site_fract_y
 _atom_site_fract_z
 _atom_site_occupancy
  Li  Li0  1  0.250000  0.706417  0.991506  1
  Sc  Sc1  1  0.250000  0.579638  0.706031  1
  Sc  Sc2  1  0.250000  0.920685  0.206029  1
  Sc  Sc3  1  0.750000  0.421709  0.294521  1
  Sc  Sc4  1  0.750000  0.079805  0.793536  1
  Co  Co5  1  0.250000  0.223159  0.175922  1
  Co  Co6  1  0.250000  0.277604  0.675910  1
  Co  Co7  1  0.750000  0.780929  0.823457  1
  Co  Co8  1  0.750000  0.721657  0.326622  1
  Co  Co9  1  0.250000  0.880815  0.696909  1
  Co  Co10  1  0.250000  0.620934  0.200541  1
  Co  Co11  1  0.750000  0.119738  0.300064  1
  Co  Co12  1  0.750000  0.379071  0.801105  1
  Co  Co13  1  0.250000  0.464288  0.932263  1
  Co  Co14  1  0.250000  0.035623  0.431421  1
  Co  Co15  1  0.750000  0.534826  0.067225  1
  Co  Co16  1  0.750000  0.965353  0.567045  1
  Ni  Ni17  1  0.250000  0.784656  0.491171  1
  Ni  Ni18  1  0.750000  0.286545  0.010372  1
  Ni  Ni19  1  0.750000  0.215473  0.508451  1
  Ni  Ni20  1  0.250000  0.408898  0.482754  1
  Ni  Ni21  1  0.250000  0.091170  0.981663  1
  Ni  Ni22  1  0.750000  0.590690  0.518939  1
  Ni  Ni23  1  0.750000  0.907702  0.017290  1
  P  P24  1  0.250000  0.422930  0.115944  1
  P  P25  1  0.250000  0.079024  0.614429  1
  P  P26  1  0.750000  0.578500  0.882102  1
  P  P27  1  0.750000  0.921597  0.384745  1
  P  P28  1  0.250000  0.265081  0.863202  1
  P  P29  1  0.250000  0.234744  0.363680  1
  P  P30  1  0.750000  0.733718  0.140961  1
  P  P31  1  0.750000  0.766605  0.636025  1
  P  P32  1  0.250000  0.601024  0.387344  1
  P  P33  1  0.250000  0.899657  0.883542  1
  P  P34  1  0.750000  0.397801  0.614016  1
  P  P35  1  0.750000  0.101937  0.113265  1
