# generated using pymatgen
data_Ba2LiRe2H17
_symmetry_space_group_name_H-M   'P 1'
_cell_length_a   5.15493435
_cell_length_b   5.15493450
_cell_length_c   9.75736372
_cell_angle_alpha   89.77237873
_cell_angle_beta   90.22762266
_cell_angle_gamma   118.65394856
_symmetry_Int_Tables_number   1
_chemical_formula_structural   Ba2LiRe2H17
_chemical_formula_sum   'Ba2 Li1 Re2 H17'
_cell_volume   227.52914962
_cell_formula_units_Z   1
loop_
 _symmetry_equiv_pos_site_id
 _symmetry_equiv_pos_as_xyz
  1  'x, y, z'
loop_
 _atom_site_type_symbol
 _atom_site_label
 _atom_site_symmetry_multiplicity
 _atom_site_fract_x
 _atom_site_fract_y
 _atom_site_fract_z
 _atom_site_occupancy
  Ba  Ba0  1  0.993174  0.006826  0.991164  1
  Ba  Ba1  1  0.996207  0.003793  0.492646  1
  Li  Li2  1  0.665866  0.334134  0.238367  1
  Re  Re3  1  0.324028  0.675972  0.252570  1
  Re  Re4  1  0.643445  0.356555  0.749477  1
  H  H5  1  0.515774  0.484226  0.881265  1
  H  H6  1  0.442640  0.557360  0.391999  1
  H  H7  1  0.512875  0.487125  0.620852  1
  H  H8  1  0.501753  0.979251  0.360689  1
  H  H9  1  0.916514  0.491725  0.628844  1
  H  H10  1  0.478259  0.930297  0.121118  1
  H  H11  1  0.925002  0.490879  0.867952  1
  H  H12  1  0.508275  0.083486  0.628844  1
  H  H13  1  0.020749  0.498247  0.360689  1
  H  H14  1  0.509121  0.074998  0.867952  1
  H  H15  1  0.069703  0.521741  0.121118  1
  H  H16  1  0.674790  0.736540  0.221046  1
  H  H17  1  0.802231  0.727839  0.747138  1
  H  H18  1  0.272161  0.197769  0.747138  1
  H  H19  1  0.263460  0.325210  0.221046  1
  H  H20  1  0.132918  0.867082  0.242994  1
  H  H21  1  0.831055  0.168945  0.745095  1
