# generated using pymatgen
data_Al4Ag3Au13
_symmetry_space_group_name_H-M   'P 1'
_cell_length_a   7.05307975
_cell_length_b   7.05307975
_cell_length_c   7.05307975
_cell_angle_alpha   90.57702637
_cell_angle_beta   90.57702637
_cell_angle_gamma   90.57702637
_symmetry_Int_Tables_number   1
_chemical_formula_structural   Al4Ag3Au13
_chemical_formula_sum   'Al4 Ag3 Au13'
_cell_volume   350.80829963
_cell_formula_units_Z   1
loop_
 _symmetry_equiv_pos_site_id
 _symmetry_equiv_pos_as_xyz
  1  'x, y, z'
loop_
 _atom_site_type_symbol
 _atom_site_label
 _atom_site_symmetry_multiplicity
 _atom_site_fract_x
 _atom_site_fract_y
 _atom_site_fract_z
 _atom_site_occupancy
  Al  Al0  1  0.063617  0.063617  0.063617  1
  Al  Al1  1  0.433846  0.937739  0.563006  1
  Al  Al2  1  0.563006  0.433846  0.937739  1
  Al  Al3  1  0.937739  0.563006  0.433846  1
  Ag  Ag4  1  0.788426  0.951512  0.384366  1
  Ag  Ag5  1  0.384366  0.788426  0.951512  1
  Ag  Ag6  1  0.951512  0.384366  0.788426  1
  Au  Au7  1  0.682985  0.682985  0.682985  1
  Au  Au8  1  0.817267  0.315875  0.181522  1
  Au  Au9  1  0.181522  0.817267  0.315875  1
  Au  Au10  1  0.315875  0.181522  0.817267  1
  Au  Au11  1  0.551967  0.615225  0.285590  1
  Au  Au12  1  0.885081  0.713919  0.050712  1
  Au  Au13  1  0.050712  0.885081  0.713919  1
  Au  Au14  1  0.112540  0.215292  0.449511  1
  Au  Au15  1  0.615225  0.285590  0.551967  1
  Au  Au16  1  0.449511  0.112540  0.215292  1
  Au  Au17  1  0.285590  0.551967  0.615225  1
  Au  Au18  1  0.215292  0.449511  0.112540  1
  Au  Au19  1  0.713919  0.050712  0.885081  1
