# generated using pymatgen
data_NaCrPtO4
_symmetry_space_group_name_H-M   'P 1'
_cell_length_a   3.07783300
_cell_length_b   9.16476000
_cell_length_c   10.92168800
_cell_angle_alpha   90.00000000
_cell_angle_beta   90.00000000
_cell_angle_gamma   90.00000000
_symmetry_Int_Tables_number   1
_chemical_formula_structural   NaCrPtO4
_chemical_formula_sum   'Na4 Cr4 Pt4 O16'
_cell_volume   308.07461478
_cell_formula_units_Z   4
loop_
 _symmetry_equiv_pos_site_id
 _symmetry_equiv_pos_as_xyz
  1  'x, y, z'
loop_
 _atom_site_type_symbol
 _atom_site_label
 _atom_site_symmetry_multiplicity
 _atom_site_fract_x
 _atom_site_fract_y
 _atom_site_fract_z
 _atom_site_occupancy
  Na  Na0  1  0.000000  0.761261  0.093672  1
  Na  Na1  1  0.000000  0.261261  0.906328  1
  Na  Na2  1  0.500000  0.235757  0.413464  1
  Na  Na3  1  0.500000  0.735757  0.586536  1
  Cr  Cr4  1  0.000000  0.414759  0.649966  1
  Cr  Cr5  1  0.000000  0.914759  0.350034  1
  Cr  Cr6  1  0.000000  0.440635  0.133740  1
  Cr  Cr7  1  0.000000  0.940635  0.866260  1
  Pt  Pt8  1  0.500000  0.588085  0.848624  1
  Pt  Pt9  1  0.500000  0.088085  0.151376  1
  Pt  Pt10  1  0.500000  0.552220  0.362743  1
  Pt  Pt11  1  0.500000  0.052220  0.637257  1
  O  O12  1  0.000000  0.413732  0.320357  1
  O  O13  1  0.000000  0.913732  0.679643  1
  O  O14  1  0.500000  0.579333  0.176376  1
  O  O15  1  0.500000  0.079333  0.823624  1
  O  O16  1  0.000000  0.194656  0.594330  1
  O  O17  1  0.000000  0.694656  0.405670  1
  O  O18  1  0.500000  0.804124  0.910850  1
  O  O19  1  0.500000  0.304124  0.089150  1
  O  O20  1  0.000000  0.540311  0.964292  1
  O  O21  1  0.000000  0.040311  0.035708  1
  O  O22  1  0.500000  0.472530  0.540997  1
  O  O23  1  0.500000  0.972530  0.459003  1
  O  O24  1  0.000000  0.118343  0.272715  1
  O  O25  1  0.000000  0.618343  0.727285  1
  O  O26  1  0.500000  0.884255  0.228887  1
  O  O27  1  0.500000  0.384255  0.771113  1
