# generated using pymatgen
data_Hf5FeAs3
_symmetry_space_group_name_H-M   'P 1'
_cell_length_a   3.70247400
_cell_length_b   10.46288900
_cell_length_c   17.41019800
_cell_angle_alpha   90.00000000
_cell_angle_beta   90.00000000
_cell_angle_gamma   90.00000000
_symmetry_Int_Tables_number   1
_chemical_formula_structural   Hf5FeAs3
_chemical_formula_sum   'Hf20 Fe4 As12'
_cell_volume   674.44625206
_cell_formula_units_Z   4
loop_
 _symmetry_equiv_pos_site_id
 _symmetry_equiv_pos_as_xyz
  1  'x, y, z'
loop_
 _atom_site_type_symbol
 _atom_site_label
 _atom_site_symmetry_multiplicity
 _atom_site_fract_x
 _atom_site_fract_y
 _atom_site_fract_z
 _atom_site_occupancy
  Hf  Hf0  1  0.250000  0.122632  0.476964  1
  Hf  Hf1  1  0.750000  0.877368  0.523036  1
  Hf  Hf2  1  0.750000  0.622632  0.023036  1
  Hf  Hf3  1  0.250000  0.377368  0.976964  1
  Hf  Hf4  1  0.250000  0.053158  0.076784  1
  Hf  Hf5  1  0.750000  0.946842  0.923216  1
  Hf  Hf6  1  0.750000  0.553158  0.423216  1
  Hf  Hf7  1  0.250000  0.446842  0.576784  1
  Hf  Hf8  1  0.250000  0.480016  0.275913  1
  Hf  Hf9  1  0.750000  0.519984  0.724087  1
  Hf  Hf10  1  0.750000  0.980016  0.224087  1
  Hf  Hf11  1  0.250000  0.019984  0.775913  1
  Hf  Hf12  1  0.250000  0.817129  0.368228  1
  Hf  Hf13  1  0.750000  0.182871  0.631772  1
  Hf  Hf14  1  0.750000  0.317129  0.131772  1
  Hf  Hf15  1  0.250000  0.682871  0.868228  1
  Hf  Hf16  1  0.250000  0.758609  0.166846  1
  Hf  Hf17  1  0.750000  0.241391  0.833154  1
  Hf  Hf18  1  0.750000  0.258609  0.333154  1
  Hf  Hf19  1  0.250000  0.741391  0.666846  1
  Fe  Fe20  1  0.250000  0.370538  0.406740  1
  Fe  Fe21  1  0.750000  0.629462  0.593260  1
  Fe  Fe22  1  0.750000  0.870538  0.093260  1
  Fe  Fe23  1  0.250000  0.129462  0.906740  1
  As  As24  1  0.250000  0.810648  0.006455  1
  As  As25  1  0.750000  0.189352  0.993545  1
  As  As26  1  0.750000  0.310648  0.493545  1
  As  As27  1  0.250000  0.689352  0.506455  1
  As  As28  1  0.250000  0.506885  0.118062  1
  As  As29  1  0.750000  0.493115  0.881938  1
  As  As30  1  0.750000  0.006885  0.381938  1
  As  As31  1  0.250000  0.993115  0.618062  1
  As  As32  1  0.250000  0.185194  0.218204  1
  As  As33  1  0.750000  0.814806  0.781796  1
  As  As34  1  0.750000  0.685194  0.281796  1
  As  As35  1  0.250000  0.314806  0.718204  1
