# generated using pymatgen
data_Zr2Cr9FeP6
_symmetry_space_group_name_H-M   'P 1'
_cell_length_a   9.33772485
_cell_length_b   3.63930900
_cell_length_c   6.88290302
_cell_angle_alpha   90.00000000
_cell_angle_beta   99.85892987
_cell_angle_gamma   90.00000000
_symmetry_Int_Tables_number   1
_chemical_formula_structural   Zr2Cr9FeP6
_chemical_formula_sum   'Zr2 Cr9 Fe1 P6'
_cell_volume   230.44659843
_cell_formula_units_Z   1
loop_
 _symmetry_equiv_pos_site_id
 _symmetry_equiv_pos_as_xyz
  1  'x, y, z'
loop_
 _atom_site_type_symbol
 _atom_site_label
 _atom_site_symmetry_multiplicity
 _atom_site_fract_x
 _atom_site_fract_y
 _atom_site_fract_z
 _atom_site_occupancy
  Zr  Zr0  1  0.781620  0.749999  0.185271  1
  Zr  Zr1  1  0.219702  0.250000  0.814557  1
  Cr  Cr2  1  0.505649  0.250000  0.136489  1
  Cr  Cr3  1  0.275843  0.250000  0.320890  1
  Cr  Cr4  1  0.508589  0.749999  0.379869  1
  Cr  Cr5  1  0.072635  0.749999  0.460360  1
  Cr  Cr6  1  0.929759  0.250000  0.538560  1
  Cr  Cr7  1  0.489843  0.250000  0.614380  1
  Cr  Cr8  1  0.724768  0.749999  0.683069  1
  Cr  Cr9  1  0.489248  0.749999  0.869168  1
  Cr  Cr10  1  0.907007  0.250000  0.909921  1
  Fe  Fe11  1  0.092725  0.749999  0.086830  1
  P  P12  1  0.330226  0.749999  0.100628  1
  P  P13  1  0.018478  0.250000  0.233526  1
  P  P14  1  0.680982  0.250000  0.432230  1
  P  P15  1  0.322178  0.749999  0.567397  1
  P  P16  1  0.988835  0.749999  0.764285  1
  P  P17  1  0.661915  0.250000  0.902577  1
