# generated using pymatgen
data_Y3HfMn7CoP6
_symmetry_space_group_name_H-M   'P 1'
_cell_length_a   3.70782600
_cell_length_b   10.92970300
_cell_length_c   12.87803800
_cell_angle_alpha   90.00000000
_cell_angle_beta   90.00000000
_cell_angle_gamma   90.00000000
_symmetry_Int_Tables_number   1
_chemical_formula_structural   Y3HfMn7CoP6
_chemical_formula_sum   'Y6 Hf2 Mn14 Co2 P12'
_cell_volume   521.88811708
_cell_formula_units_Z   2
loop_
 _symmetry_equiv_pos_site_id
 _symmetry_equiv_pos_as_xyz
  1  'x, y, z'
loop_
 _atom_site_type_symbol
 _atom_site_label
 _atom_site_symmetry_multiplicity
 _atom_site_fract_x
 _atom_site_fract_y
 _atom_site_fract_z
 _atom_site_occupancy
  Y  Y0  1  0.000000  0.500000  0.535599  1
  Y  Y1  1  0.500000  0.000000  0.464401  1
  Y  Y2  1  0.500000  0.825085  0.207020  1
  Y  Y3  1  0.500000  0.174915  0.207020  1
  Y  Y4  1  0.000000  0.674915  0.792980  1
  Y  Y5  1  0.000000  0.325085  0.792980  1
  Hf  Hf6  1  0.500000  0.500000  0.165229  1
  Hf  Hf7  1  0.000000  0.000000  0.834771  1
  Mn  Mn8  1  0.000000  0.500000  0.989935  1
  Mn  Mn9  1  0.500000  0.000000  0.010065  1
  Mn  Mn10  1  0.500000  0.332674  0.995522  1
  Mn  Mn11  1  0.500000  0.667326  0.995522  1
  Mn  Mn12  1  0.000000  0.167326  0.004478  1
  Mn  Mn13  1  0.000000  0.832674  0.004478  1
  Mn  Mn14  1  0.500000  0.294891  0.435410  1
  Mn  Mn15  1  0.500000  0.705109  0.435410  1
  Mn  Mn16  1  0.000000  0.205109  0.564590  1
  Mn  Mn17  1  0.000000  0.794891  0.564590  1
  Mn  Mn18  1  0.500000  0.879893  0.693803  1
  Mn  Mn19  1  0.500000  0.120107  0.693803  1
  Mn  Mn20  1  0.000000  0.620107  0.306197  1
  Mn  Mn21  1  0.000000  0.379893  0.306197  1
  Co  Co22  1  0.500000  0.500000  0.705808  1
  Co  Co23  1  0.000000  0.000000  0.294192  1
  P  P24  1  0.500000  0.500000  0.879777  1
  P  P25  1  0.000000  0.000000  0.120223  1
  P  P26  1  0.500000  0.500000  0.369407  1
  P  P27  1  0.000000  0.000000  0.630593  1
  P  P28  1  0.500000  0.318518  0.617642  1
  P  P29  1  0.500000  0.681482  0.617642  1
  P  P30  1  0.000000  0.181482  0.382358  1
  P  P31  1  0.000000  0.818518  0.382358  1
  P  P32  1  0.500000  0.838639  0.888354  1
  P  P33  1  0.500000  0.161361  0.888354  1
  P  P34  1  0.000000  0.661361  0.111646  1
  P  P35  1  0.000000  0.338639  0.111646  1
