# generated using pymatgen
data_YbDyZr2(Al8Pt3)3
_symmetry_space_group_name_H-M   'P 1'
_cell_length_a   7.50868863
_cell_length_b   7.51043493
_cell_length_c   13.08550106
_cell_angle_alpha   84.53923381
_cell_angle_beta   79.01682841
_cell_angle_gamma   59.97996838
_symmetry_Int_Tables_number   1
_chemical_formula_structural   YbDyZr2(Al8Pt3)3
_chemical_formula_sum   'Yb1 Dy1 Zr2 Al24 Pt9'
_cell_volume   627.24010349
_cell_formula_units_Z   1
loop_
 _symmetry_equiv_pos_site_id
 _symmetry_equiv_pos_as_xyz
  1  'x, y, z'
loop_
 _atom_site_type_symbol
 _atom_site_label
 _atom_site_symmetry_multiplicity
 _atom_site_fract_x
 _atom_site_fract_y
 _atom_site_fract_z
 _atom_site_occupancy
  Yb  Yb0  1  0.733911  0.498463  0.807820  1
  Dy  Dy1  1  0.266779  0.501573  0.191480  1
  Zr  Zr2  1  0.393453  0.167745  0.809164  1
  Zr  Zr3  1  0.606834  0.831851  0.190515  1
  Al  Al4  1  0.681516  0.835437  0.943287  1
  Al  Al5  1  0.318611  0.164042  0.056265  1
  Al  Al6  1  0.146610  0.832990  0.562347  1
  Al  Al7  1  0.853127  0.167338  0.437745  1
  Al  Al8  1  0.480247  0.166640  0.560739  1
  Al  Al9  1  0.520103  0.833066  0.439650  1
  Al  Al10  1  0.220071  0.163551  0.327283  1
  Al  Al11  1  0.779095  0.835663  0.673102  1
  Al  Al12  1  0.437544  0.504132  0.673469  1
  Al  Al13  1  0.563767  0.495431  0.326895  1
  Al  Al14  1  0.109908  0.161400  0.672431  1
  Al  Al15  1  0.888744  0.840078  0.328042  1
  Al  Al16  1  0.354220  0.496923  0.941897  1
  Al  Al17  1  0.647280  0.502598  0.056283  1
  Al  Al18  1  0.018051  0.168177  0.950844  1
  Al  Al19  1  0.981745  0.832336  0.048424  1
  Al  Al20  1  0.186379  0.499031  0.441118  1
  Al  Al21  1  0.813123  0.500786  0.559849  1
  Al  Al22  1  0.733756  0.158723  0.183663  1
  Al  Al23  1  0.265536  0.843046  0.816523  1
  Al  Al24  1  0.067311  0.625517  0.815605  1
  Al  Al25  1  0.934159  0.373398  0.184646  1
  Al  Al26  1  0.849428  0.040700  0.816153  1
  Al  Al27  1  0.149166  0.959487  0.184029  1
  Pt  Pt28  1  0.120820  0.491978  0.638447  1
  Pt  Pt29  1  0.879867  0.508938  0.360872  1
  Pt  Pt30  1  0.656770  0.171870  0.000598  1
  Pt  Pt31  1  0.342384  0.827786  0.001223  1
  Pt  Pt32  1  0.536979  0.166915  0.361359  1
  Pt  Pt33  1  0.462189  0.833256  0.637826  1
  Pt  Pt34  1  0.779569  0.174688  0.636890  1
  Pt  Pt35  1  0.221133  0.824027  0.362478  1
  Pt  Pt36  1  0.999817  0.500424  0.001036  1
