# generated using pymatgen
data_Y3Hf(Ga3Rh)6
_symmetry_space_group_name_H-M   'P 1'
_cell_length_a   7.55680349
_cell_length_b   7.53597814
_cell_length_c   9.47093300
_cell_angle_alpha   90.00000000
_cell_angle_beta   90.00000000
_cell_angle_gamma   119.78587027
_symmetry_Int_Tables_number   1
_chemical_formula_structural   Y3Hf(Ga3Rh)6
_chemical_formula_sum   'Y3 Hf1 Ga18 Rh6'
_cell_volume   468.09521257
_cell_formula_units_Z   1
loop_
 _symmetry_equiv_pos_site_id
 _symmetry_equiv_pos_as_xyz
  1  'x, y, z'
loop_
 _atom_site_type_symbol
 _atom_site_label
 _atom_site_symmetry_multiplicity
 _atom_site_fract_x
 _atom_site_fract_y
 _atom_site_fract_z
 _atom_site_occupancy
  Y  Y0  1  0.004157  0.329424  0.750000  1
  Y  Y1  1  0.670373  0.998455  0.250000  1
  Y  Y2  1  0.330227  0.003389  0.750000  1
  Hf  Hf3  1  0.996744  0.670035  0.250000  1
  Ga  Ga4  1  0.336405  0.548187  0.250000  1
  Ga  Ga5  1  0.662178  0.453490  0.750000  1
  Ga  Ga6  1  0.551833  0.341341  0.250000  1
  Ga  Ga7  1  0.451905  0.660115  0.750000  1
  Ga  Ga8  1  0.000176  0.339564  0.084067  1
  Ga  Ga9  1  0.999877  0.664978  0.924309  1
  Ga  Ga10  1  0.999877  0.664978  0.575691  1
  Ga  Ga11  1  0.330050  0.996364  0.415662  1
  Ga  Ga12  1  0.000176  0.339564  0.415933  1
  Ga  Ga13  1  0.665246  0.998696  0.579020  1
  Ga  Ga14  1  0.665246  0.998696  0.920980  1
  Ga  Ga15  1  0.330050  0.996364  0.084338  1
  Ga  Ga16  1  0.333945  0.333669  0.562747  1
  Ga  Ga17  1  0.670852  0.667393  0.429092  1
  Ga  Ga18  1  0.670852  0.667393  0.070908  1
  Ga  Ga19  1  0.333945  0.333669  0.937253  1
  Ga  Ga20  1  0.125508  0.124805  0.250000  1
  Ga  Ga21  1  0.871004  0.869957  0.750000  1
  Rh  Rh22  1  0.672025  0.328354  0.001635  1
  Rh  Rh23  1  0.328173  0.672282  0.002302  1
  Rh  Rh24  1  0.328173  0.672282  0.497698  1
  Rh  Rh25  1  0.672025  0.328354  0.498365  1
  Rh  Rh26  1  0.999490  0.999099  0.001828  1
  Rh  Rh27  1  0.999490  0.999099  0.498172  1
