# generated using pymatgen
data_HfZr3Ti2(Si2W)2
_symmetry_space_group_name_H-M   'P 1'
_cell_length_a   3.60419200
_cell_length_b   6.92158900
_cell_length_c   8.31025100
_cell_angle_alpha   90.00309924
_cell_angle_beta   90.00000000
_cell_angle_gamma   90.00000000
_symmetry_Int_Tables_number   1
_chemical_formula_structural   HfZr3Ti2(Si2W)2
_chemical_formula_sum   'Hf1 Zr3 Ti2 Si4 W2'
_cell_volume   207.31363516
_cell_formula_units_Z   1
loop_
 _symmetry_equiv_pos_site_id
 _symmetry_equiv_pos_as_xyz
  1  'x, y, z'
loop_
 _atom_site_type_symbol
 _atom_site_label
 _atom_site_symmetry_multiplicity
 _atom_site_fract_x
 _atom_site_fract_y
 _atom_site_fract_z
 _atom_site_occupancy
  Hf  Hf0  1  0.250000  0.049094  0.333257  1
  Zr  Zr1  1  0.250000  0.548532  0.167084  1
  Zr  Zr2  1  0.750000  0.457143  0.833434  1
  Zr  Zr3  1  0.750000  0.957549  0.665811  1
  Ti  Ti4  1  0.250000  0.625796  0.558681  1
  Ti  Ti5  1  0.250000  0.125529  0.941304  1
  Si  Si6  1  0.250000  0.755636  0.862091  1
  Si  Si7  1  0.250000  0.255362  0.637436  1
  Si  Si8  1  0.750000  0.243399  0.139840  1
  Si  Si9  1  0.750000  0.745558  0.360952  1
  W  W10  1  0.750000  0.367133  0.439862  1
  W  W11  1  0.750000  0.869269  0.060249  1
