# generated using pymatgen
data_ReBr10Cl
_symmetry_space_group_name_H-M   'P 1'
_cell_length_a   7.72102499
_cell_length_b   8.29854120
_cell_length_c   8.66673622
_cell_angle_alpha   85.89145718
_cell_angle_beta   88.34590999
_cell_angle_gamma   113.54876104
_symmetry_Int_Tables_number   1
_chemical_formula_structural   ReBr10Cl
_chemical_formula_sum   'Re1 Br10 Cl1'
_cell_volume   506.74740641
_cell_formula_units_Z   1
loop_
 _symmetry_equiv_pos_site_id
 _symmetry_equiv_pos_as_xyz
  1  'x, y, z'
loop_
 _atom_site_type_symbol
 _atom_site_label
 _atom_site_symmetry_multiplicity
 _atom_site_fract_x
 _atom_site_fract_y
 _atom_site_fract_z
 _atom_site_occupancy
  Re  Re0  1  0.000169  0.500513  0.500758  1
  Br  Br1  1  0.000880  0.999464  0.001122  1
  Br  Br2  1  0.678432  0.774916  0.931816  1
  Br  Br3  1  0.322076  0.223122  0.070859  1
  Br  Br4  1  0.679011  0.238851  0.557463  1
  Br  Br5  1  0.319652  0.763757  0.443332  1
  Br  Br6  1  0.490457  0.756251  0.182666  1
  Br  Br7  1  0.511754  0.243495  0.819459  1
  Br  Br8  1  0.851358  0.709565  0.533778  1
  Br  Br9  1  0.154576  0.294958  0.472840  1
  Br  Br10  1  0.935690  0.494812  0.225595  1
  Cl  Cl11  1  0.055945  0.500294  0.760312  1
