# generated using pymatgen
data_Gd3Mg3Pb2Au
_symmetry_space_group_name_H-M   'P 1'
_cell_length_a   7.62574800
_cell_length_b   7.62574794
_cell_length_c   4.51596200
_cell_angle_alpha   90.00000000
_cell_angle_beta   90.00000000
_cell_angle_gamma   119.99999158
_symmetry_Int_Tables_number   1
_chemical_formula_structural   Gd3Mg3Pb2Au
_chemical_formula_sum   'Gd3 Mg3 Pb2 Au1'
_cell_volume   227.42900066
_cell_formula_units_Z   1
loop_
 _symmetry_equiv_pos_site_id
 _symmetry_equiv_pos_as_xyz
  1  'x, y, z'
loop_
 _atom_site_type_symbol
 _atom_site_label
 _atom_site_symmetry_multiplicity
 _atom_site_fract_x
 _atom_site_fract_y
 _atom_site_fract_z
 _atom_site_occupancy
  Gd  Gd0  1  0.595510  0.000000  0.000000  1
  Gd  Gd1  1  0.000000  0.595510  0.000000  1
  Gd  Gd2  1  0.404490  0.404490  0.000000  1
  Mg  Mg3  1  0.232293  0.000000  0.500000  1
  Mg  Mg4  1  0.000000  0.232293  0.500000  1
  Mg  Mg5  1  0.767707  0.767707  0.500000  1
  Pb  Pb6  1  0.333333  0.666667  0.500000  1
  Pb  Pb7  1  0.666667  0.333333  0.500000  1
  Au  Au8  1  0.000000  0.000000  0.000000  1
