# generated using pymatgen
data_PrAl6(ZnCu2)2
_symmetry_space_group_name_H-M   'P 1'
_cell_length_a   6.75586552
_cell_length_b   6.75586559
_cell_length_c   6.77165524
_cell_angle_alpha   98.51312181
_cell_angle_beta   98.51312741
_cell_angle_gamma   134.68721267
_symmetry_Int_Tables_number   1
_chemical_formula_structural   PrAl6(ZnCu2)2
_chemical_formula_sum   'Pr1 Al6 Zn2 Cu4'
_cell_volume   202.86093823
_cell_formula_units_Z   1
loop_
 _symmetry_equiv_pos_site_id
 _symmetry_equiv_pos_as_xyz
  1  'x, y, z'
loop_
 _atom_site_type_symbol
 _atom_site_label
 _atom_site_symmetry_multiplicity
 _atom_site_fract_x
 _atom_site_fract_y
 _atom_site_fract_z
 _atom_site_occupancy
  Pr  Pr0  1  0.000094  0.999906  0.000000  1
  Al  Al1  1  0.349213  0.002059  0.351272  1
  Al  Al2  1  0.997941  0.650787  0.648728  1
  Al  Al3  1  0.650269  0.002795  0.653063  1
  Al  Al4  1  0.997205  0.349731  0.346937  1
  Al  Al5  1  0.276611  0.497537  0.774148  1
  Al  Al6  1  0.502463  0.723389  0.225852  1
  Zn  Zn7  1  0.720844  0.498274  0.219118  1
  Zn  Zn8  1  0.501726  0.279156  0.780882  1
  Cu  Cu9  1  0.499199  0.500801  0.500000  1
  Cu  Cu10  1  0.999199  0.000801  0.500000  1
  Cu  Cu11  1  0.004339  0.499105  0.000000  1
  Cu  Cu12  1  0.500895  0.995661  0.000000  1
