# generated using pymatgen
data_Pd(SeCl6)2
_symmetry_space_group_name_H-M   'P 1'
_cell_length_a   9.06291834
_cell_length_b   9.06291884
_cell_length_c   6.77768076
_cell_angle_alpha   71.88731231
_cell_angle_beta   71.88730960
_cell_angle_gamma   79.10309759
_symmetry_Int_Tables_number   1
_chemical_formula_structural   Pd(SeCl6)2
_chemical_formula_sum   'Pd1 Se2 Cl12'
_cell_volume   500.25282018
_cell_formula_units_Z   1
loop_
 _symmetry_equiv_pos_site_id
 _symmetry_equiv_pos_as_xyz
  1  'x, y, z'
loop_
 _atom_site_type_symbol
 _atom_site_label
 _atom_site_symmetry_multiplicity
 _atom_site_fract_x
 _atom_site_fract_y
 _atom_site_fract_z
 _atom_site_occupancy
  Pd  Pd0  1  0.000000  0.000000  0.000000  1
  Se  Se1  1  0.270608  0.270608  0.736150  1
  Se  Se2  1  0.729392  0.729392  0.263850  1
  Cl  Cl3  1  0.960730  0.244898  0.759406  1
  Cl  Cl4  1  0.244898  0.960730  0.759406  1
  Cl  Cl5  1  0.039270  0.755102  0.240594  1
  Cl  Cl6  1  0.755102  0.039270  0.240594  1
  Cl  Cl7  1  0.216770  0.505784  0.790337  1
  Cl  Cl8  1  0.505784  0.216770  0.790337  1
  Cl  Cl9  1  0.783230  0.494216  0.209663  1
  Cl  Cl10  1  0.494216  0.783230  0.209663  1
  Cl  Cl11  1  0.121008  0.121008  0.160482  1
  Cl  Cl12  1  0.878992  0.878992  0.839518  1
  Cl  Cl13  1  0.655106  0.655106  0.622368  1
  Cl  Cl14  1  0.344894  0.344894  0.377632  1
