# generated using pymatgen
data_Th2InCuTc
_symmetry_space_group_name_H-M   'P 1'
_cell_length_a   7.61993200
_cell_length_b   7.77810800
_cell_length_c   3.90722100
_cell_angle_alpha   90.00000000
_cell_angle_beta   90.00000000
_cell_angle_gamma   90.00000000
_symmetry_Int_Tables_number   1
_chemical_formula_structural   Th2InCuTc
_chemical_formula_sum   'Th4 In2 Cu2 Tc2'
_cell_volume   231.57572974
_cell_formula_units_Z   2
loop_
 _symmetry_equiv_pos_site_id
 _symmetry_equiv_pos_as_xyz
  1  'x, y, z'
loop_
 _atom_site_type_symbol
 _atom_site_label
 _atom_site_symmetry_multiplicity
 _atom_site_fract_x
 _atom_site_fract_y
 _atom_site_fract_z
 _atom_site_occupancy
  Th  Th0  1  0.677061  0.153861  0.500000  1
  Th  Th1  1  0.177061  0.346139  0.500000  1
  Th  Th2  1  0.830767  0.690043  0.500000  1
  Th  Th3  1  0.330767  0.809957  0.500000  1
  In  In4  1  0.006470  0.007724  0.000000  1
  In  In5  1  0.506470  0.492276  0.000000  1
  Cu  Cu6  1  0.365206  0.123653  0.000000  1
  Cu  Cu7  1  0.865206  0.376347  0.000000  1
  Tc  Tc8  1  0.120495  0.621709  0.000000  1
  Tc  Tc9  1  0.620495  0.878291  0.000000  1
