# generated using pymatgen
data_DyBi5(RuO6)3
_symmetry_space_group_name_H-M   'P 1'
_cell_length_a   9.20597200
_cell_length_b   9.21025338
_cell_length_c   5.25476066
_cell_angle_alpha   90.28326278
_cell_angle_beta   90.00000000
_cell_angle_gamma   119.98461692
_symmetry_Int_Tables_number   1
_chemical_formula_structural   DyBi5(RuO6)3
_chemical_formula_sum   'Dy1 Bi5 Ru3 O18'
_cell_volume   385.90910395
_cell_formula_units_Z   1
loop_
 _symmetry_equiv_pos_site_id
 _symmetry_equiv_pos_as_xyz
  1  'x, y, z'
loop_
 _atom_site_type_symbol
 _atom_site_label
 _atom_site_symmetry_multiplicity
 _atom_site_fract_x
 _atom_site_fract_y
 _atom_site_fract_z
 _atom_site_occupancy
  Dy  Dy0  1  0.620685  0.000000  0.000000  1
  Bi  Bi1  1  0.999848  0.623524  0.999574  1
  Bi  Bi2  1  0.998830  0.286785  0.500070  1
  Bi  Bi3  1  0.376322  0.376476  0.000426  1
  Bi  Bi4  1  0.288986  0.000000  0.500000  1
  Bi  Bi5  1  0.712045  0.713215  0.499930  1
  Ru  Ru6  1  0.335801  0.669361  0.492411  1
  Ru  Ru7  1  0.998560  0.000000  0.000000  1
  Ru  Ru8  1  0.666441  0.330639  0.507589  1
  O  O9  1  0.074452  0.875993  0.786900  1
  O  O10  1  0.233017  0.767878  0.274371  1
  O  O11  1  0.135653  0.545324  0.700760  1
  O  O12  1  0.413643  0.870751  0.707462  1
  O  O13  1  0.236392  0.466083  0.278578  1
  O  O14  1  0.121298  0.197874  0.784906  1
  O  O15  1  0.198461  0.124007  0.213100  1
  O  O16  1  0.538604  0.776325  0.277673  1
  O  O17  1  0.460092  0.595417  0.703224  1
  O  O18  1  0.795429  0.919041  0.792479  1
  O  O19  1  0.465139  0.232122  0.725629  1
  O  O20  1  0.590329  0.454676  0.299240  1
  O  O21  1  0.542892  0.129249  0.292538  1
  O  O22  1  0.770310  0.533917  0.721422  1
  O  O23  1  0.923426  0.802126  0.215094  1
  O  O24  1  0.762279  0.223675  0.722327  1
  O  O25  1  0.864675  0.404583  0.296776  1
  O  O26  1  0.876389  0.080959  0.207521  1
