# generated using pymatgen
data_Dy2Lu6Ta11TiSi16
_symmetry_space_group_name_H-M   'P 1'
_cell_length_a   7.00251286
_cell_length_b   7.00521316
_cell_length_c   12.89246305
_cell_angle_alpha   89.96691892
_cell_angle_beta   89.99680592
_cell_angle_gamma   90.02094444
_symmetry_Int_Tables_number   1
_chemical_formula_structural   Dy2Lu6Ta11TiSi16
_chemical_formula_sum   'Dy2 Lu6 Ta11 Ti1 Si16'
_cell_volume   632.42796166
_cell_formula_units_Z   1
loop_
 _symmetry_equiv_pos_site_id
 _symmetry_equiv_pos_as_xyz
  1  'x, y, z'
loop_
 _atom_site_type_symbol
 _atom_site_label
 _atom_site_symmetry_multiplicity
 _atom_site_fract_x
 _atom_site_fract_y
 _atom_site_fract_z
 _atom_site_occupancy
  Dy  Dy0  1  0.497087  0.841452  0.718175  1
  Dy  Dy1  1  0.341536  0.003072  0.467896  1
  Lu  Lu2  1  0.998776  0.657742  0.032180  1
  Lu  Lu3  1  0.001386  0.341938  0.531422  1
  Lu  Lu4  1  0.657831  0.998770  0.968635  1
  Lu  Lu5  1  0.157964  0.502101  0.782440  1
  Lu  Lu6  1  0.841054  0.498052  0.281108  1
  Lu  Lu7  1  0.502451  0.158190  0.217943  1
  Ta  Ta8  1  0.347925  0.506468  0.375236  1
  Ta  Ta9  1  0.847957  0.993619  0.373860  1
  Ta  Ta10  1  0.007007  0.151901  0.125710  1
  Ta  Ta11  1  0.993935  0.847812  0.625986  1
  Ta  Ta12  1  0.508240  0.346959  0.624271  1
  Ta  Ta13  1  0.151345  0.007253  0.875205  1
  Ta  Ta14  1  0.672534  0.670844  0.499644  1
  Ta  Ta15  1  0.828829  0.171748  0.750388  1
  Ta  Ta16  1  0.170820  0.828186  0.249283  1
  Ta  Ta17  1  0.327212  0.327129  0.000353  1
  Ta  Ta18  1  0.494364  0.650882  0.123468  1
  Ti  Ti19  1  0.653217  0.493741  0.877243  1
  Si  Si20  1  0.044385  0.702625  0.435512  1
  Si  Si21  1  0.952374  0.298147  0.935261  1
  Si  Si22  1  0.706545  0.046313  0.563941  1
  Si  Si23  1  0.202874  0.454837  0.185449  1
  Si  Si24  1  0.796291  0.544667  0.687226  1
  Si  Si25  1  0.455154  0.208209  0.815521  1
  Si  Si26  1  0.546408  0.795466  0.313033  1
  Si  Si27  1  0.296481  0.953760  0.064125  1
  Si  Si28  1  0.795375  0.864239  0.180037  1
  Si  Si29  1  0.294595  0.632567  0.568767  1
  Si  Si30  1  0.703454  0.363827  0.068622  1
  Si  Si31  1  0.637173  0.297331  0.430395  1
  Si  Si32  1  0.366199  0.702624  0.931200  1
  Si  Si33  1  0.134190  0.205442  0.318156  1
  Si  Si34  1  0.202651  0.137406  0.682114  1
  Si  Si35  1  0.864380  0.794682  0.820195  1
