# generated using pymatgen
data_Tb11Sm8DySn16
_symmetry_space_group_name_H-M   'P 1'
_cell_length_a   8.11817002
_cell_length_b   8.27462102
_cell_length_c   15.62705900
_cell_angle_alpha   90.00000000
_cell_angle_beta   90.00000000
_cell_angle_gamma   90.00789210
_symmetry_Int_Tables_number   1
_chemical_formula_structural   Tb11Sm8DySn16
_chemical_formula_sum   'Tb11 Sm8 Dy1 Sn16'
_cell_volume   1049.74424482
_cell_formula_units_Z   1
loop_
 _symmetry_equiv_pos_site_id
 _symmetry_equiv_pos_as_xyz
  1  'x, y, z'
loop_
 _atom_site_type_symbol
 _atom_site_label
 _atom_site_symmetry_multiplicity
 _atom_site_fract_x
 _atom_site_fract_y
 _atom_site_fract_z
 _atom_site_occupancy
  Tb  Tb0  1  0.365691  0.835940  0.877906  1
  Tb  Tb1  1  0.865685  0.664052  0.622109  1
  Tb  Tb2  1  0.634240  0.164014  0.377889  1
  Tb  Tb3  1  0.134349  0.335901  0.122113  1
  Tb  Tb4  1  0.634240  0.164014  0.122111  1
  Tb  Tb5  1  0.134349  0.335901  0.377887  1
  Tb  Tb6  1  0.365691  0.835940  0.622094  1
  Tb  Tb7  1  0.865685  0.664052  0.877891  1
  Tb  Tb8  1  0.198188  0.502544  0.750000  1
  Tb  Tb9  1  0.698186  0.997465  0.750000  1
  Tb  Tb10  1  0.801836  0.497485  0.250000  1
  Sm  Sm11  1  0.518125  0.320768  0.902384  1
  Sm  Sm12  1  0.018108  0.179238  0.597609  1
  Sm  Sm13  1  0.481854  0.679265  0.402380  1
  Sm  Sm14  1  0.981926  0.820794  0.097628  1
  Sm  Sm15  1  0.481854  0.679265  0.097620  1
  Sm  Sm16  1  0.981926  0.820794  0.402372  1
  Sm  Sm17  1  0.518125  0.320768  0.597616  1
  Sm  Sm18  1  0.018108  0.179238  0.902391  1
  Dy  Dy19  1  0.301737  0.002583  0.250000  1
  Sn  Sn20  1  0.296426  0.037604  0.041929  1
  Sn  Sn21  1  0.796433  0.462394  0.458165  1
  Sn  Sn22  1  0.703568  0.962370  0.541828  1
  Sn  Sn23  1  0.203562  0.537607  0.958173  1
  Sn  Sn24  1  0.703568  0.962370  0.958172  1
  Sn  Sn25  1  0.203562  0.537607  0.541827  1
  Sn  Sn26  1  0.296426  0.037604  0.458071  1
  Sn  Sn27  1  0.796433  0.462394  0.041835  1
  Sn  Sn28  1  0.564531  0.620631  0.750000  1
  Sn  Sn29  1  0.064561  0.879384  0.750000  1
  Sn  Sn30  1  0.435420  0.379259  0.250000  1
  Sn  Sn31  1  0.935700  0.120541  0.250000  1
  Sn  Sn32  1  0.326536  0.144164  0.750000  1
  Sn  Sn33  1  0.826577  0.355775  0.750000  1
  Sn  Sn34  1  0.673344  0.855860  0.250000  1
  Sn  Sn35  1  0.173446  0.644410  0.250000  1
