# generated using pymatgen
data_Ba7Sr9La4Si12(SbSe13)4
_symmetry_space_group_name_H-M   'P 1'
_cell_length_a   12.35775300
_cell_length_b   12.83051368
_cell_length_c   16.15680100
_cell_angle_alpha   75.59157196
_cell_angle_beta   90.00000000
_cell_angle_gamma   90.00000000
_symmetry_Int_Tables_number   1
_chemical_formula_structural   Ba7Sr9La4Si12(SbSe13)4
_chemical_formula_sum   'Ba7 Sr9 La4 Si12 Sb4 Se52'
_cell_volume   2481.18665907
_cell_formula_units_Z   1
loop_
 _symmetry_equiv_pos_site_id
 _symmetry_equiv_pos_as_xyz
  1  'x, y, z'
loop_
 _atom_site_type_symbol
 _atom_site_label
 _atom_site_symmetry_multiplicity
 _atom_site_fract_x
 _atom_site_fract_y
 _atom_site_fract_z
 _atom_site_occupancy
  Ba  Ba0  1  0.315673  0.151797  0.637271  1
  Ba  Ba1  1  0.677344  0.457861  0.947377  1
  Ba  Ba2  1  0.821384  0.957576  0.947971  1
  Ba  Ba3  1  0.331323  0.228332  0.255349  1
  Ba  Ba4  1  0.177638  0.043536  0.051315  1
  Ba  Ba5  1  0.815392  0.346574  0.363763  1
  Ba  Ba6  1  0.170214  0.728668  0.256003  1
  Sr  Sr7  1  0.831693  0.643608  0.150697  1
  Sr  Sr8  1  0.669433  0.143452  0.151165  1
  Sr  Sr9  1  0.330179  0.853868  0.849061  1
  Sr  Sr10  1  0.323490  0.544513  0.051018  1
  Sr  Sr11  1  0.187744  0.651406  0.639588  1
  Sr  Sr12  1  0.686503  0.847600  0.361378  1
  Sr  Sr13  1  0.668487  0.770727  0.742716  1
  Sr  Sr14  1  0.833087  0.272731  0.742610  1
  Sr  Sr15  1  0.169698  0.357594  0.848360  1
  La  La16  1  0.521468  0.453996  0.642305  1
  La  La17  1  0.978717  0.949767  0.643089  1
  La  La18  1  0.478962  0.549734  0.356853  1
  La  La19  1  0.020768  0.045687  0.358155  1
  Si  Si20  1  0.383390  0.923504  0.332573  1
  Si  Si21  1  0.232197  0.933613  0.518913  1
  Si  Si22  1  0.589683  0.422729  0.180532  1
  Si  Si23  1  0.881232  0.575901  0.667855  1
  Si  Si24  1  0.733065  0.564868  0.482018  1
  Si  Si25  1  0.089587  0.079550  0.817909  1
  Si  Si26  1  0.408370  0.578396  0.818385  1
  Si  Si27  1  0.906917  0.921548  0.182727  1
  Si  Si28  1  0.266454  0.438519  0.518676  1
  Si  Si29  1  0.765391  0.060247  0.482379  1
  Si  Si30  1  0.620015  0.074875  0.668448  1
  Si  Si31  1  0.118798  0.424950  0.330655  1
  Sb  Sb32  1  0.984288  0.639446  0.915747  1
  Sb  Sb33  1  0.516248  0.139345  0.916080  1
  Sb  Sb34  1  0.484382  0.860203  0.083371  1
  Sb  Sb35  1  0.017341  0.362732  0.082632  1
  Se  Se36  1  0.517407  0.044700  0.318425  1
  Se  Se37  1  0.492807  0.342125  0.092438  1
  Se  Se38  1  0.939717  0.836167  0.320557  1
  Se  Se39  1  0.056791  0.565432  0.084646  1
  Se  Se40  1  0.618552  0.147810  0.520213  1
  Se  Se41  1  0.053319  0.164039  0.680470  1
  Se  Se42  1  0.221906  0.983251  0.264529  1
  Se  Se43  1  0.779193  0.094120  0.335686  1
  Se  Se44  1  0.046434  0.900039  0.843980  1
  Se  Se45  1  0.551108  0.935042  0.914198  1
  Se  Se46  1  0.882692  0.647471  0.519834  1
  Se  Se47  1  0.441747  0.664920  0.680776  1
  Se  Se48  1  0.788211  0.695301  0.949150  1
  Se  Se49  1  0.720606  0.602415  0.334769  1
  Se  Se50  1  0.934457  0.712364  0.728540  1
  Se  Se51  1  0.289589  0.799405  0.049467  1
  Se  Se52  1  0.439978  0.787947  0.272236  1
  Se  Se53  1  0.279402  0.485321  0.261583  1
  Se  Se54  1  0.503584  0.662231  0.905155  1
  Se  Se55  1  0.987410  0.549220  0.316989  1
  Se  Se56  1  0.711978  0.195431  0.949301  1
  Se  Se57  1  0.011653  0.450956  0.683491  1
  Se  Se58  1  0.382442  0.852301  0.480575  1
  Se  Se59  1  0.229071  0.601248  0.849596  1
  Se  Se60  1  0.720209  0.517992  0.736141  1
  Se  Se61  1  0.214151  0.310789  0.048708  1
  Se  Se62  1  0.220454  0.896784  0.665918  1
  Se  Se63  1  0.425641  0.355797  0.497756  1
  Se  Se64  1  0.993100  0.165644  0.902763  1
  Se  Se65  1  0.074755  0.848565  0.499410  1
  Se  Se66  1  0.269630  0.101076  0.848631  1
  Se  Se67  1  0.555958  0.337897  0.318552  1
  Se  Se68  1  0.541002  0.600369  0.154742  1
  Se  Se69  1  0.447763  0.064591  0.085953  1
  Se  Se70  1  0.221095  0.110330  0.455208  1
  Se  Se71  1  0.780765  0.016765  0.736134  1
  Se  Se72  1  0.275396  0.615297  0.457574  1
  Se  Se73  1  0.953446  0.099995  0.156885  1
  Se  Se74  1  0.575104  0.649699  0.501036  1
  Se  Se75  1  0.279467  0.405491  0.665276  1
  Se  Se76  1  0.002419  0.838655  0.095143  1
  Se  Se77  1  0.723850  0.388365  0.548111  1
  Se  Se78  1  0.925073  0.142732  0.502660  1
  Se  Se79  1  0.948278  0.435578  0.913786  1
  Se  Se80  1  0.062020  0.287174  0.272455  1
  Se  Se81  1  0.492858  0.946360  0.684863  1
  Se  Se82  1  0.453688  0.399856  0.842424  1
  Se  Se83  1  0.773255  0.883469  0.545488  1
  Se  Se84  1  0.769684  0.398898  0.150992  1
  Se  Se85  1  0.567613  0.213109  0.728024  1
  Se  Se86  1  0.726849  0.897787  0.154705  1
  Se  Se87  1  0.119871  0.352230  0.479117  1
