# generated using pymatgen
data_Hf8In2FeCu7Hg2
_symmetry_space_group_name_H-M   'P 1'
_cell_length_a   7.18925923
_cell_length_b   7.19762537
_cell_length_c   6.76386041
_cell_angle_alpha   90.15842483
_cell_angle_beta   90.11051534
_cell_angle_gamma   90.31418992
_symmetry_Int_Tables_number   1
_chemical_formula_structural   Hf8In2FeCu7Hg2
_chemical_formula_sum   'Hf8 In2 Fe1 Cu7 Hg2'
_cell_volume   349.99271745
_cell_formula_units_Z   1
loop_
 _symmetry_equiv_pos_site_id
 _symmetry_equiv_pos_as_xyz
  1  'x, y, z'
loop_
 _atom_site_type_symbol
 _atom_site_label
 _atom_site_symmetry_multiplicity
 _atom_site_fract_x
 _atom_site_fract_y
 _atom_site_fract_z
 _atom_site_occupancy
  Hf  Hf0  1  0.163560  0.160503  0.009744  1
  Hf  Hf1  1  0.855351  0.855899  0.995229  1
  Hf  Hf2  1  0.641442  0.343775  0.487969  1
  Hf  Hf3  1  0.345577  0.642485  0.488222  1
  Hf  Hf4  1  0.673160  0.305912  0.007031  1
  Hf  Hf5  1  0.312259  0.680697  0.006514  1
  Hf  Hf6  1  0.805286  0.811171  0.501485  1
  Hf  Hf7  1  0.199753  0.194939  0.492563  1
  In  In8  1  0.997480  0.500441  0.247578  1
  In  In9  1  0.995527  0.498530  0.750491  1
  Fe  Fe10  1  0.377257  0.380116  0.228725  1
  Cu  Cu11  1  0.624772  0.622444  0.792310  1
  Cu  Cu12  1  0.631344  0.628195  0.201193  1
  Cu  Cu13  1  0.878810  0.126881  0.706971  1
  Cu  Cu14  1  0.878429  0.123253  0.293525  1
  Cu  Cu15  1  0.375067  0.378749  0.792157  1
  Cu  Cu16  1  0.120861  0.877105  0.294496  1
  Cu  Cu17  1  0.125327  0.877488  0.705930  1
  Hg  Hg18  1  0.500339  0.994931  0.249404  1
  Hg  Hg19  1  0.498396  0.996486  0.748462  1
