# generated using pymatgen
data_Ho2LuCd3Ge2Au
_symmetry_space_group_name_H-M   'P 1'
_cell_length_a   7.28890600
_cell_length_b   7.28196438
_cell_length_c   4.31876700
_cell_angle_alpha   90.00000000
_cell_angle_beta   90.00000000
_cell_angle_gamma   120.03153865
_symmetry_Int_Tables_number   1
_chemical_formula_structural   Ho2LuCd3Ge2Au
_chemical_formula_sum   'Ho2 Lu1 Cd3 Ge2 Au1'
_cell_volume   198.45552650
_cell_formula_units_Z   1
loop_
 _symmetry_equiv_pos_site_id
 _symmetry_equiv_pos_as_xyz
  1  'x, y, z'
loop_
 _atom_site_type_symbol
 _atom_site_label
 _atom_site_symmetry_multiplicity
 _atom_site_fract_x
 _atom_site_fract_y
 _atom_site_fract_z
 _atom_site_occupancy
  Ho  Ho0  1  0.001020  0.584116  0.000000  1
  Ho  Ho1  1  0.416904  0.415884  0.000000  1
  Lu  Lu2  1  0.584820  0.000000  0.000000  1
  Cd  Cd3  1  0.251939  0.000000  0.500000  1
  Cd  Cd4  1  0.999644  0.251620  0.500000  1
  Cd  Cd5  1  0.748024  0.748380  0.500000  1
  Ge  Ge6  1  0.334423  0.668718  0.500000  1
  Ge  Ge7  1  0.665705  0.331282  0.500000  1
  Au  Au8  1  0.997521  0.000000  0.000000  1
