# generated using pymatgen
data_LaEu4Ta3O14
_symmetry_space_group_name_H-M   'P 1'
_cell_length_a   7.69254191
_cell_length_b   7.69254283
_cell_length_c   7.69254220
_cell_angle_alpha   59.90714246
_cell_angle_beta   59.90713855
_cell_angle_gamma   59.90714715
_symmetry_Int_Tables_number   1
_chemical_formula_structural   LaEu4Ta3O14
_chemical_formula_sum   'La1 Eu4 Ta3 O14'
_cell_volume   321.20245982
_cell_formula_units_Z   1
loop_
 _symmetry_equiv_pos_site_id
 _symmetry_equiv_pos_as_xyz
  1  'x, y, z'
loop_
 _atom_site_type_symbol
 _atom_site_label
 _atom_site_symmetry_multiplicity
 _atom_site_fract_x
 _atom_site_fract_y
 _atom_site_fract_z
 _atom_site_occupancy
  La  La0  1  0.625000  0.625000  0.625000  1
  Eu  Eu1  1  0.625000  0.125000  0.125000  1
  Eu  Eu2  1  0.125000  0.625000  0.125000  1
  Eu  Eu3  1  0.125000  0.125000  0.625000  1
  Eu  Eu4  1  0.125000  0.125000  0.125000  1
  Ta  Ta5  1  0.125000  0.625000  0.625000  1
  Ta  Ta6  1  0.625000  0.125000  0.625000  1
  Ta  Ta7  1  0.625000  0.625000  0.125000  1
  O  O8  1  0.245260  0.245260  0.245260  1
  O  O9  1  0.004740  0.004740  0.004740  1
  O  O10  1  0.723427  0.723427  0.245686  1
  O  O11  1  0.324080  0.324080  0.705743  1
  O  O12  1  0.723427  0.245686  0.723427  1
  O  O13  1  0.324080  0.705743  0.324080  1
  O  O14  1  0.245686  0.723427  0.723427  1
  O  O15  1  0.705743  0.324080  0.324080  1
  O  O16  1  0.526573  0.526573  0.004314  1
  O  O17  1  0.925920  0.925920  0.544257  1
  O  O18  1  0.526573  0.004314  0.526573  1
  O  O19  1  0.925920  0.544257  0.925920  1
  O  O20  1  0.004314  0.526573  0.526573  1
  O  O21  1  0.544257  0.925920  0.925920  1
