# generated using pymatgen
data_Er16AlCd(HgPt2)2
_symmetry_space_group_name_H-M   'P 1'
_cell_length_a   9.53954456
_cell_length_b   9.53481846
_cell_length_c   9.53481847
_cell_angle_alpha   60.28894867
_cell_angle_beta   60.31751379
_cell_angle_gamma   60.31751081
_symmetry_Int_Tables_number   1
_chemical_formula_structural   Er16AlCd(HgPt2)2
_chemical_formula_sum   'Er16 Al1 Cd1 Hg2 Pt4'
_cell_volume   617.52370532
_cell_formula_units_Z   1
loop_
 _symmetry_equiv_pos_site_id
 _symmetry_equiv_pos_as_xyz
  1  'x, y, z'
loop_
 _atom_site_type_symbol
 _atom_site_label
 _atom_site_symmetry_multiplicity
 _atom_site_fract_x
 _atom_site_fract_y
 _atom_site_fract_z
 _atom_site_occupancy
  Er  Er0  1  0.351206  0.350806  0.350806  1
  Er  Er1  1  0.357308  0.356772  0.934393  1
  Er  Er2  1  0.357308  0.934393  0.356772  1
  Er  Er3  1  0.932811  0.357477  0.357477  1
  Er  Er4  1  0.809905  0.190266  0.190266  1
  Er  Er5  1  0.193875  0.808898  0.808898  1
  Er  Er6  1  0.189444  0.810628  0.189964  1
  Er  Er7  1  0.808589  0.194266  0.808745  1
  Er  Er8  1  0.189444  0.189964  0.810628  1
  Er  Er9  1  0.808589  0.808745  0.194266  1
  Er  Er10  1  0.931587  0.567245  0.567245  1
  Er  Er11  1  0.564083  0.937546  0.937546  1
  Er  Er12  1  0.566641  0.933823  0.566780  1
  Er  Er13  1  0.935906  0.564630  0.938262  1
  Er  Er14  1  0.566641  0.566780  0.933823  1
  Er  Er15  1  0.935906  0.938262  0.564630  1
  Al  Al16  1  0.581970  0.581562  0.581562  1
  Cd  Cd17  1  0.254882  0.580882  0.580882  1
  Hg  Hg18  1  0.583889  0.585392  0.244802  1
  Hg  Hg19  1  0.583889  0.244802  0.585392  1
  Pt  Pt20  1  0.144791  0.145128  0.145128  1
  Pt  Pt21  1  0.140634  0.140938  0.569960  1
  Pt  Pt22  1  0.140634  0.569960  0.140938  1
  Pt  Pt23  1  0.570068  0.140835  0.140835  1
