# generated using pymatgen
data_MgTa3CuPd8Rh3
_symmetry_space_group_name_H-M   'P 1'
_cell_length_a   5.56548429
_cell_length_b   5.56548349
_cell_length_c   9.04875300
_cell_angle_alpha   90.00000000
_cell_angle_beta   90.00000000
_cell_angle_gamma   119.41190678
_symmetry_Int_Tables_number   1
_chemical_formula_structural   MgTa3CuPd8Rh3
_chemical_formula_sum   'Mg1 Ta3 Cu1 Pd8 Rh3'
_cell_volume   244.15660542
_cell_formula_units_Z   1
loop_
 _symmetry_equiv_pos_site_id
 _symmetry_equiv_pos_as_xyz
  1  'x, y, z'
loop_
 _atom_site_type_symbol
 _atom_site_label
 _atom_site_symmetry_multiplicity
 _atom_site_fract_x
 _atom_site_fract_y
 _atom_site_fract_z
 _atom_site_occupancy
  Mg  Mg0  1  0.328150  0.671850  0.000000  1
  Ta  Ta1  1  0.670157  0.329843  0.500000  1
  Ta  Ta2  1  0.003102  0.996898  0.733432  1
  Ta  Ta3  1  0.003102  0.996898  0.266568  1
  Cu  Cu4  1  0.822660  0.177340  0.000000  1
  Pd  Pd5  1  0.826778  0.677048  0.000000  1
  Pd  Pd6  1  0.322952  0.173222  0.000000  1
  Pd  Pd7  1  0.998840  0.493410  0.753623  1
  Pd  Pd8  1  0.503550  0.496450  0.746990  1
  Pd  Pd9  1  0.506590  0.001160  0.753623  1
  Pd  Pd10  1  0.998840  0.493410  0.246377  1
  Pd  Pd11  1  0.503550  0.496450  0.253010  1
  Pd  Pd12  1  0.506590  0.001160  0.246377  1
  Rh  Rh13  1  0.169785  0.830215  0.500000  1
  Rh  Rh14  1  0.168434  0.333086  0.500000  1
  Rh  Rh15  1  0.666914  0.831566  0.500000  1
