# generated using pymatgen
data_Tb6Al24Ru3Rh5
_symmetry_space_group_name_H-M   'P 1'
_cell_length_a   8.79960800
_cell_length_b   8.83937743
_cell_length_c   9.56953809
_cell_angle_alpha   90.12915938
_cell_angle_beta   90.00000000
_cell_angle_gamma   119.85128154
_symmetry_Int_Tables_number   1
_chemical_formula_structural   Tb6Al24Ru3Rh5
_chemical_formula_sum   'Tb6 Al24 Ru3 Rh5'
_cell_volume   645.58587959
_cell_formula_units_Z   1
loop_
 _symmetry_equiv_pos_site_id
 _symmetry_equiv_pos_as_xyz
  1  'x, y, z'
loop_
 _atom_site_type_symbol
 _atom_site_label
 _atom_site_symmetry_multiplicity
 _atom_site_fract_x
 _atom_site_fract_y
 _atom_site_fract_z
 _atom_site_occupancy
  Tb  Tb0  1  0.384993  0.190428  0.249296  1
  Tb  Tb1  1  0.805435  0.190428  0.249296  1
  Tb  Tb2  1  0.807885  0.615769  0.249476  1
  Tb  Tb3  1  0.615007  0.809572  0.750704  1
  Tb  Tb4  1  0.194565  0.809572  0.750704  1
  Tb  Tb5  1  0.192115  0.384231  0.750524  1
  Al  Al6  1  0.437464  0.874929  0.249312  1
  Al  Al7  1  0.123744  0.561026  0.250216  1
  Al  Al8  1  0.437282  0.561026  0.250216  1
  Al  Al9  1  0.562536  0.125071  0.750688  1
  Al  Al10  1  0.876256  0.438974  0.749784  1
  Al  Al11  1  0.562718  0.438974  0.749784  1
  Al  Al12  1  0.162227  0.835576  0.422638  1
  Al  Al13  1  0.162639  0.325279  0.422790  1
  Al  Al14  1  0.673348  0.835576  0.422638  1
  Al  Al15  1  0.837773  0.164424  0.577362  1
  Al  Al16  1  0.837361  0.674721  0.577210  1
  Al  Al17  1  0.326652  0.164424  0.577362  1
  Al  Al18  1  0.835312  0.162285  0.923101  1
  Al  Al19  1  0.836928  0.673856  0.923646  1
  Al  Al20  1  0.326974  0.162285  0.923101  1
  Al  Al21  1  0.164688  0.837715  0.076899  1
  Al  Al22  1  0.163072  0.326144  0.076354  1
  Al  Al23  1  0.673026  0.837715  0.076899  1
  Al  Al24  1  0.333493  0.666987  0.525732  1
  Al  Al25  1  0.666507  0.333013  0.474268  1
  Al  Al26  1  0.665726  0.331450  0.025275  1
  Al  Al27  1  0.334274  0.668550  0.974725  1
  Al  Al28  1  0.999358  0.998716  0.249952  1
  Al  Al29  1  0.000642  0.001284  0.750048  1
  Ru  Ru30  1  0.000000  0.000000  0.500000  1
  Ru  Ru31  1  0.000000  0.000000  0.000000  1
  Ru  Ru32  1  0.500000  0.000000  0.000000  1
  Rh  Rh33  1  0.500000  0.000000  0.500000  1
  Rh  Rh34  1  0.000000  0.500000  0.500000  1
  Rh  Rh35  1  0.500000  0.500000  0.500000  1
  Rh  Rh36  1  0.000000  0.500000  0.000000  1
  Rh  Rh37  1  0.500000  0.500000  0.000000  1
