# generated using pymatgen
data_Lu20SnBi11
_symmetry_space_group_name_H-M   'P 1'
_cell_length_a   8.10703260
_cell_length_b   9.39758700
_cell_length_c   11.77367904
_cell_angle_alpha   90.00000000
_cell_angle_beta   89.82336662
_cell_angle_gamma   90.00000000
_symmetry_Int_Tables_number   1
_chemical_formula_structural   Lu20SnBi11
_chemical_formula_sum   'Lu20 Sn1 Bi11'
_cell_volume   896.99165516
_cell_formula_units_Z   1
loop_
 _symmetry_equiv_pos_site_id
 _symmetry_equiv_pos_as_xyz
  1  'x, y, z'
loop_
 _atom_site_type_symbol
 _atom_site_label
 _atom_site_symmetry_multiplicity
 _atom_site_fract_x
 _atom_site_fract_y
 _atom_site_fract_z
 _atom_site_occupancy
  Lu  Lu0  1  0.029888  0.250000  0.510392  1
  Lu  Lu1  1  0.977050  0.750000  0.489478  1
  Lu  Lu2  1  0.476875  0.750000  0.011225  1
  Lu  Lu3  1  0.524663  0.250000  0.989441  1
  Lu  Lu4  1  0.353639  0.250000  0.286251  1
  Lu  Lu5  1  0.647041  0.750000  0.718188  1
  Lu  Lu6  1  0.146852  0.750000  0.782025  1
  Lu  Lu7  1  0.853988  0.250000  0.216766  1
  Lu  Lu8  1  0.192447  0.250000  0.779879  1
  Lu  Lu9  1  0.809865  0.750000  0.216307  1
  Lu  Lu10  1  0.311107  0.750000  0.283141  1
  Lu  Lu11  1  0.684612  0.250000  0.714387  1
  Lu  Lu12  1  0.192930  0.067338  0.059407  1
  Lu  Lu13  1  0.807064  0.932739  0.941250  1
  Lu  Lu14  1  0.306692  0.937665  0.559274  1
  Lu  Lu15  1  0.807064  0.567261  0.941250  1
  Lu  Lu16  1  0.689858  0.069657  0.442471  1
  Lu  Lu17  1  0.192930  0.432662  0.059407  1
  Lu  Lu18  1  0.689858  0.430343  0.442471  1
  Lu  Lu19  1  0.306692  0.562335  0.559274  1
  Sn  Sn20  1  0.404518  0.250000  0.541991  1
  Bi  Bi21  1  0.596281  0.750000  0.457197  1
  Bi  Bi22  1  0.097155  0.750000  0.043096  1
  Bi  Bi23  1  0.904788  0.250000  0.954863  1
  Bi  Bi24  1  0.063105  0.002500  0.323726  1
  Bi  Bi25  1  0.935284  0.997135  0.675306  1
  Bi  Bi26  1  0.435756  0.996037  0.825267  1
  Bi  Bi27  1  0.935284  0.502865  0.675306  1
  Bi  Bi28  1  0.563926  0.004216  0.175984  1
  Bi  Bi29  1  0.063105  0.497500  0.323726  1
  Bi  Bi30  1  0.563926  0.495784  0.175984  1
  Bi  Bi31  1  0.435756  0.503963  0.825267  1
