# generated using pymatgen
data_TcNiF6
_symmetry_space_group_name_H-M   'P 1'
_cell_length_a   5.52092496
_cell_length_b   5.52092589
_cell_length_c   5.52092442
_cell_angle_alpha   56.91147739
_cell_angle_beta   56.91147221
_cell_angle_gamma   56.91147647
_symmetry_Int_Tables_number   1
_chemical_formula_structural   TcNiF6
_chemical_formula_sum   'Tc1 Ni1 F6'
_cell_volume   110.51508416
_cell_formula_units_Z   1
loop_
 _symmetry_equiv_pos_site_id
 _symmetry_equiv_pos_as_xyz
  1  'x, y, z'
loop_
 _atom_site_type_symbol
 _atom_site_label
 _atom_site_symmetry_multiplicity
 _atom_site_fract_x
 _atom_site_fract_y
 _atom_site_fract_z
 _atom_site_occupancy
  Tc  Tc0  1  0.500000  0.500000  0.500000  1
  Ni  Ni1  1  0.000000  0.000000  0.000000  1
  F  F2  1  0.858481  0.633344  0.254617  1
  F  F3  1  0.633344  0.254617  0.858481  1
  F  F4  1  0.254617  0.858481  0.633344  1
  F  F5  1  0.745383  0.141519  0.366656  1
  F  F6  1  0.366656  0.745383  0.141519  1
  F  F7  1  0.141519  0.366656  0.745383  1
