# generated using pymatgen
data_Lu16Tl4PdRh3
_symmetry_space_group_name_H-M   'P 1'
_cell_length_a   9.48849987
_cell_length_b   9.48849900
_cell_length_c   9.48849800
_cell_angle_alpha   59.81757187
_cell_angle_beta   59.81757490
_cell_angle_gamma   59.81757776
_symmetry_Int_Tables_number   1
_chemical_formula_structural   Lu16Tl4PdRh3
_chemical_formula_sum   'Lu16 Tl4 Pd1 Rh3'
_cell_volume   601.55522603
_cell_formula_units_Z   1
loop_
 _symmetry_equiv_pos_site_id
 _symmetry_equiv_pos_as_xyz
  1  'x, y, z'
loop_
 _atom_site_type_symbol
 _atom_site_label
 _atom_site_symmetry_multiplicity
 _atom_site_fract_x
 _atom_site_fract_y
 _atom_site_fract_z
 _atom_site_occupancy
  Lu  Lu0  1  0.598571  0.598597  0.598805  1
  Lu  Lu1  1  0.604017  0.604428  0.195508  1
  Lu  Lu2  1  0.605450  0.194376  0.604717  1
  Lu  Lu3  1  0.194774  0.605342  0.604217  1
  Lu  Lu4  1  0.057047  0.438843  0.437795  1
  Lu  Lu5  1  0.438075  0.062113  0.061762  1
  Lu  Lu6  1  0.438689  0.056940  0.437944  1
  Lu  Lu7  1  0.062010  0.438292  0.061743  1
  Lu  Lu8  1  0.438142  0.438486  0.057125  1
  Lu  Lu9  1  0.062072  0.062164  0.437701  1
  Lu  Lu10  1  0.188723  0.811636  0.811959  1
  Lu  Lu11  1  0.811806  0.189400  0.190006  1
  Lu  Lu12  1  0.811696  0.188690  0.811935  1
  Lu  Lu13  1  0.189591  0.811539  0.189965  1
  Lu  Lu14  1  0.811859  0.811750  0.188710  1
  Lu  Lu15  1  0.189688  0.189466  0.812226  1
  Tl  Tl16  1  0.836232  0.836120  0.836369  1
  Tl  Tl17  1  0.835967  0.835941  0.491399  1
  Tl  Tl18  1  0.836006  0.491386  0.835951  1
  Tl  Tl19  1  0.491396  0.835970  0.835948  1
  Pd  Pd20  1  0.393476  0.393412  0.393401  1
  Rh  Rh21  1  0.391955  0.391916  0.820633  1
  Rh  Rh22  1  0.391931  0.821123  0.392004  1
  Rh  Rh23  1  0.820828  0.392072  0.392178  1
