# generated using pymatgen
data_Cs2Hf(GeO3)3
_symmetry_space_group_name_H-M   'P 1'
_cell_length_a   7.44497400
_cell_length_b   7.44497483
_cell_length_c   10.76195100
_cell_angle_alpha   90.00000000
_cell_angle_beta   90.00000000
_cell_angle_gamma   120.00000518
_symmetry_Int_Tables_number   1
_chemical_formula_structural   Cs2Hf(GeO3)3
_chemical_formula_sum   'Cs4 Hf2 Ge6 O18'
_cell_volume   516.59243115
_cell_formula_units_Z   2
loop_
 _symmetry_equiv_pos_site_id
 _symmetry_equiv_pos_as_xyz
  1  'x, y, z'
loop_
 _atom_site_type_symbol
 _atom_site_label
 _atom_site_symmetry_multiplicity
 _atom_site_fract_x
 _atom_site_fract_y
 _atom_site_fract_z
 _atom_site_occupancy
  Cs  Cs0  1  0.333333  0.666667  0.059332  1
  Cs  Cs1  1  0.666667  0.333333  0.559332  1
  Cs  Cs2  1  0.666667  0.333333  0.940668  1
  Cs  Cs3  1  0.333333  0.666667  0.440668  1
  Hf  Hf4  1  0.000000  0.000000  0.000000  1
  Hf  Hf5  1  0.000000  0.000000  0.500000  1
  Ge  Ge6  1  0.376870  0.236672  0.250000  1
  Ge  Ge7  1  0.140199  0.376870  0.750000  1
  Ge  Ge8  1  0.236672  0.859801  0.750000  1
  Ge  Ge9  1  0.763328  0.140199  0.250000  1
  Ge  Ge10  1  0.859801  0.623130  0.250000  1
  Ge  Ge11  1  0.623130  0.763328  0.750000  1
  O  O12  1  0.493169  0.075047  0.250000  1
  O  O13  1  0.418123  0.493169  0.750000  1
  O  O14  1  0.075047  0.581877  0.750000  1
  O  O15  1  0.924953  0.418123  0.250000  1
  O  O16  1  0.581877  0.506831  0.250000  1
  O  O17  1  0.506831  0.924953  0.750000  1
  O  O18  1  0.246045  0.208401  0.110893  1
  O  O19  1  0.037643  0.246045  0.610893  1
  O  O20  1  0.208401  0.962357  0.610893  1
  O  O21  1  0.791599  0.037643  0.110893  1
  O  O22  1  0.962357  0.753955  0.110893  1
  O  O23  1  0.753955  0.791599  0.610893  1
  O  O24  1  0.753955  0.791599  0.889107  1
  O  O25  1  0.962357  0.753955  0.389107  1
  O  O26  1  0.791599  0.037643  0.389107  1
  O  O27  1  0.208401  0.962357  0.889107  1
  O  O28  1  0.037643  0.246045  0.889107  1
  O  O29  1  0.246045  0.208401  0.389107  1
