# generated using pymatgen
data_Tm20N19
_symmetry_space_group_name_H-M   'P 1'
_cell_length_a   9.01614904
_cell_length_b   9.01614775
_cell_length_c   9.01614902
_cell_angle_alpha   106.59299604
_cell_angle_beta   106.59298774
_cell_angle_gamma   115.39509723
_symmetry_Int_Tables_number   1
_chemical_formula_structural   Tm20N19
_chemical_formula_sum   'Tm20 N19'
_cell_volume   559.64068271
_cell_formula_units_Z   1
loop_
 _symmetry_equiv_pos_site_id
 _symmetry_equiv_pos_as_xyz
  1  'x, y, z'
loop_
 _atom_site_type_symbol
 _atom_site_label
 _atom_site_symmetry_multiplicity
 _atom_site_fract_x
 _atom_site_fract_y
 _atom_site_fract_z
 _atom_site_occupancy
  Tm  Tm0  1  0.047484  0.649894  0.200509  1
  Tm  Tm1  1  0.396111  0.707165  0.103277  1
  Tm  Tm2  1  0.100195  0.798552  0.898747  1
  Tm  Tm3  1  0.758040  0.758040  0.000000  1
  Tm  Tm4  1  0.798552  0.899805  0.698356  1
  Tm  Tm5  1  0.449385  0.846974  0.799491  1
  Tm  Tm6  1  0.500000  0.000000  0.500000  1
  Tm  Tm7  1  0.153026  0.952516  0.602410  1
  Tm  Tm8  1  0.201448  0.100195  0.301644  1
  Tm  Tm9  1  0.846974  0.047484  0.397590  1
  Tm  Tm10  1  0.899805  0.201448  0.101253  1
  Tm  Tm11  1  0.550615  0.153026  0.200509  1
  Tm  Tm12  1  0.603889  0.292835  0.896723  1
  Tm  Tm13  1  0.241960  0.241960  0.000000  1
  Tm  Tm14  1  0.292835  0.396111  0.688947  1
  Tm  Tm15  1  0.952516  0.350106  0.799491  1
  Tm  Tm16  1  0.000000  0.500000  0.500000  1
  Tm  Tm17  1  0.649894  0.449385  0.602410  1
  Tm  Tm18  1  0.707165  0.603889  0.311053  1
  Tm  Tm19  1  0.350106  0.550615  0.397590  1
  N  N20  1  0.898868  0.699795  0.598663  1
  N  N21  1  0.550208  0.650091  0.701986  1
  N  N22  1  0.600097  0.799033  0.399130  1
  N  N23  1  0.250000  0.750000  0.500000  1
  N  N24  1  0.300205  0.898868  0.199072  1
  N  N25  1  0.948105  0.848222  0.298014  1
  N  N26  1  0.000000  0.000000  0.000000  1
  N  N27  1  0.650091  0.948105  0.099883  1
  N  N28  1  0.699795  0.101132  0.800928  1
  N  N29  1  0.349909  0.051895  0.900117  1
  N  N30  1  0.051895  0.151778  0.701986  1
  N  N31  1  0.750000  0.250000  0.500000  1
  N  N32  1  0.399903  0.200967  0.600870  1
  N  N33  1  0.449792  0.349909  0.298014  1
  N  N34  1  0.101132  0.300205  0.401337  1
  N  N35  1  0.151778  0.449792  0.099883  1
  N  N36  1  0.200967  0.600097  0.801065  1
  N  N37  1  0.799033  0.399903  0.198935  1
  N  N38  1  0.848222  0.550208  0.900117  1
