# generated using pymatgen
data_Zr10Al2(SnBi)3
_symmetry_space_group_name_H-M   'P 1'
_cell_length_a   8.84143500
_cell_length_b   8.83449765
_cell_length_c   5.91452100
_cell_angle_alpha   90.00000000
_cell_angle_beta   90.00000000
_cell_angle_gamma   120.02597573
_symmetry_Int_Tables_number   1
_chemical_formula_structural   Zr10Al2(SnBi)3
_chemical_formula_sum   'Zr10 Al2 Sn3 Bi3'
_cell_volume   399.98259397
_cell_formula_units_Z   1
loop_
 _symmetry_equiv_pos_site_id
 _symmetry_equiv_pos_as_xyz
  1  'x, y, z'
loop_
 _atom_site_type_symbol
 _atom_site_label
 _atom_site_symmetry_multiplicity
 _atom_site_fract_x
 _atom_site_fract_y
 _atom_site_fract_z
 _atom_site_occupancy
  Zr  Zr0  1  0.331705  0.666653  0.001528  1
  Zr  Zr1  1  0.665053  0.333347  0.498472  1
  Zr  Zr2  1  0.665053  0.333347  0.001528  1
  Zr  Zr3  1  0.331705  0.666653  0.498472  1
  Zr  Zr4  1  0.268635  0.000000  0.250000  1
  Zr  Zr5  1  0.269904  0.265987  0.750000  1
  Zr  Zr6  1  0.003917  0.734013  0.750000  1
  Zr  Zr7  1  0.004218  0.272401  0.250000  1
  Zr  Zr8  1  0.731816  0.727599  0.250000  1
  Zr  Zr9  1  0.730227  0.000000  0.750000  1
  Al  Al10  1  0.000600  0.000000  0.001076  1
  Al  Al11  1  0.000600  0.000000  0.498924  1
  Sn  Sn12  1  0.999931  0.614181  0.250000  1
  Sn  Sn13  1  0.385749  0.385819  0.250000  1
  Sn  Sn14  1  0.386226  0.000000  0.750000  1
  Bi  Bi15  1  0.612795  0.000000  0.250000  1
  Bi  Bi16  1  0.611902  0.611939  0.750000  1
  Bi  Bi17  1  0.999962  0.388061  0.750000  1
