# generated using pymatgen
data_Tb3YGa18OsRh5
_symmetry_space_group_name_H-M   'P 1'
_cell_length_a   7.57764144
_cell_length_b   7.57883111
_cell_length_c   9.58118401
_cell_angle_alpha   90.05682242
_cell_angle_beta   90.06277771
_cell_angle_gamma   119.88706740
_symmetry_Int_Tables_number   1
_chemical_formula_structural   Tb3YGa18OsRh5
_chemical_formula_sum   'Tb3 Y1 Ga18 Os1 Rh5'
_cell_volume   477.06575797
_cell_formula_units_Z   1
loop_
 _symmetry_equiv_pos_site_id
 _symmetry_equiv_pos_as_xyz
  1  'x, y, z'
loop_
 _atom_site_type_symbol
 _atom_site_label
 _atom_site_symmetry_multiplicity
 _atom_site_fract_x
 _atom_site_fract_y
 _atom_site_fract_z
 _atom_site_occupancy
  Tb  Tb0  1  0.996579  0.666153  0.248287  1
  Tb  Tb1  1  0.000588  0.332812  0.751107  1
  Tb  Tb2  1  0.667179  0.999435  0.248896  1
  Y  Y3  1  0.333861  0.003393  0.751709  1
  Ga  Ga4  1  0.332418  0.332623  0.562920  1
  Ga  Ga5  1  0.667403  0.667569  0.437067  1
  Ga  Ga6  1  0.666340  0.665484  0.062498  1
  Ga  Ga7  1  0.334522  0.333640  0.937515  1
  Ga  Ga8  1  0.338825  0.546526  0.250186  1
  Ga  Ga9  1  0.661301  0.453873  0.749882  1
  Ga  Ga10  1  0.546139  0.338764  0.250134  1
  Ga  Ga11  1  0.453444  0.661138  0.749809  1
  Ga  Ga12  1  0.001046  0.333515  0.079109  1
  Ga  Ga13  1  0.998371  0.665227  0.920164  1
  Ga  Ga14  1  0.999266  0.666084  0.579662  1
  Ga  Ga15  1  0.333944  0.000704  0.420292  1
  Ga  Ga16  1  0.001266  0.334411  0.421681  1
  Ga  Ga17  1  0.665567  0.998766  0.578302  1
  Ga  Ga18  1  0.666446  0.998978  0.920907  1
  Ga  Ga19  1  0.334807  0.001622  0.079852  1
  Ga  Ga20  1  0.122370  0.123239  0.250409  1
  Ga  Ga21  1  0.876771  0.877649  0.749602  1
  Os  Os22  1  0.672419  0.327544  0.999985  1
  Rh  Rh23  1  0.999990  0.000020  0.000000  1
  Rh  Rh24  1  0.000277  0.999732  0.500024  1
  Rh  Rh25  1  0.328572  0.671406  0.999983  1
  Rh  Rh26  1  0.328860  0.671155  0.500007  1
  Rh  Rh27  1  0.671428  0.328539  0.500014  1
