# generated using pymatgen
data_Nd7Er(Nb3Si4)4
_symmetry_space_group_name_H-M   'P 1'
_cell_length_a   6.98281704
_cell_length_b   7.20100248
_cell_length_c   13.59622769
_cell_angle_alpha   89.90920030
_cell_angle_beta   90.00243972
_cell_angle_gamma   89.94897269
_symmetry_Int_Tables_number   1
_chemical_formula_structural   Nd7Er(Nb3Si4)4
_chemical_formula_sum   'Nd7 Er1 Nb12 Si16'
_cell_volume   683.66183306
_cell_formula_units_Z   1
loop_
 _symmetry_equiv_pos_site_id
 _symmetry_equiv_pos_as_xyz
  1  'x, y, z'
loop_
 _atom_site_type_symbol
 _atom_site_label
 _atom_site_symmetry_multiplicity
 _atom_site_fract_x
 _atom_site_fract_y
 _atom_site_fract_z
 _atom_site_occupancy
  Nd  Nd0  1  0.503702  0.330493  0.095668  1
  Nd  Nd1  1  0.003909  0.169207  0.403976  1
  Nd  Nd2  1  0.496243  0.668802  0.595926  1
  Nd  Nd3  1  0.995935  0.830265  0.905109  1
  Nd  Nd4  1  0.495715  0.669849  0.905182  1
  Nd  Nd5  1  0.996236  0.830793  0.595768  1
  Nd  Nd6  1  0.503840  0.330700  0.402924  1
  Er  Er7  1  0.002856  0.170896  0.097347  1
  Nb  Nb8  1  0.664237  0.011409  0.750575  1
  Nb  Nb9  1  0.164100  0.487833  0.750612  1
  Nb  Nb10  1  0.335377  0.990034  0.248878  1
  Nb  Nb11  1  0.836762  0.511658  0.249362  1
  Nb  Nb12  1  0.838195  0.324474  0.626487  1
  Nb  Nb13  1  0.337673  0.175368  0.874513  1
  Nb  Nb14  1  0.161341  0.676631  0.125787  1
  Nb  Nb15  1  0.662206  0.825578  0.372595  1
  Nb  Nb16  1  0.161080  0.675342  0.372717  1
  Nb  Nb17  1  0.662403  0.825619  0.125286  1
  Nb  Nb18  1  0.839796  0.322722  0.874870  1
  Nb  Nb19  1  0.338847  0.175525  0.626369  1
  Si  Si20  1  0.798437  0.616157  0.750603  1
  Si  Si21  1  0.298449  0.883275  0.750494  1
  Si  Si22  1  0.199723  0.380431  0.248122  1
  Si  Si23  1  0.704357  0.118003  0.247907  1
  Si  Si24  1  0.543855  0.370407  0.750791  1
  Si  Si25  1  0.043900  0.129053  0.750149  1
  Si  Si26  1  0.456113  0.629928  0.249113  1
  Si  Si27  1  0.957061  0.873015  0.248380  1
  Si  Si28  1  0.658644  0.040389  0.541955  1
  Si  Si29  1  0.158345  0.456875  0.960108  1
  Si  Si30  1  0.335599  0.963528  0.043080  1
  Si  Si31  1  0.840826  0.540762  0.457442  1
  Si  Si32  1  0.341524  0.959177  0.457322  1
  Si  Si33  1  0.842933  0.535392  0.043185  1
  Si  Si34  1  0.660966  0.040582  0.959380  1
  Si  Si35  1  0.158821  0.459830  0.542020  1
