# generated using pymatgen
data_La8Ho12Ga7Si9
_symmetry_space_group_name_H-M   'P 1'
_cell_length_a   7.60641716
_cell_length_b   7.94716214
_cell_length_c   15.16665812
_cell_angle_alpha   90.00816299
_cell_angle_beta   89.98803984
_cell_angle_gamma   89.97976431
_symmetry_Int_Tables_number   1
_chemical_formula_structural   La8Ho12Ga7Si9
_chemical_formula_sum   'La8 Ho12 Ga7 Si9'
_cell_volume   916.81575964
_cell_formula_units_Z   1
loop_
 _symmetry_equiv_pos_site_id
 _symmetry_equiv_pos_as_xyz
  1  'x, y, z'
loop_
 _atom_site_type_symbol
 _atom_site_label
 _atom_site_symmetry_multiplicity
 _atom_site_fract_x
 _atom_site_fract_y
 _atom_site_fract_z
 _atom_site_occupancy
  La  La0  1  0.979034  0.823155  0.096404  1
  La  La1  1  0.478764  0.676978  0.403891  1
  La  La2  1  0.520089  0.322905  0.902110  1
  La  La3  1  0.021734  0.178771  0.598042  1
  La  La4  1  0.025134  0.176381  0.901802  1
  La  La5  1  0.523495  0.325323  0.598062  1
  La  La6  1  0.475614  0.674536  0.096382  1
  La  La7  1  0.975591  0.825152  0.403273  1
  Ho  Ho8  1  0.652933  0.992644  0.251131  1
  Ho  Ho9  1  0.153264  0.507205  0.248870  1
  Ho  Ho10  1  0.849727  0.494305  0.748952  1
  Ho  Ho11  1  0.346842  0.009084  0.750878  1
  Ho  Ho12  1  0.679674  0.822051  0.875535  1
  Ho  Ho13  1  0.180968  0.675804  0.624699  1
  Ho  Ho14  1  0.820125  0.322146  0.123618  1
  Ho  Ho15  1  0.319952  0.177947  0.376409  1
  Ho  Ho16  1  0.317687  0.178552  0.122223  1
  Ho  Ho17  1  0.817567  0.321377  0.377763  1
  Ho  Ho18  1  0.182714  0.676770  0.876703  1
  Ho  Ho19  1  0.681833  0.821050  0.623096  1
  Ga  Ga20  1  0.767745  0.619043  0.249742  1
  Ga  Ga21  1  0.268305  0.881216  0.250289  1
  Ga  Ga22  1  0.729573  0.119065  0.750317  1
  Ga  Ga23  1  0.852839  0.533023  0.959431  1
  Ga  Ga24  1  0.352251  0.966558  0.540657  1
  Ga  Ga25  1  0.647404  0.033651  0.040103  1
  Ga  Ga26  1  0.147422  0.466551  0.459731  1
  Si  Si27  1  0.230830  0.382733  0.749573  1
  Si  Si28  1  0.023997  0.117744  0.249444  1
  Si  Si29  1  0.524288  0.382321  0.250551  1
  Si  Si30  1  0.475618  0.614920  0.750600  1
  Si  Si31  1  0.977386  0.881490  0.749501  1
  Si  Si32  1  0.145291  0.467213  0.040158  1
  Si  Si33  1  0.645368  0.033017  0.460090  1
  Si  Si34  1  0.354182  0.966979  0.959514  1
  Si  Si35  1  0.854762  0.532340  0.540457  1
