# generated using pymatgen
data_Tb19Nd(Ir5Ru)2
_symmetry_space_group_name_H-M   'P 1'
_cell_length_a   10.92014698
_cell_length_b   10.91461837
_cell_length_c   6.46168436
_cell_angle_alpha   90.05694487
_cell_angle_beta   89.95160516
_cell_angle_gamma   89.99570867
_symmetry_Int_Tables_number   1
_chemical_formula_structural   Tb19Nd(Ir5Ru)2
_chemical_formula_sum   'Tb19 Nd1 Ir10 Ru2'
_cell_volume   770.16257097
_cell_formula_units_Z   1
loop_
 _symmetry_equiv_pos_site_id
 _symmetry_equiv_pos_as_xyz
  1  'x, y, z'
loop_
 _atom_site_type_symbol
 _atom_site_label
 _atom_site_symmetry_multiplicity
 _atom_site_fract_x
 _atom_site_fract_y
 _atom_site_fract_z
 _atom_site_occupancy
  Tb  Tb0  1  0.088213  0.292140  0.119511  1
  Tb  Tb1  1  0.792793  0.411240  0.119408  1
  Tb  Tb2  1  0.208020  0.587506  0.119340  1
  Tb  Tb3  1  0.913291  0.708052  0.119283  1
  Tb  Tb4  1  0.412615  0.792285  0.380850  1
  Tb  Tb5  1  0.587407  0.207453  0.380177  1
  Tb  Tb6  1  0.292461  0.087756  0.380985  1
  Tb  Tb7  1  0.707398  0.912776  0.380079  1
  Tb  Tb8  1  0.411881  0.207331  0.883195  1
  Tb  Tb9  1  0.706992  0.088081  0.883165  1
  Tb  Tb10  1  0.292723  0.912040  0.883544  1
  Tb  Tb11  1  0.586929  0.793730  0.883771  1
  Tb  Tb12  1  0.089714  0.707505  0.616516  1
  Tb  Tb13  1  0.912347  0.291972  0.616739  1
  Tb  Tb14  1  0.207451  0.411406  0.616974  1
  Tb  Tb15  1  0.000080  0.000490  0.000048  1
  Tb  Tb16  1  0.499811  0.499820  0.999381  1
  Tb  Tb17  1  0.498634  0.499244  0.499288  1
  Tb  Tb18  1  0.000306  0.000067  0.499400  1
  Nd  Nd19  1  0.790534  0.588829  0.618906  1
  Ir  Ir20  1  0.152984  0.847116  0.249756  1
  Ir  Ir21  1  0.347254  0.346936  0.250126  1
  Ir  Ir22  1  0.651221  0.653601  0.245297  1
  Ir  Ir23  1  0.847081  0.152991  0.250402  1
  Ir  Ir24  1  0.347478  0.652397  0.749520  1
  Ir  Ir25  1  0.152010  0.152226  0.749904  1
  Ir  Ir26  1  0.848197  0.850754  0.751400  1
  Ir  Ir27  1  0.650908  0.345456  0.751323  1
  Ir  Ir28  1  0.499809  0.000157  0.624962  1
  Ir  Ir29  1  0.001789  0.499209  0.877474  1
  Ru  Ru30  1  0.001984  0.499412  0.375181  1
  Ru  Ru31  1  0.499686  0.000021  0.124095  1
