# generated using pymatgen
data_Y5Ga2Te
_symmetry_space_group_name_H-M   'P 1'
_cell_length_a   8.72128506
_cell_length_b   8.72882497
_cell_length_c   6.49899500
_cell_angle_alpha   90.00000000
_cell_angle_beta   90.00000000
_cell_angle_gamma   120.02859781
_symmetry_Int_Tables_number   1
_chemical_formula_structural   Y5Ga2Te
_chemical_formula_sum   'Y10 Ga4 Te2'
_cell_volume   428.33925621
_cell_formula_units_Z   2
loop_
 _symmetry_equiv_pos_site_id
 _symmetry_equiv_pos_as_xyz
  1  'x, y, z'
loop_
 _atom_site_type_symbol
 _atom_site_label
 _atom_site_symmetry_multiplicity
 _atom_site_fract_x
 _atom_site_fract_y
 _atom_site_fract_z
 _atom_site_occupancy
  Y  Y0  1  0.315672  0.657836  0.000000  1
  Y  Y1  1  0.670372  0.335185  0.500000  1
  Y  Y2  1  0.670372  0.335185  0.000000  1
  Y  Y3  1  0.315672  0.657836  0.500000  1
  Y  Y4  1  0.233466  0.998797  0.250000  1
  Y  Y5  1  0.233466  0.234669  0.750000  1
  Y  Y6  1  0.012922  0.763498  0.750000  1
  Y  Y7  1  0.012922  0.249424  0.250000  1
  Y  Y8  1  0.764584  0.749549  0.250000  1
  Y  Y9  1  0.764584  0.015034  0.750000  1
  Ga  Ga10  1  0.996512  0.395892  0.750000  1
  Ga  Ga11  1  0.996512  0.600620  0.250000  1
  Ga  Ga12  1  0.398899  0.395509  0.250000  1
  Ga  Ga13  1  0.398899  0.003391  0.750000  1
  Te  Te14  1  0.607574  0.995971  0.250000  1
  Te  Te15  1  0.607574  0.611602  0.750000  1
