# generated using pymatgen
data_Li3Y3Si2As
_symmetry_space_group_name_H-M   'P 1'
_cell_length_a   6.98769900
_cell_length_b   6.98769888
_cell_length_c   4.25054100
_cell_angle_alpha   90.00000000
_cell_angle_beta   90.00000000
_cell_angle_gamma   119.99999583
_symmetry_Int_Tables_number   1
_chemical_formula_structural   Li3Y3Si2As
_chemical_formula_sum   'Li3 Y3 Si2 As1'
_cell_volume   179.73937641
_cell_formula_units_Z   1
loop_
 _symmetry_equiv_pos_site_id
 _symmetry_equiv_pos_as_xyz
  1  'x, y, z'
loop_
 _atom_site_type_symbol
 _atom_site_label
 _atom_site_symmetry_multiplicity
 _atom_site_fract_x
 _atom_site_fract_y
 _atom_site_fract_z
 _atom_site_occupancy
  Li  Li0  1  0.232212  0.000443  0.500000  1
  Li  Li1  1  0.768231  0.767788  0.500000  1
  Li  Li2  1  0.999557  0.231769  0.500000  1
  Y  Y3  1  0.993085  0.572310  0.000000  1
  Y  Y4  1  0.579225  0.006915  0.000000  1
  Y  Y5  1  0.427690  0.420775  0.000000  1
  Si  Si6  1  0.666667  0.333333  0.500000  1
  Si  Si7  1  0.000000  0.000000  0.000000  1
  As  As8  1  0.333333  0.666667  0.500000  1
