# generated using pymatgen
data_SmEu7P6
_symmetry_space_group_name_H-M   'P 1'
_cell_length_a   7.77293290
_cell_length_b   7.77293255
_cell_length_c   7.77293284
_cell_angle_alpha   109.59022065
_cell_angle_beta   109.59022015
_cell_angle_gamma   109.59021093
_symmetry_Int_Tables_number   1
_chemical_formula_structural   SmEu7P6
_chemical_formula_sum   'Sm1 Eu7 P6'
_cell_volume   359.91885580
_cell_formula_units_Z   1
loop_
 _symmetry_equiv_pos_site_id
 _symmetry_equiv_pos_as_xyz
  1  'x, y, z'
loop_
 _atom_site_type_symbol
 _atom_site_label
 _atom_site_symmetry_multiplicity
 _atom_site_fract_x
 _atom_site_fract_y
 _atom_site_fract_z
 _atom_site_occupancy
  Sm  Sm0  1  0.128074  0.128074  0.128074  1
  Eu  Eu1  1  0.500826  0.000635  0.868560  1
  Eu  Eu2  1  0.868560  0.500826  0.000635  1
  Eu  Eu3  1  0.000635  0.868560  0.500826  1
  Eu  Eu4  1  0.371472  0.502950  0.998480  1
  Eu  Eu5  1  0.998480  0.371472  0.502950  1
  Eu  Eu6  1  0.502950  0.998480  0.371472  1
  Eu  Eu7  1  0.629658  0.629658  0.629658  1
  P  P8  1  0.616326  0.370390  0.247191  1
  P  P9  1  0.247191  0.616326  0.370390  1
  P  P10  1  0.758030  0.881306  0.126102  1
  P  P11  1  0.126102  0.758030  0.881306  1
  P  P12  1  0.370390  0.247191  0.616326  1
  P  P13  1  0.881306  0.126102  0.758030  1
