# generated using pymatgen
data_Ba4DyOsO8
_symmetry_space_group_name_H-M   'P 1'
_cell_length_a   7.43346281
_cell_length_b   7.43346236
_cell_length_c   5.97363400
_cell_angle_alpha   90.00000000
_cell_angle_beta   90.00000000
_cell_angle_gamma   132.77102054
_symmetry_Int_Tables_number   1
_chemical_formula_structural   Ba4DyOsO8
_chemical_formula_sum   'Ba4 Dy1 Os1 O8'
_cell_volume   242.30391490
_cell_formula_units_Z   1
loop_
 _symmetry_equiv_pos_site_id
 _symmetry_equiv_pos_as_xyz
  1  'x, y, z'
loop_
 _atom_site_type_symbol
 _atom_site_label
 _atom_site_symmetry_multiplicity
 _atom_site_fract_x
 _atom_site_fract_y
 _atom_site_fract_z
 _atom_site_occupancy
  Ba  Ba0  1  0.354350  0.645650  0.000000  1
  Ba  Ba1  1  0.853224  0.146776  0.500000  1
  Ba  Ba2  1  0.146776  0.853224  0.500000  1
  Ba  Ba3  1  0.645650  0.354350  0.000000  1
  Dy  Dy4  1  0.000000  0.000000  0.000000  1
  Os  Os5  1  0.500000  0.500000  0.500000  1
  O  O6  1  0.262445  0.262445  0.732087  1
  O  O7  1  0.737555  0.737555  0.267913  1
  O  O8  1  0.737555  0.737555  0.732087  1
  O  O9  1  0.262445  0.262445  0.267913  1
  O  O10  1  0.165937  0.834063  0.000000  1
  O  O11  1  0.649361  0.350639  0.500000  1
  O  O12  1  0.350639  0.649361  0.500000  1
  O  O13  1  0.834063  0.165937  0.000000  1
