# generated using pymatgen
data_Ac10TeAs9
_symmetry_space_group_name_H-M   'P 1'
_cell_length_a   7.89955443
_cell_length_b   9.14622948
_cell_length_c   10.19987518
_cell_angle_alpha   102.93742736
_cell_angle_beta   97.40500626
_cell_angle_gamma   106.86611638
_symmetry_Int_Tables_number   1
_chemical_formula_structural   Ac10TeAs9
_chemical_formula_sum   'Ac10 Te1 As9'
_cell_volume   672.34200271
_cell_formula_units_Z   1
loop_
 _symmetry_equiv_pos_site_id
 _symmetry_equiv_pos_as_xyz
  1  'x, y, z'
loop_
 _atom_site_type_symbol
 _atom_site_label
 _atom_site_symmetry_multiplicity
 _atom_site_fract_x
 _atom_site_fract_y
 _atom_site_fract_z
 _atom_site_occupancy
  Ac  Ac0  1  0.901980  0.549105  0.799820  1
  Ac  Ac1  1  0.688187  0.155000  0.397093  1
  Ac  Ac2  1  0.501040  0.749802  0.001861  1
  Ac  Ac3  1  0.690226  0.637487  0.395132  1
  Ac  Ac4  1  0.309774  0.362513  0.604868  1
  Ac  Ac5  1  0.102275  0.945960  0.188274  1
  Ac  Ac6  1  0.498960  0.250198  0.998139  1
  Ac  Ac7  1  0.311813  0.845000  0.602907  1
  Ac  Ac8  1  0.098020  0.450895  0.200180  1
  Ac  Ac9  1  0.897725  0.054040  0.811726  1
  Te  Te10  1  0.000000  0.000000  0.500000  1
  As  As11  1  0.799704  0.600618  0.100714  1
  As  As12  1  0.599575  0.199456  0.699707  1
  As  As13  1  0.400425  0.800544  0.300293  1
  As  As14  1  0.799702  0.100168  0.103370  1
  As  As15  1  0.200296  0.399382  0.899286  1
  As  As16  1  0.605772  0.702117  0.701183  1
  As  As17  1  0.394228  0.297883  0.298817  1
  As  As18  1  0.200298  0.899832  0.896630  1
  As  As19  1  0.000000  0.500000  0.500000  1
