# generated using pymatgen
data_Yb(CoB)4
_symmetry_space_group_name_H-M   'P 1'
_cell_length_a   6.88798400
_cell_length_b   6.88798400
_cell_length_c   3.81665800
_cell_angle_alpha   90.00000000
_cell_angle_beta   90.00000000
_cell_angle_gamma   90.00000000
_symmetry_Int_Tables_number   1
_chemical_formula_structural   Yb(CoB)4
_chemical_formula_sum   'Yb2 Co8 B8'
_cell_volume   181.07875716
_cell_formula_units_Z   2
loop_
 _symmetry_equiv_pos_site_id
 _symmetry_equiv_pos_as_xyz
  1  'x, y, z'
loop_
 _atom_site_type_symbol
 _atom_site_label
 _atom_site_symmetry_multiplicity
 _atom_site_fract_x
 _atom_site_fract_y
 _atom_site_fract_z
 _atom_site_occupancy
  Yb  Yb0  1  0.000000  0.000000  0.000000  1
  Yb  Yb1  1  0.500000  0.500000  0.500000  1
  Co  Co2  1  0.864867  0.378347  0.111614  1
  Co  Co3  1  0.135133  0.621653  0.111614  1
  Co  Co4  1  0.878347  0.635133  0.611614  1
  Co  Co5  1  0.121653  0.364867  0.611614  1
  Co  Co6  1  0.635133  0.121653  0.388386  1
  Co  Co7  1  0.364867  0.878347  0.388386  1
  Co  Co8  1  0.621653  0.864867  0.888386  1
  Co  Co9  1  0.378347  0.135133  0.888386  1
  B  B10  1  0.335766  0.803649  0.892449  1
  B  B11  1  0.664234  0.196351  0.892449  1
  B  B12  1  0.303649  0.164234  0.392449  1
  B  B13  1  0.696351  0.835766  0.392449  1
  B  B14  1  0.164234  0.696351  0.607551  1
  B  B15  1  0.835766  0.303649  0.607551  1
  B  B16  1  0.196351  0.335766  0.107551  1
  B  B17  1  0.803649  0.664234  0.107551  1
