# generated using pymatgen
data_GdFe3CoAs12
_symmetry_space_group_name_H-M   'P 1'
_cell_length_a   7.10907033
_cell_length_b   7.13215854
_cell_length_c   7.13215900
_cell_angle_alpha   109.53671433
_cell_angle_beta   109.40565796
_cell_angle_gamma   109.40564992
_symmetry_Int_Tables_number   1
_chemical_formula_structural   GdFe3CoAs12
_chemical_formula_sum   'Gd1 Fe3 Co1 As12'
_cell_volume   278.60164269
_cell_formula_units_Z   1
loop_
 _symmetry_equiv_pos_site_id
 _symmetry_equiv_pos_as_xyz
  1  'x, y, z'
loop_
 _atom_site_type_symbol
 _atom_site_label
 _atom_site_symmetry_multiplicity
 _atom_site_fract_x
 _atom_site_fract_y
 _atom_site_fract_z
 _atom_site_occupancy
  Gd  Gd0  1  0.000000  0.000000  0.000000  1
  Fe  Fe1  1  0.000000  0.000000  0.500000  1
  Fe  Fe2  1  0.000000  0.500000  0.000000  1
  Fe  Fe3  1  0.500000  0.500000  0.500000  1
  Co  Co4  1  0.500000  0.000000  0.000000  1
  As  As5  1  0.153432  0.811091  0.655213  1
  As  As6  1  0.846568  0.188909  0.344787  1
  As  As7  1  0.657658  0.155876  0.811091  1
  As  As8  1  0.501781  0.655213  0.844124  1
  As  As9  1  0.658287  0.844103  0.502415  1
  As  As10  1  0.498219  0.344787  0.155876  1
  As  As11  1  0.342342  0.844124  0.188909  1
  As  As12  1  0.185815  0.341688  0.844103  1
  As  As13  1  0.814185  0.658312  0.155897  1
  As  As14  1  0.341713  0.155897  0.497585  1
  As  As15  1  0.844127  0.502415  0.658312  1
  As  As16  1  0.155873  0.497585  0.341688  1
