# generated using pymatgen
data_Pa4BiRh4Pb
_symmetry_space_group_name_H-M   'P 1'
_cell_length_a   7.81705100
_cell_length_b   7.81705100
_cell_length_c   3.59309900
_cell_angle_alpha   90.00000000
_cell_angle_beta   90.00000000
_cell_angle_gamma   90.00000000
_symmetry_Int_Tables_number   1
_chemical_formula_structural   Pa4BiRh4Pb
_chemical_formula_sum   'Pa4 Bi1 Rh4 Pb1'
_cell_volume   219.56093633
_cell_formula_units_Z   1
loop_
 _symmetry_equiv_pos_site_id
 _symmetry_equiv_pos_as_xyz
  1  'x, y, z'
loop_
 _atom_site_type_symbol
 _atom_site_label
 _atom_site_symmetry_multiplicity
 _atom_site_fract_x
 _atom_site_fract_y
 _atom_site_fract_z
 _atom_site_occupancy
  Pa  Pa0  1  0.331509  0.170409  0.500001  1
  Pa  Pa1  1  0.829591  0.331509  0.500001  1
  Pa  Pa2  1  0.170409  0.668491  0.500001  1
  Pa  Pa3  1  0.668491  0.829591  0.500001  1
  Bi  Bi4  1  0.000000  0.000000  0.000000  1
  Rh  Rh5  1  0.630060  0.131111  0.000000  1
  Rh  Rh6  1  0.131111  0.369939  0.000000  1
  Rh  Rh7  1  0.868890  0.630060  0.000000  1
  Rh  Rh8  1  0.369939  0.868890  0.000000  1
  Pb  Pb9  1  0.500001  0.500001  0.000000  1
