# generated using pymatgen
data_Pr5Nd5B2Br15
_symmetry_space_group_name_H-M   'P 1'
_cell_length_a   9.45897898
_cell_length_b   10.25522153
_cell_length_c   11.09794674
_cell_angle_alpha   90.96694562
_cell_angle_beta   114.57652580
_cell_angle_gamma   110.91838296
_symmetry_Int_Tables_number   1
_chemical_formula_structural   Pr5Nd5B2Br15
_chemical_formula_sum   'Pr5 Nd5 B2 Br15'
_cell_volume   896.99326256
_cell_formula_units_Z   1
loop_
 _symmetry_equiv_pos_site_id
 _symmetry_equiv_pos_as_xyz
  1  'x, y, z'
loop_
 _atom_site_type_symbol
 _atom_site_label
 _atom_site_symmetry_multiplicity
 _atom_site_fract_x
 _atom_site_fract_y
 _atom_site_fract_z
 _atom_site_occupancy
  Pr  Pr0  1  0.802972  0.411375  0.277141  1
  Pr  Pr1  1  0.196859  0.588672  0.722491  1
  Pr  Pr2  1  0.676109  0.745656  0.820107  1
  Pr  Pr3  1  0.323899  0.254333  0.179704  1
  Pr  Pr4  1  0.526037  0.703442  0.097106  1
  Nd  Nd5  1  0.474302  0.295765  0.903779  1
  Nd  Nd6  1  0.586466  0.039116  0.325187  1
  Nd  Nd7  1  0.413270  0.960968  0.674424  1
  Nd  Nd8  1  0.725275  0.075488  0.048568  1
  Nd  Nd9  1  0.274747  0.924755  0.951424  1
  B  B10  1  0.466540  0.819841  0.875279  1
  B  B11  1  0.533081  0.180645  0.123490  1
  Br  Br12  1  0.999978  0.000005  0.999976  1
  Br  Br13  1  0.636401  0.883932  0.583612  1
  Br  Br14  1  0.363636  0.116170  0.416322  1
  Br  Br15  1  0.882008  0.297130  0.527595  1
  Br  Br16  1  0.117946  0.702885  0.472299  1
  Br  Br17  1  0.289614  0.763861  0.179896  1
  Br  Br18  1  0.708939  0.236824  0.820498  1
  Br  Br19  1  0.054750  0.342027  0.225972  1
  Br  Br20  1  0.165414  0.057514  0.704189  1
  Br  Br21  1  0.836444  0.944306  0.297017  1
  Br  Br22  1  0.230872  0.409104  0.943291  1
  Br  Br23  1  0.768797  0.588970  0.055511  1
  Br  Br24  1  0.408264  0.462045  0.660114  1
  Br  Br25  1  0.592072  0.537156  0.340974  1
  Br  Br26  1  0.945309  0.658017  0.774032  1
