# generated using pymatgen
data_Tb7Lu3(PPb3)2
_symmetry_space_group_name_H-M   'P 1'
_cell_length_a   9.15146600
_cell_length_b   9.15146733
_cell_length_c   6.76613300
_cell_angle_alpha   90.00000000
_cell_angle_beta   90.00000000
_cell_angle_gamma   120.00000241
_symmetry_Int_Tables_number   1
_chemical_formula_structural   Tb7Lu3(PPb3)2
_chemical_formula_sum   'Tb7 Lu3 P2 Pb6'
_cell_volume   490.74123987
_cell_formula_units_Z   1
loop_
 _symmetry_equiv_pos_site_id
 _symmetry_equiv_pos_as_xyz
  1  'x, y, z'
loop_
 _atom_site_type_symbol
 _atom_site_label
 _atom_site_symmetry_multiplicity
 _atom_site_fract_x
 _atom_site_fract_y
 _atom_site_fract_z
 _atom_site_occupancy
  Tb  Tb0  1  0.239045  0.000424  0.249687  1
  Tb  Tb1  1  0.761379  0.000424  0.750313  1
  Tb  Tb2  1  0.999576  0.238621  0.249687  1
  Tb  Tb3  1  0.333333  0.666667  0.500000  1
  Tb  Tb4  1  0.999576  0.760955  0.750313  1
  Tb  Tb5  1  0.239045  0.238621  0.750313  1
  Tb  Tb6  1  0.761379  0.760955  0.249687  1
  Lu  Lu7  1  0.666667  0.333333  0.500000  1
  Lu  Lu8  1  0.666667  0.333333  0.000000  1
  Lu  Lu9  1  0.333333  0.666667  0.000000  1
  P  P10  1  0.000000  0.000000  0.000000  1
  P  P11  1  0.000000  0.000000  0.500000  1
  Pb  Pb12  1  0.401654  0.001336  0.750977  1
  Pb  Pb13  1  0.998664  0.400318  0.750977  1
  Pb  Pb14  1  0.401654  0.400318  0.249023  1
  Pb  Pb15  1  0.599682  0.001336  0.249023  1
  Pb  Pb16  1  0.998664  0.598346  0.249023  1
  Pb  Pb17  1  0.599682  0.598346  0.750977  1
