# generated using pymatgen
data_Lu3ZrAl18Ir5Pt
_symmetry_space_group_name_H-M   'P 1'
_cell_length_a   7.52833736
_cell_length_b   7.51943687
_cell_length_c   9.36886813
_cell_angle_alpha   89.95778975
_cell_angle_beta   89.98864673
_cell_angle_gamma   119.65901977
_symmetry_Int_Tables_number   1
_chemical_formula_structural   Lu3ZrAl18Ir5Pt
_chemical_formula_sum   'Lu3 Zr1 Al18 Ir5 Pt1'
_cell_volume   460.87581512
_cell_formula_units_Z   1
loop_
 _symmetry_equiv_pos_site_id
 _symmetry_equiv_pos_as_xyz
  1  'x, y, z'
loop_
 _atom_site_type_symbol
 _atom_site_label
 _atom_site_symmetry_multiplicity
 _atom_site_fract_x
 _atom_site_fract_y
 _atom_site_fract_z
 _atom_site_occupancy
  Lu  Lu0  1  0.005775  0.327568  0.749199  1
  Lu  Lu1  1  0.671186  0.994835  0.250607  1
  Lu  Lu2  1  0.328357  0.005584  0.749171  1
  Zr  Zr3  1  0.994105  0.670080  0.249956  1
  Al  Al4  1  0.125680  0.122771  0.250416  1
  Al  Al5  1  0.871639  0.869598  0.749764  1
  Al  Al6  1  0.002837  0.337485  0.080091  1
  Al  Al7  1  0.003590  0.668872  0.927467  1
  Al  Al8  1  0.000421  0.664656  0.570659  1
  Al  Al9  1  0.333009  0.997576  0.421383  1
  Al  Al10  1  0.999863  0.337103  0.421120  1
  Al  Al11  1  0.664674  0.999220  0.575666  1
  Al  Al12  1  0.664849  0.996300  0.923346  1
  Al  Al13  1  0.328840  0.994611  0.080492  1
  Al  Al14  1  0.333233  0.333184  0.553488  1
  Al  Al15  1  0.669551  0.667887  0.442215  1
  Al  Al16  1  0.668975  0.670279  0.060696  1
  Al  Al17  1  0.330708  0.334148  0.943967  1
  Al  Al18  1  0.336439  0.550660  0.250501  1
  Al  Al19  1  0.661734  0.453757  0.747700  1
  Al  Al20  1  0.552690  0.343142  0.252206  1
  Al  Al21  1  0.450445  0.659961  0.749631  1
  Ir  Ir22  1  0.328673  0.672898  0.000560  1
  Ir  Ir23  1  0.328482  0.672656  0.499534  1
  Ir  Ir24  1  0.672186  0.326840  0.500157  1
  Ir  Ir25  1  0.999736  0.001200  0.999703  1
  Ir  Ir26  1  0.000046  0.000571  0.500386  1
  Pt  Pt27  1  0.672274  0.326560  0.999918  1
