# generated using pymatgen
data_Nb4Al2B4IrRu9
_symmetry_space_group_name_H-M   'P 1'
_cell_length_a   9.35325403
_cell_length_b   9.32628904
_cell_length_c   2.98850600
_cell_angle_alpha   90.00000000
_cell_angle_beta   90.00000000
_cell_angle_gamma   90.09236273
_symmetry_Int_Tables_number   1
_chemical_formula_structural   Nb4Al2B4IrRu9
_chemical_formula_sum   'Nb4 Al2 B4 Ir1 Ru9'
_cell_volume   260.69047801
_cell_formula_units_Z   1
loop_
 _symmetry_equiv_pos_site_id
 _symmetry_equiv_pos_as_xyz
  1  'x, y, z'
loop_
 _atom_site_type_symbol
 _atom_site_label
 _atom_site_symmetry_multiplicity
 _atom_site_fract_x
 _atom_site_fract_y
 _atom_site_fract_z
 _atom_site_occupancy
  Nb  Nb0  1  0.826554  0.676193  0.000000  1
  Nb  Nb1  1  0.177991  0.322594  0.000000  1
  Nb  Nb2  1  0.318752  0.824083  0.000000  1
  Nb  Nb3  1  0.676983  0.178625  0.000000  1
  Al  Al4  1  0.498943  0.496440  0.000000  1
  Al  Al5  1  0.000151  0.000390  0.000000  1
  B  B6  1  0.625970  0.879535  0.000000  1
  B  B7  1  0.374421  0.124889  0.000000  1
  B  B8  1  0.124848  0.624499  0.000000  1
  B  B9  1  0.875092  0.375503  0.000000  1
  Ir  Ir10  1  0.568086  0.714281  0.500000  1
  Ru  Ru11  1  0.431637  0.283169  0.500000  1
  Ru  Ru12  1  0.067214  0.785014  0.500000  1
  Ru  Ru13  1  0.931456  0.215265  0.500000  1
  Ru  Ru14  1  0.285222  0.568976  0.500000  1
  Ru  Ru15  1  0.715737  0.433815  0.500000  1
  Ru  Ru16  1  0.215091  0.067710  0.500000  1
  Ru  Ru17  1  0.784704  0.930936  0.500000  1
  Ru  Ru18  1  0.499626  0.998885  0.500000  1
  Ru  Ru19  1  0.001522  0.499196  0.500000  1
