# generated using pymatgen
data_Ba7Ca13Ag16
_symmetry_space_group_name_H-M   'P 1'
_cell_length_a   8.41824042
_cell_length_b   8.49547567
_cell_length_c   15.99383500
_cell_angle_alpha   89.90466970
_cell_angle_beta   89.87694477
_cell_angle_gamma   89.91227504
_symmetry_Int_Tables_number   1
_chemical_formula_structural   Ba7Ca13Ag16
_chemical_formula_sum   'Ba7 Ca13 Ag16'
_cell_volume   1143.82484838
_cell_formula_units_Z   1
loop_
 _symmetry_equiv_pos_site_id
 _symmetry_equiv_pos_as_xyz
  1  'x, y, z'
loop_
 _atom_site_type_symbol
 _atom_site_label
 _atom_site_symmetry_multiplicity
 _atom_site_fract_x
 _atom_site_fract_y
 _atom_site_fract_z
 _atom_site_occupancy
  Ba  Ba0  1  0.988503  0.173733  0.598854  1
  Ba  Ba1  1  0.511441  0.675045  0.402231  1
  Ba  Ba2  1  0.012825  0.826581  0.095967  1
  Ba  Ba3  1  0.512343  0.670192  0.093557  1
  Ba  Ba4  1  0.011376  0.827129  0.402652  1
  Ba  Ba5  1  0.488705  0.327493  0.598223  1
  Ba  Ba6  1  0.986843  0.173919  0.903629  1
  Ca  Ca7  1  0.326439  0.831537  0.875984  1
  Ca  Ca8  1  0.825166  0.667810  0.626014  1
  Ca  Ca9  1  0.673521  0.168429  0.375672  1
  Ca  Ca10  1  0.175272  0.331351  0.122826  1
  Ca  Ca11  1  0.671347  0.171683  0.120570  1
  Ca  Ca12  1  0.172322  0.330790  0.376243  1
  Ca  Ca13  1  0.327915  0.831210  0.625576  1
  Ca  Ca14  1  0.822660  0.666176  0.877792  1
  Ca  Ca15  1  0.483200  0.319548  0.898558  1
  Ca  Ca16  1  0.159997  0.497762  0.751897  1
  Ca  Ca17  1  0.657470  0.002233  0.751516  1
  Ca  Ca18  1  0.842417  0.500247  0.249061  1
  Ca  Ca19  1  0.342064  0.999305  0.248854  1
  Ag  Ag20  1  0.350514  0.044921  0.040178  1
  Ag  Ag21  1  0.848166  0.460409  0.457299  1
  Ag  Ag22  1  0.651752  0.960608  0.543591  1
  Ag  Ag23  1  0.163469  0.533243  0.954523  1
  Ag  Ag24  1  0.646493  0.971686  0.953074  1
  Ag  Ag25  1  0.150680  0.540177  0.543956  1
  Ag  Ag26  1  0.348773  0.039453  0.456861  1
  Ag  Ag27  1  0.852280  0.460311  0.043317  1
  Ag  Ag28  1  0.527975  0.619365  0.754239  1
  Ag  Ag29  1  0.030899  0.875774  0.751596  1
  Ag  Ag30  1  0.469586  0.374487  0.250116  1
  Ag  Ag31  1  0.969235  0.125061  0.248961  1
  Ag  Ag32  1  0.284496  0.124867  0.753466  1
  Ag  Ag33  1  0.773965  0.377380  0.754186  1
  Ag  Ag34  1  0.719510  0.880665  0.248933  1
  Ag  Ag35  1  0.220381  0.619420  0.250029  1
