# generated using pymatgen
data_Y7Er(Ge4Mo3)4
_symmetry_space_group_name_H-M   'P 1'
_cell_length_a   6.94339029
_cell_length_b   7.06088377
_cell_length_c   13.14685215
_cell_angle_alpha   89.89901336
_cell_angle_beta   89.99874935
_cell_angle_gamma   89.98986632
_symmetry_Int_Tables_number   1
_chemical_formula_structural   Y7Er(Ge4Mo3)4
_chemical_formula_sum   'Y7 Er1 Ge16 Mo12'
_cell_volume   644.54276464
_cell_formula_units_Z   1
loop_
 _symmetry_equiv_pos_site_id
 _symmetry_equiv_pos_as_xyz
  1  'x, y, z'
loop_
 _atom_site_type_symbol
 _atom_site_label
 _atom_site_symmetry_multiplicity
 _atom_site_fract_x
 _atom_site_fract_y
 _atom_site_fract_z
 _atom_site_occupancy
  Y  Y0  1  0.489586  0.330389  0.092189  1
  Y  Y1  1  0.989718  0.169504  0.407842  1
  Y  Y2  1  0.510702  0.669494  0.592187  1
  Y  Y3  1  0.010366  0.830523  0.908305  1
  Y  Y4  1  0.510237  0.669806  0.908269  1
  Y  Y5  1  0.010496  0.830251  0.592151  1
  Y  Y6  1  0.489258  0.330544  0.407417  1
  Er  Er7  1  0.988524  0.170139  0.092390  1
  Ge  Ge8  1  0.668975  0.047654  0.548449  1
  Ge  Ge9  1  0.168676  0.451934  0.951973  1
  Ge  Ge10  1  0.329317  0.953784  0.048637  1
  Ge  Ge11  1  0.830917  0.547277  0.451425  1
  Ge  Ge12  1  0.331161  0.952453  0.451441  1
  Ge  Ge13  1  0.831283  0.546321  0.048504  1
  Ge  Ge14  1  0.669538  0.047578  0.951914  1
  Ge  Ge15  1  0.169195  0.452501  0.548433  1
  Ge  Ge16  1  0.530132  0.366231  0.750166  1
  Ge  Ge17  1  0.030077  0.133462  0.750030  1
  Ge  Ge18  1  0.470141  0.633934  0.249766  1
  Ge  Ge19  1  0.970257  0.867346  0.249477  1
  Ge  Ge20  1  0.810940  0.643747  0.750326  1
  Ge  Ge21  1  0.310842  0.855904  0.750151  1
  Ge  Ge22  1  0.188452  0.355114  0.249299  1
  Ge  Ge23  1  0.689905  0.144229  0.249711  1
  Mo  Mo24  1  0.830415  0.344699  0.627323  1
  Mo  Mo25  1  0.330048  0.155166  0.872989  1
  Mo  Mo26  1  0.169870  0.655177  0.127112  1
  Mo  Mo27  1  0.670075  0.844905  0.372593  1
  Mo  Mo28  1  0.169620  0.655168  0.372407  1
  Mo  Mo29  1  0.670461  0.845382  0.126898  1
  Mo  Mo30  1  0.830488  0.344323  0.873176  1
  Mo  Mo31  1  0.330359  0.155127  0.627227  1
  Mo  Mo32  1  0.666136  0.005928  0.750180  1
  Mo  Mo33  1  0.166240  0.493790  0.750170  1
  Mo  Mo34  1  0.333678  0.994446  0.249753  1
  Mo  Mo35  1  0.833911  0.505766  0.249722  1
