# generated using pymatgen
data_Ca2Nd18Si15As
_symmetry_space_group_name_H-M   'P 1'
_cell_length_a   7.93515080
_cell_length_b   7.92938137
_cell_length_c   15.27710700
_cell_angle_alpha   89.98340244
_cell_angle_beta   89.63866198
_cell_angle_gamma   89.99425212
_symmetry_Int_Tables_number   1
_chemical_formula_structural   Ca2Nd18Si15As
_chemical_formula_sum   'Ca2 Nd18 Si15 As1'
_cell_volume   961.22919775
_cell_formula_units_Z   1
loop_
 _symmetry_equiv_pos_site_id
 _symmetry_equiv_pos_as_xyz
  1  'x, y, z'
loop_
 _atom_site_type_symbol
 _atom_site_label
 _atom_site_symmetry_multiplicity
 _atom_site_fract_x
 _atom_site_fract_y
 _atom_site_fract_z
 _atom_site_occupancy
  Ca  Ca0  1  0.311157  0.310634  0.000448  1
  Ca  Ca1  1  0.189387  0.809584  0.250262  1
  Nd  Nd2  1  0.804925  0.192260  0.749962  1
  Nd  Nd3  1  0.688183  0.692129  0.499254  1
  Nd  Nd4  1  0.381256  0.008953  0.444296  1
  Nd  Nd5  1  0.490840  0.876184  0.698056  1
  Nd  Nd6  1  0.509713  0.120457  0.196308  1
  Nd  Nd7  1  0.875312  0.490015  0.301849  1
  Nd  Nd8  1  0.121089  0.510964  0.804861  1
  Nd  Nd9  1  0.624948  0.989817  0.948057  1
  Nd  Nd10  1  0.006840  0.377983  0.550547  1
  Nd  Nd11  1  0.990135  0.619786  0.053804  1
  Nd  Nd12  1  0.128164  0.984157  0.876265  1
  Nd  Nd13  1  0.515660  0.627072  0.126160  1
  Nd  Nd14  1  0.480086  0.373665  0.627649  1
  Nd  Nd15  1  0.628275  0.517285  0.874102  1
  Nd  Nd16  1  0.374268  0.480702  0.373753  1
  Nd  Nd17  1  0.872852  0.016875  0.376588  1
  Nd  Nd18  1  0.984613  0.126759  0.123653  1
  Nd  Nd19  1  0.018665  0.872399  0.622969  1
  Si  Si20  1  0.331482  0.698719  0.951583  1
  Si  Si21  1  0.667832  0.305414  0.452367  1
  Si  Si22  1  0.700495  0.333788  0.050005  1
  Si  Si23  1  0.304749  0.668196  0.548168  1
  Si  Si24  1  0.801027  0.833272  0.200497  1
  Si  Si25  1  0.166638  0.199226  0.298121  1
  Si  Si26  1  0.834996  0.804789  0.798271  1
  Si  Si27  1  0.286732  0.918550  0.060028  1
  Si  Si28  1  0.580620  0.787750  0.309266  1
  Si  Si29  1  0.431815  0.209649  0.814143  1
  Si  Si30  1  0.789631  0.577738  0.689525  1
  Si  Si31  1  0.212869  0.418880  0.189839  1
  Si  Si32  1  0.708633  0.076056  0.560248  1
  Si  Si33  1  0.920949  0.287827  0.940329  1
  Si  Si34  1  0.077292  0.710737  0.440021  1
  As  As35  1  0.187868  0.171728  0.698746  1
