# generated using pymatgen
data_Sc11Os2RuPt
_symmetry_space_group_name_H-M   'P 1'
_cell_length_a   9.52056604
_cell_length_b   9.50796851
_cell_length_c   9.47592140
_cell_angle_alpha   60.12054656
_cell_angle_beta   60.06719518
_cell_angle_gamma   59.73349278
_symmetry_Int_Tables_number   1
_chemical_formula_structural   Sc11Os2RuPt
_chemical_formula_sum   'Sc22 Os4 Ru2 Pt2'
_cell_volume   606.15918311
_cell_formula_units_Z   2
loop_
 _symmetry_equiv_pos_site_id
 _symmetry_equiv_pos_as_xyz
  1  'x, y, z'
loop_
 _atom_site_type_symbol
 _atom_site_label
 _atom_site_symmetry_multiplicity
 _atom_site_fract_x
 _atom_site_fract_y
 _atom_site_fract_z
 _atom_site_occupancy
  Sc  Sc0  1  0.802556  0.804035  0.195965  1
  Sc  Sc1  1  0.197192  0.804380  0.195620  1
  Sc  Sc2  1  0.803236  0.196764  0.196764  1
  Sc  Sc3  1  0.197444  0.195965  0.804035  1
  Sc  Sc4  1  0.802808  0.195620  0.804380  1
  Sc  Sc5  1  0.196764  0.803236  0.803236  1
  Sc  Sc6  1  0.618608  0.618223  0.150062  1
  Sc  Sc7  1  0.613110  0.150062  0.618223  1
  Sc  Sc8  1  0.150401  0.613394  0.619108  1
  Sc  Sc9  1  0.617099  0.619108  0.613394  1
  Sc  Sc10  1  0.381392  0.381777  0.849938  1
  Sc  Sc11  1  0.386890  0.849938  0.381777  1
  Sc  Sc12  1  0.849599  0.386606  0.380892  1
  Sc  Sc13  1  0.382901  0.380892  0.386606  1
  Sc  Sc14  1  0.841161  0.840585  0.470838  1
  Sc  Sc15  1  0.847413  0.470838  0.840585  1
  Sc  Sc16  1  0.470612  0.847673  0.840756  1
  Sc  Sc17  1  0.840956  0.840756  0.847673  1
  Sc  Sc18  1  0.158839  0.159415  0.529162  1
  Sc  Sc19  1  0.152587  0.529162  0.159415  1
  Sc  Sc20  1  0.529388  0.152327  0.159244  1
  Sc  Sc21  1  0.159044  0.159244  0.152327  1
  Os  Os22  1  0.500000  0.500000  0.500000  1
  Os  Os23  1  0.500000  0.000000  0.500000  1
  Os  Os24  1  0.000000  0.500000  0.000000  1
  Os  Os25  1  0.500000  0.000000  0.000000  1
  Ru  Ru26  1  0.000000  0.000000  0.000000  1
  Ru  Ru27  1  0.000000  0.500000  0.500000  1
  Pt  Pt28  1  0.000000  0.000000  0.500000  1
  Pt  Pt29  1  0.500000  0.500000  0.000000  1
