# generated using pymatgen
data_Ce2EuHo(NiP)4
_symmetry_space_group_name_H-M   'P 1'
_cell_length_a   3.95098849
_cell_length_b   3.94660804
_cell_length_c   15.67353100
_cell_angle_alpha   90.00000000
_cell_angle_beta   90.00000000
_cell_angle_gamma   119.97988929
_symmetry_Int_Tables_number   1
_chemical_formula_structural   Ce2EuHo(NiP)4
_chemical_formula_sum   'Ce2 Eu1 Ho1 Ni4 P4'
_cell_volume   211.69724839
_cell_formula_units_Z   1
loop_
 _symmetry_equiv_pos_site_id
 _symmetry_equiv_pos_as_xyz
  1  'x, y, z'
loop_
 _atom_site_type_symbol
 _atom_site_label
 _atom_site_symmetry_multiplicity
 _atom_site_fract_x
 _atom_site_fract_y
 _atom_site_fract_z
 _atom_site_occupancy
  Ce  Ce0  1  0.999995  0.999986  0.499820  1
  Ce  Ce1  1  0.999995  0.999986  0.000180  1
  Eu  Eu2  1  0.000181  0.000220  0.250000  1
  Ho  Ho3  1  0.999918  0.999927  0.750000  1
  Ni  Ni4  1  0.332869  0.666340  0.373643  1
  Ni  Ni5  1  0.667086  0.333611  0.630611  1
  Ni  Ni6  1  0.667086  0.333611  0.869389  1
  Ni  Ni7  1  0.332869  0.666340  0.126357  1
  P  P8  1  0.333195  0.666561  0.874555  1
  P  P9  1  0.666806  0.333429  0.122674  1
  P  P10  1  0.666806  0.333429  0.377326  1
  P  P11  1  0.333195  0.666561  0.625445  1
