# generated using pymatgen
data_Tb4ErIn2(HgPd)2
_symmetry_space_group_name_H-M   'P 1'
_cell_length_a   3.64174500
_cell_length_b   8.04593821
_cell_length_c   18.36760944
_cell_angle_alpha   89.97439768
_cell_angle_beta   90.00000000
_cell_angle_gamma   90.00000000
_symmetry_Int_Tables_number   1
_chemical_formula_structural   Tb4ErIn2(HgPd)2
_chemical_formula_sum   'Tb8 Er2 In4 Hg4 Pd4'
_cell_volume   538.19395867
_cell_formula_units_Z   2
loop_
 _symmetry_equiv_pos_site_id
 _symmetry_equiv_pos_as_xyz
  1  'x, y, z'
loop_
 _atom_site_type_symbol
 _atom_site_label
 _atom_site_symmetry_multiplicity
 _atom_site_fract_x
 _atom_site_fract_y
 _atom_site_fract_z
 _atom_site_occupancy
  Tb  Tb0  1  0.000000  0.500000  0.500000  1
  Tb  Tb1  1  0.000000  0.000000  0.000000  1
  Tb  Tb2  1  0.000000  0.743047  0.285271  1
  Tb  Tb3  1  0.000000  0.256953  0.714729  1
  Tb  Tb4  1  0.000000  0.757421  0.783764  1
  Tb  Tb5  1  0.000000  0.242579  0.216236  1
  Tb  Tb6  1  0.000000  0.609469  0.083613  1
  Tb  Tb7  1  0.000000  0.390531  0.916387  1
  Er  Er8  1  0.000000  0.891146  0.583400  1
  Er  Er9  1  0.000000  0.108854  0.416600  1
  In  In10  1  0.500000  0.583118  0.648903  1
  In  In11  1  0.500000  0.416882  0.351097  1
  In  In12  1  0.500000  0.918884  0.150193  1
  In  In13  1  0.500000  0.081116  0.849807  1
  Hg  Hg14  1  0.500000  0.713584  0.932712  1
  Hg  Hg15  1  0.500000  0.286416  0.067288  1
  Hg  Hg16  1  0.500000  0.790083  0.434663  1
  Hg  Hg17  1  0.500000  0.209917  0.565337  1
  Pd  Pd18  1  0.500000  0.530578  0.198407  1
  Pd  Pd19  1  0.500000  0.469422  0.801593  1
  Pd  Pd20  1  0.500000  0.968772  0.696494  1
  Pd  Pd21  1  0.500000  0.031228  0.303506  1
