# generated using pymatgen
data_Zr6Al13Fe7W3
_symmetry_space_group_name_H-M   'P 1'
_cell_length_a   8.57612728
_cell_length_b   8.57612612
_cell_length_c   8.57612728
_cell_angle_alpha   59.80857282
_cell_angle_beta   59.80857838
_cell_angle_gamma   59.80857385
_symmetry_Int_Tables_number   1
_chemical_formula_structural   Zr6Al13Fe7W3
_chemical_formula_sum   'Zr6 Al13 Fe7 W3'
_cell_volume   444.08627787
_cell_formula_units_Z   1
loop_
 _symmetry_equiv_pos_site_id
 _symmetry_equiv_pos_as_xyz
  1  'x, y, z'
loop_
 _atom_site_type_symbol
 _atom_site_label
 _atom_site_symmetry_multiplicity
 _atom_site_fract_x
 _atom_site_fract_y
 _atom_site_fract_z
 _atom_site_occupancy
  Zr  Zr0  1  0.701606  0.300864  0.300864  1
  Zr  Zr1  1  0.699670  0.299271  0.699670  1
  Zr  Zr2  1  0.699670  0.699670  0.299271  1
  Zr  Zr3  1  0.299271  0.699670  0.699670  1
  Zr  Zr4  1  0.300864  0.701606  0.300864  1
  Zr  Zr5  1  0.300864  0.300864  0.701606  1
  Al  Al6  1  0.118747  0.118747  0.118747  1
  Al  Al7  1  0.356796  0.881961  0.881961  1
  Al  Al8  1  0.881961  0.356796  0.881961  1
  Al  Al9  1  0.881961  0.881961  0.356796  1
  Al  Al10  1  0.879538  0.879538  0.879538  1
  Al  Al11  1  0.994712  0.333601  0.333601  1
  Al  Al12  1  0.333601  0.994712  0.333601  1
  Al  Al13  1  0.333601  0.333601  0.994712  1
  Al  Al14  1  0.337554  0.337554  0.337554  1
  Al  Al15  1  0.002091  0.665323  0.665323  1
  Al  Al16  1  0.665323  0.002091  0.665323  1
  Al  Al17  1  0.665323  0.665323  0.002091  1
  Al  Al18  1  0.665750  0.665750  0.665750  1
  Fe  Fe19  1  0.995278  0.995278  0.995278  1
  Fe  Fe20  1  0.506247  0.002846  0.002846  1
  Fe  Fe21  1  0.494749  0.003616  0.494749  1
  Fe  Fe22  1  0.494749  0.494749  0.003616  1
  Fe  Fe23  1  0.003616  0.494749  0.494749  1
  Fe  Fe24  1  0.002846  0.506247  0.002846  1
  Fe  Fe25  1  0.002846  0.002846  0.506247  1
  W  W26  1  0.640069  0.120349  0.120349  1
  W  W27  1  0.120349  0.640069  0.120349  1
  W  W28  1  0.120349  0.120349  0.640069  1
