# generated using pymatgen
data_Lu3Sc2Ga3
_symmetry_space_group_name_H-M   'P 1'
_cell_length_a   8.35701081
_cell_length_b   8.35701115
_cell_length_c   6.04546936
_cell_angle_alpha   88.98759899
_cell_angle_beta   91.01240822
_cell_angle_gamma   59.98374887
_symmetry_Int_Tables_number   1
_chemical_formula_structural   Lu3Sc2Ga3
_chemical_formula_sum   'Lu6 Sc4 Ga6'
_cell_volume   365.35915340
_cell_formula_units_Z   2
loop_
 _symmetry_equiv_pos_site_id
 _symmetry_equiv_pos_as_xyz
  1  'x, y, z'
loop_
 _atom_site_type_symbol
 _atom_site_label
 _atom_site_symmetry_multiplicity
 _atom_site_fract_x
 _atom_site_fract_y
 _atom_site_fract_z
 _atom_site_occupancy
  Lu  Lu0  1  0.256449  0.502599  0.752289  1
  Lu  Lu1  1  0.502598  0.256450  0.247711  1
  Lu  Lu2  1  0.743550  0.497402  0.247711  1
  Lu  Lu3  1  0.497401  0.743551  0.752289  1
  Lu  Lu4  1  0.736135  0.263865  0.745854  1
  Lu  Lu5  1  0.263864  0.736136  0.254146  1
  Sc  Sc6  1  0.818955  0.818956  0.500001  1
  Sc  Sc7  1  0.181044  0.181045  0.500001  1
  Sc  Sc8  1  0.849199  0.849199  0.000000  1
  Sc  Sc9  1  0.150801  0.150801  0.000000  1
  Ga  Ga10  1  0.908495  0.091505  0.301733  1
  Ga  Ga11  1  0.091504  0.908496  0.698267  1
  Ga  Ga12  1  0.904971  0.500615  0.780900  1
  Ga  Ga13  1  0.500615  0.904970  0.219100  1
  Ga  Ga14  1  0.095029  0.499384  0.219100  1
  Ga  Ga15  1  0.499384  0.095029  0.780900  1
