# generated using pymatgen
data_TbDy3Mn16(CoP3)4
_symmetry_space_group_name_H-M   'P 1'
_cell_length_a   3.60303500
_cell_length_b   10.54706401
_cell_length_c   12.17788301
_cell_angle_alpha   89.99630866
_cell_angle_beta   90.00000000
_cell_angle_gamma   90.00000000
_symmetry_Int_Tables_number   1
_chemical_formula_structural   TbDy3Mn16(CoP3)4
_chemical_formula_sum   'Tb1 Dy3 Mn16 Co4 P12'
_cell_volume   462.77709867
_cell_formula_units_Z   1
loop_
 _symmetry_equiv_pos_site_id
 _symmetry_equiv_pos_as_xyz
  1  'x, y, z'
loop_
 _atom_site_type_symbol
 _atom_site_label
 _atom_site_symmetry_multiplicity
 _atom_site_fract_x
 _atom_site_fract_y
 _atom_site_fract_z
 _atom_site_occupancy
  Tb  Tb0  1  0.750000  0.084249  0.792114  1
  Dy  Dy1  1  0.250000  0.584230  0.707830  1
  Dy  Dy2  1  0.250000  0.915738  0.207841  1
  Dy  Dy3  1  0.750000  0.415778  0.292152  1
  Mn  Mn4  1  0.250000  0.712118  0.988200  1
  Mn  Mn5  1  0.250000  0.787861  0.488201  1
  Mn  Mn6  1  0.750000  0.287904  0.011839  1
  Mn  Mn7  1  0.750000  0.212121  0.511832  1
  Mn  Mn8  1  0.250000  0.407171  0.492817  1
  Mn  Mn9  1  0.250000  0.092839  0.993013  1
  Mn  Mn10  1  0.750000  0.592838  0.507197  1
  Mn  Mn11  1  0.750000  0.907100  0.007244  1
  Mn  Mn12  1  0.250000  0.216612  0.176314  1
  Mn  Mn13  1  0.250000  0.283571  0.676232  1
  Mn  Mn14  1  0.750000  0.783298  0.823689  1
  Mn  Mn15  1  0.750000  0.716574  0.323681  1
  Mn  Mn16  1  0.250000  0.878242  0.697623  1
  Mn  Mn17  1  0.250000  0.621570  0.197701  1
  Mn  Mn18  1  0.750000  0.121601  0.302295  1
  Mn  Mn19  1  0.750000  0.378592  0.802301  1
  Co  Co20  1  0.250000  0.464708  0.933917  1
  Co  Co21  1  0.250000  0.035338  0.433866  1
  Co  Co22  1  0.750000  0.535348  0.066117  1
  Co  Co23  1  0.750000  0.964591  0.565993  1
  P  P24  1  0.250000  0.420342  0.111702  1
  P  P25  1  0.250000  0.079650  0.611396  1
  P  P26  1  0.750000  0.579694  0.888310  1
  P  P27  1  0.750000  0.920324  0.388309  1
  P  P28  1  0.250000  0.266917  0.872073  1
  P  P29  1  0.250000  0.233462  0.371974  1
  P  P30  1  0.750000  0.733429  0.128030  1
  P  P31  1  0.750000  0.766581  0.628052  1
  P  P32  1  0.250000  0.593274  0.386571  1
  P  P33  1  0.250000  0.906369  0.886739  1
  P  P34  1  0.750000  0.406686  0.613409  1
  P  P35  1  0.750000  0.093278  0.113427  1
