# generated using pymatgen
data_Zr6Al16Co(Ni2Pd)2
_symmetry_space_group_name_H-M   'P 1'
_cell_length_a   8.64537454
_cell_length_b   8.64537546
_cell_length_c   8.61531400
_cell_angle_alpha   60.11494978
_cell_angle_beta   60.11494629
_cell_angle_gamma   59.77009911
_symmetry_Int_Tables_number   1
_chemical_formula_structural   Zr6Al16Co(Ni2Pd)2
_chemical_formula_sum   'Zr6 Al16 Co1 Ni4 Pd2'
_cell_volume   455.31641178
_cell_formula_units_Z   1
loop_
 _symmetry_equiv_pos_site_id
 _symmetry_equiv_pos_as_xyz
  1  'x, y, z'
loop_
 _atom_site_type_symbol
 _atom_site_label
 _atom_site_symmetry_multiplicity
 _atom_site_fract_x
 _atom_site_fract_y
 _atom_site_fract_z
 _atom_site_occupancy
  Zr  Zr0  1  0.689411  0.310589  0.310589  1
  Zr  Zr1  1  0.689411  0.310589  0.689411  1
  Zr  Zr2  1  0.690813  0.690813  0.309187  1
  Zr  Zr3  1  0.310589  0.689411  0.689411  1
  Zr  Zr4  1  0.310589  0.689411  0.310589  1
  Zr  Zr5  1  0.309187  0.309187  0.690813  1
  Al  Al6  1  0.648052  0.113814  0.119068  1
  Al  Al7  1  0.113814  0.648052  0.119068  1
  Al  Al8  1  0.119068  0.119068  0.648052  1
  Al  Al9  1  0.119068  0.119068  0.113814  1
  Al  Al10  1  0.351948  0.886186  0.880932  1
  Al  Al11  1  0.886186  0.351948  0.880932  1
  Al  Al12  1  0.880932  0.880932  0.351948  1
  Al  Al13  1  0.880932  0.880932  0.886186  1
  Al  Al14  1  0.999895  0.340360  0.329873  1
  Al  Al15  1  0.340360  0.999895  0.329873  1
  Al  Al16  1  0.329873  0.329873  0.999895  1
  Al  Al17  1  0.329873  0.329873  0.340360  1
  Al  Al18  1  0.000105  0.659640  0.670127  1
  Al  Al19  1  0.659640  0.000105  0.670127  1
  Al  Al20  1  0.670127  0.670127  0.000105  1
  Al  Al21  1  0.670127  0.670127  0.659640  1
  Co  Co22  1  0.000000  0.000000  0.000000  1
  Ni  Ni23  1  0.500000  0.000000  0.000000  1
  Ni  Ni24  1  0.500000  0.000000  0.500000  1
  Ni  Ni25  1  0.000000  0.500000  0.500000  1
  Ni  Ni26  1  0.000000  0.500000  0.000000  1
  Pd  Pd27  1  0.500000  0.500000  0.000000  1
  Pd  Pd28  1  0.000000  0.000000  0.500000  1
