# generated using pymatgen
data_Nb10Al2SiAs3
_symmetry_space_group_name_H-M   'P 1'
_cell_length_a   5.17917902
_cell_length_b   7.64538600
_cell_length_c   7.69975458
_cell_angle_alpha   96.53708525
_cell_angle_beta   109.65289267
_cell_angle_gamma   70.21419092
_symmetry_Int_Tables_number   1
_chemical_formula_structural   Nb10Al2SiAs3
_chemical_formula_sum   'Nb10 Al2 Si1 As3'
_cell_volume   270.17486641
_cell_formula_units_Z   1
loop_
 _symmetry_equiv_pos_site_id
 _symmetry_equiv_pos_as_xyz
  1  'x, y, z'
loop_
 _atom_site_type_symbol
 _atom_site_label
 _atom_site_symmetry_multiplicity
 _atom_site_fract_x
 _atom_site_fract_y
 _atom_site_fract_z
 _atom_site_occupancy
  Nb  Nb0  1  0.421192  0.856245  0.704983  1
  Nb  Nb1  1  0.572819  0.142047  0.297195  1
  Nb  Nb2  1  0.928808  0.298305  0.146174  1
  Nb  Nb3  1  0.075397  0.706727  0.850358  1
  Nb  Nb4  1  0.717366  0.701695  0.146174  1
  Nb  Nb5  1  0.274961  0.293273  0.850358  1
  Nb  Nb6  1  0.783791  0.143755  0.704983  1
  Nb  Nb7  1  0.224376  0.857953  0.297195  1
  Nb  Nb8  1  0.252168  0.499733  0.501458  1
  Nb  Nb9  1  0.749291  0.500267  0.501458  1
  Al  Al10  1  0.750711  0.000000  0.001423  1
  Al  Al11  1  0.333984  0.500000  0.167970  1
  Si  Si12  1  0.250297  0.000000  0.000596  1
  As  As13  1  0.666604  0.500000  0.833207  1
  As  As14  1  0.833871  0.830595  0.498235  1
  As  As15  1  0.164363  0.169405  0.498235  1
