# generated using pymatgen
data_LiPr4(FeO4)3
_symmetry_space_group_name_H-M   'P 1'
_cell_length_a   5.47646967
_cell_length_b   5.61572938
_cell_length_c   7.88197633
_cell_angle_alpha   89.95890845
_cell_angle_beta   89.90203703
_cell_angle_gamma   90.19242909
_symmetry_Int_Tables_number   1
_chemical_formula_structural   LiPr4(FeO4)3
_chemical_formula_sum   'Li1 Pr4 Fe3 O12'
_cell_volume   242.40344458
_cell_formula_units_Z   1
loop_
 _symmetry_equiv_pos_site_id
 _symmetry_equiv_pos_as_xyz
  1  'x, y, z'
loop_
 _atom_site_type_symbol
 _atom_site_label
 _atom_site_symmetry_multiplicity
 _atom_site_fract_x
 _atom_site_fract_y
 _atom_site_fract_z
 _atom_site_occupancy
  Li  Li0  1  0.000000  0.500000  0.500000  1
  Pr  Pr1  1  0.015514  0.943062  0.742107  1
  Pr  Pr2  1  0.506683  0.547980  0.257751  1
  Pr  Pr3  1  0.493317  0.452020  0.742249  1
  Pr  Pr4  1  0.984486  0.056938  0.257893  1
  Fe  Fe5  1  0.500000  0.000000  0.500000  1
  Fe  Fe6  1  0.500000  0.000000  0.000000  1
  Fe  Fe7  1  0.000000  0.500000  0.000000  1
  O  O8  1  0.695134  0.277362  0.458938  1
  O  O9  1  0.226526  0.194823  0.539677  1
  O  O10  1  0.787660  0.793820  0.050660  1
  O  O11  1  0.293617  0.709608  0.950766  1
  O  O12  1  0.304866  0.722638  0.541062  1
  O  O13  1  0.773474  0.805177  0.460323  1
  O  O14  1  0.212340  0.206180  0.949340  1
  O  O15  1  0.706383  0.290392  0.049234  1
  O  O16  1  0.079374  0.480076  0.238511  1
  O  O17  1  0.589591  0.021795  0.755164  1
  O  O18  1  0.410409  0.978205  0.244836  1
  O  O19  1  0.920626  0.519924  0.761489  1
