# generated using pymatgen
data_LaNd7(B2Rh5)4
_symmetry_space_group_name_H-M   'P 1'
_cell_length_a   5.53339900
_cell_length_b   5.53339966
_cell_length_c   21.20585900
_cell_angle_alpha   89.99987404
_cell_angle_beta   90.00012427
_cell_angle_gamma   119.99908199
_symmetry_Int_Tables_number   1
_chemical_formula_structural   LaNd7(B2Rh5)4
_chemical_formula_sum   'La1 Nd7 B8 Rh20'
_cell_volume   562.30836595
_cell_formula_units_Z   1
loop_
 _symmetry_equiv_pos_site_id
 _symmetry_equiv_pos_as_xyz
  1  'x, y, z'
loop_
 _atom_site_type_symbol
 _atom_site_label
 _atom_site_symmetry_multiplicity
 _atom_site_fract_x
 _atom_site_fract_y
 _atom_site_fract_z
 _atom_site_occupancy
  La  La0  1  0.666662  0.333338  0.521538  1
  Nd  Nd1  1  0.333348  0.666652  0.478295  1
  Nd  Nd2  1  0.333344  0.666656  0.021605  1
  Nd  Nd3  1  0.666651  0.333349  0.978474  1
  Nd  Nd4  1  0.666649  0.333351  0.674255  1
  Nd  Nd5  1  0.333360  0.666640  0.325611  1
  Nd  Nd6  1  0.333359  0.666641  0.174318  1
  Nd  Nd7  1  0.666643  0.333357  0.825728  1
  B  B8  1  0.999969  0.000031  0.677598  1
  B  B9  1  0.000033  0.999967  0.322437  1
  B  B10  1  0.000033  0.999967  0.177474  1
  B  B11  1  0.999965  0.000035  0.822550  1
  B  B12  1  0.666692  0.333308  0.325729  1
  B  B13  1  0.333306  0.666694  0.674457  1
  B  B14  1  0.333306  0.666694  0.825793  1
  B  B15  1  0.666693  0.333307  0.174248  1
  Rh  Rh16  1  0.000004  0.999996  0.499976  1
  Rh  Rh17  1  0.000001  0.999999  0.999990  1
  Rh  Rh18  1  0.167436  0.334925  0.749976  1
  Rh  Rh19  1  0.167434  0.832566  0.749976  1
  Rh  Rh20  1  0.665075  0.832564  0.749976  1
  Rh  Rh21  1  0.832563  0.665068  0.249982  1
  Rh  Rh22  1  0.832561  0.167439  0.249981  1
  Rh  Rh23  1  0.334932  0.167437  0.249982  1
  Rh  Rh24  1  0.163493  0.327085  0.609358  1
  Rh  Rh25  1  0.163493  0.836507  0.609361  1
  Rh  Rh26  1  0.672915  0.836507  0.609358  1
  Rh  Rh27  1  0.836864  0.673644  0.390661  1
  Rh  Rh28  1  0.836868  0.163132  0.390656  1
  Rh  Rh29  1  0.326356  0.163136  0.390661  1
  Rh  Rh30  1  0.836648  0.673197  0.109159  1
  Rh  Rh31  1  0.836645  0.163355  0.109164  1
  Rh  Rh32  1  0.326803  0.163352  0.109159  1
  Rh  Rh33  1  0.163346  0.326797  0.890840  1
  Rh  Rh34  1  0.163346  0.836654  0.890835  1
  Rh  Rh35  1  0.673203  0.836654  0.890840  1
