# generated using pymatgen
data_Pr3In3IrRhPb
_symmetry_space_group_name_H-M   'P 1'
_cell_length_a   7.81481600
_cell_length_b   7.81481584
_cell_length_c   4.25192400
_cell_angle_alpha   90.00000000
_cell_angle_beta   90.00000000
_cell_angle_gamma   120.00000067
_symmetry_Int_Tables_number   1
_chemical_formula_structural   Pr3In3IrRhPb
_chemical_formula_sum   'Pr3 In3 Ir1 Rh1 Pb1'
_cell_volume   224.88144709
_cell_formula_units_Z   1
loop_
 _symmetry_equiv_pos_site_id
 _symmetry_equiv_pos_as_xyz
  1  'x, y, z'
loop_
 _atom_site_type_symbol
 _atom_site_label
 _atom_site_symmetry_multiplicity
 _atom_site_fract_x
 _atom_site_fract_y
 _atom_site_fract_z
 _atom_site_occupancy
  Pr  Pr0  1  0.975969  0.580973  0.500000  1
  Pr  Pr1  1  0.419027  0.394995  0.500000  1
  Pr  Pr2  1  0.605005  0.024031  0.500000  1
  In  In3  1  0.766629  0.750330  0.000000  1
  In  In4  1  0.983701  0.233371  0.000000  1
  In  In5  1  0.249670  0.016299  0.000000  1
  Ir  Ir6  1  0.666667  0.333333  0.000000  1
  Rh  Rh7  1  0.000000  0.000000  0.500000  1
  Pb  Pb8  1  0.333333  0.666667  0.000000  1
