# generated using pymatgen
data_Nb8Co7Si14Ni
_symmetry_space_group_name_H-M   'P 1'
_cell_length_a   9.26254337
_cell_length_b   9.26300884
_cell_length_c   9.24892744
_cell_angle_alpha   94.20569334
_cell_angle_beta   94.20301494
_cell_angle_gamma   148.60445414
_symmetry_Int_Tables_number   1
_chemical_formula_structural   Nb8Co7Si14Ni
_chemical_formula_sum   'Nb8 Co7 Si14 Ni1'
_cell_volume   397.92819831
_cell_formula_units_Z   1
loop_
 _symmetry_equiv_pos_site_id
 _symmetry_equiv_pos_as_xyz
  1  'x, y, z'
loop_
 _atom_site_type_symbol
 _atom_site_label
 _atom_site_symmetry_multiplicity
 _atom_site_fract_x
 _atom_site_fract_y
 _atom_site_fract_z
 _atom_site_occupancy
  Nb  Nb0  1  0.309226  0.499909  0.808564  1
  Nb  Nb1  1  0.691634  0.500629  0.191475  1
  Nb  Nb2  1  0.499842  0.690847  0.191475  1
  Nb  Nb3  1  0.499338  0.308655  0.808564  1
  Nb  Nb4  1  0.133986  0.133986  0.267972  1
  Nb  Nb5  1  0.866491  0.866491  0.732984  1
  Nb  Nb6  1  0.134468  0.867018  0.000476  1
  Nb  Nb7  1  0.866009  0.133458  0.000476  1
  Co  Co8  1  0.101913  0.601913  0.203826  1
  Co  Co9  1  0.898739  0.099432  0.498662  1
  Co  Co10  1  0.599923  0.399230  0.498662  1
  Co  Co11  1  0.600698  0.100698  0.201397  1
  Co  Co12  1  0.898366  0.398366  0.796731  1
  Co  Co13  1  0.102526  0.898647  0.501331  1
  Co  Co14  1  0.398805  0.602684  0.501331  1
  Si  Si15  1  0.291664  0.291664  0.583328  1
  Si  Si16  1  0.708239  0.708239  0.416479  1
  Si  Si17  1  0.289292  0.704696  0.000954  1
  Si  Si18  1  0.711661  0.296258  0.000954  1
  Si  Si19  1  0.084785  0.489379  0.591768  1
  Si  Si20  1  0.905905  0.499892  0.406514  1
  Si  Si21  1  0.500610  0.906622  0.406514  1
  Si  Si22  1  0.506983  0.102389  0.591768  1
  Si  Si23  1  0.249285  0.249323  0.000222  1
  Si  Si24  1  0.750937  0.750899  0.000222  1
  Si  Si25  1  0.297268  0.000553  0.296767  1
  Si  Si26  1  0.708518  0.003658  0.703080  1
  Si  Si27  1  0.994561  0.699422  0.703080  1
  Si  Si28  1  0.999498  0.296213  0.296767  1
  Ni  Ni29  1  0.398828  0.898828  0.797656  1
