# generated using pymatgen
data_Th8Mn3CuSi12
_symmetry_space_group_name_H-M   'P 1'
_cell_length_a   8.23878800
_cell_length_b   8.23878549
_cell_length_c   8.33725500
_cell_angle_alpha   90.00000000
_cell_angle_beta   90.00000000
_cell_angle_gamma   119.99993781
_symmetry_Int_Tables_number   1
_chemical_formula_structural   Th8Mn3CuSi12
_chemical_formula_sum   'Th8 Mn3 Cu1 Si12'
_cell_volume   490.09527083
_cell_formula_units_Z   1
loop_
 _symmetry_equiv_pos_site_id
 _symmetry_equiv_pos_as_xyz
  1  'x, y, z'
loop_
 _atom_site_type_symbol
 _atom_site_label
 _atom_site_symmetry_multiplicity
 _atom_site_fract_x
 _atom_site_fract_y
 _atom_site_fract_z
 _atom_site_occupancy
  Th  Th0  1  0.496445  0.503567  0.755266  1
  Th  Th1  1  0.496575  0.503436  0.244714  1
  Th  Th2  1  0.007143  0.503572  0.755265  1
  Th  Th3  1  0.006881  0.503441  0.244715  1
  Th  Th4  1  0.496442  0.992872  0.755277  1
  Th  Th5  1  0.496573  0.993135  0.244704  1
  Th  Th6  1  0.000004  0.000000  0.750009  1
  Th  Th7  1  0.000004  0.000001  0.249980  1
  Mn  Mn8  1  0.666516  0.333292  0.999905  1
  Mn  Mn9  1  0.333235  0.666599  0.000202  1
  Mn  Mn10  1  0.333411  0.666675  0.499741  1
  Cu  Cu11  1  0.666678  0.333379  0.500287  1
  Si  Si12  1  0.831567  0.168449  0.999904  1
  Si  Si13  1  0.170120  0.829886  0.000081  1
  Si  Si14  1  0.336925  0.168462  0.999904  1
  Si  Si15  1  0.169363  0.830657  0.499922  1
  Si  Si16  1  0.659820  0.829913  0.000081  1
  Si  Si17  1  0.831976  0.168041  0.500071  1
  Si  Si18  1  0.831555  0.663094  0.999904  1
  Si  Si19  1  0.661216  0.830610  0.499923  1
  Si  Si20  1  0.170121  0.340244  0.000080  1
  Si  Si21  1  0.336116  0.168066  0.500071  1
  Si  Si22  1  0.169392  0.338768  0.499924  1
  Si  Si23  1  0.831921  0.663840  0.500071  1
