# generated using pymatgen
data_La20Si15Sn
_symmetry_space_group_name_H-M   'P 1'
_cell_length_a   8.06927414
_cell_length_b   8.04289243
_cell_length_c   15.73227571
_cell_angle_alpha   90.11924080
_cell_angle_beta   90.02078159
_cell_angle_gamma   89.99166159
_symmetry_Int_Tables_number   1
_chemical_formula_structural   La20Si15Sn
_chemical_formula_sum   'La20 Si15 Sn1'
_cell_volume   1021.02718488
_cell_formula_units_Z   1
loop_
 _symmetry_equiv_pos_site_id
 _symmetry_equiv_pos_as_xyz
  1  'x, y, z'
loop_
 _atom_site_type_symbol
 _atom_site_label
 _atom_site_symmetry_multiplicity
 _atom_site_fract_x
 _atom_site_fract_y
 _atom_site_fract_z
 _atom_site_occupancy
  La  La0  1  0.381686  0.475583  0.371757  1
  La  La1  1  0.864850  0.032240  0.371847  1
  La  La2  1  0.978693  0.126595  0.123172  1
  La  La3  1  0.019975  0.874884  0.627402  1
  La  La4  1  0.626077  0.520231  0.873864  1
  La  La5  1  0.481626  0.371290  0.628777  1
  La  La6  1  0.520743  0.625299  0.126000  1
  La  La7  1  0.126311  0.979270  0.877016  1
  La  La8  1  0.988771  0.617987  0.053029  1
  La  La9  1  0.009246  0.372932  0.557252  1
  La  La10  1  0.619251  0.989417  0.946006  1
  La  La11  1  0.118622  0.511955  0.803963  1
  La  La12  1  0.873632  0.481641  0.296511  1
  La  La13  1  0.511999  0.118706  0.195531  1
  La  La14  1  0.490356  0.882058  0.698083  1
  La  La15  1  0.385412  0.013987  0.446237  1
  La  La16  1  0.681190  0.692250  0.502138  1
  La  La17  1  0.808750  0.192000  0.751019  1
  La  La18  1  0.195539  0.810623  0.242351  1
  La  La19  1  0.308134  0.308011  0.999941  1
  Si  Si20  1  0.919603  0.289005  0.940882  1
  Si  Si21  1  0.713327  0.080059  0.559538  1
  Si  Si22  1  0.211434  0.419683  0.190861  1
  Si  Si23  1  0.789935  0.580304  0.691329  1
  Si  Si24  1  0.419116  0.211882  0.810441  1
  Si  Si25  1  0.581220  0.788718  0.309180  1
  Si  Si26  1  0.289103  0.920290  0.057263  1
  Si  Si27  1  0.829197  0.805556  0.796021  1
  Si  Si28  1  0.171832  0.194658  0.294364  1
  Si  Si29  1  0.805714  0.828702  0.204743  1
  Si  Si30  1  0.313245  0.668678  0.552632  1
  Si  Si31  1  0.695316  0.330406  0.045032  1
  Si  Si32  1  0.670578  0.306894  0.457581  1
  Si  Si33  1  0.330330  0.694529  0.954834  1
  Si  Si34  1  0.194780  0.170709  0.706595  1
  Sn  Sn35  1  0.074407  0.712968  0.436805  1
