# generated using pymatgen
data_Nd8Zn8Ir7Pt
_symmetry_space_group_name_H-M   'P 1'
_cell_length_a   4.05444400
_cell_length_b   7.32346525
_cell_length_c   16.67055303
_cell_angle_alpha   90.02467967
_cell_angle_beta   90.00000000
_cell_angle_gamma   90.00000000
_symmetry_Int_Tables_number   1
_chemical_formula_structural   Nd8Zn8Ir7Pt
_chemical_formula_sum   'Nd8 Zn8 Ir7 Pt1'
_cell_volume   494.99167911
_cell_formula_units_Z   1
loop_
 _symmetry_equiv_pos_site_id
 _symmetry_equiv_pos_as_xyz
  1  'x, y, z'
loop_
 _atom_site_type_symbol
 _atom_site_label
 _atom_site_symmetry_multiplicity
 _atom_site_fract_x
 _atom_site_fract_y
 _atom_site_fract_z
 _atom_site_occupancy
  Nd  Nd0  1  0.250000  0.168700  0.939675  1
  Nd  Nd1  1  0.250000  0.666665  0.560302  1
  Nd  Nd2  1  0.750000  0.332956  0.439004  1
  Nd  Nd3  1  0.750000  0.952852  0.284467  1
  Nd  Nd4  1  0.750000  0.835430  0.064296  1
  Nd  Nd5  1  0.750000  0.452177  0.217040  1
  Nd  Nd6  1  0.250000  0.049086  0.715134  1
  Nd  Nd7  1  0.250000  0.544488  0.780349  1
  Zn  Zn8  1  0.750000  0.000158  0.559868  1
  Zn  Zn9  1  0.250000  0.623969  0.349883  1
  Zn  Zn10  1  0.750000  0.375733  0.649090  1
  Zn  Zn11  1  0.250000  0.496131  0.063357  1
  Zn  Zn12  1  0.750000  0.497350  0.939478  1
  Zn  Zn13  1  0.250000  0.999428  0.440159  1
  Zn  Zn14  1  0.250000  0.124158  0.151314  1
  Zn  Zn15  1  0.750000  0.879349  0.846072  1
  Ir  Ir16  1  0.750000  0.756949  0.434938  1
  Ir  Ir17  1  0.250000  0.245832  0.312914  1
  Ir  Ir18  1  0.750000  0.254933  0.814523  1
  Ir  Ir19  1  0.750000  0.754811  0.688044  1
  Ir  Ir20  1  0.250000  0.243330  0.564879  1
  Ir  Ir21  1  0.250000  0.745257  0.185770  1
  Ir  Ir22  1  0.750000  0.257111  0.064748  1
  Pt  Pt23  1  0.250000  0.743142  0.934697  1
