# generated using pymatgen
data_Na3Er(Si2O5)3
_symmetry_space_group_name_H-M   'P 1'
_cell_length_a   11.66639200
_cell_length_b   11.66639238
_cell_length_c   10.62574300
_cell_angle_alpha   90.00000000
_cell_angle_beta   90.00000000
_cell_angle_gamma   100.63067154
_symmetry_Int_Tables_number   1
_chemical_formula_structural   Na3Er(Si2O5)3
_chemical_formula_sum   'Na12 Er4 Si24 O60'
_cell_volume   1421.39188745
_cell_formula_units_Z   4
loop_
 _symmetry_equiv_pos_site_id
 _symmetry_equiv_pos_as_xyz
  1  'x, y, z'
loop_
 _atom_site_type_symbol
 _atom_site_label
 _atom_site_symmetry_multiplicity
 _atom_site_fract_x
 _atom_site_fract_y
 _atom_site_fract_z
 _atom_site_occupancy
  Na  Na0  1  0.028545  0.471455  0.750000  1
  Na  Na1  1  0.471455  0.028545  0.250000  1
  Na  Na2  1  0.971455  0.528545  0.250000  1
  Na  Na3  1  0.528545  0.971455  0.750000  1
  Na  Na4  1  0.761042  0.761042  0.000000  1
  Na  Na5  1  0.738958  0.738958  0.500000  1
  Na  Na6  1  0.238958  0.238958  0.000000  1
  Na  Na7  1  0.261042  0.261042  0.500000  1
  Na  Na8  1  0.072027  0.927973  0.750212  1
  Na  Na9  1  0.427973  0.572027  0.250212  1
  Na  Na10  1  0.927973  0.072027  0.249788  1
  Na  Na11  1  0.572027  0.427973  0.749788  1
  Er  Er12  1  0.159040  0.340960  0.250000  1
  Er  Er13  1  0.340960  0.159040  0.750000  1
  Er  Er14  1  0.840960  0.659040  0.750000  1
  Er  Er15  1  0.659040  0.840960  0.250000  1
  Si  Si16  1  0.528995  0.260206  0.019356  1
  Si  Si17  1  0.971005  0.239794  0.519356  1
  Si  Si18  1  0.260206  0.528995  0.980644  1
  Si  Si19  1  0.239794  0.971005  0.480644  1
  Si  Si20  1  0.471005  0.739794  0.980644  1
  Si  Si21  1  0.028995  0.760206  0.480644  1
  Si  Si22  1  0.739794  0.471005  0.019356  1
  Si  Si23  1  0.760206  0.028995  0.519356  1
  Si  Si24  1  0.584539  0.204966  0.535626  1
  Si  Si25  1  0.915461  0.295034  0.035626  1
  Si  Si26  1  0.204966  0.584539  0.464374  1
  Si  Si27  1  0.295034  0.915461  0.964374  1
  Si  Si28  1  0.415461  0.795034  0.464374  1
  Si  Si29  1  0.084539  0.704966  0.964374  1
  Si  Si30  1  0.795034  0.415461  0.535626  1
  Si  Si31  1  0.704966  0.084539  0.035626  1
  Si  Si32  1  0.471739  0.310058  0.300207  1
  Si  Si33  1  0.028261  0.189942  0.800207  1
  Si  Si34  1  0.310058  0.471739  0.699793  1
  Si  Si35  1  0.189942  0.028261  0.199793  1
  Si  Si36  1  0.528261  0.689942  0.699793  1
  Si  Si37  1  0.971739  0.810058  0.199793  1
  Si  Si38  1  0.689942  0.528261  0.300207  1
  Si  Si39  1  0.810058  0.971739  0.800207  1
  O  O40  1  0.656944  0.010342  0.157576  1
  O  O41  1  0.843056  0.489658  0.657576  1
  O  O42  1  0.010342  0.656944  0.842424  1
  O  O43  1  0.489658  0.843056  0.342424  1
  O  O44  1  0.343056  0.989658  0.842424  1
  O  O45  1  0.156944  0.510342  0.342424  1
  O  O46  1  0.989658  0.343056  0.157576  1
  O  O47  1  0.510342  0.156944  0.657576  1
  O  O48  1  0.487026  0.237369  0.168719  1
  O  O49  1  0.012974  0.262631  0.668719  1
  O  O50  1  0.237369  0.487026  0.831281  1
  O  O51  1  0.262631  0.012974  0.331281  1
  O  O52  1  0.512974  0.762631  0.831281  1
  O  O53  1  0.987026  0.737369  0.331281  1
  O  O54  1  0.762631  0.512974  0.168719  1
  O  O55  1  0.737369  0.987026  0.668719  1
  O  O56  1  0.666924  0.114466  0.486752  1
  O  O57  1  0.833076  0.385534  0.986752  1
  O  O58  1  0.114466  0.666924  0.513248  1
  O  O59  1  0.385534  0.833076  0.013248  1
  O  O60  1  0.333076  0.885534  0.513248  1
  O  O61  1  0.166924  0.614466  0.013248  1
  O  O62  1  0.885534  0.333076  0.486752  1
  O  O63  1  0.614466  0.166924  0.986752  1
  O  O64  1  0.334458  0.665542  0.431960  1
  O  O65  1  0.746842  0.921913  0.423646  1
  O  O66  1  0.921913  0.746842  0.576354  1
  O  O67  1  0.578087  0.753158  0.076354  1
  O  O68  1  0.253158  0.078087  0.576354  1
  O  O69  1  0.246842  0.421913  0.076354  1
  O  O70  1  0.078087  0.253158  0.423646  1
  O  O71  1  0.421913  0.246842  0.923646  1
  O  O72  1  0.656839  0.654750  0.318070  1
  O  O73  1  0.843161  0.845250  0.818070  1
  O  O74  1  0.654750  0.656839  0.681930  1
  O  O75  1  0.845250  0.843161  0.181930  1
  O  O76  1  0.343161  0.345250  0.681930  1
  O  O77  1  0.156839  0.154750  0.181930  1
  O  O78  1  0.345250  0.343161  0.318070  1
  O  O79  1  0.154750  0.156839  0.818070  1
  O  O80  1  0.931917  0.068083  0.798706  1
  O  O81  1  0.568083  0.431917  0.298706  1
  O  O82  1  0.068083  0.931917  0.201294  1
  O  O83  1  0.431917  0.568083  0.701294  1
  O  O84  1  0.892941  0.107059  0.505412  1
  O  O85  1  0.607059  0.392941  0.005412  1
  O  O86  1  0.107059  0.892941  0.494588  1
  O  O87  1  0.392941  0.607059  0.994588  1
  O  O88  1  0.498369  0.777875  0.587454  1
  O  O89  1  0.001631  0.722125  0.087454  1
  O  O90  1  0.777875  0.498369  0.412546  1
  O  O91  1  0.722125  0.001631  0.912546  1
  O  O92  1  0.501631  0.222125  0.412546  1
  O  O93  1  0.998369  0.277875  0.912546  1
  O  O94  1  0.222125  0.501631  0.587454  1
  O  O95  1  0.277875  0.998369  0.087454  1
  O  O96  1  0.834458  0.165542  0.068040  1
  O  O97  1  0.665542  0.334458  0.568040  1
  O  O98  1  0.165542  0.834458  0.931960  1
  O  O99  1  0.753158  0.578087  0.923646  1
