# generated using pymatgen
data_Ho16MgHg3(PtRh)2
_symmetry_space_group_name_H-M   'P 1'
_cell_length_a   9.59868182
_cell_length_b   9.60313717
_cell_length_c   9.59719200
_cell_angle_alpha   60.02047708
_cell_angle_beta   60.00513419
_cell_angle_gamma   60.01667257
_symmetry_Int_Tables_number   1
_chemical_formula_structural   Ho16MgHg3(PtRh)2
_chemical_formula_sum   'Ho16 Mg1 Hg3 Pt2 Rh2'
_cell_volume   625.73816614
_cell_formula_units_Z   1
loop_
 _symmetry_equiv_pos_site_id
 _symmetry_equiv_pos_as_xyz
  1  'x, y, z'
loop_
 _atom_site_type_symbol
 _atom_site_label
 _atom_site_symmetry_multiplicity
 _atom_site_fract_x
 _atom_site_fract_y
 _atom_site_fract_z
 _atom_site_occupancy
  Ho  Ho0  1  0.805459  0.190752  0.192162  1
  Ho  Ho1  1  0.187112  0.809216  0.813882  1
  Ho  Ho2  1  0.187112  0.809216  0.189790  1
  Ho  Ho3  1  0.805459  0.190752  0.811628  1
  Ho  Ho4  1  0.188045  0.189536  0.811209  1
  Ho  Ho5  1  0.809767  0.810715  0.189760  1
  Ho  Ho6  1  0.935735  0.564740  0.563919  1
  Ho  Ho7  1  0.563498  0.937184  0.935493  1
  Ho  Ho8  1  0.563498  0.937184  0.563825  1
  Ho  Ho9  1  0.935735  0.564740  0.935606  1
  Ho  Ho10  1  0.564593  0.565953  0.934727  1
  Ho  Ho11  1  0.936275  0.937854  0.562936  1
  Ho  Ho12  1  0.351569  0.350443  0.345435  1
  Ho  Ho13  1  0.351569  0.350443  0.952553  1
  Ho  Ho14  1  0.357975  0.943506  0.349259  1
  Ho  Ho15  1  0.933083  0.359987  0.353465  1
  Mg  Mg16  1  0.284744  0.570181  0.572538  1
  Hg  Hg17  1  0.582603  0.587447  0.588622  1
  Hg  Hg18  1  0.582603  0.587447  0.241330  1
  Hg  Hg19  1  0.582380  0.241154  0.588234  1
  Pt  Pt20  1  0.140396  0.143824  0.146991  1
  Pt  Pt21  1  0.140396  0.143824  0.568789  1
  Rh  Rh22  1  0.138174  0.572614  0.144606  1
  Rh  Rh23  1  0.572226  0.141290  0.143242  1
