# generated using pymatgen
data_Th6Co6BiSbTe6
_symmetry_space_group_name_H-M   'P 1'
_cell_length_a   8.34444540
_cell_length_b   8.32746530
_cell_length_c   8.31636416
_cell_angle_alpha   109.38150285
_cell_angle_beta   109.45369121
_cell_angle_gamma   109.49989898
_symmetry_Int_Tables_number   1
_chemical_formula_structural   Th6Co6BiSbTe6
_chemical_formula_sum   'Th6 Co6 Bi1 Sb1 Te6'
_cell_volume   445.28899401
_cell_formula_units_Z   1
loop_
 _symmetry_equiv_pos_site_id
 _symmetry_equiv_pos_as_xyz
  1  'x, y, z'
loop_
 _atom_site_type_symbol
 _atom_site_label
 _atom_site_symmetry_multiplicity
 _atom_site_fract_x
 _atom_site_fract_y
 _atom_site_fract_z
 _atom_site_occupancy
  Th  Th0  1  0.371409  0.246065  0.623892  1
  Th  Th1  1  0.751857  0.874427  0.127689  1
  Th  Th2  1  0.247608  0.627367  0.376668  1
  Th  Th3  1  0.630105  0.379675  0.253304  1
  Th  Th4  1  0.874681  0.122636  0.747214  1
  Th  Th5  1  0.123817  0.751050  0.870994  1
  Co  Co6  1  0.116033  0.873334  0.247435  1
  Co  Co7  1  0.626378  0.743892  0.375895  1
  Co  Co8  1  0.875244  0.249477  0.124560  1
  Co  Co9  1  0.251405  0.126199  0.874837  1
  Co  Co10  1  0.757152  0.382867  0.631765  1
  Co  Co11  1  0.374437  0.624204  0.749094  1
  Bi  Bi12  1  0.498938  0.999650  0.332959  1
  Sb  Sb13  1  0.999679  0.838163  0.500235  1
  Te  Te14  1  0.000327  0.342367  0.501469  1
  Te  Te15  1  0.842008  0.500793  0.999592  1
  Te  Te16  1  0.500963  0.001237  0.842910  1
  Te  Te17  1  0.657467  0.658295  0.658462  1
  Te  Te18  1  0.158263  0.158219  0.158909  1
  Te  Te19  1  0.342228  0.500083  0.002118  1
