# generated using pymatgen
data_SrB2As2O7
_symmetry_space_group_name_H-M   'P 1'
_cell_length_a   7.79576936
_cell_length_b   7.79576958
_cell_length_c   7.79576862
_cell_angle_alpha   36.55191922
_cell_angle_beta   36.55191695
_cell_angle_gamma   36.55191922
_symmetry_Int_Tables_number   1
_chemical_formula_structural   SrB2As2O7
_chemical_formula_sum   'Sr1 B2 As2 O7'
_cell_volume   150.44670501
_cell_formula_units_Z   1
loop_
 _symmetry_equiv_pos_site_id
 _symmetry_equiv_pos_as_xyz
  1  'x, y, z'
loop_
 _atom_site_type_symbol
 _atom_site_label
 _atom_site_symmetry_multiplicity
 _atom_site_fract_x
 _atom_site_fract_y
 _atom_site_fract_z
 _atom_site_occupancy
  Sr  Sr0  1  0.500000  0.500000  0.500000  1
  B  B1  1  0.065791  0.065791  0.065791  1
  B  B2  1  0.934209  0.934209  0.934209  1
  As  As3  1  0.284587  0.284587  0.284587  1
  As  As4  1  0.715413  0.715413  0.715413  1
  O  O5  1  0.000000  0.000000  0.000000  1
  O  O6  1  0.406895  0.857347  0.014422  1
  O  O7  1  0.593105  0.985579  0.142652  1
  O  O8  1  0.857348  0.014422  0.406894  1
  O  O9  1  0.985578  0.142652  0.593106  1
  O  O10  1  0.014421  0.406895  0.857348  1
  O  O11  1  0.142653  0.593106  0.985578  1
