# generated using pymatgen
data_Er2Mg(CdNi)2
_symmetry_space_group_name_H-M   'P 1'
_cell_length_a   10.48367654
_cell_length_b   10.48367558
_cell_length_c   3.46966100
_cell_angle_alpha   90.00000000
_cell_angle_beta   90.00000000
_cell_angle_gamma   157.86146198
_symmetry_Int_Tables_number   1
_chemical_formula_structural   Er2Mg(CdNi)2
_chemical_formula_sum   'Er2 Mg1 Cd2 Ni2'
_cell_volume   143.70759636
_cell_formula_units_Z   1
loop_
 _symmetry_equiv_pos_site_id
 _symmetry_equiv_pos_as_xyz
  1  'x, y, z'
loop_
 _atom_site_type_symbol
 _atom_site_label
 _atom_site_symmetry_multiplicity
 _atom_site_fract_x
 _atom_site_fract_y
 _atom_site_fract_z
 _atom_site_occupancy
  Er  Er0  1  0.825515  0.174485  0.000000  1
  Er  Er1  1  0.174485  0.825515  0.000000  1
  Mg  Mg2  1  0.000000  0.000000  0.000000  1
  Cd  Cd3  1  0.421472  0.578528  0.500000  1
  Cd  Cd4  1  0.578528  0.421472  0.500000  1
  Ni  Ni5  1  0.286067  0.713933  0.500000  1
  Ni  Ni6  1  0.713933  0.286067  0.500000  1
