# generated using pymatgen
data_Sm2YTm3Ta2O14
_symmetry_space_group_name_H-M   'P 1'
_cell_length_a   6.44017053
_cell_length_b   6.44981218
_cell_length_c   7.54448200
_cell_angle_alpha   90.00000000
_cell_angle_beta   90.00000000
_cell_angle_gamma   109.33121986
_symmetry_Int_Tables_number   1
_chemical_formula_structural   Sm2YTm3Ta2O14
_chemical_formula_sum   'Sm2 Y1 Tm3 Ta2 O14'
_cell_volume   295.71362115
_cell_formula_units_Z   1
loop_
 _symmetry_equiv_pos_site_id
 _symmetry_equiv_pos_as_xyz
  1  'x, y, z'
loop_
 _atom_site_type_symbol
 _atom_site_label
 _atom_site_symmetry_multiplicity
 _atom_site_fract_x
 _atom_site_fract_y
 _atom_site_fract_z
 _atom_site_occupancy
  Sm  Sm0  1  0.501239  0.500667  0.499158  1
  Sm  Sm1  1  0.501239  0.500667  0.000842  1
  Y  Y2  1  0.999676  0.466439  0.750000  1
  Tm  Tm3  1  0.532576  0.001505  0.750000  1
  Tm  Tm4  1  0.001303  0.533666  0.250000  1
  Tm  Tm5  1  0.467223  0.998533  0.250000  1
  Ta  Ta6  1  0.999965  0.000138  0.499082  1
  Ta  Ta7  1  0.999965  0.000138  0.000918  1
  O  O8  1  0.676992  0.931219  0.466768  1
  O  O9  1  0.927271  0.676930  0.529017  1
  O  O10  1  0.676992  0.931219  0.033232  1
  O  O11  1  0.927271  0.676930  0.970983  1
  O  O12  1  0.322305  0.069066  0.533305  1
  O  O13  1  0.070827  0.321793  0.464482  1
  O  O14  1  0.322305  0.069066  0.966695  1
  O  O15  1  0.070827  0.321793  0.035518  1
  O  O16  1  0.933039  0.064229  0.750000  1
  O  O17  1  0.068163  0.933845  0.250000  1
  O  O18  1  0.369333  0.638542  0.750000  1
  O  O19  1  0.635822  0.363339  0.250000  1
  O  O20  1  0.638712  0.356142  0.750000  1
  O  O21  1  0.356957  0.644129  0.250000  1
