# generated using pymatgen
data_BaGaCuAu5
_symmetry_space_group_name_H-M   'P 1'
_cell_length_a   7.17912000
_cell_length_b   9.19847500
_cell_length_c   10.34159400
_cell_angle_alpha   90.00000000
_cell_angle_beta   90.00000000
_cell_angle_gamma   90.00000000
_symmetry_Int_Tables_number   1
_chemical_formula_structural   BaGaCuAu5
_chemical_formula_sum   'Ba4 Ga4 Cu4 Au20'
_cell_volume   682.92738631
_cell_formula_units_Z   4
loop_
 _symmetry_equiv_pos_site_id
 _symmetry_equiv_pos_as_xyz
  1  'x, y, z'
loop_
 _atom_site_type_symbol
 _atom_site_label
 _atom_site_symmetry_multiplicity
 _atom_site_fract_x
 _atom_site_fract_y
 _atom_site_fract_z
 _atom_site_occupancy
  Ba  Ba0  1  0.250000  0.236905  0.109640  1
  Ba  Ba1  1  0.250000  0.736905  0.390360  1
  Ba  Ba2  1  0.750000  0.763095  0.890360  1
  Ba  Ba3  1  0.750000  0.263095  0.609640  1
  Ga  Ga4  1  0.250000  0.328338  0.473783  1
  Ga  Ga5  1  0.250000  0.828338  0.026217  1
  Ga  Ga6  1  0.750000  0.671662  0.526217  1
  Ga  Ga7  1  0.750000  0.171662  0.973783  1
  Cu  Cu8  1  0.250000  0.075960  0.615474  1
  Cu  Cu9  1  0.250000  0.575960  0.884526  1
  Cu  Cu10  1  0.750000  0.924040  0.384526  1
  Cu  Cu11  1  0.750000  0.424040  0.115474  1
  Au  Au12  1  0.052027  0.092546  0.392524  1
  Au  Au13  1  0.447973  0.592546  0.107476  1
  Au  Au14  1  0.552027  0.907454  0.607476  1
  Au  Au15  1  0.947973  0.407454  0.892524  1
  Au  Au16  1  0.947973  0.907454  0.607476  1
  Au  Au17  1  0.552027  0.407454  0.892524  1
  Au  Au18  1  0.447973  0.092546  0.392524  1
  Au  Au19  1  0.052027  0.592546  0.107476  1
  Au  Au20  1  0.030470  0.084638  0.837952  1
  Au  Au21  1  0.469530  0.584638  0.662048  1
  Au  Au22  1  0.530470  0.915362  0.162048  1
  Au  Au23  1  0.969530  0.415362  0.337952  1
  Au  Au24  1  0.969530  0.915362  0.162048  1
  Au  Au25  1  0.530470  0.415362  0.337952  1
  Au  Au26  1  0.469530  0.084638  0.837952  1
  Au  Au27  1  0.030470  0.584638  0.662048  1
  Au  Au28  1  0.250000  0.333035  0.724505  1
  Au  Au29  1  0.250000  0.833035  0.775495  1
  Au  Au30  1  0.750000  0.666965  0.275495  1
  Au  Au31  1  0.750000  0.166965  0.224505  1
