# generated using pymatgen
data_Cs3Cu2AgP2
_symmetry_space_group_name_H-M   'P 1'
_cell_length_a   7.91476255
_cell_length_b   7.91476142
_cell_length_c   7.95613812
_cell_angle_alpha   47.69423276
_cell_angle_beta   47.69422913
_cell_angle_gamma   46.66503408
_symmetry_Int_Tables_number   1
_chemical_formula_structural   Cs3Cu2AgP2
_chemical_formula_sum   'Cs3 Cu2 Ag1 P2'
_cell_volume   246.57896103
_cell_formula_units_Z   1
loop_
 _symmetry_equiv_pos_site_id
 _symmetry_equiv_pos_as_xyz
  1  'x, y, z'
loop_
 _atom_site_type_symbol
 _atom_site_label
 _atom_site_symmetry_multiplicity
 _atom_site_fract_x
 _atom_site_fract_y
 _atom_site_fract_z
 _atom_site_occupancy
  Cs  Cs0  1  0.903506  0.903506  0.917188  1
  Cs  Cs1  1  0.500000  0.500000  0.500000  1
  Cs  Cs2  1  0.096494  0.096494  0.082812  1
  Cu  Cu3  1  0.000000  0.500000  0.500000  1
  Cu  Cu4  1  0.500000  0.000000  0.500000  1
  Ag  Ag5  1  0.500000  0.500000  0.000000  1
  P  P6  1  0.252525  0.252525  0.293887  1
  P  P7  1  0.747475  0.747475  0.706113  1
