# generated using pymatgen
data_Ho2Mn14(BeC)3
_symmetry_space_group_name_H-M   'P 1'
_cell_length_a   6.33420545
_cell_length_b   6.33420642
_cell_length_c   6.33420671
_cell_angle_alpha   82.83847797
_cell_angle_beta   82.83847355
_cell_angle_gamma   82.83848885
_symmetry_Int_Tables_number   1
_chemical_formula_structural   Ho2Mn14(BeC)3
_chemical_formula_sum   'Ho2 Mn14 Be3 C3'
_cell_volume   248.65041387
_cell_formula_units_Z   1
loop_
 _symmetry_equiv_pos_site_id
 _symmetry_equiv_pos_as_xyz
  1  'x, y, z'
loop_
 _atom_site_type_symbol
 _atom_site_label
 _atom_site_symmetry_multiplicity
 _atom_site_fract_x
 _atom_site_fract_y
 _atom_site_fract_z
 _atom_site_occupancy
  Ho  Ho0  1  0.654709  0.654709  0.654709  1
  Ho  Ho1  1  0.345291  0.345291  0.345291  1
  Mn  Mn2  1  0.727616  0.272384  0.000000  1
  Mn  Mn3  1  0.000000  0.727616  0.272384  1
  Mn  Mn4  1  0.272384  0.000000  0.727616  1
  Mn  Mn5  1  0.000000  0.272384  0.727616  1
  Mn  Mn6  1  0.727616  0.000000  0.272384  1
  Mn  Mn7  1  0.272384  0.727616  0.000000  1
  Mn  Mn8  1  0.343807  0.855546  0.343807  1
  Mn  Mn9  1  0.343807  0.343807  0.855546  1
  Mn  Mn10  1  0.855546  0.343807  0.343807  1
  Mn  Mn11  1  0.656193  0.144454  0.656193  1
  Mn  Mn12  1  0.656193  0.656193  0.144454  1
  Mn  Mn13  1  0.144454  0.656193  0.656193  1
  Mn  Mn14  1  0.903069  0.903069  0.903069  1
  Mn  Mn15  1  0.096931  0.096931  0.096931  1
  Be  Be16  1  0.000000  0.000000  0.500000  1
  Be  Be17  1  0.500000  0.000000  0.000000  1
  Be  Be18  1  0.000000  0.500000  0.000000  1
  C  C19  1  0.500000  0.500000  0.000000  1
  C  C20  1  0.000000  0.500000  0.500000  1
  C  C21  1  0.500000  0.000000  0.500000  1
