# generated using pymatgen
data_Dy8Er10Sc2Si15Os
_symmetry_space_group_name_H-M   'P 1'
_cell_length_a   7.25935950
_cell_length_b   7.69363622
_cell_length_c   14.39699100
_cell_angle_alpha   90.00000000
_cell_angle_beta   90.00000000
_cell_angle_gamma   90.09626909
_symmetry_Int_Tables_number   1
_chemical_formula_structural   Dy8Er10Sc2Si15Os
_chemical_formula_sum   'Dy8 Er10 Sc2 Si15 Os1'
_cell_volume   804.08335452
_cell_formula_units_Z   1
loop_
 _symmetry_equiv_pos_site_id
 _symmetry_equiv_pos_as_xyz
  1  'x, y, z'
loop_
 _atom_site_type_symbol
 _atom_site_label
 _atom_site_symmetry_multiplicity
 _atom_site_fract_x
 _atom_site_fract_y
 _atom_site_fract_z
 _atom_site_occupancy
  Dy  Dy0  1  0.019054  0.184410  0.098590  1
  Dy  Dy1  1  0.983822  0.826480  0.906051  1
  Dy  Dy2  1  0.480976  0.681000  0.906014  1
  Dy  Dy3  1  0.983822  0.826480  0.593949  1
  Dy  Dy4  1  0.518308  0.318503  0.097982  1
  Dy  Dy5  1  0.019054  0.184410  0.401410  1
  Dy  Dy6  1  0.518308  0.318503  0.402018  1
  Dy  Dy7  1  0.480976  0.681000  0.593986  1
  Er  Er8  1  0.151129  0.511383  0.750000  1
  Er  Er9  1  0.664066  0.988179  0.750000  1
  Er  Er10  1  0.311593  0.173606  0.625774  1
  Er  Er11  1  0.678841  0.824249  0.372512  1
  Er  Er12  1  0.177856  0.679372  0.372476  1
  Er  Er13  1  0.678841  0.824249  0.127488  1
  Er  Er14  1  0.832201  0.315160  0.624979  1
  Er  Er15  1  0.311593  0.173606  0.874226  1
  Er  Er16  1  0.832201  0.315160  0.875021  1
  Er  Er17  1  0.177856  0.679372  0.127524  1
  Sc  Sc18  1  0.842531  0.484421  0.250000  1
  Sc  Sc19  1  0.344044  0.017581  0.250000  1
  Si  Si20  1  0.980961  0.905292  0.250000  1
  Si  Si21  1  0.481953  0.596945  0.250000  1
  Si  Si22  1  0.524906  0.396553  0.750000  1
  Si  Si23  1  0.275470  0.864582  0.750000  1
  Si  Si24  1  0.718513  0.136814  0.250000  1
  Si  Si25  1  0.220457  0.364773  0.250000  1
  Si  Si26  1  0.765687  0.623994  0.750000  1
  Si  Si27  1  0.155986  0.473445  0.535814  1
  Si  Si28  1  0.847923  0.530860  0.458818  1
  Si  Si29  1  0.347232  0.970654  0.457635  1
  Si  Si30  1  0.847923  0.530860  0.041182  1
  Si  Si31  1  0.648988  0.030094  0.536225  1
  Si  Si32  1  0.155986  0.473445  0.964186  1
  Si  Si33  1  0.648988  0.030094  0.963775  1
  Si  Si34  1  0.347232  0.970654  0.042365  1
  Os  Os35  1  0.024721  0.093818  0.750000  1
