# generated using pymatgen
data_Tm4AlV3B16
_symmetry_space_group_name_H-M   'P 1'
_cell_length_a   3.43996300
_cell_length_b   5.95697890
_cell_length_c   11.53166370
_cell_angle_alpha   90.09170639
_cell_angle_beta   90.00000000
_cell_angle_gamma   90.00000000
_symmetry_Int_Tables_number   1
_chemical_formula_structural   Tm4AlV3B16
_chemical_formula_sum   'Tm4 Al1 V3 B16'
_cell_volume   236.30409385
_cell_formula_units_Z   1
loop_
 _symmetry_equiv_pos_site_id
 _symmetry_equiv_pos_as_xyz
  1  'x, y, z'
loop_
 _atom_site_type_symbol
 _atom_site_label
 _atom_site_symmetry_multiplicity
 _atom_site_fract_x
 _atom_site_fract_y
 _atom_site_fract_z
 _atom_site_occupancy
  Tm  Tm0  1  0.000000  0.625859  0.346128  1
  Tm  Tm1  1  0.000000  0.369428  0.651449  1
  Tm  Tm2  1  0.000000  0.126630  0.151552  1
  Tm  Tm3  1  0.000000  0.876516  0.852419  1
  Al  Al4  1  0.000000  0.864973  0.588584  1
  V  V5  1  0.000000  0.627273  0.082487  1
  V  V6  1  0.000000  0.373421  0.916181  1
  V  V7  1  0.000000  0.130293  0.415934  1
  B  B8  1  0.500000  0.788582  0.185729  1
  B  B9  1  0.500000  0.210233  0.813014  1
  B  B10  1  0.500000  0.289149  0.313585  1
  B  B11  1  0.500000  0.711797  0.685236  1
  B  B12  1  0.500000  0.866013  0.032590  1
  B  B13  1  0.500000  0.134340  0.966952  1
  B  B14  1  0.500000  0.367875  0.469366  1
  B  B15  1  0.500000  0.633191  0.532234  1
  B  B16  1  0.500000  0.884997  0.450822  1
  B  B17  1  0.500000  0.117216  0.547806  1
  B  B18  1  0.500000  0.384903  0.046833  1
  B  B19  1  0.500000  0.615272  0.951759  1
  B  B20  1  0.500000  0.977279  0.307128  1
  B  B21  1  0.500000  0.022349  0.694060  1
  B  B22  1  0.500000  0.478214  0.192602  1
  B  B23  1  0.500000  0.524196  0.805551  1
