# generated using pymatgen
data_YbZn2CdCu2
_symmetry_space_group_name_H-M   'P 1'
_cell_length_a   5.17771207
_cell_length_b   5.20649455
_cell_length_c   5.17771189
_cell_angle_alpha   59.81595051
_cell_angle_beta   60.54070472
_cell_angle_gamma   59.81594314
_symmetry_Int_Tables_number   1
_chemical_formula_structural   YbZn2CdCu2
_chemical_formula_sum   'Yb1 Zn2 Cd1 Cu2'
_cell_volume   98.81563046
_cell_formula_units_Z   1
loop_
 _symmetry_equiv_pos_site_id
 _symmetry_equiv_pos_as_xyz
  1  'x, y, z'
loop_
 _atom_site_type_symbol
 _atom_site_label
 _atom_site_symmetry_multiplicity
 _atom_site_fract_x
 _atom_site_fract_y
 _atom_site_fract_z
 _atom_site_occupancy
  Yb  Yb0  1  0.753544  0.746456  0.753544  1
  Zn  Zn1  1  0.373648  0.878559  0.373648  1
  Zn  Zn2  1  0.373648  0.374145  0.373648  1
  Cd  Cd3  1  0.999271  0.000729  0.999271  1
  Cu  Cu4  1  0.875983  0.375055  0.373906  1
  Cu  Cu5  1  0.373906  0.375055  0.875983  1
