# generated using pymatgen
data_Cs4Tb9Ho3S20
_symmetry_space_group_name_H-M   'P 1'
_cell_length_a   4.01921200
_cell_length_b   12.05602100
_cell_length_c   21.45120481
_cell_angle_alpha   90.04691998
_cell_angle_beta   90.00000000
_cell_angle_gamma   90.00000000
_symmetry_Int_Tables_number   1
_chemical_formula_structural   Cs4Tb9Ho3S20
_chemical_formula_sum   'Cs4 Tb9 Ho3 S20'
_cell_volume   1039.43288844
_cell_formula_units_Z   1
loop_
 _symmetry_equiv_pos_site_id
 _symmetry_equiv_pos_as_xyz
  1  'x, y, z'
loop_
 _atom_site_type_symbol
 _atom_site_label
 _atom_site_symmetry_multiplicity
 _atom_site_fract_x
 _atom_site_fract_y
 _atom_site_fract_z
 _atom_site_occupancy
  Cs  Cs0  1  0.250000  0.853479  0.093678  1
  Cs  Cs1  1  0.750000  0.146416  0.906141  1
  Cs  Cs2  1  0.750000  0.353354  0.406307  1
  Cs  Cs3  1  0.250000  0.646654  0.593634  1
  Tb  Tb4  1  0.750000  0.797518  0.825796  1
  Tb  Tb5  1  0.250000  0.202245  0.174418  1
  Tb  Tb6  1  0.250000  0.297409  0.674087  1
  Tb  Tb7  1  0.750000  0.702557  0.325894  1
  Tb  Tb8  1  0.250000  0.958317  0.697110  1
  Tb  Tb9  1  0.750000  0.041578  0.302912  1
  Tb  Tb10  1  0.750000  0.458422  0.802584  1
  Tb  Tb11  1  0.250000  0.541876  0.197280  1
  Tb  Tb12  1  0.750000  0.390788  0.052427  1
  Ho  Ho13  1  0.250000  0.609283  0.947289  1
  Ho  Ho14  1  0.250000  0.891182  0.447462  1
  Ho  Ho15  1  0.750000  0.108789  0.552514  1
  S  S16  1  0.250000  0.952512  0.568168  1
  S  S17  1  0.750000  0.047471  0.431852  1
  S  S18  1  0.750000  0.453170  0.931216  1
  S  S19  1  0.250000  0.549153  0.068252  1
  S  S20  1  0.750000  0.760223  0.952167  1
  S  S21  1  0.250000  0.237570  0.047920  1
  S  S22  1  0.250000  0.259839  0.547757  1
  S  S23  1  0.750000  0.740137  0.452252  1
  S  S24  1  0.250000  0.946942  0.824494  1
  S  S25  1  0.750000  0.052951  0.175613  1
  S  S26  1  0.750000  0.446850  0.675325  1
  S  S27  1  0.250000  0.553174  0.324568  1
  S  S28  1  0.750000  0.126265  0.681859  1
  S  S29  1  0.250000  0.873712  0.318155  1
  S  S30  1  0.250000  0.626452  0.817998  1
  S  S31  1  0.750000  0.373642  0.182718  1
  S  S32  1  0.750000  0.689873  0.198571  1
  S  S33  1  0.250000  0.310311  0.801465  1
  S  S34  1  0.250000  0.189628  0.301696  1
  S  S35  1  0.750000  0.810258  0.698419  1
