# generated using pymatgen
data_La3Dy6Er7(CdNi)4
_symmetry_space_group_name_H-M   'P 1'
_cell_length_a   9.59172549
_cell_length_b   9.58319718
_cell_length_c   9.58319700
_cell_angle_alpha   60.00000407
_cell_angle_beta   60.02941195
_cell_angle_gamma   60.02941030
_symmetry_Int_Tables_number   1
_chemical_formula_structural   La3Dy6Er7(CdNi)4
_chemical_formula_sum   'La3 Dy6 Er7 Cd4 Ni4'
_cell_volume   623.15418880
_cell_formula_units_Z   1
loop_
 _symmetry_equiv_pos_site_id
 _symmetry_equiv_pos_as_xyz
  1  'x, y, z'
loop_
 _atom_site_type_symbol
 _atom_site_label
 _atom_site_symmetry_multiplicity
 _atom_site_fract_x
 _atom_site_fract_y
 _atom_site_fract_z
 _atom_site_occupancy
  La  La0  1  0.597013  0.600917  0.600917  1
  La  La1  1  0.597013  0.600917  0.201154  1
  La  La2  1  0.597013  0.201154  0.600917  1
  Dy  Dy3  1  0.183880  0.815539  0.815539  1
  Dy  Dy4  1  0.815574  0.184377  0.184377  1
  Dy  Dy5  1  0.815574  0.184377  0.815671  1
  Dy  Dy6  1  0.183880  0.815539  0.185042  1
  Dy  Dy7  1  0.815574  0.815671  0.184377  1
  Dy  Dy8  1  0.183880  0.185042  0.815539  1
  Er  Er9  1  0.198405  0.600532  0.600532  1
  Er  Er10  1  0.064657  0.436435  0.436435  1
  Er  Er11  1  0.435770  0.064701  0.064701  1
  Er  Er12  1  0.435770  0.064701  0.434829  1
  Er  Er13  1  0.064657  0.436435  0.062472  1
  Er  Er14  1  0.435770  0.434829  0.064701  1
  Er  Er15  1  0.064657  0.062472  0.436435  1
  Cd  Cd16  1  0.835558  0.830232  0.830232  1
  Cd  Cd17  1  0.835558  0.830232  0.503976  1
  Cd  Cd18  1  0.835558  0.503976  0.830232  1
  Cd  Cd19  1  0.504577  0.831807  0.831807  1
  Ni  Ni20  1  0.390441  0.392217  0.392217  1
  Ni  Ni21  1  0.390441  0.392217  0.825125  1
  Ni  Ni22  1  0.390441  0.825125  0.392217  1
  Ni  Ni23  1  0.828339  0.390554  0.390554  1
