# generated using pymatgen
data_Ta4ReMo2Ir
_symmetry_space_group_name_H-M   'P 1'
_cell_length_a   6.43378200
_cell_length_b   4.53930200
_cell_length_c   9.08923300
_cell_angle_alpha   90.00000000
_cell_angle_beta   90.00000260
_cell_angle_gamma   90.00000000
_symmetry_Int_Tables_number   1
_chemical_formula_structural   Ta4ReMo2Ir
_chemical_formula_sum   'Ta8 Re2 Mo4 Ir2'
_cell_volume   265.44995451
_cell_formula_units_Z   2
loop_
 _symmetry_equiv_pos_site_id
 _symmetry_equiv_pos_as_xyz
  1  'x, y, z'
loop_
 _atom_site_type_symbol
 _atom_site_label
 _atom_site_symmetry_multiplicity
 _atom_site_fract_x
 _atom_site_fract_y
 _atom_site_fract_z
 _atom_site_occupancy
  Ta  Ta0  1  0.002565  0.750000  0.121764  1
  Ta  Ta1  1  0.497469  0.750000  0.121767  1
  Ta  Ta2  1  0.997455  0.250000  0.378238  1
  Ta  Ta3  1  0.502571  0.250000  0.378240  1
  Ta  Ta4  1  0.502215  0.750000  0.627677  1
  Ta  Ta5  1  0.997762  0.750000  0.627682  1
  Ta  Ta6  1  0.497767  0.250000  0.872321  1
  Ta  Ta7  1  0.002205  0.250000  0.872321  1
  Re  Re8  1  0.749987  0.250000  0.624304  1
  Re  Re9  1  0.249984  0.750000  0.875671  1
  Mo  Mo10  1  0.250015  0.250000  0.128326  1
  Mo  Mo11  1  0.750019  0.750000  0.371672  1
  Mo  Mo12  1  0.249978  0.250000  0.622015  1
  Mo  Mo13  1  0.749975  0.750000  0.877995  1
  Ir  Ir14  1  0.750017  0.250000  0.125564  1
  Ir  Ir15  1  0.250017  0.750000  0.374442  1
