# generated using pymatgen
data_PmAl3Pd2
_symmetry_space_group_name_H-M   'P 1'
_cell_length_a   5.50055302
_cell_length_b   5.50055228
_cell_length_c   4.19660500
_cell_angle_alpha   90.00000000
_cell_angle_beta   90.00000000
_cell_angle_gamma   59.97557551
_symmetry_Int_Tables_number   1
_chemical_formula_structural   PmAl3Pd2
_chemical_formula_sum   'Pm1 Al3 Pd2'
_cell_volume   109.93460921
_cell_formula_units_Z   1
loop_
 _symmetry_equiv_pos_site_id
 _symmetry_equiv_pos_as_xyz
  1  'x, y, z'
loop_
 _atom_site_type_symbol
 _atom_site_label
 _atom_site_symmetry_multiplicity
 _atom_site_fract_x
 _atom_site_fract_y
 _atom_site_fract_z
 _atom_site_occupancy
  Pm  Pm0  1  0.000000  0.000000  0.000000  1
  Al  Al1  1  0.500458  0.000007  0.499999  1
  Al  Al2  1  0.999993  0.499541  0.499999  1
  Al  Al3  1  0.499542  0.500457  0.499999  1
  Pd  Pd4  1  0.333330  0.333330  0.000000  1
  Pd  Pd5  1  0.666670  0.666670  0.000000  1
