# generated using pymatgen
data_CuIr(RuO3)4
_symmetry_space_group_name_H-M   'P 1'
_cell_length_a   4.53654575
_cell_length_b   4.53654575
_cell_length_c   9.40625100
_cell_angle_alpha   90.00000000
_cell_angle_beta   90.00000000
_cell_angle_gamma   90.21180229
_symmetry_Int_Tables_number   1
_chemical_formula_structural   CuIr(RuO3)4
_chemical_formula_sum   'Cu1 Ir1 Ru4 O12'
_cell_volume   193.58164939
_cell_formula_units_Z   1
loop_
 _symmetry_equiv_pos_site_id
 _symmetry_equiv_pos_as_xyz
  1  'x, y, z'
loop_
 _atom_site_type_symbol
 _atom_site_label
 _atom_site_symmetry_multiplicity
 _atom_site_fract_x
 _atom_site_fract_y
 _atom_site_fract_z
 _atom_site_occupancy
  Cu  Cu0  1  0.500000  0.500000  0.500000  1
  Ir  Ir1  1  0.000000  0.000000  0.000000  1
  Ru  Ru2  1  0.500000  0.500000  0.830959  1
  Ru  Ru3  1  0.000000  0.000000  0.336326  1
  Ru  Ru4  1  0.500000  0.500000  0.169041  1
  Ru  Ru5  1  0.000000  0.000000  0.663674  1
  O  O6  1  0.705668  0.705668  0.678722  1
  O  O7  1  0.294332  0.294332  0.678722  1
  O  O8  1  0.705668  0.705668  0.321278  1
  O  O9  1  0.194430  0.805570  0.165352  1
  O  O10  1  0.805570  0.194430  0.165352  1
  O  O11  1  0.805570  0.194430  0.834648  1
  O  O12  1  0.307799  0.307799  0.000000  1
  O  O13  1  0.195099  0.804901  0.500000  1
  O  O14  1  0.804901  0.195099  0.500000  1
  O  O15  1  0.692201  0.692201  0.000000  1
  O  O16  1  0.294332  0.294332  0.321278  1
  O  O17  1  0.194430  0.805570  0.834648  1
