# generated using pymatgen
data_Ac3(GaPt)4
_symmetry_space_group_name_H-M   'P 1'
_cell_length_a   8.61272346
_cell_length_b   8.61272202
_cell_length_c   8.61272149
_cell_angle_alpha   150.70883693
_cell_angle_beta   128.10684916
_cell_angle_gamma   60.70707404
_symmetry_Int_Tables_number   1
_chemical_formula_structural   Ac3(GaPt)4
_chemical_formula_sum   'Ac3 Ga4 Pt4'
_cell_volume   243.95445421
_cell_formula_units_Z   1
loop_
 _symmetry_equiv_pos_site_id
 _symmetry_equiv_pos_as_xyz
  1  'x, y, z'
loop_
 _atom_site_type_symbol
 _atom_site_label
 _atom_site_symmetry_multiplicity
 _atom_site_fract_x
 _atom_site_fract_y
 _atom_site_fract_z
 _atom_site_occupancy
  Ac  Ac0  1  0.500000  0.000000  0.500000  1
  Ac  Ac1  1  0.873249  0.873249  0.000000  1
  Ac  Ac2  1  0.126751  0.126751  0.000000  1
  Ga  Ga3  1  0.484599  0.673151  0.811449  1
  Ga  Ga4  1  0.861703  0.673151  0.188551  1
  Ga  Ga5  1  0.138297  0.326849  0.811449  1
  Ga  Ga6  1  0.515401  0.326849  0.188551  1
  Pt  Pt7  1  0.285116  0.785116  0.500000  1
  Pt  Pt8  1  0.714884  0.214884  0.500000  1
  Pt  Pt9  1  0.793432  0.500000  0.293432  1
  Pt  Pt10  1  0.206568  0.500000  0.706568  1
