# generated using pymatgen
data_HoEr3V4(WO6)4
_symmetry_space_group_name_H-M   'P 1'
_cell_length_a   5.20402301
_cell_length_b   7.41492201
_cell_length_c   11.16905903
_cell_angle_alpha   89.99563576
_cell_angle_beta   89.99286248
_cell_angle_gamma   90.00398625
_symmetry_Int_Tables_number   1
_chemical_formula_structural   HoEr3V4(WO6)4
_chemical_formula_sum   'Ho1 Er3 V4 W4 O24'
_cell_volume   430.98521955
_cell_formula_units_Z   1
loop_
 _symmetry_equiv_pos_site_id
 _symmetry_equiv_pos_as_xyz
  1  'x, y, z'
loop_
 _atom_site_type_symbol
 _atom_site_label
 _atom_site_symmetry_multiplicity
 _atom_site_fract_x
 _atom_site_fract_y
 _atom_site_fract_z
 _atom_site_occupancy
  Ho  Ho0  1  0.544136  0.250713  0.045564  1
  Er  Er1  1  0.044572  0.750785  0.454414  1
  Er  Er2  1  0.955445  0.250756  0.545587  1
  Er  Er3  1  0.455475  0.750769  0.954389  1
  V  V4  1  0.051136  0.997846  0.134304  1
  V  V5  1  0.551144  0.497934  0.365737  1
  V  V6  1  0.448842  0.997919  0.634274  1
  V  V7  1  0.948859  0.498014  0.865678  1
  W  W8  1  0.056771  0.506311  0.143238  1
  W  W9  1  0.556781  0.006158  0.356859  1
  W  W10  1  0.443225  0.506198  0.643207  1
  W  W11  1  0.943174  0.006126  0.856745  1
  O  O12  1  0.754700  0.958675  0.020072  1
  O  O13  1  0.762874  0.547650  0.029358  1
  O  O14  1  0.183352  0.749635  0.114663  1
  O  O15  1  0.931598  0.258098  0.142963  1
  O  O16  1  0.376740  0.431674  0.205866  1
  O  O17  1  0.394226  0.069512  0.213468  1
  O  O18  1  0.894376  0.569708  0.286692  1
  O  O19  1  0.876930  0.931437  0.294312  1
  O  O20  1  0.430838  0.758098  0.357203  1
  O  O21  1  0.683302  0.249594  0.385336  1
  O  O22  1  0.262695  0.047433  0.470608  1
  O  O23  1  0.254497  0.458958  0.479891  1
  O  O24  1  0.745487  0.958953  0.520119  1
  O  O25  1  0.737302  0.547425  0.529377  1
  O  O26  1  0.316699  0.749591  0.614649  1
  O  O27  1  0.569158  0.258103  0.642806  1
  O  O28  1  0.123063  0.431429  0.705685  1
  O  O29  1  0.105642  0.069688  0.713271  1
  O  O30  1  0.605538  0.569698  0.786700  1
  O  O31  1  0.623057  0.931425  0.794352  1
  O  O32  1  0.069207  0.758073  0.857171  1
  O  O33  1  0.817263  0.249580  0.885065  1
  O  O34  1  0.236856  0.047120  0.970549  1
  O  O35  1  0.245039  0.459313  0.979828  1
