# generated using pymatgen
data_Tb8Er12GaBi11
_symmetry_space_group_name_H-M   'P 1'
_cell_length_a   8.20044413
_cell_length_b   9.43815600
_cell_length_c   12.05200000
_cell_angle_alpha   90.00000000
_cell_angle_beta   90.28874234
_cell_angle_gamma   90.00000000
_symmetry_Int_Tables_number   1
_chemical_formula_structural   Tb8Er12GaBi11
_chemical_formula_sum   'Tb8 Er12 Ga1 Bi11'
_cell_volume   932.77765466
_cell_formula_units_Z   1
loop_
 _symmetry_equiv_pos_site_id
 _symmetry_equiv_pos_as_xyz
  1  'x, y, z'
loop_
 _atom_site_type_symbol
 _atom_site_label
 _atom_site_symmetry_multiplicity
 _atom_site_fract_x
 _atom_site_fract_y
 _atom_site_fract_z
 _atom_site_occupancy
  Tb  Tb0  1  0.191022  0.750000  0.722390  1
  Tb  Tb1  1  0.673101  0.750000  0.788141  1
  Tb  Tb2  1  0.811566  0.250000  0.280698  1
  Tb  Tb3  1  0.314065  0.250000  0.220122  1
  Tb  Tb4  1  0.354603  0.750000  0.206227  1
  Tb  Tb5  1  0.851697  0.750000  0.285327  1
  Tb  Tb6  1  0.649768  0.250000  0.785045  1
  Tb  Tb7  1  0.149083  0.250000  0.716150  1
  Er  Er8  1  0.035951  0.750000  0.990428  1
  Er  Er9  1  0.526182  0.750000  0.511430  1
  Er  Er10  1  0.978943  0.250000  0.009414  1
  Er  Er11  1  0.474806  0.250000  0.489073  1
  Er  Er12  1  0.309310  0.450904  0.940830  1
  Er  Er13  1  0.806194  0.064046  0.559299  1
  Er  Er14  1  0.684809  0.929414  0.054869  1
  Er  Er15  1  0.194043  0.564594  0.439149  1
  Er  Er16  1  0.684809  0.570586  0.054869  1
  Er  Er17  1  0.194043  0.935406  0.439149  1
  Er  Er18  1  0.309310  0.049096  0.940830  1
  Er  Er19  1  0.806194  0.435954  0.559299  1
  Ga  Ga20  1  0.408933  0.750000  0.961408  1
  Bi  Bi21  1  0.435701  0.004280  0.673496  1
  Bi  Bi22  1  0.935589  0.497988  0.826350  1
  Bi  Bi23  1  0.564563  0.504582  0.326932  1
  Bi  Bi24  1  0.063134  0.996918  0.173889  1
  Bi  Bi25  1  0.564563  0.995418  0.326932  1
  Bi  Bi26  1  0.063134  0.503082  0.173889  1
  Bi  Bi27  1  0.435701  0.495720  0.673496  1
  Bi  Bi28  1  0.935589  0.002012  0.826350  1
  Bi  Bi29  1  0.909642  0.750000  0.544286  1
  Bi  Bi30  1  0.592089  0.250000  0.042250  1
  Bi  Bi31  1  0.091865  0.250000  0.457985  1
