# generated using pymatgen
data_Ti8Al2Ga13Ir7
_symmetry_space_group_name_H-M   'P 1'
_cell_length_a   8.69043352
_cell_length_b   8.69043243
_cell_length_c   8.69043313
_cell_angle_alpha   120.19774816
_cell_angle_beta   119.76006437
_cell_angle_gamma   90.03695595
_symmetry_Int_Tables_number   1
_chemical_formula_structural   Ti8Al2Ga13Ir7
_chemical_formula_sum   'Ti8 Al2 Ga13 Ir7'
_cell_volume   464.23693461
_cell_formula_units_Z   1
loop_
 _symmetry_equiv_pos_site_id
 _symmetry_equiv_pos_as_xyz
  1  'x, y, z'
loop_
 _atom_site_type_symbol
 _atom_site_label
 _atom_site_symmetry_multiplicity
 _atom_site_fract_x
 _atom_site_fract_y
 _atom_site_fract_z
 _atom_site_occupancy
  Ti  Ti0  1  0.794751  0.291987  0.075213  1
  Ti  Ti1  1  0.216774  0.291987  0.497237  1
  Ti  Ti2  1  0.205309  0.705309  0.500000  1
  Ti  Ti3  1  0.216774  0.719538  0.924787  1
  Ti  Ti4  1  0.794751  0.719538  0.502763  1
  Ti  Ti5  1  0.780700  0.280700  0.500000  1
  Ti  Ti6  1  0.377579  0.124803  0.747224  1
  Ti  Ti7  1  0.377579  0.630354  0.252776  1
  Al  Al8  1  0.619778  0.875894  0.743884  1
  Al  Al9  1  0.132008  0.875894  0.256116  1
  Ga  Ga10  1  0.993869  0.493869  0.500000  1
  Ga  Ga11  1  0.151674  0.350087  0.198411  1
  Ga  Ga12  1  0.151674  0.953263  0.801589  1
  Ga  Ga13  1  0.149192  0.352140  0.797052  1
  Ga  Ga14  1  0.555086  0.352140  0.202948  1
  Ga  Ga15  1  0.850419  0.648424  0.798006  1
  Ga  Ga16  1  0.850419  0.052413  0.201994  1
  Ga  Ga17  1  0.848991  0.651375  0.197616  1
  Ga  Ga18  1  0.453760  0.651375  0.802384  1
  Ga  Ga19  1  0.377168  0.121413  0.255756  1
  Ga  Ga20  1  0.865659  0.121413  0.744244  1
  Ga  Ga21  1  0.619723  0.873520  0.253797  1
  Ga  Ga22  1  0.619723  0.365927  0.746203  1
  Ir  Ir23  1  0.004205  0.001335  0.502203  1
  Ir  Ir24  1  0.499132  0.001335  0.997130  1
  Ir  Ir25  1  0.497610  0.497610  0.000000  1
  Ir  Ir26  1  0.499132  0.502001  0.497797  1
  Ir  Ir27  1  0.004205  0.502001  0.002870  1
  Ir  Ir28  1  0.998601  0.998601  0.000000  1
  Ir  Ir29  1  0.493753  0.993753  0.500000  1
