# generated using pymatgen
data_Ti11Nb2P8W
_symmetry_space_group_name_H-M   'P 1'
_cell_length_a   7.53789247
_cell_length_b   7.53789261
_cell_length_c   13.54874800
_cell_angle_alpha   75.73745464
_cell_angle_beta   75.73745421
_cell_angle_gamma   26.21655676
_symmetry_Int_Tables_number   1
_chemical_formula_structural   Ti11Nb2P8W
_chemical_formula_sum   'Ti11 Nb2 P8 W1'
_cell_volume   329.02688030
_cell_formula_units_Z   1
loop_
 _symmetry_equiv_pos_site_id
 _symmetry_equiv_pos_as_xyz
  1  'x, y, z'
loop_
 _atom_site_type_symbol
 _atom_site_label
 _atom_site_symmetry_multiplicity
 _atom_site_fract_x
 _atom_site_fract_y
 _atom_site_fract_z
 _atom_site_occupancy
  Ti  Ti0  1  0.000000  0.000000  0.000000  1
  Ti  Ti1  1  0.197682  0.197682  0.689037  1
  Ti  Ti2  1  0.802318  0.802318  0.310963  1
  Ti  Ti3  1  0.206459  0.206459  0.207152  1
  Ti  Ti4  1  0.793541  0.793541  0.792848  1
  Ti  Ti5  1  0.339127  0.339127  0.968101  1
  Ti  Ti6  1  0.660873  0.660873  0.031899  1
  Ti  Ti7  1  0.003791  0.003791  0.339379  1
  Ti  Ti8  1  0.996209  0.996209  0.660621  1
  Ti  Ti9  1  0.175540  0.175540  0.459969  1
  Ti  Ti10  1  0.824460  0.824460  0.540031  1
  Nb  Nb11  1  0.427349  0.427349  0.172990  1
  Nb  Nb12  1  0.572651  0.572651  0.827010  1
  P  P13  1  0.180381  0.180381  0.890914  1
  P  P14  1  0.819619  0.819619  0.109086  1
  P  P15  1  0.373214  0.373214  0.394754  1
  P  P16  1  0.626786  0.626786  0.605246  1
  P  P17  1  0.369142  0.369142  0.659125  1
  P  P18  1  0.630858  0.630858  0.340875  1
  P  P19  1  0.063556  0.063556  0.151747  1
  P  P20  1  0.936444  0.936444  0.848253  1
  W  W21  1  0.500000  0.500000  0.500000  1
