# generated using pymatgen
data_Tm16MgIn(AgRh2)2
_symmetry_space_group_name_H-M   'P 1'
_cell_length_a   9.52823987
_cell_length_b   9.49480269
_cell_length_c   9.49480156
_cell_angle_alpha   59.71461388
_cell_angle_beta   59.67461758
_cell_angle_gamma   59.67461364
_symmetry_Int_Tables_number   1
_chemical_formula_structural   Tm16MgIn(AgRh2)2
_chemical_formula_sum   'Tm16 Mg1 In1 Ag2 Rh4'
_cell_volume   603.08678424
_cell_formula_units_Z   1
loop_
 _symmetry_equiv_pos_site_id
 _symmetry_equiv_pos_as_xyz
  1  'x, y, z'
loop_
 _atom_site_type_symbol
 _atom_site_label
 _atom_site_symmetry_multiplicity
 _atom_site_fract_x
 _atom_site_fract_y
 _atom_site_fract_z
 _atom_site_occupancy
  Tm  Tm0  1  0.596931  0.597350  0.597350  1
  Tm  Tm1  1  0.600868  0.599907  0.203257  1
  Tm  Tm2  1  0.600868  0.203257  0.599907  1
  Tm  Tm3  1  0.193827  0.603024  0.603024  1
  Tm  Tm4  1  0.059464  0.438991  0.438991  1
  Tm  Tm5  1  0.440481  0.060210  0.060210  1
  Tm  Tm6  1  0.435329  0.062262  0.437001  1
  Tm  Tm7  1  0.059230  0.440860  0.059601  1
  Tm  Tm8  1  0.435329  0.437001  0.062262  1
  Tm  Tm9  1  0.059230  0.059601  0.440860  1
  Tm  Tm10  1  0.185275  0.816183  0.816183  1
  Tm  Tm11  1  0.812550  0.187440  0.187440  1
  Tm  Tm12  1  0.815006  0.191172  0.816385  1
  Tm  Tm13  1  0.184853  0.813372  0.189968  1
  Tm  Tm14  1  0.815006  0.816385  0.191172  1
  Tm  Tm15  1  0.184853  0.189968  0.813372  1
  Mg  Mg16  1  0.530888  0.819329  0.819329  1
  In  In17  1  0.833256  0.829985  0.829985  1
  Ag  Ag18  1  0.832324  0.834040  0.498221  1
  Ag  Ag19  1  0.832324  0.498221  0.834040  1
  Rh  Rh20  1  0.389210  0.393836  0.393836  1
  Rh  Rh21  1  0.389749  0.393373  0.822212  1
  Rh  Rh22  1  0.389749  0.822212  0.393373  1
  Rh  Rh23  1  0.823395  0.392021  0.392021  1
