# generated using pymatgen
data_La2Pr3IrOs
_symmetry_space_group_name_H-M   'P 1'
_cell_length_a   9.13679897
_cell_length_b   9.13680077
_cell_length_c   7.42440944
_cell_angle_alpha   84.34820795
_cell_angle_beta   84.34820542
_cell_angle_gamma   43.15884347
_symmetry_Int_Tables_number   1
_chemical_formula_structural   La2Pr3IrOs
_chemical_formula_sum   'La4 Pr6 Ir2 Os2'
_cell_volume   421.57199296
_cell_formula_units_Z   2
loop_
 _symmetry_equiv_pos_site_id
 _symmetry_equiv_pos_as_xyz
  1  'x, y, z'
loop_
 _atom_site_type_symbol
 _atom_site_label
 _atom_site_symmetry_multiplicity
 _atom_site_fract_x
 _atom_site_fract_y
 _atom_site_fract_z
 _atom_site_occupancy
  La  La0  1  0.018255  0.796918  0.910246  1
  La  La1  1  0.203082  0.981745  0.589754  1
  La  La2  1  0.988657  0.197493  0.085300  1
  La  La3  1  0.802507  0.011343  0.414700  1
  Pr  Pr4  1  0.354504  0.211820  0.818231  1
  Pr  Pr5  1  0.788180  0.645496  0.681769  1
  Pr  Pr6  1  0.642248  0.788360  0.180254  1
  Pr  Pr7  1  0.211640  0.357752  0.319746  1
  Pr  Pr8  1  0.567779  0.432221  0.750000  1
  Pr  Pr9  1  0.430971  0.569029  0.250000  1
  Ir  Ir10  1  0.826209  0.397056  0.420356  1
  Ir  Ir11  1  0.602944  0.173791  0.079644  1
  Os  Os12  1  0.170585  0.607561  0.578163  1
  Os  Os13  1  0.392439  0.829415  0.921837  1
