# generated using pymatgen
data_Y8HgTe3
_symmetry_space_group_name_H-M   'P 1'
_cell_length_a   4.05797400
_cell_length_b   11.61613166
_cell_length_c   22.10981900
_cell_angle_alpha   89.87956472
_cell_angle_beta   90.00000000
_cell_angle_gamma   90.00000000
_symmetry_Int_Tables_number   1
_chemical_formula_structural   Y8HgTe3
_chemical_formula_sum   'Y24 Hg3 Te9'
_cell_volume   1042.20946707
_cell_formula_units_Z   3
loop_
 _symmetry_equiv_pos_site_id
 _symmetry_equiv_pos_as_xyz
  1  'x, y, z'
loop_
 _atom_site_type_symbol
 _atom_site_label
 _atom_site_symmetry_multiplicity
 _atom_site_fract_x
 _atom_site_fract_y
 _atom_site_fract_z
 _atom_site_occupancy
  Y  Y0  1  0.250000  0.149650  0.391001  1
  Y  Y1  1  0.750000  0.850514  0.609384  1
  Y  Y2  1  0.750000  0.652876  0.109723  1
  Y  Y3  1  0.250000  0.346866  0.890855  1
  Y  Y4  1  0.250000  0.456086  0.342290  1
  Y  Y5  1  0.750000  0.541586  0.657876  1
  Y  Y6  1  0.750000  0.955355  0.158908  1
  Y  Y7  1  0.250000  0.044447  0.840979  1
  Y  Y8  1  0.250000  0.736228  0.232410  1
  Y  Y9  1  0.750000  0.264965  0.767408  1
  Y  Y10  1  0.750000  0.235394  0.268243  1
  Y  Y11  1  0.250000  0.762909  0.732786  1
  Y  Y12  1  0.250000  0.118266  0.032177  1
  Y  Y13  1  0.750000  0.881714  0.967467  1
  Y  Y14  1  0.750000  0.616260  0.465557  1
  Y  Y15  1  0.250000  0.384971  0.533044  1
  Y  Y16  1  0.250000  0.412594  0.149478  1
  Y  Y17  1  0.750000  0.586984  0.850750  1
  Y  Y18  1  0.750000  0.913015  0.351496  1
  Y  Y19  1  0.250000  0.087159  0.649715  1
  Y  Y20  1  0.250000  0.612913  0.982489  1
  Y  Y21  1  0.750000  0.386376  0.017816  1
  Y  Y22  1  0.750000  0.113878  0.517542  1
  Y  Y23  1  0.250000  0.886653  0.482609  1
  Hg  Hg24  1  0.250000  0.848036  0.072468  1
  Hg  Hg25  1  0.750000  0.151410  0.927084  1
  Hg  Hg26  1  0.750000  0.347804  0.428684  1
  Te  Te27  1  0.250000  0.654002  0.569661  1
  Te  Te28  1  0.250000  0.714971  0.372062  1
  Te  Te29  1  0.750000  0.287308  0.627233  1
  Te  Te30  1  0.750000  0.213842  0.128340  1
  Te  Te31  1  0.250000  0.785557  0.871921  1
  Te  Te32  1  0.250000  0.022470  0.261139  1
  Te  Te33  1  0.750000  0.976435  0.739523  1
  Te  Te34  1  0.750000  0.523376  0.239596  1
  Te  Te35  1  0.250000  0.477129  0.760290  1
