# generated using pymatgen
data_Gd2C2Se
_symmetry_space_group_name_H-M   'P 1'
_cell_length_a   7.20743711
_cell_length_b   7.20743540
_cell_length_c   6.87723197
_cell_angle_alpha   78.21741265
_cell_angle_beta   78.21741416
_cell_angle_gamma   33.14992052
_symmetry_Int_Tables_number   1
_chemical_formula_structural   Gd2C2Se
_chemical_formula_sum   'Gd4 C4 Se2'
_cell_volume   190.87177546
_cell_formula_units_Z   2
loop_
 _symmetry_equiv_pos_site_id
 _symmetry_equiv_pos_as_xyz
  1  'x, y, z'
loop_
 _atom_site_type_symbol
 _atom_site_label
 _atom_site_symmetry_multiplicity
 _atom_site_fract_x
 _atom_site_fract_y
 _atom_site_fract_z
 _atom_site_occupancy
  Gd  Gd0  1  0.831976  0.454355  0.358287  1
  Gd  Gd1  1  0.545645  0.168024  0.141713  1
  Gd  Gd2  1  0.168024  0.545645  0.641713  1
  Gd  Gd3  1  0.454355  0.831976  0.858287  1
  C  C4  1  0.355105  0.098436  0.467334  1
  C  C5  1  0.901564  0.644895  0.032666  1
  C  C6  1  0.644895  0.901564  0.532666  1
  C  C7  1  0.098436  0.355105  0.967334  1
  Se  Se8  1  0.213093  0.786907  0.250000  1
  Se  Se9  1  0.786907  0.213093  0.750000  1
