# generated using pymatgen
data_Pr5Y11Cd4Ir3Pt
_symmetry_space_group_name_H-M   'P 1'
_cell_length_a   9.79679119
_cell_length_b   9.79109970
_cell_length_c   9.79109992
_cell_angle_alpha   60.12834081
_cell_angle_beta   60.11232923
_cell_angle_gamma   60.11232700
_symmetry_Int_Tables_number   1
_chemical_formula_structural   Pr5Y11Cd4Ir3Pt
_chemical_formula_sum   'Pr5 Y11 Cd4 Ir3 Pt1'
_cell_volume   665.86775471
_cell_formula_units_Z   1
loop_
 _symmetry_equiv_pos_site_id
 _symmetry_equiv_pos_as_xyz
  1  'x, y, z'
loop_
 _atom_site_type_symbol
 _atom_site_label
 _atom_site_symmetry_multiplicity
 _atom_site_fract_x
 _atom_site_fract_y
 _atom_site_fract_z
 _atom_site_occupancy
  Pr  Pr0  1  0.557810  0.942447  0.942447  1
  Pr  Pr1  1  0.563283  0.938346  0.560263  1
  Pr  Pr2  1  0.941505  0.560534  0.936702  1
  Pr  Pr3  1  0.563283  0.560263  0.938346  1
  Pr  Pr4  1  0.941505  0.936702  0.560534  1
  Y  Y5  1  0.348208  0.346847  0.346847  1
  Y  Y6  1  0.350246  0.354186  0.952648  1
  Y  Y7  1  0.350246  0.952648  0.354186  1
  Y  Y8  1  0.949587  0.351740  0.351740  1
  Y  Y9  1  0.807696  0.188624  0.188624  1
  Y  Y10  1  0.185242  0.812724  0.812724  1
  Y  Y11  1  0.188274  0.806924  0.191121  1
  Y  Y12  1  0.812141  0.186241  0.810876  1
  Y  Y13  1  0.188274  0.191121  0.806924  1
  Y  Y14  1  0.812141  0.810876  0.186241  1
  Y  Y15  1  0.945106  0.555307  0.555307  1
  Cd  Cd16  1  0.583002  0.578775  0.578775  1
  Cd  Cd17  1  0.578284  0.579808  0.261654  1
  Cd  Cd18  1  0.578284  0.261654  0.579808  1
  Cd  Cd19  1  0.259357  0.578881  0.578881  1
  Ir  Ir20  1  0.138903  0.145954  0.575882  1
  Ir  Ir21  1  0.138903  0.575882  0.145954  1
  Ir  Ir22  1  0.575953  0.141129  0.141129  1
  Pt  Pt23  1  0.142767  0.142388  0.142388  1
