# generated using pymatgen
data_DyYHfPtF14
_symmetry_space_group_name_H-M   'P 1'
_cell_length_a   5.63315127
_cell_length_b   8.98795546
_cell_length_c   12.08257957
_cell_angle_alpha   62.29394584
_cell_angle_beta   90.13927108
_cell_angle_gamma   90.10468593
_symmetry_Int_Tables_number   1
_chemical_formula_structural   DyYHfPtF14
_chemical_formula_sum   'Dy2 Y2 Hf2 Pt2 F28'
_cell_volume   541.60525192
_cell_formula_units_Z   2
loop_
 _symmetry_equiv_pos_site_id
 _symmetry_equiv_pos_as_xyz
  1  'x, y, z'
loop_
 _atom_site_type_symbol
 _atom_site_label
 _atom_site_symmetry_multiplicity
 _atom_site_fract_x
 _atom_site_fract_y
 _atom_site_fract_z
 _atom_site_occupancy
  Dy  Dy0  1  0.257685  0.812797  0.269318  1
  Dy  Dy1  1  0.742315  0.187203  0.730682  1
  Y  Y2  1  0.760409  0.182568  0.239405  1
  Y  Y3  1  0.239591  0.817432  0.760595  1
  Hf  Hf4  1  0.755327  0.725810  0.044446  1
  Hf  Hf5  1  0.244673  0.274190  0.955554  1
  Pt  Pt6  1  0.259536  0.274068  0.455593  1
  Pt  Pt7  1  0.740464  0.725932  0.544407  1
  F  F8  1  0.933182  0.704651  0.416974  1
  F  F9  1  0.066818  0.295349  0.583026  1
  F  F10  1  0.460541  0.290157  0.081224  1
  F  F11  1  0.539459  0.709843  0.918776  1
  F  F12  1  0.479520  0.731799  0.146589  1
  F  F13  1  0.520480  0.268201  0.853411  1
  F  F14  1  0.968189  0.272753  0.365848  1
  F  F15  1  0.031811  0.727247  0.634152  1
  F  F16  1  0.961927  0.749092  0.172095  1
  F  F17  1  0.038073  0.250908  0.827905  1
  F  F18  1  0.447262  0.259287  0.323023  1
  F  F19  1  0.552738  0.740713  0.676977  1
  F  F20  1  0.778466  0.475282  0.142161  1
  F  F21  1  0.221534  0.524718  0.857839  1
  F  F22  1  0.266990  0.521114  0.359283  1
  F  F23  1  0.733010  0.478886  0.640717  1
  F  F24  1  0.950134  0.274282  0.050698  1
  F  F25  1  0.049866  0.725718  0.949302  1
  F  F26  1  0.443266  0.717118  0.460655  1
  F  F27  1  0.556734  0.282882  0.539345  1
  F  F28  1  0.740199  0.972826  0.452716  1
  F  F29  1  0.259801  0.027174  0.547284  1
  F  F30  1  0.242303  0.023796  0.060172  1
  F  F31  1  0.757697  0.976204  0.939828  1
  F  F32  1  0.580541  0.968214  0.237325  1
  F  F33  1  0.419459  0.031786  0.762675  1
  F  F34  1  0.082922  0.027301  0.272576  1
  F  F35  1  0.917078  0.972699  0.727424  1
