# generated using pymatgen
data_HoTmB24
_symmetry_space_group_name_H-M   'P 1'
_cell_length_a   5.28561347
_cell_length_b   5.28561397
_cell_length_c   9.15414301
_cell_angle_alpha   73.21981712
_cell_angle_beta   106.78018576
_cell_angle_gamma   120.00000383
_symmetry_Int_Tables_number   1
_chemical_formula_structural   HoTmB24
_chemical_formula_sum   'Ho1 Tm1 B24'
_cell_volume   208.81326454
_cell_formula_units_Z   1
loop_
 _symmetry_equiv_pos_site_id
 _symmetry_equiv_pos_as_xyz
  1  'x, y, z'
loop_
 _atom_site_type_symbol
 _atom_site_label
 _atom_site_symmetry_multiplicity
 _atom_site_fract_x
 _atom_site_fract_y
 _atom_site_fract_z
 _atom_site_occupancy
  Ho  Ho0  1  0.249930  0.750070  0.749789  1
  Tm  Tm1  1  0.749974  0.250026  0.249924  1
  B  B2  1  0.000106  0.661571  0.000575  1
  B  B3  1  0.662041  0.999894  0.000575  1
  B  B4  1  0.338429  0.337959  0.000575  1
  B  B5  1  0.338429  0.999894  0.000575  1
  B  B6  1  0.662041  0.661571  0.000575  1
  B  B7  1  0.000106  0.337959  0.000575  1
  B  B8  1  0.669010  0.330990  0.668610  1
  B  B9  1  0.330591  0.330990  0.668610  1
  B  B10  1  0.669010  0.669409  0.668610  1
  B  B11  1  0.331034  0.668966  0.330910  1
  B  B12  1  0.668840  0.668966  0.330910  1
  B  B13  1  0.331034  0.331160  0.330910  1
  B  B14  1  0.168972  0.831028  0.169158  1
  B  B15  1  0.831214  0.831028  0.169158  1
  B  B16  1  0.168972  0.168786  0.169158  1
  B  B17  1  0.830990  0.169010  0.831422  1
  B  B18  1  0.169440  0.169010  0.831422  1
  B  B19  1  0.830990  0.830560  0.831422  1
  B  B20  1  0.499964  0.162190  0.499422  1
  B  B21  1  0.161649  0.500036  0.499422  1
  B  B22  1  0.837810  0.838351  0.499422  1
  B  B23  1  0.837810  0.500036  0.499422  1
  B  B24  1  0.161649  0.162190  0.499422  1
  B  B25  1  0.499964  0.838351  0.499422  1
