# generated using pymatgen
data_BaTb(Pd3O4)2
_symmetry_space_group_name_H-M   'P 1'
_cell_length_a   5.95499500
_cell_length_b   5.95499500
_cell_length_c   5.95499500
_cell_angle_alpha   90.00000000
_cell_angle_beta   90.00000000
_cell_angle_gamma   90.00000000
_symmetry_Int_Tables_number   1
_chemical_formula_structural   BaTb(Pd3O4)2
_chemical_formula_sum   'Ba1 Tb1 Pd6 O8'
_cell_volume   211.17582695
_cell_formula_units_Z   1
loop_
 _symmetry_equiv_pos_site_id
 _symmetry_equiv_pos_as_xyz
  1  'x, y, z'
loop_
 _atom_site_type_symbol
 _atom_site_label
 _atom_site_symmetry_multiplicity
 _atom_site_fract_x
 _atom_site_fract_y
 _atom_site_fract_z
 _atom_site_occupancy
  Ba  Ba0  1  0.500000  0.500000  0.500000  1
  Tb  Tb1  1  0.000000  0.000000  0.000000  1
  Pd  Pd2  1  0.241471  0.000000  0.500000  1
  Pd  Pd3  1  0.758529  0.000000  0.500000  1
  Pd  Pd4  1  0.500000  0.241471  0.000000  1
  Pd  Pd5  1  0.500000  0.758529  0.000000  1
  Pd  Pd6  1  0.000000  0.500000  0.241471  1
  Pd  Pd7  1  0.000000  0.500000  0.758529  1
  O  O8  1  0.234435  0.234435  0.234435  1
  O  O9  1  0.765565  0.765565  0.765565  1
  O  O10  1  0.765565  0.765565  0.234435  1
  O  O11  1  0.765565  0.234435  0.765565  1
  O  O12  1  0.234435  0.234435  0.765565  1
  O  O13  1  0.234435  0.765565  0.234435  1
  O  O14  1  0.234435  0.765565  0.765565  1
  O  O15  1  0.765565  0.234435  0.234435  1
