# generated using pymatgen
data_Eu2MgNbO6
_symmetry_space_group_name_H-M   'P 1'
_cell_length_a   5.62390549
_cell_length_b   5.62390446
_cell_length_c   5.62390478
_cell_angle_alpha   60.55053368
_cell_angle_beta   60.55054452
_cell_angle_gamma   60.55054141
_symmetry_Int_Tables_number   1
_chemical_formula_structural   Eu2MgNbO6
_chemical_formula_sum   'Eu2 Mg1 Nb1 O6'
_cell_volume   127.34073646
_cell_formula_units_Z   1
loop_
 _symmetry_equiv_pos_site_id
 _symmetry_equiv_pos_as_xyz
  1  'x, y, z'
loop_
 _atom_site_type_symbol
 _atom_site_label
 _atom_site_symmetry_multiplicity
 _atom_site_fract_x
 _atom_site_fract_y
 _atom_site_fract_z
 _atom_site_occupancy
  Eu  Eu0  1  0.250737  0.250737  0.250737  1
  Eu  Eu1  1  0.749263  0.749263  0.749263  1
  Mg  Mg2  1  0.500000  0.500000  0.500000  1
  Nb  Nb3  1  0.000000  0.000000  0.000000  1
  O  O4  1  0.757037  0.326412  0.165221  1
  O  O5  1  0.673588  0.834778  0.242963  1
  O  O6  1  0.165221  0.757036  0.326412  1
  O  O7  1  0.834778  0.242963  0.673587  1
  O  O8  1  0.326411  0.165222  0.757037  1
  O  O9  1  0.242963  0.673589  0.834777  1
