# generated using pymatgen
data_KMn3F9
_symmetry_space_group_name_H-M   'P 1'
_cell_length_a   7.64483272
_cell_length_b   7.65538189
_cell_length_c   7.84982550
_cell_angle_alpha   90.48166668
_cell_angle_beta   89.99961576
_cell_angle_gamma   60.11541733
_symmetry_Int_Tables_number   1
_chemical_formula_structural   KMn3F9
_chemical_formula_sum   'K2 Mn6 F18'
_cell_volume   398.29877444
_cell_formula_units_Z   2
loop_
 _symmetry_equiv_pos_site_id
 _symmetry_equiv_pos_as_xyz
  1  'x, y, z'
loop_
 _atom_site_type_symbol
 _atom_site_label
 _atom_site_symmetry_multiplicity
 _atom_site_fract_x
 _atom_site_fract_y
 _atom_site_fract_z
 _atom_site_occupancy
  K  K0  1  0.923817  0.543733  0.253584  1
  K  K1  1  0.072229  0.465957  0.743370  1
  Mn  Mn2  1  0.499295  0.999840  0.999495  1
  Mn  Mn3  1  0.499463  0.499636  0.999712  1
  Mn  Mn4  1  0.999480  0.000402  0.499798  1
  Mn  Mn5  1  0.999386  0.999826  0.999639  1
  Mn  Mn6  1  0.499494  0.499848  0.499805  1
  Mn  Mn7  1  0.499085  0.000313  0.499963  1
  F  F8  1  0.551733  0.514386  0.766649  1
  F  F9  1  0.450213  0.057466  0.235294  1
  F  F10  1  0.778288  0.306231  0.466718  1
  F  F11  1  0.191639  0.116754  0.531677  1
  F  F12  1  0.813677  0.281806  0.035410  1
  F  F13  1  0.218431  0.095878  0.962895  1
  F  F14  1  0.428514  0.298119  0.542920  1
  F  F15  1  0.569975  0.701984  0.456772  1
  F  F16  1  0.053722  0.970814  0.236363  1
  F  F17  1  0.944922  0.027666  0.763049  1
  F  F18  1  0.417813  0.307538  0.948449  1
  F  F19  1  0.580608  0.692236  0.051083  1
  F  F20  1  0.807044  0.883283  0.467938  1
  F  F21  1  0.220396  0.693534  0.532673  1
  F  F22  1  0.780817  0.902545  0.035977  1
  F  F23  1  0.184920  0.717171  0.963993  1
  F  F24  1  0.549618  0.941079  0.763522  1
  F  F25  1  0.446551  0.485737  0.232646  1
