# generated using pymatgen
data_Hf4TcNi
_symmetry_space_group_name_H-M   'P 1'
_cell_length_a   8.62871081
_cell_length_b   8.62871064
_cell_length_c   8.62871200
_cell_angle_alpha   60.00000244
_cell_angle_beta   60.00000311
_cell_angle_gamma   60.00000362
_symmetry_Int_Tables_number   1
_chemical_formula_structural   Hf4TcNi
_chemical_formula_sum   'Hf16 Tc4 Ni4'
_cell_volume   454.27917177
_cell_formula_units_Z   4
loop_
 _symmetry_equiv_pos_site_id
 _symmetry_equiv_pos_as_xyz
  1  'x, y, z'
loop_
 _atom_site_type_symbol
 _atom_site_label
 _atom_site_symmetry_multiplicity
 _atom_site_fract_x
 _atom_site_fract_y
 _atom_site_fract_z
 _atom_site_occupancy
  Hf  Hf0  1  0.673504  0.108832  0.108832  1
  Hf  Hf1  1  0.108832  0.673504  0.108832  1
  Hf  Hf2  1  0.108832  0.108832  0.673504  1
  Hf  Hf3  1  0.108832  0.108832  0.108832  1
  Hf  Hf4  1  0.314893  0.314893  0.685107  1
  Hf  Hf5  1  0.685107  0.685107  0.314893  1
  Hf  Hf6  1  0.314893  0.685107  0.314893  1
  Hf  Hf7  1  0.685107  0.314893  0.685107  1
  Hf  Hf8  1  0.685107  0.314893  0.314893  1
  Hf  Hf9  1  0.314893  0.685107  0.685107  1
  Hf  Hf10  1  0.947771  0.947771  0.552229  1
  Hf  Hf11  1  0.552229  0.552229  0.947771  1
  Hf  Hf12  1  0.947771  0.552229  0.947771  1
  Hf  Hf13  1  0.552229  0.947771  0.552229  1
  Hf  Hf14  1  0.552229  0.947771  0.947771  1
  Hf  Hf15  1  0.947771  0.552229  0.552229  1
  Tc  Tc16  1  0.993669  0.335443  0.335443  1
  Tc  Tc17  1  0.335443  0.993669  0.335443  1
  Tc  Tc18  1  0.335443  0.335443  0.993669  1
  Tc  Tc19  1  0.335443  0.335443  0.335443  1
  Ni  Ni20  1  0.314661  0.895113  0.895113  1
  Ni  Ni21  1  0.895113  0.314661  0.895113  1
  Ni  Ni22  1  0.895113  0.895113  0.314661  1
  Ni  Ni23  1  0.895113  0.895113  0.895113  1
