# generated using pymatgen
data_Sr2La3CeSe8
_symmetry_space_group_name_H-M   'P 1'
_cell_length_a   7.94002048
_cell_length_b   7.91429750
_cell_length_c   7.91429834
_cell_angle_alpha   109.11711289
_cell_angle_beta   109.52538639
_cell_angle_gamma   109.63924274
_symmetry_Int_Tables_number   1
_chemical_formula_structural   Sr2La3CeSe8
_chemical_formula_sum   'Sr2 La3 Ce1 Se8'
_cell_volume   383.46179160
_cell_formula_units_Z   1
loop_
 _symmetry_equiv_pos_site_id
 _symmetry_equiv_pos_as_xyz
  1  'x, y, z'
loop_
 _atom_site_type_symbol
 _atom_site_label
 _atom_site_symmetry_multiplicity
 _atom_site_fract_x
 _atom_site_fract_y
 _atom_site_fract_z
 _atom_site_occupancy
  Sr  Sr0  1  0.000371  0.000155  0.000082  1
  Sr  Sr1  1  0.249629  0.749711  0.499784  1
  La  La2  1  0.625000  0.247968  0.122968  1
  La  La3  1  0.497872  0.374759  0.623101  1
  La  La4  1  0.752128  0.875229  0.376888  1
  Ce  Ce5  1  0.125000  0.501760  0.876760  1
  Se  Se6  1  0.380918  0.479951  0.247296  1
  Se  Se7  1  0.019342  0.270568  0.402606  1
  Se  Se8  1  0.230658  0.133264  0.751227  1
  Se  Se9  1  0.382435  0.980369  0.250609  1
  Se  Se10  1  0.517979  0.768081  0.901612  1
  Se  Se11  1  0.867565  0.618174  0.097934  1
  Se  Se12  1  0.732021  0.133632  0.750101  1
  Se  Se13  1  0.869082  0.616379  0.599033  1
