# generated using pymatgen
data_Cs2PaSe3
_symmetry_space_group_name_H-M   'P 1'
_cell_length_a   8.44458279
_cell_length_b   8.44458367
_cell_length_c   7.71324400
_cell_angle_alpha   90.00000000
_cell_angle_beta   90.00000000
_cell_angle_gamma   109.10315551
_symmetry_Int_Tables_number   1
_chemical_formula_structural   Cs2PaSe3
_chemical_formula_sum   'Cs4 Pa2 Se6'
_cell_volume   519.74887371
_cell_formula_units_Z   2
loop_
 _symmetry_equiv_pos_site_id
 _symmetry_equiv_pos_as_xyz
  1  'x, y, z'
loop_
 _atom_site_type_symbol
 _atom_site_label
 _atom_site_symmetry_multiplicity
 _atom_site_fract_x
 _atom_site_fract_y
 _atom_site_fract_z
 _atom_site_occupancy
  Cs  Cs0  1  0.504275  0.816793  0.250000  1
  Cs  Cs1  1  0.495725  0.183207  0.750000  1
  Cs  Cs2  1  0.183207  0.495725  0.750000  1
  Cs  Cs3  1  0.816793  0.504275  0.250000  1
  Pa  Pa4  1  0.081288  0.081288  0.250000  1
  Pa  Pa5  1  0.918712  0.918712  0.750000  1
  Se  Se6  1  0.646454  0.646454  0.750000  1
  Se  Se7  1  0.353546  0.353546  0.250000  1
  Se  Se8  1  0.860162  0.139838  0.500000  1
  Se  Se9  1  0.860162  0.139838  0.000000  1
  Se  Se10  1  0.139838  0.860162  0.500000  1
  Se  Se11  1  0.139838  0.860162  0.000000  1
