# generated using pymatgen
data_Gd3BiO7
_symmetry_space_group_name_H-M   'P 1'
_cell_length_a   6.64041610
_cell_length_b   6.62122895
_cell_length_c   7.81155234
_cell_angle_alpha   106.92737382
_cell_angle_beta   89.76310154
_cell_angle_gamma   98.58708230
_symmetry_Int_Tables_number   1
_chemical_formula_structural   Gd3BiO7
_chemical_formula_sum   'Gd6 Bi2 O14'
_cell_volume   324.61135466
_cell_formula_units_Z   2
loop_
 _symmetry_equiv_pos_site_id
 _symmetry_equiv_pos_as_xyz
  1  'x, y, z'
loop_
 _atom_site_type_symbol
 _atom_site_label
 _atom_site_symmetry_multiplicity
 _atom_site_fract_x
 _atom_site_fract_y
 _atom_site_fract_z
 _atom_site_occupancy
  Gd  Gd0  1  0.461975  0.005039  0.252025  1
  Gd  Gd1  1  0.538025  0.994961  0.747975  1
  Gd  Gd2  1  0.270035  0.535368  0.882189  1
  Gd  Gd3  1  0.729965  0.464632  0.117811  1
  Gd  Gd4  1  0.735343  0.476854  0.613582  1
  Gd  Gd5  1  0.264657  0.523146  0.386418  1
  Bi  Bi6  1  0.000000  0.000000  0.500000  1
  Bi  Bi7  1  0.000000  0.000000  0.000000  1
  O  O8  1  0.444309  0.647066  0.167163  1
  O  O9  1  0.555691  0.352934  0.832837  1
  O  O10  1  0.299704  0.922627  0.951534  1
  O  O11  1  0.700296  0.077373  0.048466  1
  O  O12  1  0.296638  0.924515  0.512640  1
  O  O13  1  0.703362  0.075485  0.487360  1
  O  O14  1  0.545426  0.363374  0.345170  1
  O  O15  1  0.454574  0.636626  0.654830  1
  O  O16  1  0.924725  0.669171  0.960330  1
  O  O17  1  0.075275  0.330829  0.039670  1
  O  O18  1  0.070322  0.346152  0.619782  1
  O  O19  1  0.929678  0.653848  0.380218  1
  O  O20  1  0.879161  0.903951  0.725415  1
  O  O21  1  0.120839  0.096049  0.274585  1
