# generated using pymatgen
data_Yb9Pr8Er3Sn16
_symmetry_space_group_name_H-M   'P 1'
_cell_length_a   7.98276071
_cell_length_b   8.47156138
_cell_length_c   15.96921000
_cell_angle_alpha   89.94418917
_cell_angle_beta   89.90187000
_cell_angle_gamma   89.95708597
_symmetry_Int_Tables_number   1
_chemical_formula_structural   Yb9Pr8Er3Sn16
_chemical_formula_sum   'Yb9 Pr8 Er3 Sn16'
_cell_volume   1079.93854158
_cell_formula_units_Z   1
loop_
 _symmetry_equiv_pos_site_id
 _symmetry_equiv_pos_as_xyz
  1  'x, y, z'
loop_
 _atom_site_type_symbol
 _atom_site_label
 _atom_site_symmetry_multiplicity
 _atom_site_fract_x
 _atom_site_fract_y
 _atom_site_fract_z
 _atom_site_occupancy
  Yb  Yb0  1  0.329097  0.830582  0.876969  1
  Yb  Yb1  1  0.829058  0.669617  0.622932  1
  Yb  Yb2  1  0.670300  0.170527  0.377541  1
  Yb  Yb3  1  0.171048  0.330507  0.123376  1
  Yb  Yb4  1  0.670040  0.169666  0.123097  1
  Yb  Yb5  1  0.161202  0.502282  0.749498  1
  Yb  Yb6  1  0.660817  0.997726  0.750436  1
  Yb  Yb7  1  0.838714  0.495599  0.248455  1
  Yb  Yb8  1  0.342056  0.002810  0.249807  1
  Pr  Pr9  1  0.491453  0.315048  0.904869  1
  Pr  Pr10  1  0.990860  0.184381  0.595981  1
  Pr  Pr11  1  0.509609  0.684280  0.404571  1
  Pr  Pr12  1  0.008913  0.815472  0.096539  1
  Pr  Pr13  1  0.507940  0.685247  0.095985  1
  Pr  Pr14  1  0.006038  0.815978  0.403914  1
  Pr  Pr15  1  0.492170  0.316205  0.595634  1
  Pr  Pr16  1  0.991909  0.183907  0.903949  1
  Er  Er17  1  0.167729  0.328120  0.375890  1
  Er  Er18  1  0.330543  0.828926  0.623915  1
  Er  Er19  1  0.830195  0.670351  0.875316  1
  Sn  Sn20  1  0.330527  0.037086  0.039640  1
  Sn  Sn21  1  0.834166  0.462133  0.459383  1
  Sn  Sn22  1  0.665633  0.962279  0.540929  1
  Sn  Sn23  1  0.165451  0.538225  0.958907  1
  Sn  Sn24  1  0.673200  0.959789  0.959859  1
  Sn  Sn25  1  0.176110  0.539222  0.537455  1
  Sn  Sn26  1  0.323809  0.038885  0.462118  1
  Sn  Sn27  1  0.828402  0.465046  0.037325  1
  Sn  Sn28  1  0.531314  0.613207  0.752215  1
  Sn  Sn29  1  0.031272  0.888274  0.748084  1
  Sn  Sn30  1  0.466659  0.392133  0.253113  1
  Sn  Sn31  1  0.971077  0.109353  0.250412  1
  Sn  Sn32  1  0.287279  0.137972  0.748682  1
  Sn  Sn33  1  0.786749  0.362032  0.750759  1
  Sn  Sn34  1  0.716190  0.859229  0.250504  1
  Sn  Sn35  1  0.212473  0.637905  0.251943  1
