# generated using pymatgen
data_DyHoTm2(WO6)2
_symmetry_space_group_name_H-M   'P 1'
_cell_length_a   5.37330900
_cell_length_b   7.66717983
_cell_length_c   11.39066022
_cell_angle_alpha   75.50838513
_cell_angle_beta   90.00000000
_cell_angle_gamma   90.00000000
_symmetry_Int_Tables_number   1
_chemical_formula_structural   DyHoTm2(WO6)2
_chemical_formula_sum   'Dy2 Ho2 Tm4 W4 O24'
_cell_volume   454.34357000
_cell_formula_units_Z   2
loop_
 _symmetry_equiv_pos_site_id
 _symmetry_equiv_pos_as_xyz
  1  'x, y, z'
loop_
 _atom_site_type_symbol
 _atom_site_label
 _atom_site_symmetry_multiplicity
 _atom_site_fract_x
 _atom_site_fract_y
 _atom_site_fract_z
 _atom_site_occupancy
  Dy  Dy0  1  0.684089  0.500000  0.750000  1
  Dy  Dy1  1  0.315911  0.500000  0.250000  1
  Ho  Ho2  1  0.740340  0.000000  0.750000  1
  Ho  Ho3  1  0.259660  0.000000  0.250000  1
  Tm  Tm4  1  0.184876  0.795191  0.578363  1
  Tm  Tm5  1  0.815124  0.795191  0.078363  1
  Tm  Tm6  1  0.184876  0.204809  0.921637  1
  Tm  Tm7  1  0.815124  0.204809  0.421637  1
  W  W8  1  0.255068  0.723499  0.885897  1
  W  W9  1  0.744932  0.723499  0.385897  1
  W  W10  1  0.255068  0.276501  0.614103  1
  W  W11  1  0.744932  0.276501  0.114103  1
  O  O12  1  0.043063  0.940872  0.896483  1
  O  O13  1  0.534766  0.846846  0.931848  1
  O  O14  1  0.956937  0.940872  0.396483  1
  O  O15  1  0.458080  0.790914  0.726400  1
  O  O16  1  0.465234  0.846846  0.431848  1
  O  O17  1  0.981811  0.712090  0.770216  1
  O  O18  1  0.541920  0.790914  0.226400  1
  O  O19  1  0.853518  0.635398  0.549219  1
  O  O20  1  0.359333  0.488378  0.886836  1
  O  O21  1  0.018189  0.712090  0.270216  1
  O  O22  1  0.359333  0.511622  0.613164  1
  O  O23  1  0.853518  0.364602  0.950781  1
  O  O24  1  0.146482  0.635398  0.049219  1
  O  O25  1  0.640667  0.488378  0.386836  1
  O  O26  1  0.981811  0.287910  0.729784  1
  O  O27  1  0.640667  0.511622  0.113164  1
  O  O28  1  0.146482  0.364602  0.450781  1
  O  O29  1  0.458080  0.209086  0.773600  1
  O  O30  1  0.018189  0.287910  0.229784  1
  O  O31  1  0.534766  0.153154  0.568152  1
  O  O32  1  0.541920  0.209086  0.273600  1
  O  O33  1  0.043063  0.059128  0.603517  1
  O  O34  1  0.465234  0.153154  0.068152  1
  O  O35  1  0.956937  0.059128  0.103517  1
