# generated using pymatgen
data_CaEu(Ga3Pd)2
_symmetry_space_group_name_H-M   'P 1'
_cell_length_a   6.13361711
_cell_length_b   6.13360128
_cell_length_c   5.88992722
_cell_angle_alpha   89.98278451
_cell_angle_beta   90.03132172
_cell_angle_gamma   117.15811958
_symmetry_Int_Tables_number   1
_chemical_formula_structural   CaEu(Ga3Pd)2
_chemical_formula_sum   'Ca1 Eu1 Ga6 Pd2'
_cell_volume   197.15608498
_cell_formula_units_Z   1
loop_
 _symmetry_equiv_pos_site_id
 _symmetry_equiv_pos_as_xyz
  1  'x, y, z'
loop_
 _atom_site_type_symbol
 _atom_site_label
 _atom_site_symmetry_multiplicity
 _atom_site_fract_x
 _atom_site_fract_y
 _atom_site_fract_z
 _atom_site_occupancy
  Ca  Ca0  1  0.232914  0.767016  0.749996  1
  Eu  Eu1  1  0.766681  0.233427  0.249968  1
  Ga  Ga2  1  0.665017  0.334920  0.749986  1
  Ga  Ga3  1  0.334090  0.665987  0.250047  1
  Ga  Ga4  1  0.716074  0.715793  0.000247  1
  Ga  Ga5  1  0.716143  0.715947  0.499753  1
  Ga  Ga6  1  0.284069  0.283835  0.000285  1
  Ga  Ga7  1  0.284178  0.283858  0.499724  1
  Pd  Pd8  1  0.902925  0.097068  0.750014  1
  Pd  Pd9  1  0.097909  0.902149  0.249981  1
