# generated using pymatgen
data_LiLa2CdSb4
_symmetry_space_group_name_H-M   'P 1'
_cell_length_a   4.46697000
_cell_length_b   4.46697000
_cell_length_c   11.07827700
_cell_angle_alpha   90.00000000
_cell_angle_beta   90.00000000
_cell_angle_gamma   90.00000000
_symmetry_Int_Tables_number   1
_chemical_formula_structural   LiLa2CdSb4
_chemical_formula_sum   'Li1 La2 Cd1 Sb4'
_cell_volume   221.05395603
_cell_formula_units_Z   1
loop_
 _symmetry_equiv_pos_site_id
 _symmetry_equiv_pos_as_xyz
  1  'x, y, z'
loop_
 _atom_site_type_symbol
 _atom_site_label
 _atom_site_symmetry_multiplicity
 _atom_site_fract_x
 _atom_site_fract_y
 _atom_site_fract_z
 _atom_site_occupancy
  Li  Li0  1  0.500000  0.500000  0.000000  1
  La  La1  1  0.000000  0.500000  0.274237  1
  La  La2  1  0.500000  0.000000  0.725763  1
  Cd  Cd3  1  0.000000  0.000000  0.000000  1
  Sb  Sb4  1  0.000000  0.500000  0.827722  1
  Sb  Sb5  1  0.500000  0.000000  0.172278  1
  Sb  Sb6  1  0.000000  0.000000  0.500000  1
  Sb  Sb7  1  0.500000  0.500000  0.500000  1
