# generated using pymatgen
data_YHoAg2(Pt2O7)2
_symmetry_space_group_name_H-M   'P 1'
_cell_length_a   7.23809848
_cell_length_b   7.23809805
_cell_length_c   7.39507500
_cell_angle_alpha   59.28294594
_cell_angle_beta   59.28294989
_cell_angle_gamma   59.26249844
_symmetry_Int_Tables_number   1
_chemical_formula_structural   YHoAg2(Pt2O7)2
_chemical_formula_sum   'Y1 Ho1 Ag2 Pt4 O14'
_cell_volume   269.43718366
_cell_formula_units_Z   1
loop_
 _symmetry_equiv_pos_site_id
 _symmetry_equiv_pos_as_xyz
  1  'x, y, z'
loop_
 _atom_site_type_symbol
 _atom_site_label
 _atom_site_symmetry_multiplicity
 _atom_site_fract_x
 _atom_site_fract_y
 _atom_site_fract_z
 _atom_site_occupancy
  Y  Y0  1  0.625000  0.625000  0.625000  1
  Ho  Ho1  1  0.625000  0.625000  0.125000  1
  Ag  Ag2  1  0.625000  0.125000  0.625000  1
  Ag  Ag3  1  0.125000  0.625000  0.625000  1
  Pt  Pt4  1  0.125000  0.125000  0.125000  1
  Pt  Pt5  1  0.625000  0.125000  0.125000  1
  Pt  Pt6  1  0.125000  0.625000  0.125000  1
  Pt  Pt7  1  0.125000  0.125000  0.625000  1
  O  O8  1  0.028944  0.461326  0.455994  1
  O  O9  1  0.780480  0.780480  0.218918  1
  O  O10  1  0.788238  0.222095  0.196102  1
  O  O11  1  0.461326  0.028944  0.455994  1
  O  O12  1  0.761312  0.761312  0.739643  1
  O  O13  1  0.046022  0.046022  0.453977  1
  O  O14  1  0.027905  0.461762  0.053898  1
  O  O15  1  0.788674  0.221056  0.794006  1
  O  O16  1  0.222095  0.788238  0.196102  1
  O  O17  1  0.203978  0.203978  0.796023  1
  O  O18  1  0.488688  0.488688  0.510357  1
  O  O19  1  0.461762  0.027905  0.053898  1
  O  O20  1  0.469520  0.469520  0.031082  1
  O  O21  1  0.221056  0.788674  0.794006  1
