# generated using pymatgen
data_Li4Tb(SmSn2)2
_symmetry_space_group_name_H-M   'P 1'
_cell_length_a   4.64981754
_cell_length_b   7.13149655
_cell_length_c   8.72521488
_cell_angle_alpha   114.12141302
_cell_angle_beta   105.45364632
_cell_angle_gamma   90.00000456
_symmetry_Int_Tables_number   1
_chemical_formula_structural   Li4Tb(SmSn2)2
_chemical_formula_sum   'Li4 Tb1 Sm2 Sn4'
_cell_volume   252.56117115
_cell_formula_units_Z   1
loop_
 _symmetry_equiv_pos_site_id
 _symmetry_equiv_pos_as_xyz
  1  'x, y, z'
loop_
 _atom_site_type_symbol
 _atom_site_label
 _atom_site_symmetry_multiplicity
 _atom_site_fract_x
 _atom_site_fract_y
 _atom_site_fract_z
 _atom_site_occupancy
  Li  Li0  1  0.326890  0.017501  0.653779  1
  Li  Li1  1  0.673110  0.982499  0.346221  1
  Li  Li2  1  0.326890  0.636278  0.653779  1
  Li  Li3  1  0.673110  0.363722  0.346221  1
  Tb  Tb4  1  0.000000  0.000000  0.000000  1
  Sm  Sm5  1  0.871238  0.371238  0.742475  1
  Sm  Sm6  1  0.128762  0.628762  0.257525  1
  Sn  Sn7  1  0.213028  0.213028  0.426055  1
  Sn  Sn8  1  0.786972  0.786972  0.573945  1
  Sn  Sn9  1  0.500000  0.298269  0.000000  1
  Sn  Sn10  1  0.500000  0.701731  0.000000  1
