# generated using pymatgen
data_Dy7Y5(InSi2)2
_symmetry_space_group_name_H-M   'P 1'
_cell_length_a   8.54388789
_cell_length_b   8.54388864
_cell_length_c   8.54463849
_cell_angle_alpha   112.36578045
_cell_angle_beta   110.95061098
_cell_angle_gamma   105.18009635
_symmetry_Int_Tables_number   1
_chemical_formula_structural   Dy7Y5(InSi2)2
_chemical_formula_sum   'Dy7 Y5 In2 Si4'
_cell_volume   478.10195046
_cell_formula_units_Z   1
loop_
 _symmetry_equiv_pos_site_id
 _symmetry_equiv_pos_as_xyz
  1  'x, y, z'
loop_
 _atom_site_type_symbol
 _atom_site_label
 _atom_site_symmetry_multiplicity
 _atom_site_fract_x
 _atom_site_fract_y
 _atom_site_fract_z
 _atom_site_occupancy
  Dy  Dy0  1  0.814321  0.722150  0.536471  1
  Dy  Dy1  1  0.185706  0.722066  0.907771  1
  Dy  Dy2  1  0.814171  0.277842  0.092013  1
  Dy  Dy3  1  0.319937  0.617236  0.297214  1
  Dy  Dy4  1  0.680314  0.382907  0.702816  1
  Dy  Dy5  1  0.319910  0.022503  0.702816  1
  Dy  Dy6  1  0.679979  0.977276  0.297214  1
  Y  Y7  1  0.443116  0.238610  0.204382  1
  Y  Y8  1  0.557162  0.761626  0.795772  1
  Y  Y9  1  0.034144  0.238610  0.795772  1
  Y  Y10  1  0.965773  0.761266  0.204382  1
  Y  Y11  1  0.185599  0.277948  0.463547  1
  In  In12  1  0.499999  0.499989  0.999988  1
  In  In13  1  0.999937  0.999951  0.999888  1
  Si  Si14  1  0.369435  0.999994  0.369429  1
  Si  Si15  1  0.630552  0.999999  0.630551  1
  Si  Si16  1  0.115528  0.615570  0.499986  1
  Si  Si17  1  0.884416  0.384458  0.499986  1
