# generated using pymatgen
data_PrNdEr2(B6Ru)2
_symmetry_space_group_name_H-M   'P 1'
_cell_length_a   3.71028300
_cell_length_b   9.21444800
_cell_length_c   11.64387500
_cell_angle_alpha   90.00154358
_cell_angle_beta   90.00000000
_cell_angle_gamma   90.00000000
_symmetry_Int_Tables_number   1
_chemical_formula_structural   PrNdEr2(B6Ru)2
_chemical_formula_sum   'Pr2 Nd2 Er4 B24 Ru4'
_cell_volume   398.08324095
_cell_formula_units_Z   2
loop_
 _symmetry_equiv_pos_site_id
 _symmetry_equiv_pos_as_xyz
  1  'x, y, z'
loop_
 _atom_site_type_symbol
 _atom_site_label
 _atom_site_symmetry_multiplicity
 _atom_site_fract_x
 _atom_site_fract_y
 _atom_site_fract_z
 _atom_site_occupancy
  Pr  Pr0  1  0.000000  0.323087  0.414387  1
  Pr  Pr1  1  0.000000  0.676913  0.585613  1
  Nd  Nd2  1  0.000000  0.823010  0.085429  1
  Nd  Nd3  1  0.000000  0.176990  0.914571  1
  Er  Er4  1  0.000000  0.944209  0.371579  1
  Er  Er5  1  0.000000  0.055791  0.628421  1
  Er  Er6  1  0.000000  0.444237  0.128059  1
  Er  Er7  1  0.000000  0.555763  0.871941  1
  B  B8  1  0.500000  0.557051  0.429654  1
  B  B9  1  0.500000  0.442949  0.570346  1
  B  B10  1  0.500000  0.056616  0.069710  1
  B  B11  1  0.500000  0.943384  0.930290  1
  B  B12  1  0.500000  0.750344  0.416711  1
  B  B13  1  0.500000  0.249656  0.583289  1
  B  B14  1  0.500000  0.250086  0.082724  1
  B  B15  1  0.500000  0.749914  0.917276  1
  B  B16  1  0.500000  0.791050  0.266439  1
  B  B17  1  0.500000  0.208950  0.733561  1
  B  B18  1  0.500000  0.290682  0.232943  1
  B  B19  1  0.500000  0.709318  0.767057  1
  B  B20  1  0.500000  0.630832  0.184715  1
  B  B21  1  0.500000  0.369168  0.815285  1
  B  B22  1  0.500000  0.130414  0.314803  1
  B  B23  1  0.500000  0.869586  0.685197  1
  B  B24  1  0.500000  0.985792  0.214055  1
  B  B25  1  0.500000  0.014208  0.785945  1
  B  B26  1  0.500000  0.486321  0.285485  1
  B  B27  1  0.500000  0.513679  0.714515  1
  B  B28  1  0.500000  0.602421  0.027893  1
  B  B29  1  0.500000  0.397579  0.972107  1
  B  B30  1  0.500000  0.101641  0.472311  1
  B  B31  1  0.500000  0.898359  0.527689  1
  Ru  Ru32  1  0.000000  0.640323  0.318581  1
  Ru  Ru33  1  0.000000  0.359677  0.681419  1
  Ru  Ru34  1  0.000000  0.139575  0.180518  1
  Ru  Ru35  1  0.000000  0.860425  0.819482  1
