# generated using pymatgen
data_LaU(SiPt)4
_symmetry_space_group_name_H-M   'P 1'
_cell_length_a   4.28704300
_cell_length_b   4.28597500
_cell_length_c   9.80913300
_cell_angle_alpha   90.00000000
_cell_angle_beta   90.00000000
_cell_angle_gamma   90.00000000
_symmetry_Int_Tables_number   1
_chemical_formula_structural   LaU(SiPt)4
_chemical_formula_sum   'La1 U1 Si4 Pt4'
_cell_volume   180.23457059
_cell_formula_units_Z   1
loop_
 _symmetry_equiv_pos_site_id
 _symmetry_equiv_pos_as_xyz
  1  'x, y, z'
loop_
 _atom_site_type_symbol
 _atom_site_label
 _atom_site_symmetry_multiplicity
 _atom_site_fract_x
 _atom_site_fract_y
 _atom_site_fract_z
 _atom_site_occupancy
  La  La0  1  0.000000  0.500000  0.251617  1
  U  U1  1  0.500000  0.000000  0.747923  1
  Si  Si2  1  0.000000  0.000000  0.505813  1
  Si  Si3  1  0.500000  0.500000  0.505768  1
  Si  Si4  1  0.000000  0.500000  0.866268  1
  Si  Si5  1  0.500000  0.000000  0.132210  1
  Pt  Pt6  1  0.000000  0.500000  0.623278  1
  Pt  Pt7  1  0.500000  0.000000  0.384348  1
  Pt  Pt8  1  0.000000  0.000000  0.991474  1
  Pt  Pt9  1  0.500000  0.500000  0.991300  1
