# generated using pymatgen
data_La4MgCdSi3Ge
_symmetry_space_group_name_H-M   'P 1'
_cell_length_a   7.55261037
_cell_length_b   7.55367880
_cell_length_c   4.47613000
_cell_angle_alpha   90.00000000
_cell_angle_beta   90.00000000
_cell_angle_gamma   89.76392436
_symmetry_Int_Tables_number   1
_chemical_formula_structural   La4MgCdSi3Ge
_chemical_formula_sum   'La4 Mg1 Cd1 Si3 Ge1'
_cell_volume   255.36101679
_cell_formula_units_Z   1
loop_
 _symmetry_equiv_pos_site_id
 _symmetry_equiv_pos_as_xyz
  1  'x, y, z'
loop_
 _atom_site_type_symbol
 _atom_site_label
 _atom_site_symmetry_multiplicity
 _atom_site_fract_x
 _atom_site_fract_y
 _atom_site_fract_z
 _atom_site_occupancy
  La  La0  1  0.680834  0.177913  0.500000  1
  La  La1  1  0.319984  0.823238  0.500000  1
  La  La2  1  0.178264  0.316346  0.500000  1
  La  La3  1  0.819732  0.681162  0.500000  1
  Mg  Mg4  1  0.502177  0.498722  0.000000  1
  Cd  Cd5  1  0.998251  0.003085  0.000000  1
  Si  Si6  1  0.881004  0.387133  0.000000  1
  Si  Si7  1  0.610052  0.884319  0.000000  1
  Si  Si8  1  0.390501  0.115915  0.000000  1
  Ge  Ge9  1  0.119202  0.612167  0.000000  1
