# generated using pymatgen
data_Ho3Tm5B24Os3W
_symmetry_space_group_name_H-M   'P 1'
_cell_length_a   3.61611500
_cell_length_b   9.12974872
_cell_length_c   11.52193501
_cell_angle_alpha   89.89800240
_cell_angle_beta   90.00000000
_cell_angle_gamma   90.00000000
_symmetry_Int_Tables_number   1
_chemical_formula_structural   Ho3Tm5B24Os3W
_chemical_formula_sum   'Ho3 Tm5 B24 Os3 W1'
_cell_volume   380.38710949
_cell_formula_units_Z   1
loop_
 _symmetry_equiv_pos_site_id
 _symmetry_equiv_pos_as_xyz
  1  'x, y, z'
loop_
 _atom_site_type_symbol
 _atom_site_label
 _atom_site_symmetry_multiplicity
 _atom_site_fract_x
 _atom_site_fract_y
 _atom_site_fract_z
 _atom_site_occupancy
  Ho  Ho0  1  0.000000  0.320600  0.413441  1
  Ho  Ho1  1  0.000000  0.678159  0.585749  1
  Ho  Ho2  1  0.000000  0.820070  0.086817  1
  Tm  Tm3  1  0.000000  0.177777  0.914462  1
  Tm  Tm4  1  0.000000  0.945863  0.373559  1
  Tm  Tm5  1  0.000000  0.057372  0.628157  1
  Tm  Tm6  1  0.000000  0.442689  0.125542  1
  Tm  Tm7  1  0.000000  0.556550  0.871955  1
  B  B8  1  0.500000  0.549884  0.436535  1
  B  B9  1  0.500000  0.445875  0.568654  1
  B  B10  1  0.500000  0.053988  0.066296  1
  B  B11  1  0.500000  0.946906  0.933149  1
  B  B12  1  0.500000  0.752602  0.422552  1
  B  B13  1  0.500000  0.251318  0.581469  1
  B  B14  1  0.500000  0.248693  0.079384  1
  B  B15  1  0.500000  0.751239  0.918938  1
  B  B16  1  0.500000  0.795858  0.264111  1
  B  B17  1  0.500000  0.208184  0.734675  1
  B  B18  1  0.500000  0.290589  0.232001  1
  B  B19  1  0.500000  0.709327  0.766147  1
  B  B20  1  0.500000  0.631645  0.181690  1
  B  B21  1  0.500000  0.368053  0.815464  1
  B  B22  1  0.500000  0.131347  0.314035  1
  B  B23  1  0.500000  0.869936  0.685615  1
  B  B24  1  0.500000  0.983492  0.212780  1
  B  B25  1  0.500000  0.018232  0.788090  1
  B  B26  1  0.500000  0.476556  0.285821  1
  B  B27  1  0.500000  0.516693  0.713676  1
  B  B28  1  0.500000  0.605215  0.027396  1
  B  B29  1  0.500000  0.392983  0.969557  1
  B  B30  1  0.500000  0.106457  0.471358  1
  B  B31  1  0.500000  0.897235  0.530496  1
  Os  Os32  1  0.000000  0.361100  0.680652  1
  Os  Os33  1  0.000000  0.137281  0.177426  1
  Os  Os34  1  0.000000  0.862837  0.820947  1
  W  W35  1  0.000000  0.637396  0.321407  1
