# generated using pymatgen
data_TbEr5Al24Os5Rh3
_symmetry_space_group_name_H-M   'P 1'
_cell_length_a   8.76419787
_cell_length_b   8.78510723
_cell_length_c   9.55741541
_cell_angle_alpha   89.99416188
_cell_angle_beta   89.81393125
_cell_angle_gamma   119.33238553
_symmetry_Int_Tables_number   1
_chemical_formula_structural   TbEr5Al24Os5Rh3
_chemical_formula_sum   'Tb1 Er5 Al24 Os5 Rh3'
_cell_volume   641.51930805
_cell_formula_units_Z   1
loop_
 _symmetry_equiv_pos_site_id
 _symmetry_equiv_pos_as_xyz
  1  'x, y, z'
loop_
 _atom_site_type_symbol
 _atom_site_label
 _atom_site_symmetry_multiplicity
 _atom_site_fract_x
 _atom_site_fract_y
 _atom_site_fract_z
 _atom_site_occupancy
  Tb  Tb0  1  0.187112  0.383714  0.251788  1
  Er  Er1  1  0.812180  0.614397  0.747823  1
  Er  Er2  1  0.612262  0.813905  0.251458  1
  Er  Er3  1  0.387739  0.186147  0.748576  1
  Er  Er4  1  0.197184  0.808794  0.251906  1
  Er  Er5  1  0.803006  0.191584  0.748086  1
  Al  Al6  1  0.333749  0.668001  0.024757  1
  Al  Al7  1  0.666554  0.332529  0.974773  1
  Al  Al8  1  0.667444  0.332794  0.522626  1
  Al  Al9  1  0.332633  0.667523  0.477811  1
  Al  Al10  1  0.161902  0.325602  0.577876  1
  Al  Al11  1  0.838064  0.674491  0.422757  1
  Al  Al12  1  0.673458  0.836733  0.576858  1
  Al  Al13  1  0.835836  0.674514  0.077383  1
  Al  Al14  1  0.326724  0.163016  0.423539  1
  Al  Al15  1  0.164205  0.325504  0.921982  1
  Al  Al16  1  0.163609  0.834444  0.576221  1
  Al  Al17  1  0.326558  0.162771  0.076429  1
  Al  Al18  1  0.835775  0.165302  0.424221  1
  Al  Al19  1  0.673657  0.836986  0.923196  1
  Al  Al20  1  0.833606  0.162782  0.076160  1
  Al  Al21  1  0.165933  0.836968  0.923506  1
  Al  Al22  1  0.561471  0.126155  0.249542  1
  Al  Al23  1  0.438552  0.873794  0.750488  1
  Al  Al24  1  0.875492  0.439749  0.250007  1
  Al  Al25  1  0.123930  0.560499  0.750135  1
  Al  Al26  1  0.560992  0.440594  0.249553  1
  Al  Al27  1  0.439806  0.559595  0.750428  1
  Al  Al28  1  0.998398  0.000885  0.250097  1
  Al  Al29  1  0.000990  0.997918  0.749968  1
  Os  Os30  1  0.500209  0.000394  0.999837  1
  Os  Os31  1  0.500081  0.000266  0.500152  1
  Os  Os32  1  0.999525  0.500317  0.500623  1
  Os  Os33  1  0.999933  0.999934  0.000011  1
  Os  Os34  1  0.999915  0.999985  0.500053  1
  Rh  Rh35  1  0.999487  0.500465  0.999374  1
  Rh  Rh36  1  0.501047  0.500502  0.999309  1
  Rh  Rh37  1  0.500981  0.500450  0.500689  1
