# generated using pymatgen
data_Nd3ThSc4(ReB6)4
_symmetry_space_group_name_H-M   'P 1'
_cell_length_a   3.65986800
_cell_length_b   9.09192908
_cell_length_c   11.55038310
_cell_angle_alpha   89.98527311
_cell_angle_beta   90.00000000
_cell_angle_gamma   90.00000000
_symmetry_Int_Tables_number   1
_chemical_formula_structural   Nd3ThSc4(ReB6)4
_chemical_formula_sum   'Nd3 Th1 Sc4 Re4 B24'
_cell_volume   384.34199114
_cell_formula_units_Z   1
loop_
 _symmetry_equiv_pos_site_id
 _symmetry_equiv_pos_as_xyz
  1  'x, y, z'
loop_
 _atom_site_type_symbol
 _atom_site_label
 _atom_site_symmetry_multiplicity
 _atom_site_fract_x
 _atom_site_fract_y
 _atom_site_fract_z
 _atom_site_occupancy
  Nd  Nd0  1  0.000000  0.322205  0.414594  1
  Nd  Nd1  1  0.000000  0.678298  0.584968  1
  Nd  Nd2  1  0.000000  0.820849  0.085902  1
  Th  Th3  1  0.000000  0.178441  0.914975  1
  Sc  Sc4  1  0.000000  0.943938  0.369910  1
  Sc  Sc5  1  0.000000  0.055601  0.629050  1
  Sc  Sc6  1  0.000000  0.444829  0.130765  1
  Sc  Sc7  1  0.000000  0.556637  0.869772  1
  Re  Re8  1  0.000000  0.641509  0.317218  1
  Re  Re9  1  0.000000  0.357697  0.683310  1
  Re  Re10  1  0.000000  0.141306  0.182556  1
  Re  Re11  1  0.000000  0.859336  0.817278  1
  B  B12  1  0.500000  0.555976  0.429776  1
  B  B13  1  0.500000  0.443781  0.570223  1
  B  B14  1  0.500000  0.056550  0.070788  1
  B  B15  1  0.500000  0.943387  0.929419  1
  B  B16  1  0.500000  0.754810  0.415569  1
  B  B17  1  0.500000  0.245444  0.584087  1
  B  B18  1  0.500000  0.254628  0.084912  1
  B  B19  1  0.500000  0.744899  0.915471  1
  B  B20  1  0.500000  0.794679  0.265542  1
  B  B21  1  0.500000  0.205648  0.734179  1
  B  B22  1  0.500000  0.294541  0.234544  1
  B  B23  1  0.500000  0.705360  0.765574  1
  B  B24  1  0.500000  0.628415  0.183617  1
  B  B25  1  0.500000  0.371656  0.816126  1
  B  B26  1  0.500000  0.128258  0.316603  1
  B  B27  1  0.500000  0.871224  0.683234  1
  B  B28  1  0.500000  0.983056  0.215749  1
  B  B29  1  0.500000  0.016230  0.784518  1
  B  B30  1  0.500000  0.483244  0.284885  1
  B  B31  1  0.500000  0.516683  0.715027  1
  B  B32  1  0.500000  0.594741  0.025580  1
  B  B33  1  0.500000  0.406107  0.974725  1
  B  B34  1  0.500000  0.094072  0.474482  1
  B  B35  1  0.500000  0.905966  0.525071  1
