# generated using pymatgen
data_CaEr3Sc4(ReB6)4
_symmetry_space_group_name_H-M   'P 1'
_cell_length_a   3.57058000
_cell_length_b   9.01505513
_cell_length_c   11.37098117
_cell_angle_alpha   90.01975123
_cell_angle_beta   90.00000000
_cell_angle_gamma   90.00000000
_symmetry_Int_Tables_number   1
_chemical_formula_structural   CaEr3Sc4(ReB6)4
_chemical_formula_sum   'Ca1 Er3 Sc4 Re4 B24'
_cell_volume   366.02021319
_cell_formula_units_Z   1
loop_
 _symmetry_equiv_pos_site_id
 _symmetry_equiv_pos_as_xyz
  1  'x, y, z'
loop_
 _atom_site_type_symbol
 _atom_site_label
 _atom_site_symmetry_multiplicity
 _atom_site_fract_x
 _atom_site_fract_y
 _atom_site_fract_z
 _atom_site_occupancy
  Ca  Ca0  1  0.000000  0.321695  0.414128  1
  Er  Er1  1  0.000000  0.677058  0.585633  1
  Er  Er2  1  0.000000  0.822136  0.085971  1
  Er  Er3  1  0.000000  0.178160  0.914308  1
  Sc  Sc4  1  0.000000  0.943792  0.369046  1
  Sc  Sc5  1  0.000000  0.056301  0.630832  1
  Sc  Sc6  1  0.000000  0.444131  0.130408  1
  Sc  Sc7  1  0.000000  0.555717  0.870350  1
  Re  Re8  1  0.000000  0.643026  0.318060  1
  Re  Re9  1  0.000000  0.358655  0.682383  1
  Re  Re10  1  0.000000  0.140055  0.180938  1
  Re  Re11  1  0.000000  0.858713  0.818001  1
  B  B12  1  0.500000  0.554901  0.432773  1
  B  B13  1  0.500000  0.446440  0.567770  1
  B  B14  1  0.500000  0.053823  0.066498  1
  B  B15  1  0.500000  0.945531  0.932823  1
  B  B16  1  0.500000  0.754882  0.419116  1
  B  B17  1  0.500000  0.245529  0.581522  1
  B  B18  1  0.500000  0.254269  0.080785  1
  B  B19  1  0.500000  0.745714  0.919011  1
  B  B20  1  0.500000  0.796216  0.264164  1
  B  B21  1  0.500000  0.204385  0.736015  1
  B  B22  1  0.500000  0.295423  0.234856  1
  B  B23  1  0.500000  0.704475  0.764547  1
  B  B24  1  0.500000  0.629808  0.182699  1
  B  B25  1  0.500000  0.370706  0.817791  1
  B  B26  1  0.500000  0.128990  0.316761  1
  B  B27  1  0.500000  0.870380  0.682593  1
  B  B28  1  0.500000  0.980966  0.212938  1
  B  B29  1  0.500000  0.018683  0.786602  1
  B  B30  1  0.500000  0.481852  0.286266  1
  B  B31  1  0.500000  0.518658  0.713881  1
  B  B32  1  0.500000  0.595524  0.026095  1
  B  B33  1  0.500000  0.404578  0.974118  1
  B  B34  1  0.500000  0.093174  0.474437  1
  B  B35  1  0.500000  0.905654  0.525883  1
