# generated using pymatgen
data_NaNdNb3Ni9As7
_symmetry_space_group_name_H-M   'P 1'
_cell_length_a   9.65401900
_cell_length_b   9.65401864
_cell_length_c   3.85967800
_cell_angle_alpha   90.00000000
_cell_angle_beta   90.00000000
_cell_angle_gamma   120.00000465
_symmetry_Int_Tables_number   1
_chemical_formula_structural   NaNdNb3Ni9As7
_chemical_formula_sum   'Na1 Nd1 Nb3 Ni9 As7'
_cell_volume   311.52863205
_cell_formula_units_Z   1
loop_
 _symmetry_equiv_pos_site_id
 _symmetry_equiv_pos_as_xyz
  1  'x, y, z'
loop_
 _atom_site_type_symbol
 _atom_site_label
 _atom_site_symmetry_multiplicity
 _atom_site_fract_x
 _atom_site_fract_y
 _atom_site_fract_z
 _atom_site_occupancy
  Na  Na0  1  0.333333  0.666667  0.000000  1
  Nd  Nd1  1  0.666667  0.333333  0.500000  1
  Nb  Nb2  1  0.222079  0.120713  0.500000  1
  Nb  Nb3  1  0.879287  0.101366  0.500000  1
  Nb  Nb4  1  0.898634  0.777921  0.500000  1
  Ni  Ni5  1  0.127935  0.282908  0.000000  1
  Ni  Ni6  1  0.717092  0.845029  0.000000  1
  Ni  Ni7  1  0.154971  0.872065  0.000000  1
  Ni  Ni8  1  0.425083  0.362828  0.000000  1
  Ni  Ni9  1  0.637172  0.062255  0.000000  1
  Ni  Ni10  1  0.937745  0.574917  0.000000  1
  Ni  Ni11  1  0.055899  0.434890  0.500000  1
  Ni  Ni12  1  0.565110  0.621009  0.500000  1
  Ni  Ni13  1  0.378991  0.944101  0.500000  1
  As  As14  1  0.295994  0.417989  0.500000  1
  As  As15  1  0.582011  0.878005  0.500000  1
  As  As16  1  0.121995  0.704006  0.500000  1
  As  As17  1  0.413828  0.107397  0.000000  1
  As  As18  1  0.892603  0.306430  0.000000  1
  As  As19  1  0.693570  0.586172  0.000000  1
  As  As20  1  0.000000  0.000000  0.000000  1
