# generated using pymatgen
data_Dy11ErNi4SnRu
_symmetry_space_group_name_H-M   'P 1'
_cell_length_a   8.28906877
_cell_length_b   8.28906862
_cell_length_c   8.28840785
_cell_angle_alpha   111.66982268
_cell_angle_beta   109.75458659
_cell_angle_gamma   107.02608057
_symmetry_Int_Tables_number   1
_chemical_formula_structural   Dy11ErNi4SnRu
_chemical_formula_sum   'Dy11 Er1 Ni4 Sn1 Ru1'
_cell_volume   437.64732121
_cell_formula_units_Z   1
loop_
 _symmetry_equiv_pos_site_id
 _symmetry_equiv_pos_as_xyz
  1  'x, y, z'
loop_
 _atom_site_type_symbol
 _atom_site_label
 _atom_site_symmetry_multiplicity
 _atom_site_fract_x
 _atom_site_fract_y
 _atom_site_fract_z
 _atom_site_occupancy
  Dy  Dy0  1  0.320189  0.125241  0.805898  1
  Dy  Dy1  1  0.680658  0.485710  0.805898  1
  Dy  Dy2  1  0.404030  0.714016  0.690836  1
  Dy  Dy3  1  0.597141  0.286759  0.310137  1
  Dy  Dy4  1  0.976819  0.286807  0.690836  1
  Dy  Dy5  1  0.023379  0.712995  0.310137  1
  Dy  Dy6  1  0.319786  0.514173  0.194430  1
  Dy  Dy7  1  0.680256  0.874643  0.194430  1
  Dy  Dy8  1  0.181900  0.792301  0.974201  1
  Dy  Dy9  1  0.817950  0.792592  0.610544  1
  Dy  Dy10  1  0.181161  0.208544  0.389704  1
  Er  Er11  1  0.818290  0.208917  0.027207  1
  Ni  Ni12  1  0.875658  0.877966  0.999205  1
  Ni  Ni13  1  0.121239  0.123547  0.999205  1
  Ni  Ni14  1  0.635887  0.497848  0.133735  1
  Ni  Ni15  1  0.365372  0.499782  0.865154  1
  Sn  Sn16  1  0.500129  0.999725  0.499855  1
  Ru  Ru17  1  0.000157  0.498433  0.498589  1
