# generated using pymatgen
data_Tb5DyTe3
_symmetry_space_group_name_H-M   'P 1'
_cell_length_a   4.08787500
_cell_length_b   11.58644600
_cell_length_c   22.28439900
_cell_angle_alpha   90.00000000
_cell_angle_beta   90.00000000
_cell_angle_gamma   90.00000000
_symmetry_Int_Tables_number   1
_chemical_formula_structural   Tb5DyTe3
_chemical_formula_sum   'Tb20 Dy4 Te12'
_cell_volume   1055.47700274
_cell_formula_units_Z   4
loop_
 _symmetry_equiv_pos_site_id
 _symmetry_equiv_pos_as_xyz
  1  'x, y, z'
loop_
 _atom_site_type_symbol
 _atom_site_label
 _atom_site_symmetry_multiplicity
 _atom_site_fract_x
 _atom_site_fract_y
 _atom_site_fract_z
 _atom_site_occupancy
  Tb  Tb0  1  0.250000  0.151795  0.391583  1
  Tb  Tb1  1  0.750000  0.848205  0.608417  1
  Tb  Tb2  1  0.750000  0.651795  0.108417  1
  Tb  Tb3  1  0.250000  0.348205  0.891583  1
  Tb  Tb4  1  0.250000  0.455941  0.340050  1
  Tb  Tb5  1  0.750000  0.544059  0.659950  1
  Tb  Tb6  1  0.750000  0.955941  0.159950  1
  Tb  Tb7  1  0.250000  0.044059  0.840050  1
  Tb  Tb8  1  0.250000  0.734578  0.233531  1
  Tb  Tb9  1  0.750000  0.265422  0.766469  1
  Tb  Tb10  1  0.750000  0.234578  0.266469  1
  Tb  Tb11  1  0.250000  0.765422  0.733531  1
  Tb  Tb12  1  0.250000  0.115933  0.034353  1
  Tb  Tb13  1  0.750000  0.884067  0.965647  1
  Tb  Tb14  1  0.750000  0.615933  0.465647  1
  Tb  Tb15  1  0.250000  0.384067  0.534353  1
  Tb  Tb16  1  0.250000  0.414598  0.146839  1
  Tb  Tb17  1  0.750000  0.585402  0.853161  1
  Tb  Tb18  1  0.750000  0.914598  0.353161  1
  Tb  Tb19  1  0.250000  0.085402  0.646839  1
  Dy  Dy20  1  0.250000  0.612893  0.983010  1
  Dy  Dy21  1  0.750000  0.387107  0.016990  1
  Dy  Dy22  1  0.750000  0.112893  0.516990  1
  Dy  Dy23  1  0.250000  0.887107  0.483010  1
  Te  Te24  1  0.250000  0.850473  0.068830  1
  Te  Te25  1  0.750000  0.149527  0.931170  1
  Te  Te26  1  0.750000  0.350473  0.431170  1
  Te  Te27  1  0.250000  0.649527  0.568830  1
  Te  Te28  1  0.250000  0.712090  0.372711  1
  Te  Te29  1  0.750000  0.287910  0.627289  1
  Te  Te30  1  0.750000  0.212090  0.127289  1
  Te  Te31  1  0.250000  0.787910  0.872711  1
  Te  Te32  1  0.250000  0.020482  0.260978  1
  Te  Te33  1  0.750000  0.979518  0.739022  1
  Te  Te34  1  0.750000  0.520482  0.239022  1
  Te  Te35  1  0.250000  0.479518  0.760978  1
