# generated using pymatgen
data_Ac7Tb12ThSn16
_symmetry_space_group_name_H-M   'P 1'
_cell_length_a   8.36430683
_cell_length_b   8.43106824
_cell_length_c   16.09081749
_cell_angle_alpha   90.06836123
_cell_angle_beta   90.11222212
_cell_angle_gamma   90.18327604
_symmetry_Int_Tables_number   1
_chemical_formula_structural   Ac7Tb12ThSn16
_chemical_formula_sum   'Ac7 Tb12 Th1 Sn16'
_cell_volume   1134.71632082
_cell_formula_units_Z   1
loop_
 _symmetry_equiv_pos_site_id
 _symmetry_equiv_pos_as_xyz
  1  'x, y, z'
loop_
 _atom_site_type_symbol
 _atom_site_label
 _atom_site_symmetry_multiplicity
 _atom_site_fract_x
 _atom_site_fract_y
 _atom_site_fract_z
 _atom_site_occupancy
  Ac  Ac0  1  0.517098  0.321237  0.903892  1
  Ac  Ac1  1  0.015953  0.177496  0.596661  1
  Ac  Ac2  1  0.484306  0.678092  0.404027  1
  Ac  Ac3  1  0.983618  0.822793  0.095827  1
  Ac  Ac4  1  0.485225  0.678045  0.095080  1
  Ac  Ac5  1  0.984529  0.821764  0.403951  1
  Ac  Ac6  1  0.516125  0.322381  0.597555  1
  Tb  Tb7  1  0.359806  0.838334  0.878393  1
  Tb  Tb8  1  0.860636  0.662090  0.625249  1
  Tb  Tb9  1  0.639211  0.161489  0.377115  1
  Tb  Tb10  1  0.137109  0.337252  0.122754  1
  Tb  Tb11  1  0.638228  0.160545  0.121456  1
  Tb  Tb12  1  0.139890  0.338499  0.376443  1
  Tb  Tb13  1  0.360150  0.838995  0.623887  1
  Tb  Tb14  1  0.860840  0.662606  0.877078  1
  Tb  Tb15  1  0.194807  0.502366  0.750912  1
  Tb  Tb16  1  0.695130  0.995911  0.750467  1
  Tb  Tb17  1  0.803908  0.495351  0.250184  1
  Tb  Tb18  1  0.303743  0.003942  0.249450  1
  Th  Th19  1  0.018482  0.179161  0.901381  1
  Sn  Sn20  1  0.297072  0.048020  0.039359  1
  Sn  Sn21  1  0.807120  0.456323  0.456350  1
  Sn  Sn22  1  0.693778  0.955490  0.544741  1
  Sn  Sn23  1  0.190317  0.535593  0.953962  1
  Sn  Sn24  1  0.704672  0.963851  0.953438  1
  Sn  Sn25  1  0.192782  0.544382  0.545008  1
  Sn  Sn26  1  0.306284  0.044910  0.456205  1
  Sn  Sn27  1  0.808890  0.452837  0.041804  1
  Sn  Sn28  1  0.558740  0.630593  0.751154  1
  Sn  Sn29  1  0.059479  0.873102  0.753446  1
  Sn  Sn30  1  0.440313  0.368276  0.248801  1
  Sn  Sn31  1  0.939265  0.130846  0.249888  1
  Sn  Sn32  1  0.319111  0.137408  0.751953  1
  Sn  Sn33  1  0.828655  0.359406  0.753456  1
  Sn  Sn34  1  0.676922  0.864197  0.249429  1
  Sn  Sn35  1  0.177804  0.636418  0.249243  1
