# generated using pymatgen
data_La6MgAl2VSe14
_symmetry_space_group_name_H-M   'P 1'
_cell_length_a   10.64732200
_cell_length_b   10.64806735
_cell_length_c   6.40149600
_cell_angle_alpha   89.99974465
_cell_angle_beta   89.99913987
_cell_angle_gamma   120.00240302
_symmetry_Int_Tables_number   1
_chemical_formula_structural   La6MgAl2VSe14
_chemical_formula_sum   'La6 Mg1 Al2 V1 Se14'
_cell_volume   628.51083813
_cell_formula_units_Z   1
loop_
 _symmetry_equiv_pos_site_id
 _symmetry_equiv_pos_as_xyz
  1  'x, y, z'
loop_
 _atom_site_type_symbol
 _atom_site_label
 _atom_site_symmetry_multiplicity
 _atom_site_fract_x
 _atom_site_fract_y
 _atom_site_fract_z
 _atom_site_occupancy
  La  La0  1  0.626512  0.769235  0.225596  1
  La  La1  1  0.230777  0.857327  0.225723  1
  La  La2  1  0.142780  0.373502  0.225658  1
  La  La3  1  0.768294  0.141970  0.730069  1
  La  La4  1  0.373553  0.231686  0.729865  1
  La  La5  1  0.858081  0.626300  0.730071  1
  Mg  Mg6  1  0.999475  0.999565  0.517657  1
  Al  Al7  1  0.666648  0.333352  0.144166  1
  Al  Al8  1  0.333369  0.666667  0.643858  1
  V  V9  1  0.000250  0.000194  0.023067  1
  Se  Se10  1  0.904327  0.421769  0.997497  1
  Se  Se11  1  0.578209  0.482544  0.997443  1
  Se  Se12  1  0.517393  0.095729  0.997470  1
  Se  Se13  1  0.333357  0.666699  0.015308  1
  Se  Se14  1  0.236545  0.145770  0.267943  1
  Se  Se15  1  0.909149  0.763277  0.267490  1
  Se  Se16  1  0.854184  0.090857  0.267557  1
  Se  Se17  1  0.421792  0.517152  0.498137  1
  Se  Se18  1  0.095407  0.578290  0.498138  1
  Se  Se19  1  0.482979  0.904618  0.498133  1
  Se  Se20  1  0.666677  0.333333  0.515499  1
  Se  Se21  1  0.092100  0.235846  0.782447  1
  Se  Se22  1  0.764400  0.856384  0.782738  1
  Se  Se23  1  0.143740  0.907932  0.782465  1
