# generated using pymatgen
data_EuIrF7
_symmetry_space_group_name_H-M   'P 1'
_cell_length_a   7.34737900
_cell_length_b   8.96231800
_cell_length_c   10.26969600
_cell_angle_alpha   90.00000000
_cell_angle_beta   90.00000000
_cell_angle_gamma   90.00000000
_symmetry_Int_Tables_number   1
_chemical_formula_structural   EuIrF7
_chemical_formula_sum   'Eu4 Ir4 F28'
_cell_volume   676.25483009
_cell_formula_units_Z   4
loop_
 _symmetry_equiv_pos_site_id
 _symmetry_equiv_pos_as_xyz
  1  'x, y, z'
loop_
 _atom_site_type_symbol
 _atom_site_label
 _atom_site_symmetry_multiplicity
 _atom_site_fract_x
 _atom_site_fract_y
 _atom_site_fract_z
 _atom_site_occupancy
  Eu  Eu0  1  0.250000  0.129509  0.238541  1
  Eu  Eu1  1  0.750000  0.870491  0.761459  1
  Eu  Eu2  1  0.750000  0.370491  0.738541  1
  Eu  Eu3  1  0.250000  0.629509  0.261459  1
  Ir  Ir4  1  0.250000  0.300578  0.553774  1
  Ir  Ir5  1  0.750000  0.699422  0.446226  1
  Ir  Ir6  1  0.250000  0.800578  0.946226  1
  Ir  Ir7  1  0.750000  0.199422  0.053774  1
  F  F8  1  0.750000  0.386733  0.136422  1
  F  F9  1  0.572334  0.273242  0.926558  1
  F  F10  1  0.939182  0.127061  0.174642  1
  F  F11  1  0.750000  0.004114  0.969025  1
  F  F12  1  0.072334  0.726758  0.073442  1
  F  F13  1  0.060818  0.872939  0.825358  1
  F  F14  1  0.439182  0.872939  0.825358  1
  F  F15  1  0.250000  0.495886  0.469025  1
  F  F16  1  0.927666  0.773242  0.573442  1
  F  F17  1  0.427666  0.226758  0.426558  1
  F  F18  1  0.250000  0.884488  0.301806  1
  F  F19  1  0.750000  0.886733  0.363578  1
  F  F20  1  0.750000  0.504114  0.530975  1
  F  F21  1  0.572334  0.773242  0.573442  1
  F  F22  1  0.250000  0.613267  0.863578  1
  F  F23  1  0.560818  0.627061  0.325358  1
  F  F24  1  0.750000  0.615512  0.801806  1
  F  F25  1  0.250000  0.995886  0.030975  1
  F  F26  1  0.060818  0.372939  0.674642  1
  F  F27  1  0.250000  0.384488  0.198194  1
  F  F28  1  0.939182  0.627061  0.325358  1
  F  F29  1  0.439182  0.372939  0.674642  1
  F  F30  1  0.927666  0.273242  0.926558  1
  F  F31  1  0.072334  0.226758  0.426558  1
  F  F32  1  0.560818  0.127061  0.174642  1
  F  F33  1  0.427666  0.726758  0.073442  1
  F  F34  1  0.750000  0.115512  0.698194  1
  F  F35  1  0.250000  0.113267  0.636422  1
