# generated using pymatgen
data_La4Gd2IrBr10
_symmetry_space_group_name_H-M   'P 1'
_cell_length_a   7.81670978
_cell_length_b   9.75648223
_cell_length_c   9.64876500
_cell_angle_alpha   108.37044255
_cell_angle_beta   96.52358096
_cell_angle_gamma   106.35394494
_symmetry_Int_Tables_number   1
_chemical_formula_structural   La4Gd2IrBr10
_chemical_formula_sum   'La4 Gd2 Ir1 Br10'
_cell_volume   653.34199752
_cell_formula_units_Z   1
loop_
 _symmetry_equiv_pos_site_id
 _symmetry_equiv_pos_as_xyz
  1  'x, y, z'
loop_
 _atom_site_type_symbol
 _atom_site_label
 _atom_site_symmetry_multiplicity
 _atom_site_fract_x
 _atom_site_fract_y
 _atom_site_fract_z
 _atom_site_occupancy
  La  La0  1  0.635189  0.860945  0.813409  1
  La  La1  1  0.364811  0.139055  0.186591  1
  La  La2  1  0.130230  0.052297  0.762132  1
  La  La3  1  0.869770  0.947703  0.237868  1
  Gd  Gd4  1  0.973302  0.301311  0.098128  1
  Gd  Gd5  1  0.026698  0.698689  0.901872  1
  Ir  Ir6  1  0.000000  0.000000  0.000000  1
  Br  Br7  1  0.552747  0.176210  0.922805  1
  Br  Br8  1  0.447253  0.823790  0.077195  1
  Br  Br9  1  0.756300  0.919206  0.544312  1
  Br  Br10  1  0.243700  0.080794  0.455688  1
  Br  Br11  1  0.080737  0.372467  0.839626  1
  Br  Br12  1  0.919263  0.627533  0.160374  1
  Br  Br13  1  0.206910  0.744670  0.658757  1
  Br  Br14  1  0.793090  0.255330  0.341243  1
  Br  Br15  1  0.658129  0.548111  0.730567  1
  Br  Br16  1  0.341871  0.451889  0.269433  1
