# generated using pymatgen
data_Dy2Th(Ga2Ni3)3
_symmetry_space_group_name_H-M   'P 1'
_cell_length_a   4.10272200
_cell_length_b   8.80157721
_cell_length_c   8.80512603
_cell_angle_alpha   60.04231880
_cell_angle_beta   90.00000000
_cell_angle_gamma   90.00000000
_symmetry_Int_Tables_number   1
_chemical_formula_structural   Dy2Th(Ga2Ni3)3
_chemical_formula_sum   'Dy2 Th1 Ga6 Ni9'
_cell_volume   275.47604598
_cell_formula_units_Z   1
loop_
 _symmetry_equiv_pos_site_id
 _symmetry_equiv_pos_as_xyz
  1  'x, y, z'
loop_
 _atom_site_type_symbol
 _atom_site_label
 _atom_site_symmetry_multiplicity
 _atom_site_fract_x
 _atom_site_fract_y
 _atom_site_fract_z
 _atom_site_occupancy
  Dy  Dy0  1  0.500000  0.333290  0.333228  1
  Dy  Dy1  1  0.500000  0.666538  0.666796  1
  Th  Th2  1  0.000000  0.999819  0.999938  1
  Ga  Ga3  1  0.000000  0.525641  0.474414  1
  Ga  Ga4  1  0.000000  0.474442  0.000142  1
  Ga  Ga5  1  0.000000  0.000093  0.525574  1
  Ga  Ga6  1  0.500000  0.281337  0.718696  1
  Ga  Ga7  1  0.500000  0.718502  0.999954  1
  Ga  Ga8  1  0.500000  0.999896  0.281302  1
  Ni  Ni9  1  0.000000  0.171349  0.206435  1
  Ni  Ni10  1  0.000000  0.206645  0.621744  1
  Ni  Ni11  1  0.000000  0.622211  0.171335  1
  Ni  Ni12  1  0.000000  0.793472  0.828487  1
  Ni  Ni13  1  0.000000  0.377981  0.793477  1
  Ni  Ni14  1  0.000000  0.828345  0.378057  1
  Ni  Ni15  1  0.500000  0.710620  0.289519  1
  Ni  Ni16  1  0.500000  0.289522  0.000237  1
  Ni  Ni17  1  0.500000  0.000197  0.710764  1
