# generated using pymatgen
data_CrAg(NO3)4
_symmetry_space_group_name_H-M   'P 1'
_cell_length_a   8.23267357
_cell_length_b   7.89295600
_cell_length_c   7.57142769
_cell_angle_alpha   90.00000000
_cell_angle_beta   87.83932704
_cell_angle_gamma   90.00000000
_symmetry_Int_Tables_number   1
_chemical_formula_structural   CrAg(NO3)4
_chemical_formula_sum   'Cr2 Ag2 N8 O24'
_cell_volume   491.64256540
_cell_formula_units_Z   2
loop_
 _symmetry_equiv_pos_site_id
 _symmetry_equiv_pos_as_xyz
  1  'x, y, z'
loop_
 _atom_site_type_symbol
 _atom_site_label
 _atom_site_symmetry_multiplicity
 _atom_site_fract_x
 _atom_site_fract_y
 _atom_site_fract_z
 _atom_site_occupancy
  Cr  Cr0  1  0.000000  0.500000  0.000000  1
  Cr  Cr1  1  0.000000  0.000000  0.500000  1
  Ag  Ag2  1  0.500000  0.500000  0.500000  1
  Ag  Ag3  1  0.500000  0.000000  0.000000  1
  N  N4  1  0.700300  0.135486  0.326865  1
  N  N5  1  0.700300  0.364514  0.826865  1
  N  N6  1  0.850898  0.799520  0.822248  1
  N  N7  1  0.850898  0.700480  0.322248  1
  N  N8  1  0.149102  0.200480  0.177752  1
  N  N9  1  0.149102  0.299520  0.677752  1
  N  N10  1  0.299700  0.635486  0.173135  1
  N  N11  1  0.299700  0.864514  0.673135  1
  O  O12  1  0.587747  0.259864  0.826955  1
  O  O13  1  0.587747  0.240136  0.326955  1
  O  O14  1  0.716627  0.479639  0.714018  1
  O  O15  1  0.716627  0.020361  0.214018  1
  O  O16  1  0.735113  0.713861  0.428457  1
  O  O17  1  0.735113  0.786139  0.928457  1
  O  O18  1  0.805984  0.351808  0.951962  1
  O  O19  1  0.805984  0.148192  0.451962  1
  O  O20  1  0.851832  0.918431  0.706554  1
  O  O21  1  0.851832  0.581569  0.206554  1
  O  O22  1  0.972715  0.697226  0.821688  1
  O  O23  1  0.972715  0.802774  0.321688  1
  O  O24  1  0.027285  0.197226  0.678312  1
  O  O25  1  0.027285  0.302774  0.178312  1
  O  O26  1  0.148168  0.418431  0.793446  1
  O  O27  1  0.148168  0.081569  0.293446  1
  O  O28  1  0.194016  0.648192  0.048038  1
  O  O29  1  0.194016  0.851808  0.548038  1
  O  O30  1  0.264887  0.213861  0.071543  1
  O  O31  1  0.264887  0.286139  0.571543  1
  O  O32  1  0.283373  0.520361  0.285982  1
  O  O33  1  0.283373  0.979639  0.785982  1
  O  O34  1  0.412253  0.759864  0.673045  1
  O  O35  1  0.412253  0.740136  0.173045  1
