# generated using pymatgen
data_SrY3(Mo2O7)2
_symmetry_space_group_name_H-M   'P 1'
_cell_length_a   7.37750460
_cell_length_b   7.37750468
_cell_length_c   7.47769539
_cell_angle_alpha   60.44223938
_cell_angle_beta   60.44223779
_cell_angle_gamma   59.99999618
_symmetry_Int_Tables_number   1
_chemical_formula_structural   SrY3(Mo2O7)2
_chemical_formula_sum   'Sr1 Y3 Mo4 O14'
_cell_volume   289.69609499
_cell_formula_units_Z   1
loop_
 _symmetry_equiv_pos_site_id
 _symmetry_equiv_pos_as_xyz
  1  'x, y, z'
loop_
 _atom_site_type_symbol
 _atom_site_label
 _atom_site_symmetry_multiplicity
 _atom_site_fract_x
 _atom_site_fract_y
 _atom_site_fract_z
 _atom_site_occupancy
  Sr  Sr0  1  0.125000  0.125000  0.625000  1
  Y  Y1  1  0.125000  0.125000  0.125000  1
  Y  Y2  1  0.625000  0.125000  0.125000  1
  Y  Y3  1  0.125000  0.625000  0.125000  1
  Mo  Mo4  1  0.625000  0.625000  0.625000  1
  Mo  Mo5  1  0.125000  0.625000  0.625000  1
  Mo  Mo6  1  0.625000  0.125000  0.625000  1
  Mo  Mo7  1  0.625000  0.625000  0.125000  1
  O  O8  1  0.257736  0.257736  0.226793  1
  O  O9  1  0.992264  0.992264  0.023207  1
  O  O10  1  0.558174  0.958643  0.524541  1
  O  O11  1  0.299401  0.706590  0.287419  1
  O  O12  1  0.543410  0.543410  0.962581  1
  O  O13  1  0.958643  0.558174  0.524541  1
  O  O14  1  0.543410  0.950599  0.962581  1
  O  O15  1  0.958643  0.958643  0.524541  1
  O  O16  1  0.950599  0.543410  0.962581  1
  O  O17  1  0.706590  0.299401  0.287419  1
  O  O18  1  0.291357  0.691826  0.725459  1
  O  O19  1  0.706590  0.706590  0.287419  1
  O  O20  1  0.291357  0.291357  0.725459  1
  O  O21  1  0.691826  0.291357  0.725459  1
