# generated using pymatgen
data_Sr4TbDy(PtO6)2
_symmetry_space_group_name_H-M   'P 1'
_cell_length_a   5.82043759
_cell_length_b   5.91623902
_cell_length_c   8.27449886
_cell_angle_alpha   89.99158216
_cell_angle_beta   90.42206215
_cell_angle_gamma   90.00246681
_symmetry_Int_Tables_number   1
_chemical_formula_structural   Sr4TbDy(PtO6)2
_chemical_formula_sum   'Sr4 Tb1 Dy1 Pt2 O12'
_cell_volume   284.92546153
_cell_formula_units_Z   1
loop_
 _symmetry_equiv_pos_site_id
 _symmetry_equiv_pos_as_xyz
  1  'x, y, z'
loop_
 _atom_site_type_symbol
 _atom_site_label
 _atom_site_symmetry_multiplicity
 _atom_site_fract_x
 _atom_site_fract_y
 _atom_site_fract_z
 _atom_site_occupancy
  Sr  Sr0  1  0.489943  0.458161  0.249373  1
  Sr  Sr1  1  0.009861  0.958467  0.249191  1
  Sr  Sr2  1  0.990138  0.041532  0.750808  1
  Sr  Sr3  1  0.510057  0.541839  0.750628  1
  Tb  Tb4  1  0.000000  0.499999  0.500000  1
  Dy  Dy5  1  0.500000  0.000000  0.000000  1
  Pt  Pt6  1  0.000000  0.499999  0.000000  1
  Pt  Pt7  1  0.500000  0.000000  0.500000  1
  O  O8  1  0.274961  0.700201  0.039311  1
  O  O9  1  0.196298  0.225153  0.042310  1
  O  O10  1  0.922846  0.522590  0.235438  1
  O  O11  1  0.576783  0.022494  0.263993  1
  O  O12  1  0.305788  0.724938  0.457372  1
  O  O13  1  0.224782  0.198252  0.460213  1
  O  O14  1  0.775219  0.801749  0.539788  1
  O  O15  1  0.694212  0.275063  0.542630  1
  O  O16  1  0.423218  0.977505  0.736007  1
  O  O17  1  0.077153  0.477407  0.764561  1
  O  O18  1  0.803701  0.774846  0.957692  1
  O  O19  1  0.725040  0.299800  0.960689  1
