# generated using pymatgen
data_Yb10Cd2Cu3Ir
_symmetry_space_group_name_H-M   'P 1'
_cell_length_a   9.04573245
_cell_length_b   9.04573220
_cell_length_c   9.02132452
_cell_angle_alpha   129.19647402
_cell_angle_beta   129.19647331
_cell_angle_gamma   74.89713888
_symmetry_Int_Tables_number   1
_chemical_formula_structural   Yb10Cd2Cu3Ir
_chemical_formula_sum   'Yb10 Cd2 Cu3 Ir1'
_cell_volume   431.33569828
_cell_formula_units_Z   1
loop_
 _symmetry_equiv_pos_site_id
 _symmetry_equiv_pos_as_xyz
  1  'x, y, z'
loop_
 _atom_site_type_symbol
 _atom_site_label
 _atom_site_symmetry_multiplicity
 _atom_site_fract_x
 _atom_site_fract_y
 _atom_site_fract_z
 _atom_site_occupancy
  Yb  Yb0  1  0.492818  0.502050  0.994868  1
  Yb  Yb1  1  0.002050  0.992818  0.994868  1
  Yb  Yb2  1  0.532223  0.032223  0.833790  1
  Yb  Yb3  1  0.193222  0.693222  0.151863  1
  Yb  Yb4  1  0.033383  0.206499  0.507091  1
  Yb  Yb5  1  0.706499  0.533383  0.507091  1
  Yb  Yb6  1  0.458643  0.958643  0.151863  1
  Yb  Yb7  1  0.801566  0.301566  0.833790  1
  Yb  Yb8  1  0.973708  0.800592  0.507091  1
  Yb  Yb9  1  0.300592  0.473708  0.507091  1
  Cd  Cd10  1  0.251135  0.251135  0.002271  1
  Cd  Cd11  1  0.751135  0.751135  0.002271  1
  Cu  Cu12  1  0.879903  0.379903  0.259804  1
  Cu  Cu13  1  0.616654  0.882687  0.499341  1
  Cu  Cu14  1  0.382687  0.116654  0.499341  1
  Ir  Ir15  1  0.123782  0.623782  0.747565  1
