# generated using pymatgen
data_Na2VNi11P7
_symmetry_space_group_name_H-M   'P 1'
_cell_length_a   9.06790017
_cell_length_b   9.13458915
_cell_length_c   3.60761900
_cell_angle_alpha   90.00000000
_cell_angle_beta   90.00000000
_cell_angle_gamma   120.49781125
_symmetry_Int_Tables_number   1
_chemical_formula_structural   Na2VNi11P7
_chemical_formula_sum   'Na2 V1 Ni11 P7'
_cell_volume   257.48182288
_cell_formula_units_Z   1
loop_
 _symmetry_equiv_pos_site_id
 _symmetry_equiv_pos_as_xyz
  1  'x, y, z'
loop_
 _atom_site_type_symbol
 _atom_site_label
 _atom_site_symmetry_multiplicity
 _atom_site_fract_x
 _atom_site_fract_y
 _atom_site_fract_z
 _atom_site_occupancy
  Na  Na0  1  0.000360  0.001284  0.000000  1
  Na  Na1  1  0.331880  0.666287  0.500000  1
  V  V2  1  0.880076  0.454263  0.500000  1
  Ni  Ni3  1  0.294073  0.392174  0.000000  1
  Ni  Ni4  1  0.099713  0.707852  0.000000  1
  Ni  Ni5  1  0.542659  0.430768  0.500000  1
  Ni  Ni6  1  0.389775  0.174805  0.000000  1
  Ni  Ni7  1  0.785875  0.615354  0.000000  1
  Ni  Ni8  1  0.821996  0.208432  0.000000  1
  Ni  Ni9  1  0.234877  0.948260  0.500000  1
  Ni  Ni10  1  0.052647  0.282187  0.500000  1
  Ni  Ni11  1  0.716301  0.767637  0.500000  1
  Ni  Ni12  1  0.574288  0.117628  0.500000  1
  Ni  Ni13  1  0.606647  0.896740  0.000000  1
  P  P14  1  0.667770  0.334452  0.000000  1
  P  P15  1  0.076298  0.448329  0.000000  1
  P  P16  1  0.260975  0.218396  0.500000  1
  P  P17  1  0.780163  0.041152  0.500000  1
  P  P18  1  0.958805  0.741885  0.500000  1
  P  P19  1  0.548809  0.628447  0.000000  1
  P  P20  1  0.376012  0.923669  0.000000  1
