# generated using pymatgen
data_YHo5Al23VOs8
_symmetry_space_group_name_H-M   'P 1'
_cell_length_a   8.82508300
_cell_length_b   8.83493139
_cell_length_c   9.55237623
_cell_angle_alpha   90.02170880
_cell_angle_beta   90.00000000
_cell_angle_gamma   119.96312879
_symmetry_Int_Tables_number   1
_chemical_formula_structural   YHo5Al23VOs8
_chemical_formula_sum   'Y1 Ho5 Al23 V1 Os8'
_cell_volume   645.24585956
_cell_formula_units_Z   1
loop_
 _symmetry_equiv_pos_site_id
 _symmetry_equiv_pos_as_xyz
  1  'x, y, z'
loop_
 _atom_site_type_symbol
 _atom_site_label
 _atom_site_symmetry_multiplicity
 _atom_site_fract_x
 _atom_site_fract_y
 _atom_site_fract_z
 _atom_site_occupancy
  Y  Y0  1  0.194266  0.388531  0.246968  1
  Ho  Ho1  1  0.806643  0.613286  0.749773  1
  Ho  Ho2  1  0.610395  0.806160  0.246184  1
  Ho  Ho3  1  0.386752  0.193095  0.750342  1
  Ho  Ho4  1  0.195765  0.806160  0.246184  1
  Ho  Ho5  1  0.806343  0.193095  0.750342  1
  Al  Al6  1  0.666617  0.333233  0.976571  1
  Al  Al7  1  0.666532  0.333063  0.523177  1
  Al  Al8  1  0.333347  0.666694  0.480734  1
  Al  Al9  1  0.162738  0.325476  0.575892  1
  Al  Al10  1  0.836566  0.673134  0.424472  1
  Al  Al11  1  0.674444  0.837135  0.575144  1
  Al  Al12  1  0.835634  0.671269  0.077555  1
  Al  Al13  1  0.327026  0.163522  0.425408  1
  Al  Al14  1  0.160680  0.321361  0.924264  1
  Al  Al15  1  0.162691  0.837135  0.575144  1
  Al  Al16  1  0.329202  0.164660  0.076712  1
  Al  Al17  1  0.836496  0.163522  0.425408  1
  Al  Al18  1  0.678478  0.839111  0.925206  1
  Al  Al19  1  0.835458  0.164660  0.076712  1
  Al  Al20  1  0.160632  0.839111  0.925206  1
  Al  Al21  1  0.562236  0.124472  0.252678  1
  Al  Al22  1  0.441008  0.882015  0.751079  1
  Al  Al23  1  0.876390  0.439063  0.252703  1
  Al  Al24  1  0.117766  0.558851  0.751081  1
  Al  Al25  1  0.562674  0.439063  0.252703  1
  Al  Al26  1  0.441086  0.558851  0.751081  1
  Al  Al27  1  0.999523  0.999045  0.250481  1
  Al  Al28  1  0.999853  0.999707  0.750299  1
  V  V29  1  0.333000  0.666002  0.986084  1
  Os  Os30  1  0.494278  0.988555  0.005817  1
  Os  Os31  1  0.010866  0.505606  0.004701  1
  Os  Os32  1  0.498985  0.997972  0.501880  1
  Os  Os33  1  0.494740  0.505606  0.004701  1
  Os  Os34  1  0.001489  0.500726  0.503145  1
  Os  Os35  1  0.499236  0.500726  0.503145  1
  Os  Os36  1  0.000084  0.000167  0.001852  1
  Os  Os37  1  0.000081  0.000161  0.499170  1
