# generated using pymatgen
data_Hf2Zr3Ta(SiRu)6
_symmetry_space_group_name_H-M   'P 1'
_cell_length_a   7.59601685
_cell_length_b   7.59503183
_cell_length_c   7.59601614
_cell_angle_alpha   127.86834948
_cell_angle_beta   121.62700486
_cell_angle_gamma   82.05775313
_symmetry_Int_Tables_number   1
_chemical_formula_structural   Hf2Zr3Ta(SiRu)6
_chemical_formula_sum   'Hf2 Zr3 Ta1 Si6 Ru6'
_cell_volume   283.35186577
_cell_formula_units_Z   1
loop_
 _symmetry_equiv_pos_site_id
 _symmetry_equiv_pos_as_xyz
  1  'x, y, z'
loop_
 _atom_site_type_symbol
 _atom_site_label
 _atom_site_symmetry_multiplicity
 _atom_site_fract_x
 _atom_site_fract_y
 _atom_site_fract_z
 _atom_site_occupancy
  Hf  Hf0  1  0.947582  0.906978  0.459396  1
  Hf  Hf1  1  0.050681  0.502547  0.951867  1
  Zr  Zr2  1  0.529755  0.510531  0.480774  1
  Zr  Zr3  1  0.469869  0.946643  0.976775  1
  Zr  Zr4  1  0.746759  0.078491  0.831732  1
  Ta  Ta5  1  0.251020  0.083065  0.332045  1
  Si  Si6  1  0.729121  0.487043  0.257921  1
  Si  Si7  1  0.278542  0.506045  0.727503  1
  Si  Si8  1  0.667751  0.171310  0.508960  1
  Si  Si9  1  0.321885  0.838754  0.493958  1
  Si  Si10  1  0.162350  0.171310  0.003561  1
  Si  Si11  1  0.844796  0.838754  0.016869  1
  Ru  Ru12  1  0.478653  0.748335  0.227784  1
  Ru  Ru13  1  0.020552  0.748335  0.769683  1
  Ru  Ru14  1  0.902416  0.257346  0.406065  1
  Ru  Ru15  1  0.093977  0.502481  0.349471  1
  Ru  Ru16  1  0.351282  0.257346  0.854930  1
  Ru  Ru17  1  0.653010  0.502481  0.908505  1
