# generated using pymatgen
data_Er6NiBr10
_symmetry_space_group_name_H-M   'P 1'
_cell_length_a   7.24302867
_cell_length_b   9.06231600
_cell_length_c   9.10670933
_cell_angle_alpha   107.71666999
_cell_angle_beta   97.18160510
_cell_angle_gamma   105.12998690
_symmetry_Int_Tables_number   1
_chemical_formula_structural   Er6NiBr10
_chemical_formula_sum   'Er6 Ni1 Br10'
_cell_volume   535.90745737
_cell_formula_units_Z   1
loop_
 _symmetry_equiv_pos_site_id
 _symmetry_equiv_pos_as_xyz
  1  'x, y, z'
loop_
 _atom_site_type_symbol
 _atom_site_label
 _atom_site_symmetry_multiplicity
 _atom_site_fract_x
 _atom_site_fract_y
 _atom_site_fract_z
 _atom_site_occupancy
  Er  Er0  1  0.119946  0.043562  0.757360  1
  Er  Er1  1  0.880054  0.956438  0.242640  1
  Er  Er2  1  0.971103  0.292469  0.090512  1
  Er  Er3  1  0.028897  0.707531  0.909488  1
  Er  Er4  1  0.352209  0.130299  0.173423  1
  Er  Er5  1  0.647791  0.869701  0.826577  1
  Ni  Ni6  1  0.000000  0.000000  0.000000  1
  Br  Br7  1  0.546093  0.179644  0.912043  1
  Br  Br8  1  0.453907  0.820356  0.087957  1
  Br  Br9  1  0.353421  0.453546  0.271491  1
  Br  Br10  1  0.646579  0.546454  0.728509  1
  Br  Br11  1  0.253922  0.084320  0.461106  1
  Br  Br12  1  0.746078  0.915680  0.538894  1
  Br  Br13  1  0.780734  0.256753  0.345435  1
  Br  Br14  1  0.219266  0.743247  0.654565  1
  Br  Br15  1  0.085206  0.371954  0.824918  1
  Br  Br16  1  0.914794  0.628046  0.175082  1
