# generated using pymatgen
data_GdHo2WO7
_symmetry_space_group_name_H-M   'P 1'
_cell_length_a   6.48209507
_cell_length_b   6.48209523
_cell_length_c   7.49004400
_cell_angle_alpha   90.00000000
_cell_angle_beta   90.00000000
_cell_angle_gamma   108.61209616
_symmetry_Int_Tables_number   1
_chemical_formula_structural   GdHo2WO7
_chemical_formula_sum   'Gd2 Ho4 W2 O14'
_cell_volume   298.25417710
_cell_formula_units_Z   2
loop_
 _symmetry_equiv_pos_site_id
 _symmetry_equiv_pos_as_xyz
  1  'x, y, z'
loop_
 _atom_site_type_symbol
 _atom_site_label
 _atom_site_symmetry_multiplicity
 _atom_site_fract_x
 _atom_site_fract_y
 _atom_site_fract_z
 _atom_site_occupancy
  Gd  Gd0  1  0.520522  0.520522  0.500000  1
  Gd  Gd1  1  0.479478  0.479478  0.000000  1
  Ho  Ho2  1  0.001507  0.533479  0.244402  1
  Ho  Ho3  1  0.998493  0.466521  0.744402  1
  Ho  Ho4  1  0.533479  0.001507  0.755598  1
  Ho  Ho5  1  0.466521  0.998493  0.255598  1
  W  W6  1  0.999491  0.999491  0.500000  1
  W  W7  1  0.000509  0.000509  0.000000  1
  O  O8  1  0.924340  0.075660  0.750000  1
  O  O9  1  0.075660  0.924340  0.250000  1
  O  O10  1  0.360164  0.639836  0.250000  1
  O  O11  1  0.639836  0.360164  0.750000  1
  O  O12  1  0.366255  0.633745  0.750000  1
  O  O13  1  0.633745  0.366255  0.250000  1
  O  O14  1  0.326495  0.080176  0.974042  1
  O  O15  1  0.673505  0.919824  0.474042  1
  O  O16  1  0.314914  0.061176  0.536501  1
  O  O17  1  0.685086  0.938824  0.036501  1
  O  O18  1  0.061176  0.314914  0.463499  1
  O  O19  1  0.938824  0.685086  0.963499  1
  O  O20  1  0.919824  0.673505  0.525958  1
  O  O21  1  0.080176  0.326495  0.025958  1
