# generated using pymatgen
data_Y8Hf12Si15Pt
_symmetry_space_group_name_H-M   'P 1'
_cell_length_a   7.31244641
_cell_length_b   7.28529963
_cell_length_c   13.42933826
_cell_angle_alpha   90.08573830
_cell_angle_beta   89.94553208
_cell_angle_gamma   89.95427088
_symmetry_Int_Tables_number   1
_chemical_formula_structural   Y8Hf12Si15Pt
_chemical_formula_sum   'Y8 Hf12 Si15 Pt1'
_cell_volume   715.42466064
_cell_formula_units_Z   1
loop_
 _symmetry_equiv_pos_site_id
 _symmetry_equiv_pos_as_xyz
  1  'x, y, z'
loop_
 _atom_site_type_symbol
 _atom_site_label
 _atom_site_symmetry_multiplicity
 _atom_site_fract_x
 _atom_site_fract_y
 _atom_site_fract_z
 _atom_site_occupancy
  Y  Y0  1  0.496817  0.155569  0.535141  1
  Y  Y1  1  0.498351  0.839912  0.034264  1
  Y  Y2  1  0.653896  0.004184  0.286754  1
  Y  Y3  1  0.344132  0.995389  0.783840  1
  Y  Y4  1  0.848387  0.506933  0.964350  1
  Y  Y5  1  0.153714  0.494856  0.464769  1
  Y  Y6  1  0.003582  0.655154  0.714966  1
  Y  Y7  1  0.995156  0.344173  0.214703  1
  Hf  Hf8  1  0.676812  0.324377  0.748755  1
  Hf  Hf9  1  0.324316  0.673707  0.250322  1
  Hf  Hf10  1  0.823874  0.824113  0.500261  1
  Hf  Hf11  1  0.176092  0.175778  0.000812  1
  Hf  Hf12  1  0.503892  0.350054  0.124340  1
  Hf  Hf13  1  0.503572  0.648063  0.624767  1
  Hf  Hf14  1  0.850198  0.005737  0.874785  1
  Hf  Hf15  1  0.149378  0.996351  0.375370  1
  Hf  Hf16  1  0.647490  0.503609  0.376538  1
  Hf  Hf17  1  0.350495  0.499382  0.873642  1
  Hf  Hf18  1  0.005685  0.853703  0.129734  1
  Hf  Hf19  1  0.996029  0.147473  0.624208  1
  Si  Si20  1  0.205099  0.860692  0.568164  1
  Si  Si21  1  0.639389  0.703736  0.816434  1
  Si  Si22  1  0.361182  0.296129  0.317269  1
  Si  Si23  1  0.860737  0.203769  0.433323  1
  Si  Si24  1  0.140223  0.796168  0.931908  1
  Si  Si25  1  0.698957  0.641944  0.186047  1
  Si  Si26  1  0.296224  0.360608  0.682506  1
  Si  Si27  1  0.546563  0.208636  0.932882  1
  Si  Si28  1  0.449642  0.794444  0.435879  1
  Si  Si29  1  0.705178  0.950359  0.685116  1
  Si  Si30  1  0.295808  0.051511  0.187115  1
  Si  Si31  1  0.795665  0.450682  0.564597  1
  Si  Si32  1  0.207144  0.550193  0.063395  1
  Si  Si33  1  0.949184  0.705654  0.316269  1
  Si  Si34  1  0.051450  0.294561  0.812293  1
  Pt  Pt35  1  0.795686  0.132398  0.064483  1
