# generated using pymatgen
data_Ba6InBiPb7Au
_symmetry_space_group_name_H-M   'P 1'
_cell_length_a   9.43943457
_cell_length_b   9.47992152
_cell_length_c   9.49566500
_cell_angle_alpha   120.05799936
_cell_angle_beta   119.99054352
_cell_angle_gamma   89.75897607
_symmetry_Int_Tables_number   1
_chemical_formula_structural   Ba6InBiPb7Au
_chemical_formula_sum   'Ba6 In1 Bi1 Pb7 Au1'
_cell_volume   601.65641238
_cell_formula_units_Z   1
loop_
 _symmetry_equiv_pos_site_id
 _symmetry_equiv_pos_as_xyz
  1  'x, y, z'
loop_
 _atom_site_type_symbol
 _atom_site_label
 _atom_site_symmetry_multiplicity
 _atom_site_fract_x
 _atom_site_fract_y
 _atom_site_fract_z
 _atom_site_occupancy
  Ba  Ba0  1  0.253272  0.252215  0.507476  1
  Ba  Ba1  1  0.747318  0.747118  0.491035  1
  Ba  Ba2  1  0.665295  0.163490  0.999307  1
  Ba  Ba3  1  0.334795  0.833905  0.999906  1
  Ba  Ba4  1  0.834480  0.668519  0.000755  1
  Ba  Ba5  1  0.165809  0.334955  0.001678  1
  In  In6  1  0.835944  0.054659  0.389833  1
  Bi  Bi7  1  0.000335  0.001367  0.999812  1
  Pb  Pb8  1  0.333702  0.833564  0.380008  1
  Pb  Pb9  1  0.668762  0.166512  0.621083  1
  Pb  Pb10  1  0.045724  0.546593  0.380018  1
  Pb  Pb11  1  0.550754  0.333394  0.384207  1
  Pb  Pb12  1  0.160499  0.950080  0.611860  1
  Pb  Pb13  1  0.954307  0.450184  0.618897  1
  Pb  Pb14  1  0.450088  0.665202  0.615060  1
  Au  Au15  1  0.498916  0.498241  0.999063  1
