# generated using pymatgen
data_Yb4MgBiPb2
_symmetry_space_group_name_H-M   'P 1'
_cell_length_a   9.22169303
_cell_length_b   9.22169705
_cell_length_c   9.26449992
_cell_angle_alpha   96.73543468
_cell_angle_beta   96.73525600
_cell_angle_gamma   139.84855248
_symmetry_Int_Tables_number   1
_chemical_formula_structural   Yb4MgBiPb2
_chemical_formula_sum   'Yb8 Mg2 Bi2 Pb4'
_cell_volume   477.44078992
_cell_formula_units_Z   2
loop_
 _symmetry_equiv_pos_site_id
 _symmetry_equiv_pos_as_xyz
  1  'x, y, z'
loop_
 _atom_site_type_symbol
 _atom_site_label
 _atom_site_symmetry_multiplicity
 _atom_site_fract_x
 _atom_site_fract_y
 _atom_site_fract_z
 _atom_site_occupancy
  Yb  Yb0  1  0.084729  0.213347  0.298075  1
  Yb  Yb1  1  0.915273  0.786655  0.701926  1
  Yb  Yb2  1  0.786104  0.078297  0.864405  1
  Yb  Yb3  1  0.421703  0.713895  0.135595  1
  Yb  Yb4  1  0.213894  0.921703  0.135595  1
  Yb  Yb5  1  0.578298  0.286107  0.864405  1
  Yb  Yb6  1  0.713346  0.584728  0.298076  1
  Yb  Yb7  1  0.286656  0.415272  0.701925  1
  Mg  Mg8  1  0.258392  0.758391  0.499999  1
  Mg  Mg9  1  0.741606  0.241606  0.499999  1
  Bi  Bi10  1  0.153437  0.653436  0.806873  1
  Bi  Bi11  1  0.846564  0.346564  0.193126  1
  Pb  Pb12  1  0.348502  0.151498  0.500000  1
  Pb  Pb13  1  0.651497  0.848502  0.500001  1
  Pb  Pb14  1  0.250000  0.249997  0.000000  1
  Pb  Pb15  1  0.750000  0.750000  0.000000  1
