# generated using pymatgen
data_Er5Tc2
_symmetry_space_group_name_H-M   'P 1'
_cell_length_a   6.13943623
_cell_length_b   7.43459623
_cell_length_c   8.40377196
_cell_angle_alpha   96.98750626
_cell_angle_beta   111.42472573
_cell_angle_gamma   90.00000338
_symmetry_Int_Tables_number   1
_chemical_formula_structural   Er5Tc2
_chemical_formula_sum   'Er10 Tc4'
_cell_volume   354.01515772
_cell_formula_units_Z   2
loop_
 _symmetry_equiv_pos_site_id
 _symmetry_equiv_pos_as_xyz
  1  'x, y, z'
loop_
 _atom_site_type_symbol
 _atom_site_label
 _atom_site_symmetry_multiplicity
 _atom_site_fract_x
 _atom_site_fract_y
 _atom_site_fract_z
 _atom_site_occupancy
  Er  Er0  1  0.790861  0.583070  0.818651  1
  Er  Er1  1  0.972211  0.916930  0.181349  1
  Er  Er2  1  0.209139  0.416930  0.181349  1
  Er  Er3  1  0.027789  0.083070  0.818651  1
  Er  Er4  1  0.197654  0.682278  0.565660  1
  Er  Er5  1  0.631994  0.817722  0.434340  1
  Er  Er6  1  0.802346  0.317722  0.434340  1
  Er  Er7  1  0.368006  0.182278  0.565660  1
  Er  Er8  1  0.408138  0.750000  0.000000  1
  Er  Er9  1  0.591862  0.250000  0.000000  1
  Tc  Tc10  1  0.594014  0.923148  0.780802  1
  Tc  Tc11  1  0.813211  0.576852  0.219198  1
  Tc  Tc12  1  0.405986  0.076852  0.219198  1
  Tc  Tc13  1  0.186789  0.423148  0.780802  1
