# generated using pymatgen
data_HoV7S12
_symmetry_space_group_name_H-M   'P 1'
_cell_length_a   5.54080600
_cell_length_b   5.54080585
_cell_length_c   12.45233600
_cell_angle_alpha   90.00000000
_cell_angle_beta   90.00000000
_cell_angle_gamma   120.00001285
_symmetry_Int_Tables_number   1
_chemical_formula_structural   HoV7S12
_chemical_formula_sum   'Ho1 V7 S12'
_cell_volume   331.07568263
_cell_formula_units_Z   1
loop_
 _symmetry_equiv_pos_site_id
 _symmetry_equiv_pos_as_xyz
  1  'x, y, z'
loop_
 _atom_site_type_symbol
 _atom_site_label
 _atom_site_symmetry_multiplicity
 _atom_site_fract_x
 _atom_site_fract_y
 _atom_site_fract_z
 _atom_site_occupancy
  Ho  Ho0  1  0.666667  0.333333  0.750000  1
  V  V1  1  0.333333  0.666667  0.484522  1
  V  V2  1  0.666667  0.333333  0.014344  1
  V  V3  1  0.666667  0.333333  0.485656  1
  V  V4  1  0.333333  0.666667  0.015478  1
  V  V5  1  0.000000  0.000000  0.483541  1
  V  V6  1  0.000000  0.000000  0.016459  1
  V  V7  1  0.333333  0.666667  0.250000  1
  S  S8  1  0.668940  0.665649  0.367772  1
  S  S9  1  0.334351  0.003291  0.367772  1
  S  S10  1  0.996709  0.331060  0.367772  1
  S  S11  1  0.009344  0.676958  0.897708  1
  S  S12  1  0.323042  0.990656  0.602292  1
  S  S13  1  0.323042  0.332385  0.897708  1
  S  S14  1  0.667615  0.990656  0.897708  1
  S  S15  1  0.334351  0.331060  0.132228  1
  S  S16  1  0.668940  0.003291  0.132228  1
  S  S17  1  0.667615  0.676958  0.602292  1
  S  S18  1  0.009344  0.332385  0.602292  1
  S  S19  1  0.996709  0.665649  0.132228  1
