# generated using pymatgen
data_NaBe2P3O10
_symmetry_space_group_name_H-M   'P 1'
_cell_length_a   7.51419878
_cell_length_b   7.51419855
_cell_length_c   9.07007071
_cell_angle_alpha   62.52760947
_cell_angle_beta   62.52761167
_cell_angle_gamma   65.71566578
_symmetry_Int_Tables_number   1
_chemical_formula_structural   NaBe2P3O10
_chemical_formula_sum   'Na2 Be4 P6 O20'
_cell_volume   390.11533894
_cell_formula_units_Z   2
loop_
 _symmetry_equiv_pos_site_id
 _symmetry_equiv_pos_as_xyz
  1  'x, y, z'
loop_
 _atom_site_type_symbol
 _atom_site_label
 _atom_site_symmetry_multiplicity
 _atom_site_fract_x
 _atom_site_fract_y
 _atom_site_fract_z
 _atom_site_occupancy
  Na  Na0  1  0.672652  0.327348  0.250000  1
  Na  Na1  1  0.327348  0.672652  0.750000  1
  Be  Be2  1  0.704734  0.758158  0.951336  1
  Be  Be3  1  0.295266  0.241842  0.048664  1
  Be  Be4  1  0.241842  0.295266  0.548664  1
  Be  Be5  1  0.758158  0.704734  0.451336  1
  P  P6  1  0.855939  0.469610  0.770652  1
  P  P7  1  0.469610  0.855939  0.270652  1
  P  P8  1  0.144061  0.530390  0.229348  1
  P  P9  1  0.080505  0.919495  0.250000  1
  P  P10  1  0.919495  0.080505  0.750000  1
  P  P11  1  0.530390  0.144061  0.729348  1
  O  O12  1  0.596728  0.709640  0.163072  1
  O  O13  1  0.403272  0.290360  0.836928  1
  O  O14  1  0.290360  0.403272  0.336928  1
  O  O15  1  0.916658  0.546415  0.341797  1
  O  O16  1  0.769423  0.170981  0.637322  1
  O  O17  1  0.136944  0.096526  0.626894  1
  O  O18  1  0.829019  0.230577  0.862678  1
  O  O19  1  0.212402  0.468783  0.069394  1
  O  O20  1  0.709640  0.596728  0.663072  1
  O  O21  1  0.230577  0.829019  0.362678  1
  O  O22  1  0.546415  0.916658  0.841797  1
  O  O23  1  0.903474  0.863056  0.873106  1
  O  O24  1  0.453585  0.083342  0.158203  1
  O  O25  1  0.083342  0.453585  0.658203  1
  O  O26  1  0.531217  0.787598  0.430606  1
  O  O27  1  0.863056  0.903474  0.373106  1
  O  O28  1  0.170981  0.769423  0.137322  1
  O  O29  1  0.468783  0.212402  0.569394  1
  O  O30  1  0.787598  0.531217  0.930606  1
  O  O31  1  0.096526  0.136944  0.126894  1
