# generated using pymatgen
data_Rb8Sc6BeBr20
_symmetry_space_group_name_H-M   'P 1'
_cell_length_a   12.13171938
_cell_length_b   12.13171982
_cell_length_c   12.13171900
_cell_angle_alpha   59.99999951
_cell_angle_beta   59.99999832
_cell_angle_gamma   60.00000322
_symmetry_Int_Tables_number   1
_chemical_formula_structural   Rb8Sc6BeBr20
_chemical_formula_sum   'Rb8 Sc6 Be1 Br20'
_cell_volume   1262.56014533
_cell_formula_units_Z   1
loop_
 _symmetry_equiv_pos_site_id
 _symmetry_equiv_pos_as_xyz
  1  'x, y, z'
loop_
 _atom_site_type_symbol
 _atom_site_label
 _atom_site_symmetry_multiplicity
 _atom_site_fract_x
 _atom_site_fract_y
 _atom_site_fract_z
 _atom_site_occupancy
  Rb  Rb0  1  0.359868  0.359868  0.359868  1
  Rb  Rb1  1  0.640132  0.640132  0.640132  1
  Rb  Rb2  1  0.359868  0.359868  0.920394  1
  Rb  Rb3  1  0.359868  0.920394  0.359868  1
  Rb  Rb4  1  0.640132  0.640132  0.079606  1
  Rb  Rb5  1  0.640132  0.079606  0.640132  1
  Rb  Rb6  1  0.920394  0.359868  0.359868  1
  Rb  Rb7  1  0.079606  0.640132  0.640132  1
  Sc  Sc8  1  0.850717  0.149283  0.149283  1
  Sc  Sc9  1  0.149283  0.850717  0.850717  1
  Sc  Sc10  1  0.149283  0.850717  0.149283  1
  Sc  Sc11  1  0.850717  0.149283  0.850717  1
  Sc  Sc12  1  0.149283  0.149283  0.850717  1
  Sc  Sc13  1  0.850717  0.850717  0.149283  1
  Be  Be14  1  0.000000  0.000000  0.000000  1
  Br  Br15  1  0.317997  0.000000  0.000000  1
  Br  Br16  1  0.682003  0.000000  0.000000  1
  Br  Br17  1  0.000000  0.317997  0.682003  1
  Br  Br18  1  0.000000  0.682003  0.317997  1
  Br  Br19  1  0.000000  0.317997  0.000000  1
  Br  Br20  1  0.682003  0.000000  0.317997  1
  Br  Br21  1  0.000000  0.682003  0.000000  1
  Br  Br22  1  0.317997  0.000000  0.682003  1
  Br  Br23  1  0.000000  0.000000  0.317997  1
  Br  Br24  1  0.000000  0.000000  0.682003  1
  Br  Br25  1  0.682003  0.317997  0.000000  1
  Br  Br26  1  0.317997  0.682003  0.000000  1
  Br  Br27  1  0.687968  0.312032  0.312032  1
  Br  Br28  1  0.312032  0.687968  0.687968  1
  Br  Br29  1  0.312032  0.687968  0.312032  1
  Br  Br30  1  0.687968  0.312032  0.687968  1
  Br  Br31  1  0.312032  0.312032  0.687968  1
  Br  Br32  1  0.687968  0.687968  0.312032  1
  Br  Br33  1  0.250000  0.250000  0.250000  1
  Br  Br34  1  0.750000  0.750000  0.750000  1
