# generated using pymatgen
data_LuNb8FeS16
_symmetry_space_group_name_H-M   'P 1'
_cell_length_a   6.70280600
_cell_length_b   6.70280663
_cell_length_c   12.60214800
_cell_angle_alpha   90.00000000
_cell_angle_beta   90.00000000
_cell_angle_gamma   119.99999689
_symmetry_Int_Tables_number   1
_chemical_formula_structural   LuNb8FeS16
_chemical_formula_sum   'Lu1 Nb8 Fe1 S16'
_cell_volume   490.33010800
_cell_formula_units_Z   1
loop_
 _symmetry_equiv_pos_site_id
 _symmetry_equiv_pos_as_xyz
  1  'x, y, z'
loop_
 _atom_site_type_symbol
 _atom_site_label
 _atom_site_symmetry_multiplicity
 _atom_site_fract_x
 _atom_site_fract_y
 _atom_site_fract_z
 _atom_site_occupancy
  Lu  Lu0  1  0.000000  0.000000  0.500000  1
  Nb  Nb1  1  0.000000  0.000000  0.233655  1
  Nb  Nb2  1  0.000000  0.000000  0.766345  1
  Nb  Nb3  1  0.504995  0.009991  0.230562  1
  Nb  Nb4  1  0.990009  0.495005  0.230562  1
  Nb  Nb5  1  0.504995  0.495005  0.230562  1
  Nb  Nb6  1  0.495005  0.990009  0.769438  1
  Nb  Nb7  1  0.009991  0.504995  0.769438  1
  Nb  Nb8  1  0.495005  0.504995  0.769438  1
  Fe  Fe9  1  0.000000  0.000000  0.000000  1
  S  S10  1  0.333333  0.666667  0.895510  1
  S  S11  1  0.666667  0.333333  0.104490  1
  S  S12  1  0.666667  0.333333  0.358982  1
  S  S13  1  0.333333  0.666667  0.641018  1
  S  S14  1  0.169254  0.830746  0.357799  1
  S  S15  1  0.169254  0.338508  0.357799  1
  S  S16  1  0.661492  0.830746  0.357799  1
  S  S17  1  0.830746  0.169254  0.642201  1
  S  S18  1  0.830746  0.661492  0.642201  1
  S  S19  1  0.338508  0.169254  0.642201  1
  S  S20  1  0.836323  0.163677  0.891946  1
  S  S21  1  0.836323  0.672647  0.891946  1
  S  S22  1  0.327353  0.163677  0.891946  1
  S  S23  1  0.163677  0.836323  0.108054  1
  S  S24  1  0.163677  0.327353  0.108054  1
  S  S25  1  0.672647  0.836323  0.108054  1
