# generated using pymatgen
data_Pr3Si2Se8I
_symmetry_space_group_name_H-M   'P 1'
_cell_length_a   9.33063574
_cell_length_b   9.33063511
_cell_length_c   11.50727584
_cell_angle_alpha   82.78770982
_cell_angle_beta   97.21228999
_cell_angle_gamma   127.78222107
_symmetry_Int_Tables_number   1
_chemical_formula_structural   Pr3Si2Se8I
_chemical_formula_sum   'Pr6 Si4 Se16 I2'
_cell_volume   784.01618300
_cell_formula_units_Z   2
loop_
 _symmetry_equiv_pos_site_id
 _symmetry_equiv_pos_as_xyz
  1  'x, y, z'
loop_
 _atom_site_type_symbol
 _atom_site_label
 _atom_site_symmetry_multiplicity
 _atom_site_fract_x
 _atom_site_fract_y
 _atom_site_fract_z
 _atom_site_occupancy
  Pr  Pr0  1  0.607189  0.607189  0.750000  1
  Pr  Pr1  1  0.392810  0.392810  0.250000  1
  Pr  Pr2  1  0.325844  0.923349  0.683036  1
  Pr  Pr3  1  0.923349  0.325843  0.816964  1
  Pr  Pr4  1  0.674156  0.076650  0.316964  1
  Pr  Pr5  1  0.076650  0.674156  0.183035  1
  Si  Si6  1  0.624949  0.303764  0.029536  1
  Si  Si7  1  0.303764  0.624949  0.470463  1
  Si  Si8  1  0.375052  0.696236  0.970463  1
  Si  Si9  1  0.696236  0.375052  0.529536  1
  Se  Se10  1  0.857249  0.284274  0.086371  1
  Se  Se11  1  0.284273  0.857250  0.413628  1
  Se  Se12  1  0.142750  0.715726  0.913628  1
  Se  Se13  1  0.715726  0.142750  0.586372  1
  Se  Se14  1  0.393262  0.103692  0.149008  1
  Se  Se15  1  0.103692  0.393261  0.350992  1
  Se  Se16  1  0.606738  0.896307  0.850992  1
  Se  Se17  1  0.896307  0.606738  0.649008  1
  Se  Se18  1  0.548134  0.254575  0.834420  1
  Se  Se19  1  0.254574  0.548134  0.665580  1
  Se  Se20  1  0.451866  0.745426  0.165580  1
  Se  Se21  1  0.745426  0.451866  0.334420  1
  Se  Se22  1  0.726100  0.593704  0.045528  1
  Se  Se23  1  0.593704  0.726100  0.454471  1
  Se  Se24  1  0.273899  0.406296  0.954471  1
  Se  Se25  1  0.406296  0.273899  0.545529  1
  I  I26  1  0.993075  0.993074  0.250000  1
  I  I27  1  0.006926  0.006926  0.750000  1
