# generated using pymatgen
data_Sc8Si4Ir3Pt11
_symmetry_space_group_name_H-M   'P 1'
_cell_length_a   4.04736800
_cell_length_b   6.55600598
_cell_length_c   16.10715389
_cell_angle_alpha   90.21192130
_cell_angle_beta   90.00000000
_cell_angle_gamma   90.00000000
_symmetry_Int_Tables_number   1
_chemical_formula_structural   Sc8Si4Ir3Pt11
_chemical_formula_sum   'Sc8 Si4 Ir3 Pt11'
_cell_volume   427.39346007
_cell_formula_units_Z   1
loop_
 _symmetry_equiv_pos_site_id
 _symmetry_equiv_pos_as_xyz
  1  'x, y, z'
loop_
 _atom_site_type_symbol
 _atom_site_label
 _atom_site_symmetry_multiplicity
 _atom_site_fract_x
 _atom_site_fract_y
 _atom_site_fract_z
 _atom_site_occupancy
  Sc  Sc0  1  0.000000  0.283050  0.461262  1
  Sc  Sc1  1  0.000000  0.717547  0.537279  1
  Sc  Sc2  1  0.000000  0.782027  0.041692  1
  Sc  Sc3  1  0.000000  0.211694  0.963742  1
  Sc  Sc4  1  0.000000  0.536895  0.290981  1
  Sc  Sc5  1  0.000000  0.464394  0.705740  1
  Sc  Sc6  1  0.000000  0.037803  0.211186  1
  Sc  Sc7  1  0.000000  0.969858  0.788483  1
  Si  Si8  1  0.500000  0.847632  0.306613  1
  Si  Si9  1  0.500000  0.153945  0.692043  1
  Si  Si10  1  0.500000  0.347659  0.194110  1
  Si  Si11  1  0.500000  0.653075  0.805950  1
  Ir  Ir12  1  0.000000  0.906246  0.380152  1
  Ir  Ir13  1  0.000000  0.092939  0.619273  1
  Ir  Ir14  1  0.000000  0.405891  0.120070  1
  Pt  Pt15  1  0.000000  0.589819  0.881800  1
  Pt  Pt16  1  0.500000  0.601842  0.421417  1
  Pt  Pt17  1  0.500000  0.399075  0.577695  1
  Pt  Pt18  1  0.500000  0.100690  0.079015  1
  Pt  Pt19  1  0.500000  0.899007  0.921122  1
  Pt  Pt20  1  0.500000  0.499250  0.001486  1
  Pt  Pt21  1  0.500000  0.000889  0.499361  1
  Pt  Pt22  1  0.500000  0.218550  0.334371  1
  Pt  Pt23  1  0.500000  0.782257  0.665956  1
  Pt  Pt24  1  0.500000  0.717489  0.165968  1
  Pt  Pt25  1  0.500000  0.280477  0.833233  1
