# generated using pymatgen
data_RhI13
_symmetry_space_group_name_H-M   'P 1'
_cell_length_a   12.53773545
_cell_length_b   10.78435202
_cell_length_c   14.54757741
_cell_angle_alpha   116.99972064
_cell_angle_beta   91.04669536
_cell_angle_gamma   105.57542826
_symmetry_Int_Tables_number   1
_chemical_formula_structural   RhI13
_chemical_formula_sum   'Rh2 I26'
_cell_volume   1665.58769678
_cell_formula_units_Z   2
loop_
 _symmetry_equiv_pos_site_id
 _symmetry_equiv_pos_as_xyz
  1  'x, y, z'
loop_
 _atom_site_type_symbol
 _atom_site_label
 _atom_site_symmetry_multiplicity
 _atom_site_fract_x
 _atom_site_fract_y
 _atom_site_fract_z
 _atom_site_occupancy
  Rh  Rh0  1  0.341902  0.877314  0.929546  1
  Rh  Rh1  1  0.658098  0.122686  0.070454  1
  I  I2  1  0.373200  0.671031  0.969779  1
  I  I3  1  0.626800  0.328969  0.030221  1
  I  I4  1  0.570882  0.807895  0.390907  1
  I  I5  1  0.429118  0.192105  0.609093  1
  I  I6  1  0.722743  0.681646  0.998812  1
  I  I7  1  0.277257  0.318354  0.001188  1
  I  I8  1  0.692628  0.947224  0.145753  1
  I  I9  1  0.307372  0.052776  0.854247  1
  I  I10  1  0.446696  0.090344  0.120816  1
  I  I11  1  0.553304  0.909656  0.879184  1
  I  I12  1  0.240617  0.677107  0.729912  1
  I  I13  1  0.759383  0.322893  0.270088  1
  I  I14  1  0.138187  0.847173  0.988207  1
  I  I15  1  0.861813  0.152827  0.011793  1
  I  I16  1  0.114019  0.082814  0.202525  1
  I  I17  1  0.885981  0.917186  0.797475  1
  I  I18  1  0.272052  0.908957  0.461193  1
  I  I19  1  0.727948  0.091043  0.538807  1
  I  I20  1  0.331435  0.431158  0.663147  1
  I  I21  1  0.668565  0.568842  0.336853  1
  I  I22  1  0.864783  0.387991  0.695525  1
  I  I23  1  0.135217  0.612009  0.304475  1
  I  I24  1  0.950235  0.730103  0.612528  1
  I  I25  1  0.049765  0.269897  0.387472  1
  I  I26  1  0.248390  0.636778  0.132009  1
  I  I27  1  0.751610  0.363222  0.867991  1
