# generated using pymatgen
data_Tb7Ce2Ho(Ga2Ru3)2
_symmetry_space_group_name_H-M   'P 1'
_cell_length_a   8.48150323
_cell_length_b   8.38605849
_cell_length_c   8.35603500
_cell_angle_alpha   110.03107148
_cell_angle_beta   109.28664520
_cell_angle_gamma   110.29084482
_symmetry_Int_Tables_number   1
_chemical_formula_structural   Tb7Ce2Ho(Ga2Ru3)2
_chemical_formula_sum   'Tb7 Ce2 Ho1 Ga4 Ru6'
_cell_volume   450.61807575
_cell_formula_units_Z   1
loop_
 _symmetry_equiv_pos_site_id
 _symmetry_equiv_pos_as_xyz
  1  'x, y, z'
loop_
 _atom_site_type_symbol
 _atom_site_label
 _atom_site_symmetry_multiplicity
 _atom_site_fract_x
 _atom_site_fract_y
 _atom_site_fract_z
 _atom_site_occupancy
  Tb  Tb0  1  0.316142  0.564626  0.754637  1
  Tb  Tb1  1  0.751259  0.315240  0.566668  1
  Tb  Tb2  1  0.566413  0.748567  0.312496  1
  Tb  Tb3  1  0.724403  0.503596  0.998523  1
  Tb  Tb4  1  0.998840  0.722256  0.505681  1
  Tb  Tb5  1  0.501380  0.991459  0.719136  1
  Tb  Tb6  1  0.253599  0.190601  0.934481  1
  Ce  Ce7  1  0.944298  0.250719  0.196254  1
  Ce  Ce8  1  0.198398  0.943509  0.251072  1
  Ho  Ho9  1  0.780687  0.784714  0.777974  1
  Ga  Ga10  1  0.418419  0.413580  0.412301  1
  Ga  Ga11  1  0.091523  0.491649  0.996862  1
  Ga  Ga12  1  0.998568  0.090270  0.501276  1
  Ga  Ga13  1  0.502155  0.010483  0.093989  1
  Ru  Ru14  1  0.865488  0.113385  0.739238  1
  Ru  Ru15  1  0.753948  0.902342  0.119045  1
  Ru  Ru16  1  0.124040  0.763912  0.907700  1
  Ru  Ru17  1  0.222599  0.591231  0.365043  1
  Ru  Ru18  1  0.359780  0.220238  0.595914  1
  Ru  Ru19  1  0.628060  0.387622  0.251703  1
