# generated using pymatgen
data_PrP12Os3Ru
_symmetry_space_group_name_H-M   'P 1'
_cell_length_a   7.03525876
_cell_length_b   7.03319844
_cell_length_c   7.03525904
_cell_angle_alpha   109.46529247
_cell_angle_beta   109.47715385
_cell_angle_gamma   109.46528774
_symmetry_Int_Tables_number   1
_chemical_formula_structural   PrP12Os3Ru
_chemical_formula_sum   'Pr1 P12 Os3 Ru1'
_cell_volume   267.99266782
_cell_formula_units_Z   1
loop_
 _symmetry_equiv_pos_site_id
 _symmetry_equiv_pos_as_xyz
  1  'x, y, z'
loop_
 _atom_site_type_symbol
 _atom_site_label
 _atom_site_symmetry_multiplicity
 _atom_site_fract_x
 _atom_site_fract_y
 _atom_site_fract_z
 _atom_site_occupancy
  Pr  Pr0  1  0.000000  0.000000  0.000000  1
  P  P1  1  0.785815  0.143735  0.642465  1
  P  P2  1  0.214185  0.856265  0.357535  1
  P  P3  1  0.498824  0.856603  0.642224  1
  P  P4  1  0.856649  0.357920  0.214185  1
  P  P5  1  0.642465  0.498730  0.856649  1
  P  P6  1  0.357776  0.214379  0.856600  1
  P  P7  1  0.143351  0.642080  0.785815  1
  P  P8  1  0.642224  0.785621  0.143400  1
  P  P9  1  0.856600  0.642221  0.498824  1
  P  P10  1  0.143400  0.357779  0.501176  1
  P  P11  1  0.501176  0.143397  0.357776  1
  P  P12  1  0.357535  0.501270  0.143351  1
  Os  Os13  1  0.500000  0.000000  0.000000  1
  Os  Os14  1  0.000000  0.000000  0.500000  1
  Os  Os15  1  0.500000  0.500000  0.500000  1
  Ru  Ru16  1  0.000000  0.500000  0.000000  1
