# generated using pymatgen
data_SrTcH9
_symmetry_space_group_name_H-M   'P 1'
_cell_length_a   5.02764300
_cell_length_b   5.02764363
_cell_length_c   9.17469800
_cell_angle_alpha   90.00000000
_cell_angle_beta   90.00000000
_cell_angle_gamma   120.00000242
_symmetry_Int_Tables_number   1
_chemical_formula_structural   SrTcH9
_chemical_formula_sum   'Sr2 Tc2 H18'
_cell_volume   200.84051081
_cell_formula_units_Z   2
loop_
 _symmetry_equiv_pos_site_id
 _symmetry_equiv_pos_as_xyz
  1  'x, y, z'
loop_
 _atom_site_type_symbol
 _atom_site_label
 _atom_site_symmetry_multiplicity
 _atom_site_fract_x
 _atom_site_fract_y
 _atom_site_fract_z
 _atom_site_occupancy
  Sr  Sr0  1  0.000000  0.000000  0.000000  1
  Sr  Sr1  1  0.000000  0.000000  0.500000  1
  Tc  Tc2  1  0.333333  0.666667  0.250000  1
  Tc  Tc3  1  0.666667  0.333333  0.750000  1
  H  H4  1  0.471480  0.528520  0.379761  1
  H  H5  1  0.471480  0.942960  0.379761  1
  H  H6  1  0.057040  0.528520  0.379761  1
  H  H7  1  0.942960  0.471480  0.879761  1
  H  H8  1  0.143205  0.286411  0.250000  1
  H  H9  1  0.856795  0.143205  0.750000  1
  H  H10  1  0.286411  0.143205  0.750000  1
  H  H11  1  0.713589  0.856795  0.250000  1
  H  H12  1  0.143205  0.856795  0.250000  1
  H  H13  1  0.856795  0.713589  0.750000  1
  H  H14  1  0.471480  0.942960  0.120239  1
  H  H15  1  0.528520  0.471480  0.620239  1
  H  H16  1  0.942960  0.471480  0.620239  1
  H  H17  1  0.057040  0.528520  0.120239  1
  H  H18  1  0.471480  0.528520  0.120239  1
  H  H19  1  0.528520  0.057040  0.879761  1
  H  H20  1  0.528520  0.471480  0.879761  1
  H  H21  1  0.528520  0.057040  0.620239  1
