# generated using pymatgen
data_Nd10Bi3Pb3Cl2
_symmetry_space_group_name_H-M   'P 1'
_cell_length_a   9.60727333
_cell_length_b   9.57678384
_cell_length_c   6.71471700
_cell_angle_alpha   90.00000000
_cell_angle_beta   90.00000000
_cell_angle_gamma   120.18275664
_symmetry_Int_Tables_number   1
_chemical_formula_structural   Nd10Bi3Pb3Cl2
_chemical_formula_sum   'Nd10 Bi3 Pb3 Cl2'
_cell_volume   534.04203297
_cell_formula_units_Z   1
loop_
 _symmetry_equiv_pos_site_id
 _symmetry_equiv_pos_as_xyz
  1  'x, y, z'
loop_
 _atom_site_type_symbol
 _atom_site_label
 _atom_site_symmetry_multiplicity
 _atom_site_fract_x
 _atom_site_fract_y
 _atom_site_fract_z
 _atom_site_occupancy
  Nd  Nd0  1  0.262554  0.996970  0.750000  1
  Nd  Nd1  1  0.736042  0.000310  0.250000  1
  Nd  Nd2  1  0.997430  0.261874  0.750000  1
  Nd  Nd3  1  0.002330  0.739318  0.250000  1
  Nd  Nd4  1  0.739398  0.738962  0.750000  1
  Nd  Nd5  1  0.262157  0.260146  0.250000  1
  Nd  Nd6  1  0.333331  0.668366  0.499510  1
  Nd  Nd7  1  0.666679  0.332149  0.499577  1
  Nd  Nd8  1  0.666679  0.332149  0.000423  1
  Nd  Nd9  1  0.333331  0.668366  0.000490  1
  Bi  Bi10  1  0.000496  0.386973  0.250000  1
  Bi  Bi11  1  0.385911  0.385885  0.750000  1
  Bi  Bi12  1  0.614468  0.613958  0.250000  1
  Pb  Pb13  1  0.612701  0.999099  0.750000  1
  Pb  Pb14  1  0.387482  0.000136  0.250000  1
  Pb  Pb15  1  0.999074  0.612671  0.750000  1
  Cl  Cl16  1  0.999969  0.001334  0.499539  1
  Cl  Cl17  1  0.999969  0.001334  0.000461  1
