# generated using pymatgen
data_Fe6SiTc6
_symmetry_space_group_name_H-M   'P 1'
_cell_length_a   8.93622920
_cell_length_b   8.93622956
_cell_length_c   8.93622903
_cell_angle_alpha   30.47745810
_cell_angle_beta   30.47745209
_cell_angle_gamma   30.47745242
_symmetry_Int_Tables_number   1
_chemical_formula_structural   Fe6SiTc6
_chemical_formula_sum   'Fe6 Si1 Tc6'
_cell_volume   162.72589316
_cell_formula_units_Z   1
loop_
 _symmetry_equiv_pos_site_id
 _symmetry_equiv_pos_as_xyz
  1  'x, y, z'
loop_
 _atom_site_type_symbol
 _atom_site_label
 _atom_site_symmetry_multiplicity
 _atom_site_fract_x
 _atom_site_fract_y
 _atom_site_fract_z
 _atom_site_occupancy
  Fe  Fe0  1  0.586648  0.091287  0.091287  1
  Fe  Fe1  1  0.091287  0.091287  0.586648  1
  Fe  Fe2  1  0.908713  0.908713  0.413352  1
  Fe  Fe3  1  0.908713  0.413352  0.908713  1
  Fe  Fe4  1  0.091287  0.586648  0.091287  1
  Fe  Fe5  1  0.413352  0.908713  0.908713  1
  Si  Si6  1  0.000000  0.000000  0.000000  1
  Tc  Tc7  1  0.347612  0.347612  0.347612  1
  Tc  Tc8  1  0.169330  0.169330  0.169330  1
  Tc  Tc9  1  0.547803  0.547803  0.547803  1
  Tc  Tc10  1  0.652388  0.652388  0.652388  1
  Tc  Tc11  1  0.452197  0.452197  0.452197  1
  Tc  Tc12  1  0.830670  0.830670  0.830670  1
