# generated using pymatgen
data_Ho2Be2(Ni5H)3
_symmetry_space_group_name_H-M   'P 1'
_cell_length_a   6.17844880
_cell_length_b   6.19487948
_cell_length_c   6.19487929
_cell_angle_alpha   84.29635460
_cell_angle_beta   83.42383814
_cell_angle_gamma   83.42382838
_symmetry_Int_Tables_number   1
_chemical_formula_structural   Ho2Be2(Ni5H)3
_chemical_formula_sum   'Ho2 Be2 Ni15 H3'
_cell_volume   233.10186935
_cell_formula_units_Z   1
loop_
 _symmetry_equiv_pos_site_id
 _symmetry_equiv_pos_as_xyz
  1  'x, y, z'
loop_
 _atom_site_type_symbol
 _atom_site_label
 _atom_site_symmetry_multiplicity
 _atom_site_fract_x
 _atom_site_fract_y
 _atom_site_fract_z
 _atom_site_occupancy
  Ho  Ho0  1  0.654354  0.658279  0.658279  1
  Ho  Ho1  1  0.345646  0.341721  0.341721  1
  Be  Be2  1  0.000000  0.000000  0.500000  1
  Be  Be3  1  0.000000  0.500000  0.000000  1
  Ni  Ni4  1  0.500000  0.000000  0.000000  1
  Ni  Ni5  1  0.283289  0.707310  0.996847  1
  Ni  Ni6  1  0.716711  0.003153  0.292690  1
  Ni  Ni7  1  0.000000  0.287154  0.712846  1
  Ni  Ni8  1  0.283289  0.996847  0.707310  1
  Ni  Ni9  1  0.000000  0.712846  0.287154  1
  Ni  Ni10  1  0.716711  0.292690  0.003153  1
  Ni  Ni11  1  0.340823  0.347318  0.854227  1
  Ni  Ni12  1  0.340823  0.854227  0.347318  1
  Ni  Ni13  1  0.862364  0.345493  0.345493  1
  Ni  Ni14  1  0.659177  0.652682  0.145773  1
  Ni  Ni15  1  0.659177  0.145773  0.652682  1
  Ni  Ni16  1  0.137636  0.654507  0.654507  1
  Ni  Ni17  1  0.899559  0.899233  0.899233  1
  Ni  Ni18  1  0.100441  0.100767  0.100767  1
  H  H19  1  0.500000  0.500000  0.000000  1
  H  H20  1  0.500000  0.000000  0.500000  1
  H  H21  1  0.000000  0.500000  0.500000  1
