# generated using pymatgen
data_Re6Te7I4
_symmetry_space_group_name_H-M   'P 1'
_cell_length_a   12.96694685
_cell_length_b   12.96694631
_cell_length_c   12.96694641
_cell_angle_alpha   48.78198273
_cell_angle_beta   48.78198582
_cell_angle_gamma   48.78197765
_symmetry_Int_Tables_number   1
_chemical_formula_structural   Re6Te7I4
_chemical_formula_sum   'Re12 Te14 I8'
_cell_volume   1132.15158839
_cell_formula_units_Z   2
loop_
 _symmetry_equiv_pos_site_id
 _symmetry_equiv_pos_as_xyz
  1  'x, y, z'
loop_
 _atom_site_type_symbol
 _atom_site_label
 _atom_site_symmetry_multiplicity
 _atom_site_fract_x
 _atom_site_fract_y
 _atom_site_fract_z
 _atom_site_occupancy
  Re  Re0  1  0.520668  0.394090  0.683186  1
  Re  Re1  1  0.394090  0.683186  0.520668  1
  Re  Re2  1  0.683186  0.520668  0.394090  1
  Re  Re3  1  0.183186  0.894090  0.020668  1
  Re  Re4  1  0.894090  0.020668  0.183186  1
  Re  Re5  1  0.020668  0.183186  0.894090  1
  Re  Re6  1  0.480263  0.606304  0.316747  1
  Re  Re7  1  0.606304  0.316747  0.480263  1
  Re  Re8  1  0.316747  0.480263  0.606304  1
  Re  Re9  1  0.816747  0.106304  0.980263  1
  Re  Re10  1  0.106304  0.980263  0.816747  1
  Re  Re11  1  0.980263  0.816747  0.106304  1
  Te  Te12  1  0.811310  0.225930  0.555878  1
  Te  Te13  1  0.225930  0.555878  0.811310  1
  Te  Te14  1  0.555878  0.811310  0.225930  1
  Te  Te15  1  0.055878  0.725930  0.311310  1
  Te  Te16  1  0.725930  0.311310  0.055878  1
  Te  Te17  1  0.311310  0.055878  0.725930  1
  Te  Te18  1  0.188725  0.776190  0.442428  1
  Te  Te19  1  0.776190  0.442428  0.188725  1
  Te  Te20  1  0.442428  0.188725  0.776190  1
  Te  Te21  1  0.942428  0.276190  0.688725  1
  Te  Te22  1  0.276190  0.688725  0.942428  1
  Te  Te23  1  0.688725  0.942428  0.276190  1
  Te  Te24  1  0.597669  0.597669  0.597669  1
  Te  Te25  1  0.097669  0.097669  0.097669  1
  I  I26  1  0.966079  0.535438  0.248783  1
  I  I27  1  0.535438  0.248783  0.966079  1
  I  I28  1  0.248783  0.966079  0.535438  1
  I  I29  1  0.748783  0.035438  0.466079  1
  I  I30  1  0.035438  0.466079  0.748783  1
  I  I31  1  0.466079  0.748783  0.035438  1
  I  I32  1  0.400275  0.400275  0.400275  1
  I  I33  1  0.900275  0.900275  0.900275  1
