# generated using pymatgen
data_Dy16Ag4IrRh3
_symmetry_space_group_name_H-M   'P 1'
_cell_length_a   9.56312625
_cell_length_b   9.54283992
_cell_length_c   9.54284000
_cell_angle_alpha   59.99999972
_cell_angle_beta   60.07014723
_cell_angle_gamma   60.07014220
_symmetry_Int_Tables_number   1
_chemical_formula_structural   Dy16Ag4IrRh3
_chemical_formula_sum   'Dy16 Ag4 Ir1 Rh3'
_cell_volume   616.45277769
_cell_formula_units_Z   1
loop_
 _symmetry_equiv_pos_site_id
 _symmetry_equiv_pos_as_xyz
  1  'x, y, z'
loop_
 _atom_site_type_symbol
 _atom_site_label
 _atom_site_symmetry_multiplicity
 _atom_site_fract_x
 _atom_site_fract_y
 _atom_site_fract_z
 _atom_site_occupancy
  Dy  Dy0  1  0.602917  0.602556  0.602556  1
  Dy  Dy1  1  0.602917  0.602556  0.191972  1
  Dy  Dy2  1  0.602917  0.191972  0.602556  1
  Dy  Dy3  1  0.191482  0.602839  0.602839  1
  Dy  Dy4  1  0.061637  0.437997  0.437997  1
  Dy  Dy5  1  0.438205  0.061985  0.061985  1
  Dy  Dy6  1  0.438205  0.061985  0.437825  1
  Dy  Dy7  1  0.061637  0.437997  0.062370  1
  Dy  Dy8  1  0.438205  0.437825  0.061985  1
  Dy  Dy9  1  0.061637  0.062370  0.437997  1
  Dy  Dy10  1  0.185742  0.814230  0.814230  1
  Dy  Dy11  1  0.814364  0.186165  0.186165  1
  Dy  Dy12  1  0.814364  0.186165  0.813306  1
  Dy  Dy13  1  0.185742  0.814230  0.185797  1
  Dy  Dy14  1  0.814364  0.813306  0.186165  1
  Dy  Dy15  1  0.185742  0.185797  0.814230  1
  Ag  Ag16  1  0.832313  0.832282  0.832282  1
  Ag  Ag17  1  0.832313  0.832282  0.503125  1
  Ag  Ag18  1  0.832313  0.503125  0.832282  1
  Ag  Ag19  1  0.503006  0.832332  0.832332  1
  Ir  Ir20  1  0.819813  0.393396  0.393396  1
  Rh  Rh21  1  0.393389  0.393231  0.393231  1
  Rh  Rh22  1  0.393389  0.393231  0.820151  1
  Rh  Rh23  1  0.393389  0.820151  0.393231  1
