# generated using pymatgen
data_MgCo3SbRhO8
_symmetry_space_group_name_H-M   'P 1'
_cell_length_a   6.06430650
_cell_length_b   10.49170520
_cell_length_c   6.17203189
_cell_angle_alpha   73.89373594
_cell_angle_beta   60.58068756
_cell_angle_gamma   89.98614295
_symmetry_Int_Tables_number   1
_chemical_formula_structural   MgCo3SbRhO8
_chemical_formula_sum   'Mg2 Co6 Sb2 Rh2 O16'
_cell_volume   324.25987745
_cell_formula_units_Z   2
loop_
 _symmetry_equiv_pos_site_id
 _symmetry_equiv_pos_as_xyz
  1  'x, y, z'
loop_
 _atom_site_type_symbol
 _atom_site_label
 _atom_site_symmetry_multiplicity
 _atom_site_fract_x
 _atom_site_fract_y
 _atom_site_fract_z
 _atom_site_occupancy
  Mg  Mg0  1  0.749707  0.249951  0.500034  1
  Mg  Mg1  1  0.750223  0.750094  0.500122  1
  Co  Co2  1  0.705371  0.569033  0.098658  1
  Co  Co3  1  0.795301  0.931000  0.901483  1
  Co  Co4  1  0.998124  0.500024  0.500373  1
  Co  Co5  1  0.196499  0.069064  0.097858  1
  Co  Co6  1  0.302900  0.431019  0.901896  1
  Co  Co7  1  0.501781  0.999897  0.499734  1
  Sb  Sb8  1  0.749495  0.249997  0.999927  1
  Sb  Sb9  1  0.250508  0.749981  0.000071  1
  Rh  Rh10  1  0.249485  0.249975  0.500055  1
  Rh  Rh11  1  0.250484  0.749963  0.500085  1
  O  O12  1  0.393909  0.130172  0.714611  1
  O  O13  1  0.891276  0.630291  0.715306  1
  O  O14  1  0.105295  0.369853  0.285159  1
  O  O15  1  0.609554  0.869663  0.284811  1
  O  O16  1  0.394074  0.136915  0.244717  1
  O  O17  1  0.902013  0.635653  0.241052  1
  O  O18  1  0.857211  0.135541  0.240665  1
  O  O19  1  0.360956  0.636844  0.245142  1
  O  O20  1  0.619292  0.362495  0.249437  1
  O  O21  1  0.131272  0.862520  0.249413  1
  O  O22  1  0.642030  0.364429  0.758980  1
  O  O23  1  0.139693  0.863136  0.755328  1
  O  O24  1  0.880046  0.137532  0.750321  1
  O  O25  1  0.369576  0.637569  0.750504  1
  O  O26  1  0.105060  0.363054  0.755295  1
  O  O27  1  0.598866  0.864333  0.758963  1
