# generated using pymatgen
data_Dy4LuRh2
_symmetry_space_group_name_H-M   'P 1'
_cell_length_a   6.37654319
_cell_length_b   7.12338984
_cell_length_c   8.62616228
_cell_angle_alpha   96.97195973
_cell_angle_beta   111.69125074
_cell_angle_gamma   90.00000131
_symmetry_Int_Tables_number   1
_chemical_formula_structural   Dy4LuRh2
_chemical_formula_sum   'Dy8 Lu2 Rh4'
_cell_volume   360.95749528
_cell_formula_units_Z   2
loop_
 _symmetry_equiv_pos_site_id
 _symmetry_equiv_pos_as_xyz
  1  'x, y, z'
loop_
 _atom_site_type_symbol
 _atom_site_label
 _atom_site_symmetry_multiplicity
 _atom_site_fract_x
 _atom_site_fract_y
 _atom_site_fract_z
 _atom_site_occupancy
  Dy  Dy0  1  0.520802  0.081157  0.812682  1
  Dy  Dy1  1  0.479198  0.918843  0.187318  1
  Dy  Dy2  1  0.708121  0.418843  0.187318  1
  Dy  Dy3  1  0.291879  0.581157  0.812682  1
  Dy  Dy4  1  0.292874  0.310356  0.435332  1
  Dy  Dy5  1  0.707126  0.689644  0.564668  1
  Dy  Dy6  1  0.857543  0.189644  0.564668  1
  Dy  Dy7  1  0.142457  0.810356  0.435332  1
  Lu  Lu8  1  0.074760  0.250000  0.000000  1
  Lu  Lu9  1  0.925240  0.750000  0.000000  1
  Rh  Rh10  1  0.313308  0.574620  0.217175  1
  Rh  Rh11  1  0.686692  0.425380  0.782825  1
  Rh  Rh12  1  0.096135  0.925380  0.782825  1
  Rh  Rh13  1  0.903865  0.074620  0.217175  1
