# generated using pymatgen
data_Yb3DyP3
_symmetry_space_group_name_H-M   'P 1'
_cell_length_a   7.43788971
_cell_length_b   7.43788910
_cell_length_c   7.46802931
_cell_angle_alpha   70.54069794
_cell_angle_beta   70.54069895
_cell_angle_gamma   109.19482533
_symmetry_Int_Tables_number   1
_chemical_formula_structural   Yb3DyP3
_chemical_formula_sum   'Yb6 Dy2 P6'
_cell_volume   319.21262028
_cell_formula_units_Z   2
loop_
 _symmetry_equiv_pos_site_id
 _symmetry_equiv_pos_as_xyz
  1  'x, y, z'
loop_
 _atom_site_type_symbol
 _atom_site_label
 _atom_site_symmetry_multiplicity
 _atom_site_fract_x
 _atom_site_fract_y
 _atom_site_fract_z
 _atom_site_occupancy
  Yb  Yb0  1  0.002845  0.370957  0.492588  1
  Yb  Yb1  1  0.495690  0.492858  0.140043  1
  Yb  Yb2  1  0.635183  0.139897  0.366827  1
  Yb  Yb3  1  0.370957  0.002845  0.992588  1
  Yb  Yb4  1  0.492858  0.495690  0.640043  1
  Yb  Yb5  1  0.139897  0.635183  0.866827  1
  Dy  Dy6  1  0.863500  0.999074  0.000591  1
  Dy  Dy7  1  0.999074  0.863500  0.500591  1
  P  P8  1  0.635105  0.873287  0.750244  1
  P  P9  1  0.873287  0.635105  0.250244  1
  P  P10  1  0.237638  0.117208  0.629712  1
  P  P11  1  0.758379  0.378379  0.869995  1
  P  P12  1  0.378379  0.758379  0.369995  1
  P  P13  1  0.117208  0.237638  0.129712  1
