# generated using pymatgen
data_Sm3Dy(GaRu)4
_symmetry_space_group_name_H-M   'P 1'
_cell_length_a   4.55196500
_cell_length_b   7.13848051
_cell_length_c   7.30303690
_cell_angle_alpha   90.02835482
_cell_angle_beta   90.00000000
_cell_angle_gamma   90.00000000
_symmetry_Int_Tables_number   1
_chemical_formula_structural   Sm3Dy(GaRu)4
_chemical_formula_sum   'Sm3 Dy1 Ga4 Ru4'
_cell_volume   237.30568038
_cell_formula_units_Z   1
loop_
 _symmetry_equiv_pos_site_id
 _symmetry_equiv_pos_as_xyz
  1  'x, y, z'
loop_
 _atom_site_type_symbol
 _atom_site_label
 _atom_site_symmetry_multiplicity
 _atom_site_fract_x
 _atom_site_fract_y
 _atom_site_fract_z
 _atom_site_occupancy
  Sm  Sm0  1  0.250000  0.192851  0.519467  1
  Sm  Sm1  1  0.250000  0.305653  0.019666  1
  Sm  Sm2  1  0.750000  0.694986  0.979797  1
  Dy  Dy3  1  0.750000  0.801912  0.479259  1
  Ga  Ga4  1  0.250000  0.893713  0.196371  1
  Ga  Ga5  1  0.750000  0.394554  0.306374  1
  Ga  Ga6  1  0.250000  0.608577  0.692089  1
  Ga  Ga7  1  0.750000  0.104955  0.804789  1
  Ru  Ru8  1  0.250000  0.936899  0.843004  1
  Ru  Ru9  1  0.250000  0.565523  0.342935  1
  Ru  Ru10  1  0.750000  0.062499  0.159214  1
  Ru  Ru11  1  0.750000  0.437879  0.657032  1
