# generated using pymatgen
data_La4YInPb2
_symmetry_space_group_name_H-M   'P 1'
_cell_length_a   6.39273225
_cell_length_b   9.44524237
_cell_length_c   9.44524100
_cell_angle_alpha   83.56399090
_cell_angle_beta   70.49182170
_cell_angle_gamma   70.49181539
_symmetry_Int_Tables_number   1
_chemical_formula_structural   La4YInPb2
_chemical_formula_sum   'La8 Y2 In2 Pb4'
_cell_volume   506.71264936
_cell_formula_units_Z   2
loop_
 _symmetry_equiv_pos_site_id
 _symmetry_equiv_pos_as_xyz
  1  'x, y, z'
loop_
 _atom_site_type_symbol
 _atom_site_label
 _atom_site_symmetry_multiplicity
 _atom_site_fract_x
 _atom_site_fract_y
 _atom_site_fract_z
 _atom_site_occupancy
  La  La0  1  0.720911  0.865097  0.693695  1
  La  La1  1  0.279089  0.134903  0.306305  1
  La  La2  1  0.779089  0.306305  0.134903  1
  La  La3  1  0.220911  0.693695  0.865097  1
  La  La4  1  0.585804  0.693669  0.135150  1
  La  La5  1  0.414196  0.306331  0.864850  1
  La  La6  1  0.085804  0.135150  0.693669  1
  La  La7  1  0.914196  0.864850  0.306331  1
  Y  Y8  1  0.750000  0.499923  0.500077  1
  Y  Y9  1  0.250000  0.500077  0.499923  1
  In  In10  1  0.250000  0.000235  0.999765  1
  In  In11  1  0.750000  0.999765  0.000235  1
  Pb  Pb12  1  0.156282  0.499716  0.187204  1
  Pb  Pb13  1  0.843718  0.500284  0.812796  1
  Pb  Pb14  1  0.343718  0.812796  0.500284  1
  Pb  Pb15  1  0.656282  0.187204  0.499716  1
