# generated using pymatgen
data_LaYb3(Gd4Ir3)4
_symmetry_space_group_name_H-M   'P 1'
_cell_length_a   11.10865900
_cell_length_b   11.10865900
_cell_length_c   6.36141900
_cell_angle_alpha   90.00000000
_cell_angle_beta   90.00000000
_cell_angle_gamma   90.00000000
_symmetry_Int_Tables_number   1
_chemical_formula_structural   LaYb3(Gd4Ir3)4
_chemical_formula_sum   'La1 Yb3 Gd16 Ir12'
_cell_volume   785.01376626
_cell_formula_units_Z   1
loop_
 _symmetry_equiv_pos_site_id
 _symmetry_equiv_pos_as_xyz
  1  'x, y, z'
loop_
 _atom_site_type_symbol
 _atom_site_label
 _atom_site_symmetry_multiplicity
 _atom_site_fract_x
 _atom_site_fract_y
 _atom_site_fract_z
 _atom_site_occupancy
  La  La0  1  0.500000  0.500000  0.500000  1
  Yb  Yb1  1  0.000000  0.000000  0.500000  1
  Yb  Yb2  1  0.000000  0.000000  0.000000  1
  Yb  Yb3  1  0.500000  0.500000  0.000000  1
  Gd  Gd4  1  0.288563  0.088548  0.385344  1
  Gd  Gd5  1  0.289291  0.912152  0.884190  1
  Gd  Gd6  1  0.710709  0.087848  0.884190  1
  Gd  Gd7  1  0.711437  0.911452  0.385344  1
  Gd  Gd8  1  0.589553  0.791031  0.884872  1
  Gd  Gd9  1  0.591146  0.205084  0.383797  1
  Gd  Gd10  1  0.408854  0.794916  0.383797  1
  Gd  Gd11  1  0.410447  0.208969  0.884872  1
  Gd  Gd12  1  0.205084  0.408854  0.616203  1
  Gd  Gd13  1  0.208969  0.589553  0.115128  1
  Gd  Gd14  1  0.791031  0.410447  0.115128  1
  Gd  Gd15  1  0.794916  0.591146  0.616203  1
  Gd  Gd16  1  0.912152  0.710709  0.115810  1
  Gd  Gd17  1  0.911452  0.288563  0.614656  1
  Gd  Gd18  1  0.088548  0.711437  0.614656  1
  Gd  Gd19  1  0.087848  0.289291  0.115810  1
  Ir  Ir20  1  0.843235  0.157726  0.248571  1
  Ir  Ir21  1  0.842274  0.843235  0.751429  1
  Ir  Ir22  1  0.157726  0.156765  0.751429  1
  Ir  Ir23  1  0.156765  0.842274  0.248571  1
  Ir  Ir24  1  0.657366  0.343054  0.747684  1
  Ir  Ir25  1  0.656946  0.657366  0.252316  1
  Ir  Ir26  1  0.343054  0.342634  0.252316  1
  Ir  Ir27  1  0.342634  0.656946  0.747684  1
  Ir  Ir28  1  0.500000  0.000000  0.120368  1
  Ir  Ir29  1  0.500000  0.000000  0.621941  1
  Ir  Ir30  1  0.000000  0.500000  0.879632  1
  Ir  Ir31  1  0.000000  0.500000  0.378059  1
