# generated using pymatgen
data_Er20Ir2Pd7Ru3
_symmetry_space_group_name_H-M   'P 1'
_cell_length_a   10.95348900
_cell_length_b   10.95863976
_cell_length_c   6.31895600
_cell_angle_alpha   89.88710370
_cell_angle_beta   89.87481886
_cell_angle_gamma   90.32675807
_symmetry_Int_Tables_number   1
_chemical_formula_structural   Er20Ir2Pd7Ru3
_chemical_formula_sum   'Er20 Ir2 Pd7 Ru3'
_cell_volume   758.48239613
_cell_formula_units_Z   1
loop_
 _symmetry_equiv_pos_site_id
 _symmetry_equiv_pos_as_xyz
  1  'x, y, z'
loop_
 _atom_site_type_symbol
 _atom_site_label
 _atom_site_symmetry_multiplicity
 _atom_site_fract_x
 _atom_site_fract_y
 _atom_site_fract_z
 _atom_site_occupancy
  Er  Er0  1  0.297558  0.082171  0.363389  1
  Er  Er1  1  0.297381  0.909633  0.864435  1
  Er  Er2  1  0.701479  0.083171  0.862251  1
  Er  Er3  1  0.701923  0.915154  0.361830  1
  Er  Er4  1  0.579132  0.794291  0.862035  1
  Er  Er5  1  0.583916  0.202762  0.364311  1
  Er  Er6  1  0.413224  0.793395  0.371177  1
  Er  Er7  1  0.414922  0.200410  0.863754  1
  Er  Er8  1  0.207438  0.420598  0.640024  1
  Er  Er9  1  0.207373  0.588506  0.129037  1
  Er  Er10  1  0.796339  0.414455  0.135017  1
  Er  Er11  1  0.797880  0.585807  0.637822  1
  Er  Er12  1  0.916074  0.703232  0.135639  1
  Er  Er13  1  0.915688  0.297042  0.639353  1
  Er  Er14  1  0.091448  0.704104  0.636725  1
  Er  Er15  1  0.086370  0.297327  0.137646  1
  Er  Er16  1  0.998995  0.000993  0.500072  1
  Er  Er17  1  0.999233  0.001063  0.998551  1
  Er  Er18  1  0.496894  0.501112  0.998014  1
  Er  Er19  1  0.498893  0.502942  0.499358  1
  Ir  Ir20  1  0.347075  0.652297  0.749588  1
  Ir  Ir21  1  0.000248  0.500030  0.385185  1
  Pd  Pd22  1  0.845137  0.154529  0.249627  1
  Pd  Pd23  1  0.844214  0.845634  0.751003  1
  Pd  Pd24  1  0.154344  0.156041  0.748579  1
  Pd  Pd25  1  0.152848  0.847377  0.249521  1
  Pd  Pd26  1  0.653911  0.346519  0.749495  1
  Pd  Pd27  1  0.655997  0.655075  0.248403  1
  Pd  Pd28  1  0.344731  0.344081  0.249928  1
  Ru  Ru29  1  0.499876  0.999966  0.117827  1
  Ru  Ru30  1  0.499768  0.999993  0.616499  1
  Ru  Ru31  1  0.999693  0.500293  0.883903  1
