# generated using pymatgen
data_Ta11NbAl8Ru3RhC4
_symmetry_space_group_name_H-M   'P 1'
_cell_length_a   8.31464465
_cell_length_b   8.31464558
_cell_length_c   8.29615300
_cell_angle_alpha   59.92624949
_cell_angle_beta   59.92624579
_cell_angle_gamma   59.99999921
_symmetry_Int_Tables_number   1
_chemical_formula_structural   Ta11NbAl8Ru3RhC4
_chemical_formula_sum   'Ta11 Nb1 Al8 Ru3 Rh1 C4'
_cell_volume   405.10177867
_cell_formula_units_Z   1
loop_
 _symmetry_equiv_pos_site_id
 _symmetry_equiv_pos_as_xyz
  1  'x, y, z'
loop_
 _atom_site_type_symbol
 _atom_site_label
 _atom_site_symmetry_multiplicity
 _atom_site_fract_x
 _atom_site_fract_y
 _atom_site_fract_z
 _atom_site_occupancy
  Ta  Ta0  1  0.311722  0.685208  0.691599  1
  Ta  Ta1  1  0.690061  0.310090  0.310050  1
  Ta  Ta2  1  0.310061  0.690074  0.309791  1
  Ta  Ta3  1  0.690061  0.689799  0.310050  1
  Ta  Ta4  1  0.311722  0.311470  0.691599  1
  Ta  Ta5  1  0.559807  0.559611  0.940552  1
  Ta  Ta6  1  0.938632  0.564623  0.558223  1
  Ta  Ta7  1  0.559807  0.940030  0.940552  1
  Ta  Ta8  1  0.938632  0.938524  0.558223  1
  Ta  Ta9  1  0.685612  0.311228  0.691932  1
  Ta  Ta10  1  0.939686  0.560229  0.939855  1
  Nb  Nb11  1  0.564296  0.938877  0.557951  1
  Al  Al12  1  0.917323  0.916457  0.915771  1
  Al  Al13  1  0.999572  0.333227  0.333972  1
  Al  Al14  1  0.333284  0.999550  0.334737  1
  Al  Al15  1  0.331830  0.332700  0.002771  1
  Al  Al16  1  0.917323  0.250451  0.915771  1
  Al  Al17  1  0.916832  0.917922  0.247325  1
  Al  Al18  1  0.250673  0.917226  0.914875  1
  Al  Al19  1  0.333284  0.332429  0.334737  1
  Ru  Ru20  1  0.125010  0.125062  0.125028  1
  Ru  Ru21  1  0.625188  0.125900  0.123012  1
  Ru  Ru22  1  0.125010  0.624900  0.125028  1
  Rh  Rh23  1  0.123397  0.125692  0.625220  1
  C  C24  1  0.625398  0.623373  0.625526  1
  C  C25  1  0.125241  0.624806  0.625147  1
  C  C26  1  0.625398  0.125703  0.625526  1
  C  C27  1  0.625136  0.624842  0.125179  1
