# generated using pymatgen
data_CaLa14Nd(CdIr)4
_symmetry_space_group_name_H-M   'P 1'
_cell_length_a   10.11946032
_cell_length_b   10.11983834
_cell_length_c   10.10192400
_cell_angle_alpha   60.05747206
_cell_angle_beta   60.05401692
_cell_angle_gamma   60.00512636
_symmetry_Int_Tables_number   1
_chemical_formula_structural   CaLa14Nd(CdIr)4
_chemical_formula_sum   'Ca1 La14 Nd1 Cd4 Ir4'
_cell_volume   732.15374778
_cell_formula_units_Z   1
loop_
 _symmetry_equiv_pos_site_id
 _symmetry_equiv_pos_as_xyz
  1  'x, y, z'
loop_
 _atom_site_type_symbol
 _atom_site_label
 _atom_site_symmetry_multiplicity
 _atom_site_fract_x
 _atom_site_fract_y
 _atom_site_fract_z
 _atom_site_occupancy
  Ca  Ca0  1  0.561371  0.561377  0.938625  1
  La  La1  1  0.347462  0.347403  0.347319  1
  La  La2  1  0.347486  0.347476  0.957801  1
  La  La3  1  0.346935  0.957559  0.347776  1
  La  La4  1  0.957514  0.346934  0.347809  1
  La  La5  1  0.810044  0.190714  0.190441  1
  La  La6  1  0.190689  0.810071  0.808776  1
  La  La7  1  0.190687  0.810066  0.190440  1
  La  La8  1  0.810079  0.190682  0.808783  1
  La  La9  1  0.189486  0.189502  0.810505  1
  La  La10  1  0.810315  0.810339  0.189659  1
  La  La11  1  0.938030  0.562154  0.561958  1
  La  La12  1  0.562159  0.938014  0.937833  1
  La  La13  1  0.562155  0.938023  0.561961  1
  La  La14  1  0.938017  0.562162  0.937811  1
  Nd  Nd15  1  0.938121  0.938138  0.561871  1
  Cd  Cd16  1  0.579308  0.579321  0.579903  1
  Cd  Cd17  1  0.579320  0.579301  0.261479  1
  Cd  Cd18  1  0.580505  0.260948  0.579271  1
  Cd  Cd19  1  0.260951  0.580492  0.579282  1
  Ir  Ir20  1  0.141042  0.141009  0.140932  1
  Ir  Ir21  1  0.141022  0.141027  0.577029  1
  Ir  Ir22  1  0.140214  0.577084  0.141380  1
  Ir  Ir23  1  0.577089  0.140203  0.141357  1
