# generated using pymatgen
data_Ta3FePb4O13
_symmetry_space_group_name_H-M   'P 1'
_cell_length_a   7.50230387
_cell_length_b   7.50230475
_cell_length_c   7.50230261
_cell_angle_alpha   60.42839686
_cell_angle_beta   60.42839322
_cell_angle_gamma   60.42839880
_symmetry_Int_Tables_number   1
_chemical_formula_structural   Ta3FePb4O13
_chemical_formula_sum   'Ta3 Fe1 Pb4 O13'
_cell_volume   301.47781824
_cell_formula_units_Z   1
loop_
 _symmetry_equiv_pos_site_id
 _symmetry_equiv_pos_as_xyz
  1  'x, y, z'
loop_
 _atom_site_type_symbol
 _atom_site_label
 _atom_site_symmetry_multiplicity
 _atom_site_fract_x
 _atom_site_fract_y
 _atom_site_fract_z
 _atom_site_occupancy
  Ta  Ta0  1  0.001240  0.500382  0.500382  1
  Ta  Ta1  1  0.500382  0.500382  0.001240  1
  Ta  Ta2  1  0.500382  0.001240  0.500382  1
  Fe  Fe3  1  0.500124  0.500124  0.500124  1
  Pb  Pb4  1  0.999640  0.999640  0.999640  1
  Pb  Pb5  1  0.502389  0.001839  0.001839  1
  Pb  Pb6  1  0.001839  0.001839  0.502389  1
  Pb  Pb7  1  0.001839  0.502389  0.001839  1
  O  O8  1  0.828194  0.426974  0.426974  1
  O  O9  1  0.430205  0.817411  0.817411  1
  O  O10  1  0.426974  0.426974  0.828194  1
  O  O11  1  0.817411  0.817411  0.430205  1
  O  O12  1  0.817411  0.430205  0.817411  1
  O  O13  1  0.426974  0.828194  0.426974  1
  O  O14  1  0.178422  0.566453  0.566453  1
  O  O15  1  0.568047  0.183466  0.183466  1
  O  O16  1  0.566453  0.566453  0.178422  1
  O  O17  1  0.183466  0.183466  0.568047  1
  O  O18  1  0.183466  0.568047  0.183466  1
  O  O19  1  0.566453  0.178422  0.566453  1
  O  O20  1  0.123689  0.123689  0.123689  1
