# generated using pymatgen
data_Tb8Be3Si12Ir
_symmetry_space_group_name_H-M   'P 1'
_cell_length_a   7.95325900
_cell_length_b   7.95325809
_cell_length_c   8.14395100
_cell_angle_alpha   90.00000000
_cell_angle_beta   90.00000000
_cell_angle_gamma   120.00000793
_symmetry_Int_Tables_number   1
_chemical_formula_structural   Tb8Be3Si12Ir
_chemical_formula_sum   'Tb8 Be3 Si12 Ir1'
_cell_volume   446.12437297
_cell_formula_units_Z   1
loop_
 _symmetry_equiv_pos_site_id
 _symmetry_equiv_pos_as_xyz
  1  'x, y, z'
loop_
 _atom_site_type_symbol
 _atom_site_label
 _atom_site_symmetry_multiplicity
 _atom_site_fract_x
 _atom_site_fract_y
 _atom_site_fract_z
 _atom_site_occupancy
  Tb  Tb0  1  0.499597  0.999194  0.248596  1
  Tb  Tb1  1  0.500194  0.000390  0.751349  1
  Tb  Tb2  1  0.000806  0.500403  0.248596  1
  Tb  Tb3  1  0.999610  0.499806  0.751349  1
  Tb  Tb4  1  0.499597  0.500403  0.248596  1
  Tb  Tb5  1  0.500194  0.499806  0.751349  1
  Tb  Tb6  1  0.000000  0.000000  0.247308  1
  Tb  Tb7  1  0.000000  0.000000  0.752454  1
  Be  Be8  1  0.333333  0.666667  0.000975  1
  Be  Be9  1  0.666667  0.333333  0.001004  1
  Be  Be10  1  0.666667  0.333333  0.498137  1
  Si  Si11  1  0.172627  0.345254  0.999562  1
  Si  Si12  1  0.827190  0.654381  0.000302  1
  Si  Si13  1  0.654746  0.827373  0.999562  1
  Si  Si14  1  0.829458  0.658916  0.499950  1
  Si  Si15  1  0.345619  0.172810  0.000302  1
  Si  Si16  1  0.167303  0.334605  0.499583  1
  Si  Si17  1  0.172627  0.827373  0.999562  1
  Si  Si18  1  0.341084  0.170542  0.499950  1
  Si  Si19  1  0.827190  0.172810  0.000302  1
  Si  Si20  1  0.665395  0.832697  0.499583  1
  Si  Si21  1  0.829458  0.170542  0.499950  1
  Si  Si22  1  0.167303  0.832697  0.499583  1
  Ir  Ir23  1  0.333333  0.666667  0.502098  1
