# generated using pymatgen
data_Y2Ho6VOs3C8
_symmetry_space_group_name_H-M   'P 1'
_cell_length_a   5.08133600
_cell_length_b   6.51976129
_cell_length_c   9.77488618
_cell_angle_alpha   89.82778913
_cell_angle_beta   90.00000000
_cell_angle_gamma   90.00000000
_symmetry_Int_Tables_number   1
_chemical_formula_structural   Y2Ho6VOs3C8
_chemical_formula_sum   'Y2 Ho6 V1 Os3 C8'
_cell_volume   323.83169716
_cell_formula_units_Z   1
loop_
 _symmetry_equiv_pos_site_id
 _symmetry_equiv_pos_as_xyz
  1  'x, y, z'
loop_
 _atom_site_type_symbol
 _atom_site_label
 _atom_site_symmetry_multiplicity
 _atom_site_fract_x
 _atom_site_fract_y
 _atom_site_fract_z
 _atom_site_occupancy
  Y  Y0  1  0.750000  0.467523  0.780499  1
  Y  Y1  1  0.750000  0.972996  0.715742  1
  Ho  Ho2  1  0.250000  0.683152  0.557408  1
  Ho  Ho3  1  0.750000  0.321766  0.444312  1
  Ho  Ho4  1  0.750000  0.820168  0.055342  1
  Ho  Ho5  1  0.250000  0.175823  0.943035  1
  Ho  Ho6  1  0.250000  0.532904  0.212375  1
  Ho  Ho7  1  0.250000  0.029166  0.283713  1
  V  V8  1  0.250000  0.723562  0.866476  1
  Os  Os9  1  0.750000  0.277473  0.134837  1
  Os  Os10  1  0.750000  0.776812  0.364569  1
  Os  Os11  1  0.250000  0.225925  0.634772  1
  C  C12  1  0.250000  0.459677  0.761897  1
  C  C13  1  0.750000  0.542049  0.242084  1
  C  C14  1  0.750000  0.042323  0.259122  1
  C  C15  1  0.250000  0.956874  0.741453  1
  C  C16  1  0.250000  0.819988  0.051682  1
  C  C17  1  0.750000  0.173820  0.951477  1
  C  C18  1  0.750000  0.675285  0.550551  1
  C  C19  1  0.250000  0.322713  0.448656  1
