# generated using pymatgen
data_K2Al4Ag5Au
_symmetry_space_group_name_H-M   'P 1'
_cell_length_a   7.16999600
_cell_length_b   7.16999602
_cell_length_c   5.51823000
_cell_angle_alpha   90.00000000
_cell_angle_beta   90.00000000
_cell_angle_gamma   103.57236057
_symmetry_Int_Tables_number   1
_chemical_formula_structural   K2Al4Ag5Au
_chemical_formula_sum   'K2 Al4 Ag5 Au1'
_cell_volume   275.76369891
_cell_formula_units_Z   1
loop_
 _symmetry_equiv_pos_site_id
 _symmetry_equiv_pos_as_xyz
  1  'x, y, z'
loop_
 _atom_site_type_symbol
 _atom_site_label
 _atom_site_symmetry_multiplicity
 _atom_site_fract_x
 _atom_site_fract_y
 _atom_site_fract_z
 _atom_site_occupancy
  K  K0  1  0.834714  0.834714  0.000000  1
  K  K1  1  0.161176  0.161176  0.500000  1
  Al  Al2  1  0.300761  0.701899  0.251911  1
  Al  Al3  1  0.300761  0.701899  0.748089  1
  Al  Al4  1  0.701899  0.300761  0.251911  1
  Al  Al5  1  0.701899  0.300761  0.748089  1
  Ag  Ag6  1  0.447270  0.022584  0.000000  1
  Ag  Ag7  1  0.978249  0.560352  0.500000  1
  Ag  Ag8  1  0.560352  0.978249  0.500000  1
  Ag  Ag9  1  0.022584  0.447270  0.000000  1
  Ag  Ag10  1  0.438041  0.438041  0.000000  1
  Au  Au11  1  0.552293  0.552293  0.500000  1
