# generated using pymatgen
data_Dy2Y5(TmSn2)3
_symmetry_space_group_name_H-M   'P 1'
_cell_length_a   6.51188300
_cell_length_b   8.95256646
_cell_length_c   8.95207503
_cell_angle_alpha   120.00261111
_cell_angle_beta   89.99926155
_cell_angle_gamma   90.00099141
_symmetry_Int_Tables_number   1
_chemical_formula_structural   Dy2Y5(TmSn2)3
_chemical_formula_sum   'Dy2 Y5 Tm3 Sn6'
_cell_volume   451.95694070
_cell_formula_units_Z   1
loop_
 _symmetry_equiv_pos_site_id
 _symmetry_equiv_pos_as_xyz
  1  'x, y, z'
loop_
 _atom_site_type_symbol
 _atom_site_label
 _atom_site_symmetry_multiplicity
 _atom_site_fract_x
 _atom_site_fract_y
 _atom_site_fract_z
 _atom_site_occupancy
  Dy  Dy0  1  0.500004  0.333325  0.666708  1
  Dy  Dy1  1  0.750226  0.239860  0.000082  1
  Y  Y2  1  0.750218  0.760216  0.760143  1
  Y  Y3  1  0.750221  0.999913  0.239775  1
  Y  Y4  1  0.249779  0.760189  0.000081  1
  Y  Y5  1  0.249778  0.239978  0.239776  1
  Y  Y6  1  0.249778  0.000040  0.760139  1
  Tm  Tm7  1  0.500004  0.666607  0.333276  1
  Tm  Tm8  1  0.999998  0.666617  0.333269  1
  Tm  Tm9  1  0.999998  0.333345  0.666721  1
  Sn  Sn10  1  0.750733  0.604754  0.000750  1
  Sn  Sn11  1  0.750743  0.395809  0.395007  1
  Sn  Sn12  1  0.750745  0.999333  0.604268  1
  Sn  Sn13  1  0.249262  0.395866  0.000746  1
  Sn  Sn14  1  0.249258  0.604898  0.604167  1
  Sn  Sn15  1  0.249257  0.999251  0.395091  1
