# generated using pymatgen
data_Cs6K3AlBi4
_symmetry_space_group_name_H-M   'P 1'
_cell_length_a   11.40754407
_cell_length_b   11.40754511
_cell_length_c   11.93769100
_cell_angle_alpha   90.00000000
_cell_angle_beta   90.00000000
_cell_angle_gamma   119.99957618
_symmetry_Int_Tables_number   1
_chemical_formula_structural   Cs6K3AlBi4
_chemical_formula_sum   'Cs12 K6 Al2 Bi8'
_cell_volume   1345.35584357
_cell_formula_units_Z   2
loop_
 _symmetry_equiv_pos_site_id
 _symmetry_equiv_pos_as_xyz
  1  'x, y, z'
loop_
 _atom_site_type_symbol
 _atom_site_label
 _atom_site_symmetry_multiplicity
 _atom_site_fract_x
 _atom_site_fract_y
 _atom_site_fract_z
 _atom_site_occupancy
  Cs  Cs0  1  0.209052  0.418055  0.544104  1
  Cs  Cs1  1  0.790947  0.581946  0.044104  1
  Cs  Cs2  1  0.581946  0.790947  0.544104  1
  Cs  Cs3  1  0.209041  0.790960  0.544054  1
  Cs  Cs4  1  0.790960  0.209040  0.044053  1
  Cs  Cs5  1  0.418055  0.209053  0.044104  1
  Cs  Cs6  1  0.790947  0.581946  0.455897  1
  Cs  Cs7  1  0.790960  0.209040  0.455946  1
  Cs  Cs8  1  0.418055  0.209053  0.455897  1
  Cs  Cs9  1  0.581946  0.790947  0.955896  1
  Cs  Cs10  1  0.209041  0.790960  0.955947  1
  Cs  Cs11  1  0.209052  0.418055  0.955896  1
  K  K12  1  0.119684  0.239348  0.250001  1
  K  K13  1  0.880315  0.760651  0.750000  1
  K  K14  1  0.760651  0.880315  0.250001  1
  K  K15  1  0.119692  0.880310  0.250001  1
  K  K16  1  0.880309  0.119691  0.750000  1
  K  K17  1  0.239348  0.119684  0.750000  1
  Al  Al18  1  0.333330  0.666669  0.250001  1
  Al  Al19  1  0.666670  0.333330  0.750000  1
  Bi  Bi20  1  0.000000  0.000000  0.000000  1
  Bi  Bi21  1  0.000000  0.000000  0.499999  1
  Bi  Bi22  1  0.473590  0.526410  0.250001  1
  Bi  Bi23  1  0.526410  0.473590  0.750000  1
  Bi  Bi24  1  0.473608  0.947181  0.250001  1
  Bi  Bi25  1  0.052819  0.526394  0.250001  1
  Bi  Bi26  1  0.947181  0.473607  0.750000  1
  Bi  Bi27  1  0.526392  0.052818  0.750000  1
