# generated using pymatgen
data_CePa3Ge4IrPt3
_symmetry_space_group_name_H-M   'P 1'
_cell_length_a   4.39772000
_cell_length_b   7.14591819
_cell_length_c   7.64948646
_cell_angle_alpha   89.69772899
_cell_angle_beta   90.00000000
_cell_angle_gamma   90.00000000
_symmetry_Int_Tables_number   1
_chemical_formula_structural   CePa3Ge4IrPt3
_chemical_formula_sum   'Ce1 Pa3 Ge4 Ir1 Pt3'
_cell_volume   240.38748336
_cell_formula_units_Z   1
loop_
 _symmetry_equiv_pos_site_id
 _symmetry_equiv_pos_as_xyz
  1  'x, y, z'
loop_
 _atom_site_type_symbol
 _atom_site_label
 _atom_site_symmetry_multiplicity
 _atom_site_fract_x
 _atom_site_fract_y
 _atom_site_fract_z
 _atom_site_occupancy
  Ce  Ce0  1  0.250000  0.493589  0.204650  1
  Pa  Pa1  1  0.750000  0.510497  0.790056  1
  Pa  Pa2  1  0.250000  0.989479  0.296693  1
  Pa  Pa3  1  0.750000  0.999226  0.705443  1
  Ge  Ge4  1  0.250000  0.798881  0.912587  1
  Ge  Ge5  1  0.250000  0.317439  0.590007  1
  Ge  Ge6  1  0.750000  0.195020  0.087683  1
  Ge  Ge7  1  0.750000  0.690117  0.412108  1
  Ir  Ir8  1  0.250000  0.732642  0.583102  1
  Pt  Pt9  1  0.250000  0.202352  0.910440  1
  Pt  Pt10  1  0.750000  0.272289  0.422447  1
  Pt  Pt11  1  0.750000  0.798468  0.084785  1
