# generated using pymatgen
data_Zr6V8TcOs3
_symmetry_space_group_name_H-M   'P 1'
_cell_length_a   5.20782386
_cell_length_b   5.22896526
_cell_length_c   12.80699352
_cell_angle_alpha   90.22265200
_cell_angle_beta   89.58574310
_cell_angle_gamma   119.93394405
_symmetry_Int_Tables_number   1
_chemical_formula_structural   Zr6V8TcOs3
_chemical_formula_sum   'Zr6 V8 Tc1 Os3'
_cell_volume   302.22277084
_cell_formula_units_Z   1
loop_
 _symmetry_equiv_pos_site_id
 _symmetry_equiv_pos_as_xyz
  1  'x, y, z'
loop_
 _atom_site_type_symbol
 _atom_site_label
 _atom_site_symmetry_multiplicity
 _atom_site_fract_x
 _atom_site_fract_y
 _atom_site_fract_z
 _atom_site_occupancy
  Zr  Zr0  1  0.334095  0.663842  0.917292  1
  Zr  Zr1  1  0.001417  0.001017  0.249018  1
  Zr  Zr2  1  0.667172  0.332989  0.583095  1
  Zr  Zr3  1  0.332828  0.667011  0.666905  1
  Zr  Zr4  1  0.998583  0.998983  0.000981  1
  Zr  Zr5  1  0.665905  0.336158  0.332708  1
  V  V6  1  0.166922  0.334679  0.457412  1
  V  V7  1  0.833078  0.665321  0.792588  1
  V  V8  1  0.333660  0.668586  0.292081  1
  V  V9  1  0.000000  0.000000  0.625000  1
  V  V10  1  0.666340  0.331414  0.957919  1
  V  V11  1  0.000000  0.500000  0.125000  1
  V  V12  1  0.666026  0.833761  0.458189  1
  V  V13  1  0.333974  0.166239  0.791811  1
  Tc  Tc14  1  0.500000  0.000000  0.125000  1
  Os  Os15  1  0.500000  0.500000  0.125000  1
  Os  Os16  1  0.165894  0.834458  0.457949  1
  Os  Os17  1  0.834106  0.165542  0.792051  1
