# generated using pymatgen
data_Tb7Ho5Co4BiOs
_symmetry_space_group_name_H-M   'P 1'
_cell_length_a   8.32558153
_cell_length_b   8.32629000
_cell_length_c   8.32558166
_cell_angle_alpha   111.27864103
_cell_angle_beta   110.38015137
_cell_angle_gamma   106.78572503
_symmetry_Int_Tables_number   1
_chemical_formula_structural   Tb7Ho5Co4BiOs
_chemical_formula_sum   'Tb7 Ho5 Co4 Bi1 Os1'
_cell_volume   443.54481601
_cell_formula_units_Z   1
loop_
 _symmetry_equiv_pos_site_id
 _symmetry_equiv_pos_as_xyz
  1  'x, y, z'
loop_
 _atom_site_type_symbol
 _atom_site_label
 _atom_site_symmetry_multiplicity
 _atom_site_fract_x
 _atom_site_fract_y
 _atom_site_fract_z
 _atom_site_occupancy
  Tb  Tb0  1  0.819358  0.717914  0.536871  1
  Tb  Tb1  1  0.181004  0.282103  0.463329  1
  Tb  Tb2  1  0.181044  0.717914  0.898556  1
  Tb  Tb3  1  0.818774  0.282103  0.101100  1
  Tb  Tb4  1  0.687696  0.378970  0.691275  1
  Tb  Tb5  1  0.312102  0.621086  0.308983  1
  Tb  Tb6  1  0.687888  0.996597  0.308709  1
  Ho  Ho7  1  0.312276  0.003118  0.690842  1
  Ho  Ho8  1  0.590841  0.787184  0.803972  1
  Ho  Ho9  1  0.408942  0.212922  0.195757  1
  Ho  Ho10  1  0.983212  0.787184  0.196342  1
  Ho  Ho11  1  0.017165  0.212922  0.803981  1
  Co  Co12  1  0.624435  0.999944  0.624808  1
  Co  Co13  1  0.375137  0.999944  0.375510  1
  Co  Co14  1  0.110945  0.611105  0.500160  1
  Co  Co15  1  0.889307  0.389256  0.499948  1
  Bi  Bi16  1  0.499895  0.499755  0.999860  1
  Os  Os17  1  0.999980  0.999978  0.999999  1
