# generated using pymatgen
data_Ba6YbNb2O12
_symmetry_space_group_name_H-M   'P 1'
_cell_length_a   9.35826382
_cell_length_b   9.35826470
_cell_length_c   7.34440000
_cell_angle_alpha   67.58181076
_cell_angle_beta   67.58180853
_cell_angle_gamma   36.91328420
_symmetry_Int_Tables_number   1
_chemical_formula_structural   Ba6YbNb2O12
_chemical_formula_sum   'Ba6 Yb1 Nb2 O12'
_cell_volume   353.71366725
_cell_formula_units_Z   1
loop_
 _symmetry_equiv_pos_site_id
 _symmetry_equiv_pos_as_xyz
  1  'x, y, z'
loop_
 _atom_site_type_symbol
 _atom_site_label
 _atom_site_symmetry_multiplicity
 _atom_site_fract_x
 _atom_site_fract_y
 _atom_site_fract_z
 _atom_site_occupancy
  Ba  Ba0  1  0.885452  0.885452  0.711556  1
  Ba  Ba1  1  0.210159  0.210159  0.704814  1
  Ba  Ba2  1  0.549847  0.549847  0.706671  1
  Ba  Ba3  1  0.450153  0.450153  0.293329  1
  Ba  Ba4  1  0.789841  0.789841  0.295186  1
  Ba  Ba5  1  0.114548  0.114548  0.288444  1
  Yb  Yb6  1  0.000000  0.000000  0.000000  1
  Nb  Nb7  1  0.666816  0.666816  0.000848  1
  Nb  Nb8  1  0.333184  0.333184  0.999152  1
  O  O9  1  0.939989  0.939989  0.340319  1
  O  O10  1  0.279268  0.279268  0.304303  1
  O  O11  1  0.620485  0.620485  0.303524  1
  O  O12  1  0.379515  0.379515  0.696476  1
  O  O13  1  0.720732  0.720732  0.695697  1
  O  O14  1  0.060011  0.060011  0.659681  1
  O  O15  1  0.500000  0.000000  0.000000  1
  O  O16  1  0.822486  0.357270  0.998201  1
  O  O17  1  0.177514  0.642730  0.001799  1
  O  O18  1  0.000000  0.500000  0.000000  1
  O  O19  1  0.357270  0.822486  0.998201  1
  O  O20  1  0.642730  0.177514  0.001799  1
