# generated using pymatgen
data_NaCa4(NiAs)10
_symmetry_space_group_name_H-M   'P 1'
_cell_length_a   9.12595000
_cell_length_b   8.15885760
_cell_length_c   9.12595000
_cell_angle_alpha   55.99491972
_cell_angle_beta   90.00000000
_cell_angle_gamma   55.99491972
_symmetry_Int_Tables_number   1
_chemical_formula_structural   NaCa4(NiAs)10
_chemical_formula_sum   'Na1 Ca4 Ni10 As10'
_cell_volume   415.79369267
_cell_formula_units_Z   1
loop_
 _symmetry_equiv_pos_site_id
 _symmetry_equiv_pos_as_xyz
  1  'x, y, z'
loop_
 _atom_site_type_symbol
 _atom_site_label
 _atom_site_symmetry_multiplicity
 _atom_site_fract_x
 _atom_site_fract_y
 _atom_site_fract_z
 _atom_site_occupancy
  Na  Na0  1  0.000000  0.000000  0.000000  1
  Ca  Ca1  1  0.199331  0.000000  0.601197  1
  Ca  Ca2  1  0.398803  0.000000  0.199331  1
  Ca  Ca3  1  0.601197  0.000000  0.800669  1
  Ca  Ca4  1  0.800669  0.000000  0.398803  1
  Ni  Ni5  1  0.949559  0.502696  0.848947  1
  Ni  Ni6  1  0.151053  0.497304  0.452255  1
  Ni  Ni7  1  0.351643  0.497304  0.050441  1
  Ni  Ni8  1  0.547745  0.502696  0.648357  1
  Ni  Ni9  1  0.750000  0.500000  0.250000  1
  Ni  Ni10  1  0.848947  0.502696  0.547745  1
  Ni  Ni11  1  0.050441  0.497304  0.151053  1
  Ni  Ni12  1  0.250000  0.500000  0.750000  1
  Ni  Ni13  1  0.452255  0.497304  0.351643  1
  Ni  Ni14  1  0.648357  0.502696  0.949559  1
  As  As15  1  0.168486  0.262653  0.769177  1
  As  As16  1  0.369413  0.261173  0.369413  1
  As  As17  1  0.568860  0.262653  0.968169  1
  As  As18  1  0.769177  0.262653  0.568860  1
  As  As19  1  0.968169  0.262653  0.168486  1
  As  As20  1  0.630587  0.738827  0.630587  1
  As  As21  1  0.831514  0.737347  0.230823  1
  As  As22  1  0.031830  0.737347  0.831514  1
  As  As23  1  0.230823  0.737347  0.431140  1
  As  As24  1  0.431140  0.737347  0.031830  1
