# generated using pymatgen
data_Nd2Dy3Bi3O14
_symmetry_space_group_name_H-M   'P 1'
_cell_length_a   6.64336276
_cell_length_b   6.69149295
_cell_length_c   7.81904666
_cell_angle_alpha   106.73002084
_cell_angle_beta   89.68186122
_cell_angle_gamma   98.71936882
_symmetry_Int_Tables_number   1
_chemical_formula_structural   Nd2Dy3Bi3O14
_chemical_formula_sum   'Nd2 Dy3 Bi3 O14'
_cell_volume   328.76167887
_cell_formula_units_Z   1
loop_
 _symmetry_equiv_pos_site_id
 _symmetry_equiv_pos_as_xyz
  1  'x, y, z'
loop_
 _atom_site_type_symbol
 _atom_site_label
 _atom_site_symmetry_multiplicity
 _atom_site_fract_x
 _atom_site_fract_y
 _atom_site_fract_z
 _atom_site_occupancy
  Nd  Nd0  1  0.739764  0.459015  0.112904  1
  Nd  Nd1  1  0.749167  0.484141  0.620712  1
  Dy  Dy2  1  0.458741  0.007574  0.254038  1
  Dy  Dy3  1  0.535347  0.999060  0.749850  1
  Dy  Dy4  1  0.271420  0.534927  0.882873  1
  Bi  Bi5  1  0.995649  0.001772  0.501861  1
  Bi  Bi6  1  0.001959  0.996043  0.996240  1
  Bi  Bi7  1  0.282669  0.537018  0.389754  1
  O  O8  1  0.443152  0.655563  0.167578  1
  O  O9  1  0.546442  0.349670  0.834375  1
  O  O10  1  0.303983  0.922555  0.952787  1
  O  O11  1  0.699309  0.068087  0.049808  1
  O  O12  1  0.298464  0.932382  0.515310  1
  O  O13  1  0.698609  0.079784  0.489992  1
  O  O14  1  0.541969  0.358863  0.343525  1
  O  O15  1  0.453837  0.645540  0.659462  1
  O  O16  1  0.933697  0.662056  0.942965  1
  O  O17  1  0.074970  0.321230  0.024226  1
  O  O18  1  0.074862  0.335193  0.630717  1
  O  O19  1  0.908831  0.669415  0.385883  1
  O  O20  1  0.870468  0.908293  0.727538  1
  O  O21  1  0.116690  0.071819  0.267598  1
