# generated using pymatgen
data_KHF6
_symmetry_space_group_name_H-M   'P 1'
_cell_length_a   3.94689545
_cell_length_b   6.89598999
_cell_length_c   5.80402751
_cell_angle_alpha   103.17568780
_cell_angle_beta   87.52838963
_cell_angle_gamma   122.85752206
_symmetry_Int_Tables_number   1
_chemical_formula_structural   KHF6
_chemical_formula_sum   'K1 H1 F6'
_cell_volume   128.57923862
_cell_formula_units_Z   1
loop_
 _symmetry_equiv_pos_site_id
 _symmetry_equiv_pos_as_xyz
  1  'x, y, z'
loop_
 _atom_site_type_symbol
 _atom_site_label
 _atom_site_symmetry_multiplicity
 _atom_site_fract_x
 _atom_site_fract_y
 _atom_site_fract_z
 _atom_site_occupancy
  K  K0  1  0.379466  0.072612  0.476919  1
  H  H1  1  0.360505  0.559128  0.509394  1
  F  F2  1  0.169085  0.379383  0.510237  1
  F  F3  1  0.792983  0.969108  0.837934  1
  F  F4  1  0.595397  0.779051  0.505142  1
  F  F5  1  0.962441  0.132185  0.096005  1
  F  F6  1  0.656159  0.464446  0.045550  1
  F  F7  1  0.065909  0.646565  0.022489  1
