# generated using pymatgen
data_Na(Ac2Se3)4
_symmetry_space_group_name_H-M   'P 1'
_cell_length_a   9.37166778
_cell_length_b   9.37166775
_cell_length_c   15.61905767
_cell_angle_alpha   107.45804403
_cell_angle_beta   107.45805018
_cell_angle_gamma   90.00000167
_symmetry_Int_Tables_number   1
_chemical_formula_structural   Na(Ac2Se3)4
_chemical_formula_sum   'Na2 Ac16 Se24'
_cell_volume   1242.20471184
_cell_formula_units_Z   2
loop_
 _symmetry_equiv_pos_site_id
 _symmetry_equiv_pos_as_xyz
  1  'x, y, z'
loop_
 _atom_site_type_symbol
 _atom_site_label
 _atom_site_symmetry_multiplicity
 _atom_site_fract_x
 _atom_site_fract_y
 _atom_site_fract_z
 _atom_site_occupancy
  Na  Na0  1  0.791666  0.541666  0.583333  1
  Na  Na1  1  0.041666  0.291666  0.083333  1
  Ac  Ac2  1  0.248147  0.882317  0.002810  1
  Ac  Ac3  1  0.458412  0.208412  0.916823  1
  Ac  Ac4  1  0.036473  0.416666  0.833333  1
  Ac  Ac5  1  0.078671  0.951017  0.663857  1
  Ac  Ac6  1  0.374922  0.624922  0.749844  1
  Ac  Ac7  1  0.585187  0.212840  0.663857  1
  Ac  Ac8  1  0.796859  0.916666  0.833333  1
  Ac  Ac9  1  0.382317  0.748147  0.502810  1
  Ac  Ac10  1  0.708412  0.958412  0.416823  1
  Ac  Ac11  1  0.416667  0.296860  0.333333  1
  Ac  Ac12  1  0.916667  0.536474  0.333333  1
  Ac  Ac13  1  0.120494  0.254663  0.502810  1
  Ac  Ac14  1  0.124922  0.874922  0.249844  1
  Ac  Ac15  1  0.712840  0.085187  0.163857  1
  Ac  Ac16  1  0.754663  0.620494  0.002810  1
  Ac  Ac17  1  0.451017  0.578671  0.163857  1
  Se  Se18  1  0.549595  0.898801  0.949201  1
  Se  Se19  1  0.760274  0.262254  0.877992  1
  Se  Se20  1  0.399606  0.550401  0.949201  1
  Se  Se21  1  0.283739  0.282933  0.717466  1
  Se  Se22  1  0.433728  0.934533  0.717466  1
  Se  Se23  1  0.715615  0.571080  0.788675  1
  Se  Se24  1  0.117719  0.115739  0.877992  1
  Se  Se25  1  0.884281  0.231876  0.615044  1
  Se  Se26  1  0.073060  0.717595  0.788675  1
  Se  Se27  1  0.101456  0.602569  0.551622  1
  Se  Se28  1  0.730763  0.883167  0.615044  1
  Se  Se29  1  0.615739  0.617719  0.377992  1
  Se  Se30  1  0.762254  0.260274  0.377992  1
  Se  Se31  1  0.050401  0.899606  0.449201  1
  Se  Se32  1  0.450165  0.449051  0.551622  1
  Se  Se33  1  0.217595  0.573060  0.288675  1
  Se  Se34  1  0.398801  0.049595  0.449201  1
  Se  Se35  1  0.434533  0.933728  0.217466  1
  Se  Se36  1  0.071080  0.215615  0.288675  1
  Se  Se37  1  0.949051  0.950165  0.051622  1
  Se  Se38  1  0.102569  0.601456  0.051622  1
  Se  Se39  1  0.383167  0.230763  0.115044  1
  Se  Se40  1  0.782933  0.783739  0.217466  1
  Se  Se41  1  0.731876  0.384281  0.115044  1
