# generated using pymatgen
data_SmY5(PtRh8)2
_symmetry_space_group_name_H-M   'P 1'
_cell_length_a   5.30184000
_cell_length_b   5.30184076
_cell_length_c   17.56511300
_cell_angle_alpha   90.00000000
_cell_angle_beta   90.00000000
_cell_angle_gamma   119.99999528
_symmetry_Int_Tables_number   1
_chemical_formula_structural   SmY5(PtRh8)2
_chemical_formula_sum   'Sm1 Y5 Pt2 Rh16'
_cell_volume   427.59724369
_cell_formula_units_Z   1
loop_
 _symmetry_equiv_pos_site_id
 _symmetry_equiv_pos_as_xyz
  1  'x, y, z'
loop_
 _atom_site_type_symbol
 _atom_site_label
 _atom_site_symmetry_multiplicity
 _atom_site_fract_x
 _atom_site_fract_y
 _atom_site_fract_z
 _atom_site_occupancy
  Sm  Sm0  1  0.333333  0.666667  0.750000  1
  Y  Y1  1  0.333333  0.666667  0.957102  1
  Y  Y2  1  0.666667  0.333333  0.042917  1
  Y  Y3  1  0.666667  0.333333  0.457083  1
  Y  Y4  1  0.333333  0.666667  0.542898  1
  Y  Y5  1  0.666667  0.333333  0.250000  1
  Pt  Pt6  1  0.000000  0.000000  0.500003  1
  Pt  Pt7  1  0.000000  0.000000  0.999997  1
  Rh  Rh8  1  0.167645  0.832355  0.373464  1
  Rh  Rh9  1  0.167645  0.335291  0.373464  1
  Rh  Rh10  1  0.664709  0.832355  0.373464  1
  Rh  Rh11  1  0.832366  0.167634  0.626490  1
  Rh  Rh12  1  0.832366  0.664731  0.626490  1
  Rh  Rh13  1  0.335269  0.167634  0.626490  1
  Rh  Rh14  1  0.832366  0.167634  0.873510  1
  Rh  Rh15  1  0.832366  0.664731  0.873510  1
  Rh  Rh16  1  0.335269  0.167634  0.873510  1
  Rh  Rh17  1  0.167645  0.832355  0.126536  1
  Rh  Rh18  1  0.167645  0.335291  0.126536  1
  Rh  Rh19  1  0.664709  0.832355  0.126536  1
  Rh  Rh20  1  0.333333  0.666667  0.250000  1
  Rh  Rh21  1  0.666667  0.333333  0.750000  1
  Rh  Rh22  1  0.000000  0.000000  0.250000  1
  Rh  Rh23  1  0.000000  0.000000  0.750000  1
