# generated using pymatgen
data_Tb20IrRu7Pt4
_symmetry_space_group_name_H-M   'P 1'
_cell_length_a   10.93980306
_cell_length_b   10.93980379
_cell_length_c   6.47959998
_cell_angle_alpha   89.91848058
_cell_angle_beta   89.91847916
_cell_angle_gamma   90.87881059
_symmetry_Int_Tables_number   1
_chemical_formula_structural   Tb20IrRu7Pt4
_chemical_formula_sum   'Tb20 Ir1 Ru7 Pt4'
_cell_volume   775.38117247
_cell_formula_units_Z   1
loop_
 _symmetry_equiv_pos_site_id
 _symmetry_equiv_pos_as_xyz
  1  'x, y, z'
loop_
 _atom_site_type_symbol
 _atom_site_label
 _atom_site_symmetry_multiplicity
 _atom_site_fract_x
 _atom_site_fract_y
 _atom_site_fract_z
 _atom_site_occupancy
  Tb  Tb0  1  0.295838  0.081378  0.371559  1
  Tb  Tb1  1  0.292212  0.909560  0.881268  1
  Tb  Tb2  1  0.707988  0.091300  0.881519  1
  Tb  Tb3  1  0.704427  0.918374  0.370987  1
  Tb  Tb4  1  0.581590  0.796534  0.871985  1
  Tb  Tb5  1  0.591314  0.207169  0.381127  1
  Tb  Tb6  1  0.409012  0.792983  0.381152  1
  Tb  Tb7  1  0.418456  0.204515  0.870788  1
  Tb  Tb8  1  0.203466  0.418410  0.628015  1
  Tb  Tb9  1  0.207017  0.590988  0.118848  1
  Tb  Tb10  1  0.792831  0.408686  0.118873  1
  Tb  Tb11  1  0.795485  0.581544  0.629212  1
  Tb  Tb12  1  0.918622  0.704162  0.128441  1
  Tb  Tb13  1  0.908700  0.292012  0.618481  1
  Tb  Tb14  1  0.090440  0.707788  0.618732  1
  Tb  Tb15  1  0.081626  0.295573  0.129013  1
  Tb  Tb16  1  0.000531  0.000057  0.497249  1
  Tb  Tb17  1  0.999943  0.999469  0.002751  1
  Tb  Tb18  1  0.501402  0.500030  0.998112  1
  Tb  Tb19  1  0.499970  0.498598  0.501888  1
  Ir  Ir20  1  0.350206  0.649794  0.750000  1
  Ru  Ru21  1  0.851225  0.148775  0.250000  1
  Ru  Ru22  1  0.149789  0.850211  0.250000  1
  Ru  Ru23  1  0.647985  0.352015  0.750000  1
  Ru  Ru24  1  0.500190  0.999868  0.122103  1
  Ru  Ru25  1  0.500271  0.000199  0.622681  1
  Ru  Ru26  1  0.999801  0.499729  0.877319  1
  Ru  Ru27  1  0.000132  0.499810  0.377897  1
  Pt  Pt28  1  0.844433  0.844239  0.749965  1
  Pt  Pt29  1  0.155761  0.155567  0.750035  1
  Pt  Pt30  1  0.654966  0.655631  0.250743  1
  Pt  Pt31  1  0.344369  0.345034  0.249257  1
