# generated using pymatgen
data_Tb3Cd3AgPd2
_symmetry_space_group_name_H-M   'P 1'
_cell_length_a   7.87501100
_cell_length_b   7.87501161
_cell_length_c   3.79415100
_cell_angle_alpha   90.00000000
_cell_angle_beta   90.00000000
_cell_angle_gamma   120.00000163
_symmetry_Int_Tables_number   1
_chemical_formula_structural   Tb3Cd3AgPd2
_chemical_formula_sum   'Tb3 Cd3 Ag1 Pd2'
_cell_volume   203.77345431
_cell_formula_units_Z   1
loop_
 _symmetry_equiv_pos_site_id
 _symmetry_equiv_pos_as_xyz
  1  'x, y, z'
loop_
 _atom_site_type_symbol
 _atom_site_label
 _atom_site_symmetry_multiplicity
 _atom_site_fract_x
 _atom_site_fract_y
 _atom_site_fract_z
 _atom_site_occupancy
  Tb  Tb0  1  0.590591  0.000000  0.000000  1
  Tb  Tb1  1  0.000000  0.590591  0.000000  1
  Tb  Tb2  1  0.409409  0.409409  0.000000  1
  Cd  Cd3  1  0.265524  0.000000  0.500000  1
  Cd  Cd4  1  0.000000  0.265524  0.500000  1
  Cd  Cd5  1  0.734476  0.734476  0.500000  1
  Ag  Ag6  1  0.000000  0.000000  0.000000  1
  Pd  Pd7  1  0.333333  0.666667  0.500000  1
  Pd  Pd8  1  0.666667  0.333333  0.500000  1
