# generated using pymatgen
data_FeCoRhO4
_symmetry_space_group_name_H-M   'P 1'
_cell_length_a   6.06690671
_cell_length_b   6.02341165
_cell_length_c   6.06690631
_cell_angle_alpha   60.23687328
_cell_angle_beta   60.54879413
_cell_angle_gamma   60.23687794
_symmetry_Int_Tables_number   1
_chemical_formula_structural   FeCoRhO4
_chemical_formula_sum   'Fe2 Co2 Rh2 O8'
_cell_volume   157.97548070
_cell_formula_units_Z   2
loop_
 _symmetry_equiv_pos_site_id
 _symmetry_equiv_pos_as_xyz
  1  'x, y, z'
loop_
 _atom_site_type_symbol
 _atom_site_label
 _atom_site_symmetry_multiplicity
 _atom_site_fract_x
 _atom_site_fract_y
 _atom_site_fract_z
 _atom_site_occupancy
  Fe  Fe0  1  0.125000  0.125000  0.125000  1
  Fe  Fe1  1  0.125000  0.625000  0.125000  1
  Co  Co2  1  0.503096  0.496904  0.503096  1
  Co  Co3  1  0.746904  0.753096  0.746904  1
  Rh  Rh4  1  0.625000  0.125000  0.125000  1
  Rh  Rh5  1  0.125000  0.125000  0.625000  1
  O  O6  1  0.364967  0.366694  0.364967  1
  O  O7  1  0.345039  0.882136  0.890690  1
  O  O8  1  0.890690  0.882136  0.345039  1
  O  O9  1  0.885033  0.346628  0.885033  1
  O  O10  1  0.359310  0.367864  0.904961  1
  O  O11  1  0.364967  0.903372  0.364967  1
  O  O12  1  0.885033  0.883306  0.885033  1
  O  O13  1  0.904961  0.367864  0.359310  1
