# generated using pymatgen
data_Dy16In5HgPt2
_symmetry_space_group_name_H-M   'P 1'
_cell_length_a   10.43448300
_cell_length_b   10.46608473
_cell_length_c   7.03102826
_cell_angle_alpha   90.02683808
_cell_angle_beta   90.00068006
_cell_angle_gamma   119.89995592
_symmetry_Int_Tables_number   1
_chemical_formula_structural   Dy16In5HgPt2
_chemical_formula_sum   'Dy16 In5 Hg1 Pt2'
_cell_volume   665.64324203
_cell_formula_units_Z   1
loop_
 _symmetry_equiv_pos_site_id
 _symmetry_equiv_pos_as_xyz
  1  'x, y, z'
loop_
 _atom_site_type_symbol
 _atom_site_label
 _atom_site_symmetry_multiplicity
 _atom_site_fract_x
 _atom_site_fract_y
 _atom_site_fract_z
 _atom_site_occupancy
  Dy  Dy0  1  0.529703  0.059448  0.514944  1
  Dy  Dy1  1  0.936126  0.471658  0.515120  1
  Dy  Dy2  1  0.535502  0.471675  0.515107  1
  Dy  Dy3  1  0.469323  0.938680  0.011383  1
  Dy  Dy4  1  0.063193  0.530117  0.015526  1
  Dy  Dy5  1  0.466927  0.530100  0.015499  1
  Dy  Dy6  1  0.174419  0.348815  0.722215  1
  Dy  Dy7  1  0.655072  0.822068  0.726321  1
  Dy  Dy8  1  0.167006  0.822049  0.726279  1
  Dy  Dy9  1  0.825546  0.651112  0.210866  1
  Dy  Dy10  1  0.350482  0.175194  0.224377  1
  Dy  Dy11  1  0.824678  0.175161  0.224374  1
  Dy  Dy12  1  0.669123  0.338258  0.888312  1
  Dy  Dy13  1  0.333633  0.667219  0.390642  1
  Dy  Dy14  1  0.999552  0.999066  0.496715  1
  Dy  Dy15  1  0.001138  0.002274  0.999077  1
  In  In16  1  0.327945  0.162756  0.760544  1
  In  In17  1  0.834822  0.162754  0.760564  1
  In  In18  1  0.163357  0.326662  0.261694  1
  In  In19  1  0.673130  0.836701  0.261478  1
  In  In20  1  0.163593  0.836745  0.261452  1
  Hg  Hg21  1  0.834975  0.669981  0.767620  1
  Pt  Pt22  1  0.667090  0.334151  0.287028  1
  Pt  Pt23  1  0.333666  0.667358  0.787064  1
