# generated using pymatgen
data_Y4Er8InCo4Ru
_symmetry_space_group_name_H-M   'P 1'
_cell_length_a   8.25900211
_cell_length_b   8.25900133
_cell_length_c   8.25900172
_cell_angle_alpha   110.89053282
_cell_angle_beta   110.87374356
_cell_angle_gamma   106.68481313
_symmetry_Int_Tables_number   1
_chemical_formula_structural   Y4Er8InCo4Ru
_chemical_formula_sum   'Y4 Er8 In1 Co4 Ru1'
_cell_volume   432.90683068
_cell_formula_units_Z   1
loop_
 _symmetry_equiv_pos_site_id
 _symmetry_equiv_pos_as_xyz
  1  'x, y, z'
loop_
 _atom_site_type_symbol
 _atom_site_label
 _atom_site_symmetry_multiplicity
 _atom_site_fract_x
 _atom_site_fract_y
 _atom_site_fract_z
 _atom_site_occupancy
  Y  Y0  1  0.185958  0.284023  0.469982  1
  Y  Y1  1  0.814042  0.715977  0.530018  1
  Y  Y2  1  0.185958  0.715977  0.901935  1
  Y  Y3  1  0.814042  0.284023  0.098065  1
  Er  Er4  1  0.314072  0.621360  0.307288  1
  Er  Er5  1  0.685928  0.378640  0.692712  1
  Er  Er6  1  0.314072  0.006784  0.692712  1
  Er  Er7  1  0.685928  0.993216  0.307288  1
  Er  Er8  1  0.410658  0.217891  0.192767  1
  Er  Er9  1  0.589342  0.782109  0.807233  1
  Er  Er10  1  0.025124  0.217891  0.807233  1
  Er  Er11  1  0.974876  0.782109  0.192767  1
  In  In12  1  0.500000  0.500000  0.000000  1
  Co  Co13  1  0.112029  0.612029  0.500000  1
  Co  Co14  1  0.887971  0.387971  0.500000  1
  Co  Co15  1  0.377714  0.000000  0.377714  1
  Co  Co16  1  0.622286  0.000000  0.622286  1
  Ru  Ru17  1  0.000000  0.000000  0.000000  1
