# generated using pymatgen
data_Yb3ThRuPt3O14
_symmetry_space_group_name_H-M   'P 1'
_cell_length_a   7.30496786
_cell_length_b   7.30496735
_cell_length_c   7.30496683
_cell_angle_alpha   59.75873508
_cell_angle_beta   59.75873564
_cell_angle_gamma   59.75873512
_symmetry_Int_Tables_number   1
_chemical_formula_structural   Yb3ThRuPt3O14
_chemical_formula_sum   'Yb3 Th1 Ru1 Pt3 O14'
_cell_volume   274.12844052
_cell_formula_units_Z   1
loop_
 _symmetry_equiv_pos_site_id
 _symmetry_equiv_pos_as_xyz
  1  'x, y, z'
loop_
 _atom_site_type_symbol
 _atom_site_label
 _atom_site_symmetry_multiplicity
 _atom_site_fract_x
 _atom_site_fract_y
 _atom_site_fract_z
 _atom_site_occupancy
  Yb  Yb0  1  0.625000  0.125000  0.125000  1
  Yb  Yb1  1  0.125000  0.125000  0.625000  1
  Yb  Yb2  1  0.125000  0.625000  0.125000  1
  Th  Th3  1  0.125000  0.125000  0.125000  1
  Ru  Ru4  1  0.625000  0.625000  0.625000  1
  Pt  Pt5  1  0.125000  0.625000  0.625000  1
  Pt  Pt6  1  0.625000  0.625000  0.125000  1
  Pt  Pt7  1  0.625000  0.125000  0.625000  1
  O  O8  1  0.002614  0.002614  0.002614  1
  O  O9  1  0.247386  0.247386  0.247386  1
  O  O10  1  0.287496  0.287496  0.707163  1
  O  O11  1  0.548643  0.548643  0.947690  1
  O  O12  1  0.701357  0.302310  0.701357  1
  O  O13  1  0.707163  0.287496  0.287496  1
  O  O14  1  0.302310  0.701357  0.701357  1
  O  O15  1  0.287496  0.707163  0.287496  1
  O  O16  1  0.701357  0.701357  0.302310  1
  O  O17  1  0.947690  0.548643  0.548643  1
  O  O18  1  0.542837  0.962504  0.962504  1
  O  O19  1  0.962504  0.962504  0.542837  1
  O  O20  1  0.962504  0.542837  0.962504  1
  O  O21  1  0.548643  0.947690  0.548643  1
