# generated using pymatgen
data_Tm4AlNiRu6
_symmetry_space_group_name_H-M   'P 1'
_cell_length_a   5.30653131
_cell_length_b   5.32596963
_cell_length_c   8.46122994
_cell_angle_alpha   90.16279125
_cell_angle_beta   90.00018025
_cell_angle_gamma   119.88691698
_symmetry_Int_Tables_number   1
_chemical_formula_structural   Tm4AlNiRu6
_chemical_formula_sum   'Tm4 Al1 Ni1 Ru6'
_cell_volume   207.33134377
_cell_formula_units_Z   1
loop_
 _symmetry_equiv_pos_site_id
 _symmetry_equiv_pos_as_xyz
  1  'x, y, z'
loop_
 _atom_site_type_symbol
 _atom_site_label
 _atom_site_symmetry_multiplicity
 _atom_site_fract_x
 _atom_site_fract_y
 _atom_site_fract_z
 _atom_site_occupancy
  Tm  Tm0  1  0.668822  0.337617  0.570498  1
  Tm  Tm1  1  0.335952  0.671917  0.432021  1
  Tm  Tm2  1  0.331216  0.662505  0.060410  1
  Tm  Tm3  1  0.664818  0.329732  0.935127  1
  Al  Al4  1  0.999346  0.998697  0.501810  1
  Ni  Ni5  1  0.167463  0.334514  0.746633  1
  Ru  Ru6  1  0.997894  0.995933  0.002322  1
  Ru  Ru7  1  0.175075  0.831701  0.747957  1
  Ru  Ru8  1  0.656561  0.831681  0.747968  1
  Ru  Ru9  1  0.828274  0.656633  0.248635  1
  Ru  Ru10  1  0.830711  0.174542  0.253319  1
  Ru  Ru11  1  0.343867  0.174529  0.253301  1
