# generated using pymatgen
data_Sr2Zn3CuSn4
_symmetry_space_group_name_H-M   'P 1'
_cell_length_a   4.55839100
_cell_length_b   4.64975078
_cell_length_c   11.52182458
_cell_angle_alpha   88.75288865
_cell_angle_beta   90.00000000
_cell_angle_gamma   90.00000000
_symmetry_Int_Tables_number   1
_chemical_formula_structural   Sr2Zn3CuSn4
_chemical_formula_sum   'Sr2 Zn3 Cu1 Sn4'
_cell_volume   244.15162749
_cell_formula_units_Z   1
loop_
 _symmetry_equiv_pos_site_id
 _symmetry_equiv_pos_as_xyz
  1  'x, y, z'
loop_
 _atom_site_type_symbol
 _atom_site_label
 _atom_site_symmetry_multiplicity
 _atom_site_fract_x
 _atom_site_fract_y
 _atom_site_fract_z
 _atom_site_occupancy
  Sr  Sr0  1  0.250000  0.742090  0.753589  1
  Sr  Sr1  1  0.750000  0.258756  0.245672  1
  Zn  Zn2  1  0.750000  0.254350  0.638164  1
  Zn  Zn3  1  0.250000  0.277948  0.003797  1
  Zn  Zn4  1  0.750000  0.722446  0.000348  1
  Cu  Cu5  1  0.250000  0.746851  0.364276  1
  Sn  Sn6  1  0.250000  0.773174  0.137531  1
  Sn  Sn7  1  0.750000  0.224483  0.868937  1
  Sn  Sn8  1  0.250000  0.244213  0.491479  1
  Sn  Sn9  1  0.750000  0.755689  0.496205  1
