# generated using pymatgen
data_La2Dy4Ir13Rh5
_symmetry_space_group_name_H-M   'P 1'
_cell_length_a   5.33614300
_cell_length_b   5.33614241
_cell_length_c   17.49445200
_cell_angle_alpha   90.00000000
_cell_angle_beta   90.00000000
_cell_angle_gamma   119.99999748
_symmetry_Int_Tables_number   1
_chemical_formula_structural   La2Dy4Ir13Rh5
_chemical_formula_sum   'La2 Dy4 Ir13 Rh5'
_cell_volume   431.40567764
_cell_formula_units_Z   1
loop_
 _symmetry_equiv_pos_site_id
 _symmetry_equiv_pos_as_xyz
  1  'x, y, z'
loop_
 _atom_site_type_symbol
 _atom_site_label
 _atom_site_symmetry_multiplicity
 _atom_site_fract_x
 _atom_site_fract_y
 _atom_site_fract_z
 _atom_site_occupancy
  La  La0  1  0.333333  0.666667  0.750241  1
  La  La1  1  0.666667  0.333333  0.249759  1
  Dy  Dy2  1  0.333333  0.666667  0.541221  1
  Dy  Dy3  1  0.666667  0.333333  0.040772  1
  Dy  Dy4  1  0.666667  0.333333  0.458779  1
  Dy  Dy5  1  0.333333  0.666667  0.959228  1
  Ir  Ir6  1  0.167646  0.335291  0.124630  1
  Ir  Ir7  1  0.832416  0.664830  0.625043  1
  Ir  Ir8  1  0.664709  0.832354  0.124630  1
  Ir  Ir9  1  0.167646  0.832354  0.124630  1
  Ir  Ir10  1  0.832416  0.167584  0.625043  1
  Ir  Ir11  1  0.335170  0.167584  0.625043  1
  Ir  Ir12  1  0.832354  0.664709  0.875370  1
  Ir  Ir13  1  0.832354  0.167646  0.875370  1
  Ir  Ir14  1  0.335291  0.167646  0.875370  1
  Ir  Ir15  1  0.664830  0.832416  0.374957  1
  Ir  Ir16  1  0.167584  0.832416  0.374957  1
  Ir  Ir17  1  0.167584  0.335170  0.374957  1
  Ir  Ir18  1  0.000000  0.000000  0.000000  1
  Rh  Rh19  1  0.000000  0.000000  0.250018  1
  Rh  Rh20  1  0.000000  0.000000  0.749982  1
  Rh  Rh21  1  0.333333  0.666667  0.250350  1
  Rh  Rh22  1  0.666667  0.333333  0.749650  1
  Rh  Rh23  1  0.000000  0.000000  0.500000  1
