# generated using pymatgen
data_CsIn7(GaIr)2
_symmetry_space_group_name_H-M   'P 1'
_cell_length_a   8.77806800
_cell_length_b   8.77806618
_cell_length_c   4.46488000
_cell_angle_alpha   90.00000000
_cell_angle_beta   90.00000000
_cell_angle_gamma   121.00237351
_symmetry_Int_Tables_number   1
_chemical_formula_structural   CsIn7(GaIr)2
_chemical_formula_sum   'Cs1 In7 Ga2 Ir2'
_cell_volume   294.89157659
_cell_formula_units_Z   1
loop_
 _symmetry_equiv_pos_site_id
 _symmetry_equiv_pos_as_xyz
  1  'x, y, z'
loop_
 _atom_site_type_symbol
 _atom_site_label
 _atom_site_symmetry_multiplicity
 _atom_site_fract_x
 _atom_site_fract_y
 _atom_site_fract_z
 _atom_site_occupancy
  Cs  Cs0  1  0.000000  0.000000  0.000000  1
  In  In1  1  0.583023  0.797833  0.500000  1
  In  In2  1  0.205656  0.794344  0.500000  1
  In  In3  1  0.202167  0.416977  0.500000  1
  In  In4  1  0.797833  0.583023  0.500000  1
  In  In5  1  0.794344  0.205656  0.500000  1
  In  In6  1  0.416977  0.202167  0.500000  1
  In  In7  1  0.500000  0.500000  0.000000  1
  Ga  Ga8  1  0.000000  0.500000  0.000000  1
  Ga  Ga9  1  0.500000  0.000000  0.000000  1
  Ir  Ir10  1  0.326439  0.673561  0.000000  1
  Ir  Ir11  1  0.673561  0.326439  0.000000  1
