# generated using pymatgen
data_Ba5Ho2Al2VO13
_symmetry_space_group_name_H-M   'P 1'
_cell_length_a   5.95088200
_cell_length_b   5.95088251
_cell_length_c   24.83016800
_cell_angle_alpha   90.00000000
_cell_angle_beta   90.00000000
_cell_angle_gamma   120.00000828
_symmetry_Int_Tables_number   1
_chemical_formula_structural   Ba5Ho2Al2VO13
_chemical_formula_sum   'Ba10 Ho4 Al4 V2 O26'
_cell_volume   761.50536647
_cell_formula_units_Z   2
loop_
 _symmetry_equiv_pos_site_id
 _symmetry_equiv_pos_as_xyz
  1  'x, y, z'
loop_
 _atom_site_type_symbol
 _atom_site_label
 _atom_site_symmetry_multiplicity
 _atom_site_fract_x
 _atom_site_fract_y
 _atom_site_fract_z
 _atom_site_occupancy
  Ba  Ba0  1  0.333333  0.666667  0.540810  1
  Ba  Ba1  1  0.666667  0.333333  0.459190  1
  Ba  Ba2  1  0.666667  0.333333  0.040810  1
  Ba  Ba3  1  0.333333  0.666667  0.959190  1
  Ba  Ba4  1  0.000000  0.000000  0.134852  1
  Ba  Ba5  1  0.000000  0.000000  0.865148  1
  Ba  Ba6  1  0.000000  0.000000  0.634852  1
  Ba  Ba7  1  0.000000  0.000000  0.365148  1
  Ba  Ba8  1  0.333333  0.666667  0.250000  1
  Ba  Ba9  1  0.666667  0.333333  0.750000  1
  Ho  Ho10  1  0.333333  0.666667  0.100518  1
  Ho  Ho11  1  0.666667  0.333333  0.899482  1
  Ho  Ho12  1  0.666667  0.333333  0.600518  1
  Ho  Ho13  1  0.333333  0.666667  0.399482  1
  Al  Al14  1  0.333333  0.666667  0.679978  1
  Al  Al15  1  0.666667  0.333333  0.320022  1
  Al  Al16  1  0.666667  0.333333  0.179978  1
  Al  Al17  1  0.333333  0.666667  0.820022  1
  V  V18  1  0.000000  0.000000  0.000000  1
  V  V19  1  0.000000  0.000000  0.500000  1
  O  O20  1  0.504299  0.008598  0.156590  1
  O  O21  1  0.495701  0.991402  0.843410  1
  O  O22  1  0.991402  0.495701  0.156590  1
  O  O23  1  0.495701  0.991402  0.656590  1
  O  O24  1  0.008598  0.504299  0.843410  1
  O  O25  1  0.504299  0.008598  0.343410  1
  O  O26  1  0.504299  0.495701  0.156590  1
  O  O27  1  0.008598  0.504299  0.656590  1
  O  O28  1  0.495701  0.504299  0.843410  1
  O  O29  1  0.991402  0.495701  0.343410  1
  O  O30  1  0.495701  0.504299  0.656590  1
  O  O31  1  0.504299  0.495701  0.343410  1
  O  O32  1  0.157688  0.315375  0.046565  1
  O  O33  1  0.842312  0.684625  0.953435  1
  O  O34  1  0.684625  0.842312  0.046565  1
  O  O35  1  0.842312  0.684625  0.546565  1
  O  O36  1  0.315375  0.157688  0.953435  1
  O  O37  1  0.157688  0.315375  0.453435  1
  O  O38  1  0.157688  0.842312  0.046565  1
  O  O39  1  0.315375  0.157688  0.546565  1
  O  O40  1  0.842312  0.157688  0.953435  1
  O  O41  1  0.684625  0.842312  0.453435  1
  O  O42  1  0.842312  0.157688  0.546565  1
  O  O43  1  0.157688  0.842312  0.453435  1
  O  O44  1  0.333333  0.666667  0.750000  1
  O  O45  1  0.666667  0.333333  0.250000  1
