# generated using pymatgen
data_Tb2HoPa(ReB6)2
_symmetry_space_group_name_H-M   'P 1'
_cell_length_a   3.70784900
_cell_length_b   9.19081860
_cell_length_c   11.55402940
_cell_angle_alpha   90.41833445
_cell_angle_beta   90.00000000
_cell_angle_gamma   90.00000000
_symmetry_Int_Tables_number   1
_chemical_formula_structural   Tb2HoPa(ReB6)2
_chemical_formula_sum   'Tb4 Ho2 Pa2 Re4 B24'
_cell_volume   393.72965513
_cell_formula_units_Z   2
loop_
 _symmetry_equiv_pos_site_id
 _symmetry_equiv_pos_as_xyz
  1  'x, y, z'
loop_
 _atom_site_type_symbol
 _atom_site_label
 _atom_site_symmetry_multiplicity
 _atom_site_fract_x
 _atom_site_fract_y
 _atom_site_fract_z
 _atom_site_occupancy
  Tb  Tb0  1  0.000000  0.823795  0.085852  1
  Tb  Tb1  1  0.000000  0.176205  0.914148  1
  Tb  Tb2  1  0.000000  0.944841  0.372824  1
  Tb  Tb3  1  0.000000  0.055159  0.627176  1
  Ho  Ho4  1  0.000000  0.443841  0.126530  1
  Ho  Ho5  1  0.000000  0.556159  0.873470  1
  Pa  Pa6  1  0.000000  0.322531  0.412909  1
  Pa  Pa7  1  0.000000  0.677469  0.587091  1
  Re  Re8  1  0.000000  0.634393  0.324998  1
  Re  Re9  1  0.000000  0.365607  0.675002  1
  Re  Re10  1  0.000000  0.141407  0.181693  1
  Re  Re11  1  0.000000  0.858593  0.818307  1
  B  B12  1  0.500000  0.552857  0.433000  1
  B  B13  1  0.500000  0.447143  0.567000  1
  B  B14  1  0.500000  0.053830  0.067569  1
  B  B15  1  0.500000  0.946170  0.932431  1
  B  B16  1  0.500000  0.746739  0.419894  1
  B  B17  1  0.500000  0.253261  0.580106  1
  B  B18  1  0.500000  0.248435  0.080695  1
  B  B19  1  0.500000  0.751565  0.919305  1
  B  B20  1  0.500000  0.790325  0.266103  1
  B  B21  1  0.500000  0.209675  0.733897  1
  B  B22  1  0.500000  0.292941  0.233739  1
  B  B23  1  0.500000  0.707059  0.766261  1
  B  B24  1  0.500000  0.630650  0.185674  1
  B  B25  1  0.500000  0.369350  0.814326  1
  B  B26  1  0.500000  0.133570  0.313743  1
  B  B27  1  0.500000  0.866430  0.686257  1
  B  B28  1  0.500000  0.983328  0.212285  1
  B  B29  1  0.500000  0.016672  0.787715  1
  B  B30  1  0.500000  0.482724  0.286587  1
  B  B31  1  0.500000  0.517276  0.713413  1
  B  B32  1  0.500000  0.603615  0.029168  1
  B  B33  1  0.500000  0.396385  0.970832  1
  B  B34  1  0.500000  0.114762  0.468359  1
  B  B35  1  0.500000  0.885238  0.531641  1
