# generated using pymatgen
data_Nb15V(Ni2N)4
_symmetry_space_group_name_H-M   'P 1'
_cell_length_a   8.21290356
_cell_length_b   8.21654182
_cell_length_c   8.21290300
_cell_angle_alpha   60.01464474
_cell_angle_beta   59.99999825
_cell_angle_gamma   60.01464533
_symmetry_Int_Tables_number   1
_chemical_formula_structural   Nb15V(Ni2N)4
_chemical_formula_sum   'Nb15 V1 Ni8 N4'
_cell_volume   391.97970621
_cell_formula_units_Z   1
loop_
 _symmetry_equiv_pos_site_id
 _symmetry_equiv_pos_as_xyz
  1  'x, y, z'
loop_
 _atom_site_type_symbol
 _atom_site_label
 _atom_site_symmetry_multiplicity
 _atom_site_fract_x
 _atom_site_fract_y
 _atom_site_fract_z
 _atom_site_occupancy
  Nb  Nb0  1  0.125000  0.625000  0.625000  1
  Nb  Nb1  1  0.625000  0.625000  0.125000  1
  Nb  Nb2  1  0.625000  0.625000  0.625000  1
  Nb  Nb3  1  0.817391  0.816974  0.182817  1
  Nb  Nb4  1  0.184845  0.182833  0.816161  1
  Nb  Nb5  1  0.816161  0.182833  0.816161  1
  Nb  Nb6  1  0.182817  0.816974  0.182817  1
  Nb  Nb7  1  0.182817  0.816974  0.817391  1
  Nb  Nb8  1  0.816161  0.182833  0.184845  1
  Nb  Nb9  1  0.432609  0.433026  0.067183  1
  Nb  Nb10  1  0.065155  0.067167  0.433839  1
  Nb  Nb11  1  0.433839  0.067167  0.433839  1
  Nb  Nb12  1  0.067183  0.433026  0.067183  1
  Nb  Nb13  1  0.067183  0.433026  0.432609  1
  Nb  Nb14  1  0.433839  0.067167  0.065155  1
  V  V15  1  0.625000  0.125000  0.625000  1
  Ni  Ni16  1  0.737492  0.409748  0.426380  1
  Ni  Ni17  1  0.420498  0.738505  0.420498  1
  Ni  Ni18  1  0.426380  0.409748  0.737492  1
  Ni  Ni19  1  0.426380  0.409748  0.426380  1
  Ni  Ni20  1  0.512508  0.840252  0.823620  1
  Ni  Ni21  1  0.829502  0.511495  0.829502  1
  Ni  Ni22  1  0.823620  0.840252  0.512508  1
  Ni  Ni23  1  0.823620  0.840252  0.823620  1
  N  N24  1  0.625000  0.125000  0.125000  1
  N  N25  1  0.125000  0.625000  0.125000  1
  N  N26  1  0.125000  0.125000  0.625000  1
  N  N27  1  0.125000  0.125000  0.125000  1
