# generated using pymatgen
data_Tb17Dy3Ir11Ru
_symmetry_space_group_name_H-M   'P 1'
_cell_length_a   10.90945300
_cell_length_b   10.90947200
_cell_length_c   6.41565700
_cell_angle_alpha   90.00000000
_cell_angle_beta   90.00000000
_cell_angle_gamma   90.00094535
_symmetry_Int_Tables_number   1
_chemical_formula_structural   Tb17Dy3Ir11Ru
_chemical_formula_sum   'Tb17 Dy3 Ir11 Ru1'
_cell_volume   763.56822033
_cell_formula_units_Z   1
loop_
 _symmetry_equiv_pos_site_id
 _symmetry_equiv_pos_as_xyz
  1  'x, y, z'
loop_
 _atom_site_type_symbol
 _atom_site_label
 _atom_site_symmetry_multiplicity
 _atom_site_fract_x
 _atom_site_fract_y
 _atom_site_fract_z
 _atom_site_occupancy
  Tb  Tb0  1  0.292399  0.087421  0.377410  1
  Tb  Tb1  1  0.292605  0.912536  0.880277  1
  Tb  Tb2  1  0.707395  0.087464  0.880277  1
  Tb  Tb3  1  0.707601  0.912579  0.377410  1
  Tb  Tb4  1  0.587457  0.792566  0.880244  1
  Tb  Tb5  1  0.587383  0.207716  0.377447  1
  Tb  Tb6  1  0.412617  0.792284  0.377447  1
  Tb  Tb7  1  0.412543  0.207434  0.880244  1
  Tb  Tb8  1  0.209166  0.411556  0.621256  1
  Tb  Tb9  1  0.209138  0.588340  0.120977  1
  Tb  Tb10  1  0.790862  0.411660  0.120977  1
  Tb  Tb11  1  0.790834  0.588444  0.621256  1
  Tb  Tb12  1  0.911654  0.709099  0.120945  1
  Tb  Tb13  1  0.911512  0.290947  0.621289  1
  Tb  Tb14  1  0.088488  0.709053  0.621289  1
  Tb  Tb15  1  0.088346  0.290901  0.120945  1
  Tb  Tb16  1  0.000000  0.000000  0.499390  1
  Dy  Dy17  1  0.000000  0.000000  0.999349  1
  Dy  Dy18  1  0.500000  0.500000  0.999357  1
  Dy  Dy19  1  0.500000  0.500000  0.499389  1
  Ir  Ir20  1  0.847142  0.153631  0.249823  1
  Ir  Ir21  1  0.847263  0.846685  0.750051  1
  Ir  Ir22  1  0.152737  0.153315  0.750051  1
  Ir  Ir23  1  0.152858  0.846369  0.249823  1
  Ir  Ir24  1  0.653157  0.347416  0.749795  1
  Ir  Ir25  1  0.653473  0.652697  0.250066  1
  Ir  Ir26  1  0.346527  0.347303  0.250066  1
  Ir  Ir27  1  0.346843  0.652584  0.749795  1
  Ir  Ir28  1  0.500000  0.000000  0.624059  1
  Ir  Ir29  1  0.000000  0.500000  0.877183  1
  Ir  Ir30  1  0.000000  0.500000  0.377346  1
  Ru  Ru31  1  0.500000  0.000000  0.124770  1
