# generated using pymatgen
data_Li2Y18Cd6NiPd
_symmetry_space_group_name_H-M   'P 1'
_cell_length_a   9.57987800
_cell_length_b   9.57987825
_cell_length_c   9.67480100
_cell_angle_alpha   90.00000000
_cell_angle_beta   90.00000000
_cell_angle_gamma   119.99999914
_symmetry_Int_Tables_number   1
_chemical_formula_structural   Li2Y18Cd6NiPd
_chemical_formula_sum   'Li2 Y18 Cd6 Ni1 Pd1'
_cell_volume   768.94033802
_cell_formula_units_Z   1
loop_
 _symmetry_equiv_pos_site_id
 _symmetry_equiv_pos_as_xyz
  1  'x, y, z'
loop_
 _atom_site_type_symbol
 _atom_site_label
 _atom_site_symmetry_multiplicity
 _atom_site_fract_x
 _atom_site_fract_y
 _atom_site_fract_z
 _atom_site_occupancy
  Li  Li0  1  0.000000  0.000000  0.000030  1
  Li  Li1  1  0.000000  0.000000  0.499970  1
  Y  Y2  1  0.208309  0.791691  0.938081  1
  Y  Y3  1  0.208309  0.416617  0.938081  1
  Y  Y4  1  0.583383  0.791691  0.938081  1
  Y  Y5  1  0.795796  0.204204  0.056012  1
  Y  Y6  1  0.795796  0.591592  0.056012  1
  Y  Y7  1  0.408408  0.204204  0.056012  1
  Y  Y8  1  0.795796  0.204204  0.443988  1
  Y  Y9  1  0.795796  0.591592  0.443988  1
  Y  Y10  1  0.408408  0.204204  0.443988  1
  Y  Y11  1  0.208309  0.791691  0.561919  1
  Y  Y12  1  0.208309  0.416617  0.561919  1
  Y  Y13  1  0.583383  0.791691  0.561919  1
  Y  Y14  1  0.542700  0.457300  0.750000  1
  Y  Y15  1  0.542700  0.085399  0.750000  1
  Y  Y16  1  0.914601  0.457300  0.750000  1
  Y  Y17  1  0.456377  0.543623  0.250000  1
  Y  Y18  1  0.456377  0.912755  0.250000  1
  Y  Y19  1  0.087245  0.543623  0.250000  1
  Cd  Cd20  1  0.892006  0.107994  0.750000  1
  Cd  Cd21  1  0.892006  0.784013  0.750000  1
  Cd  Cd22  1  0.215987  0.107994  0.750000  1
  Cd  Cd23  1  0.108236  0.891764  0.250000  1
  Cd  Cd24  1  0.108236  0.216471  0.250000  1
  Cd  Cd25  1  0.783529  0.891764  0.250000  1
  Ni  Ni26  1  0.333333  0.666667  0.750000  1
  Pd  Pd27  1  0.666667  0.333333  0.250000  1
