# generated using pymatgen
data_TbTm15MgIn3Ni4
_symmetry_space_group_name_H-M   'P 1'
_cell_length_a   9.48552032
_cell_length_b   9.45297555
_cell_length_c   9.45297600
_cell_angle_alpha   59.99999844
_cell_angle_beta   60.11343008
_cell_angle_gamma   60.11343082
_symmetry_Int_Tables_number   1
_chemical_formula_structural   TbTm15MgIn3Ni4
_chemical_formula_sum   'Tb1 Tm15 Mg1 In3 Ni4'
_cell_volume   600.37931388
_cell_formula_units_Z   1
loop_
 _symmetry_equiv_pos_site_id
 _symmetry_equiv_pos_as_xyz
  1  'x, y, z'
loop_
 _atom_site_type_symbol
 _atom_site_label
 _atom_site_symmetry_multiplicity
 _atom_site_fract_x
 _atom_site_fract_y
 _atom_site_fract_z
 _atom_site_occupancy
  Tb  Tb0  1  0.205036  0.598321  0.598321  1
  Tm  Tm1  1  0.185631  0.814603  0.814603  1
  Tm  Tm2  1  0.814180  0.186453  0.186453  1
  Tm  Tm3  1  0.814180  0.186453  0.812912  1
  Tm  Tm4  1  0.185631  0.814603  0.185162  1
  Tm  Tm5  1  0.814180  0.812912  0.186453  1
  Tm  Tm6  1  0.185631  0.185162  0.814603  1
  Tm  Tm7  1  0.060375  0.438579  0.438579  1
  Tm  Tm8  1  0.435322  0.063537  0.063537  1
  Tm  Tm9  1  0.435322  0.063537  0.437604  1
  Tm  Tm10  1  0.060375  0.438579  0.062467  1
  Tm  Tm11  1  0.435322  0.437604  0.063537  1
  Tm  Tm12  1  0.060375  0.062467  0.438579  1
  Tm  Tm13  1  0.598803  0.595775  0.595775  1
  Tm  Tm14  1  0.598803  0.595775  0.209646  1
  Tm  Tm15  1  0.598803  0.209646  0.595775  1
  Mg  Mg16  1  0.515448  0.828184  0.828184  1
  In  In17  1  0.831447  0.833551  0.833551  1
  In  In18  1  0.831447  0.833551  0.501450  1
  In  In19  1  0.831447  0.501450  0.833551  1
  Ni  Ni20  1  0.392661  0.391506  0.391506  1
  Ni  Ni21  1  0.392661  0.391506  0.824329  1
  Ni  Ni22  1  0.392661  0.824329  0.391506  1
  Ni  Ni23  1  0.824257  0.391914  0.391914  1
