# generated using pymatgen
data_TbDy2ThAl18(PdRh2)2
_symmetry_space_group_name_H-M   'P 1'
_cell_length_a   7.58164700
_cell_length_b   7.59639330
_cell_length_c   9.48710900
_cell_angle_alpha   90.00000000
_cell_angle_beta   90.00000000
_cell_angle_gamma   119.38910098
_symmetry_Int_Tables_number   1
_chemical_formula_structural   TbDy2ThAl18(PdRh2)2
_chemical_formula_sum   'Tb1 Dy2 Th1 Al18 Pd2 Rh4'
_cell_volume   476.07588514
_cell_formula_units_Z   1
loop_
 _symmetry_equiv_pos_site_id
 _symmetry_equiv_pos_as_xyz
  1  'x, y, z'
loop_
 _atom_site_type_symbol
 _atom_site_label
 _atom_site_symmetry_multiplicity
 _atom_site_fract_x
 _atom_site_fract_y
 _atom_site_fract_z
 _atom_site_occupancy
  Tb  Tb0  1  0.670515  0.994067  0.750181  1
  Dy  Dy1  1  0.004128  0.329258  0.249930  1
  Dy  Dy2  1  0.329969  0.005323  0.249813  1
  Th  Th3  1  0.994797  0.670628  0.751143  1
  Al  Al4  1  0.130678  0.132139  0.751134  1
  Al  Al5  1  0.873388  0.875391  0.248286  1
  Al  Al6  1  0.001777  0.327739  0.574067  1
  Al  Al7  1  0.998832  0.668289  0.417352  1
  Al  Al8  1  0.001030  0.664482  0.080520  1
  Al  Al9  1  0.339708  0.004085  0.930099  1
  Al  Al10  1  0.999966  0.330722  0.930113  1
  Al  Al11  1  0.664933  0.001921  0.075118  1
  Al  Al12  1  0.668547  0.999527  0.421114  1
  Al  Al13  1  0.335483  0.005836  0.573589  1
  Al  Al14  1  0.330792  0.330849  0.052747  1
  Al  Al15  1  0.664213  0.667380  0.958594  1
  Al  Al16  1  0.664876  0.667811  0.548947  1
  Al  Al17  1  0.330062  0.330172  0.439604  1
  Al  Al18  1  0.344015  0.547215  0.754099  1
  Al  Al19  1  0.657853  0.450229  0.245867  1
  Al  Al20  1  0.544272  0.337981  0.753905  1
  Al  Al21  1  0.450078  0.660165  0.245815  1
  Pd  Pd22  1  0.672860  0.328441  0.499308  1
  Pd  Pd23  1  0.326777  0.671935  0.499705  1
  Rh  Rh24  1  0.326647  0.671761  0.999737  1
  Rh  Rh25  1  0.673231  0.329326  0.999916  1
  Rh  Rh26  1  0.000152  0.998741  0.499814  1
  Rh  Rh27  1  0.000422  0.998588  0.999484  1
