# generated using pymatgen
data_UMoF12
_symmetry_space_group_name_H-M   'P 1'
_cell_length_a   5.38360200
_cell_length_b   9.30255100
_cell_length_c   10.40410500
_cell_angle_alpha   90.00000000
_cell_angle_beta   90.00000000
_cell_angle_gamma   90.00000000
_symmetry_Int_Tables_number   1
_chemical_formula_structural   UMoF12
_chemical_formula_sum   'U2 Mo2 F24'
_cell_volume   521.05039801
_cell_formula_units_Z   2
loop_
 _symmetry_equiv_pos_site_id
 _symmetry_equiv_pos_as_xyz
  1  'x, y, z'
loop_
 _atom_site_type_symbol
 _atom_site_label
 _atom_site_symmetry_multiplicity
 _atom_site_fract_x
 _atom_site_fract_y
 _atom_site_fract_z
 _atom_site_occupancy
  U  U0  1  0.068510  0.250000  0.866215  1
  U  U1  1  0.568510  0.750000  0.633785  1
  Mo  Mo2  1  0.932188  0.750000  0.133991  1
  Mo  Mo3  1  0.432188  0.250000  0.366009  1
  F  F4  1  0.191708  0.750000  0.014881  1
  F  F5  1  0.391014  0.903892  0.736017  1
  F  F6  1  0.095211  0.607669  0.228358  1
  F  F7  1  0.286666  0.750000  0.504998  1
  F  F8  1  0.673223  0.750000  0.254028  1
  F  F9  1  0.891014  0.403892  0.763983  1
  F  F10  1  0.173223  0.250000  0.245972  1
  F  F11  1  0.391014  0.596108  0.736017  1
  F  F12  1  0.848529  0.750000  0.763885  1
  F  F13  1  0.267498  0.108320  0.460827  1
  F  F14  1  0.595211  0.392331  0.271642  1
  F  F15  1  0.745866  0.903280  0.531085  1
  F  F16  1  0.348529  0.250000  0.736115  1
  F  F17  1  0.095211  0.892331  0.228358  1
  F  F18  1  0.267498  0.391680  0.460827  1
  F  F19  1  0.245866  0.096720  0.968915  1
  F  F20  1  0.691708  0.250000  0.485119  1
  F  F21  1  0.786666  0.250000  0.995002  1
  F  F22  1  0.891014  0.096108  0.763983  1
  F  F23  1  0.245866  0.403280  0.968915  1
  F  F24  1  0.767498  0.608320  0.039173  1
  F  F25  1  0.767498  0.891680  0.039173  1
  F  F26  1  0.745866  0.596720  0.531085  1
  F  F27  1  0.595211  0.107669  0.271642  1
