# generated using pymatgen
data_Gd4C5
_symmetry_space_group_name_H-M   'P 1'
_cell_length_a   3.79835400
_cell_length_b   6.69032100
_cell_length_c   12.00599900
_cell_angle_alpha   90.00000000
_cell_angle_beta   90.00000000
_cell_angle_gamma   90.00000000
_symmetry_Int_Tables_number   1
_chemical_formula_structural   Gd4C5
_chemical_formula_sum   'Gd8 C10'
_cell_volume   305.09893821
_cell_formula_units_Z   2
loop_
 _symmetry_equiv_pos_site_id
 _symmetry_equiv_pos_as_xyz
  1  'x, y, z'
loop_
 _atom_site_type_symbol
 _atom_site_label
 _atom_site_symmetry_multiplicity
 _atom_site_fract_x
 _atom_site_fract_y
 _atom_site_fract_z
 _atom_site_occupancy
  Gd  Gd0  1  0.500000  0.390340  0.302457  1
  Gd  Gd1  1  0.500000  0.609660  0.697543  1
  Gd  Gd2  1  0.500000  0.109660  0.802457  1
  Gd  Gd3  1  0.500000  0.890340  0.197543  1
  Gd  Gd4  1  0.000000  0.244620  0.041380  1
  Gd  Gd5  1  0.000000  0.755380  0.958620  1
  Gd  Gd6  1  0.000000  0.255380  0.541380  1
  Gd  Gd7  1  0.000000  0.744620  0.458620  1
  C  C8  1  0.500000  0.000000  0.000000  1
  C  C9  1  0.500000  0.500000  0.500000  1
  C  C10  1  0.000000  0.137437  0.234191  1
  C  C11  1  0.000000  0.862564  0.765809  1
  C  C12  1  0.000000  0.362564  0.734191  1
  C  C13  1  0.000000  0.637436  0.265809  1
  C  C14  1  0.000000  0.092926  0.341932  1
  C  C15  1  0.000000  0.907074  0.658068  1
  C  C16  1  0.000000  0.407074  0.841932  1
  C  C17  1  0.000000  0.592926  0.158068  1
