# generated using pymatgen
data_HfZr2TiI12
_symmetry_space_group_name_H-M   'P 1'
_cell_length_a   6.57229514
_cell_length_b   8.00053681
_cell_length_c   13.97460200
_cell_angle_alpha   90.00000000
_cell_angle_beta   90.00000000
_cell_angle_gamma   89.90909838
_symmetry_Int_Tables_number   1
_chemical_formula_structural   HfZr2TiI12
_chemical_formula_sum   'Hf1 Zr2 Ti1 I12'
_cell_volume   734.81004860
_cell_formula_units_Z   1
loop_
 _symmetry_equiv_pos_site_id
 _symmetry_equiv_pos_as_xyz
  1  'x, y, z'
loop_
 _atom_site_type_symbol
 _atom_site_label
 _atom_site_symmetry_multiplicity
 _atom_site_fract_x
 _atom_site_fract_y
 _atom_site_fract_z
 _atom_site_occupancy
  Hf  Hf0  1  0.751557  0.750528  0.000000  1
  Zr  Zr1  1  0.249001  0.249455  0.500000  1
  Zr  Zr2  1  0.751073  0.249432  0.500000  1
  Ti  Ti3  1  0.248226  0.750573  0.000000  1
  I  I4  1  0.500006  0.399874  0.350066  1
  I  I5  1  0.002636  0.604859  0.854841  1
  I  I6  1  0.002636  0.604859  0.145159  1
  I  I7  1  0.500006  0.399874  0.649934  1
  I  I8  1  0.497346  0.895939  0.855501  1
  I  I9  1  0.000111  0.098453  0.349759  1
  I  I10  1  0.000111  0.098453  0.650241  1
  I  I11  1  0.497346  0.895939  0.144499  1
  I  I12  1  0.500195  0.947733  0.500000  1
  I  I13  1  0.004103  0.042243  0.000000  1
  I  I14  1  0.495797  0.459898  0.000000  1
  I  I15  1  0.999851  0.551887  0.500000  1
