# generated using pymatgen
data_Zr6Nb4Ga12Ru7
_symmetry_space_group_name_H-M   'P 1'
_cell_length_a   8.84812473
_cell_length_b   8.84812471
_cell_length_c   8.84812500
_cell_angle_alpha   60.00000265
_cell_angle_beta   60.00000272
_cell_angle_gamma   60.00000607
_symmetry_Int_Tables_number   1
_chemical_formula_structural   Zr6Nb4Ga12Ru7
_chemical_formula_sum   'Zr6 Nb4 Ga12 Ru7'
_cell_volume   489.82253358
_cell_formula_units_Z   1
loop_
 _symmetry_equiv_pos_site_id
 _symmetry_equiv_pos_as_xyz
  1  'x, y, z'
loop_
 _atom_site_type_symbol
 _atom_site_label
 _atom_site_symmetry_multiplicity
 _atom_site_fract_x
 _atom_site_fract_y
 _atom_site_fract_z
 _atom_site_occupancy
  Zr  Zr0  1  0.702274  0.702274  0.297726  1
  Zr  Zr1  1  0.297726  0.702274  0.297726  1
  Zr  Zr2  1  0.702274  0.297726  0.297726  1
  Zr  Zr3  1  0.297726  0.297726  0.702274  1
  Zr  Zr4  1  0.702274  0.297726  0.702274  1
  Zr  Zr5  1  0.297726  0.702274  0.702274  1
  Nb  Nb6  1  0.877966  0.877966  0.366104  1
  Nb  Nb7  1  0.877966  0.366104  0.877966  1
  Nb  Nb8  1  0.366104  0.877966  0.877966  1
  Nb  Nb9  1  0.877966  0.877966  0.877966  1
  Ga  Ga10  1  0.120246  0.120246  0.639261  1
  Ga  Ga11  1  0.120246  0.639261  0.120246  1
  Ga  Ga12  1  0.639261  0.120246  0.120246  1
  Ga  Ga13  1  0.120246  0.120246  0.120246  1
  Ga  Ga14  1  0.657605  0.657605  0.027184  1
  Ga  Ga15  1  0.657605  0.027184  0.657605  1
  Ga  Ga16  1  0.027184  0.657605  0.657605  1
  Ga  Ga17  1  0.657605  0.657605  0.657605  1
  Ga  Ga18  1  0.338850  0.338850  0.983450  1
  Ga  Ga19  1  0.338850  0.983450  0.338850  1
  Ga  Ga20  1  0.983450  0.338850  0.338850  1
  Ga  Ga21  1  0.338850  0.338850  0.338850  1
  Ru  Ru22  1  0.000000  0.000000  0.000000  1
  Ru  Ru23  1  0.997660  0.997660  0.502340  1
  Ru  Ru24  1  0.502340  0.997660  0.502340  1
  Ru  Ru25  1  0.997660  0.502340  0.502340  1
  Ru  Ru26  1  0.502340  0.502340  0.997660  1
  Ru  Ru27  1  0.997660  0.502340  0.997660  1
  Ru  Ru28  1  0.502340  0.997660  0.997660  1
