# generated using pymatgen
data_Zr4InB4Ru10W
_symmetry_space_group_name_H-M   'P 1'
_cell_length_a   9.53420000
_cell_length_b   9.53420000
_cell_length_c   3.10739000
_cell_angle_alpha   90.00000000
_cell_angle_beta   90.00000000
_cell_angle_gamma   90.00000000
_symmetry_Int_Tables_number   1
_chemical_formula_structural   Zr4InB4Ru10W
_chemical_formula_sum   'Zr4 In1 B4 Ru10 W1'
_cell_volume   282.46476405
_cell_formula_units_Z   1
loop_
 _symmetry_equiv_pos_site_id
 _symmetry_equiv_pos_as_xyz
  1  'x, y, z'
loop_
 _atom_site_type_symbol
 _atom_site_label
 _atom_site_symmetry_multiplicity
 _atom_site_fract_x
 _atom_site_fract_y
 _atom_site_fract_z
 _atom_site_occupancy
  Zr  Zr0  1  0.675304  0.177058  0.000000  1
  Zr  Zr1  1  0.324696  0.822942  0.000000  1
  Zr  Zr2  1  0.177058  0.324696  0.000000  1
  Zr  Zr3  1  0.822942  0.675304  0.000000  1
  In  In4  1  0.500000  0.500000  0.000000  1
  B  B5  1  0.122326  0.619362  0.000000  1
  B  B6  1  0.877674  0.380638  0.000000  1
  B  B7  1  0.619362  0.877674  0.000000  1
  B  B8  1  0.380638  0.122326  0.000000  1
  Ru  Ru9  1  0.215129  0.066444  0.500000  1
  Ru  Ru10  1  0.784871  0.933556  0.500000  1
  Ru  Ru11  1  0.066444  0.784871  0.500000  1
  Ru  Ru12  1  0.723768  0.423429  0.500000  1
  Ru  Ru13  1  0.933556  0.215129  0.500000  1
  Ru  Ru14  1  0.276232  0.576571  0.500000  1
  Ru  Ru15  1  0.576571  0.723768  0.500000  1
  Ru  Ru16  1  0.423429  0.276232  0.500000  1
  Ru  Ru17  1  0.500000  0.000000  0.500000  1
  Ru  Ru18  1  0.000000  0.500000  0.500000  1
  W  W19  1  0.000000  0.000000  0.000000  1
