# generated using pymatgen
data_Tb5SmRhI10
_symmetry_space_group_name_H-M   'P 1'
_cell_length_a   7.78348564
_cell_length_b   9.74107051
_cell_length_c   9.82997058
_cell_angle_alpha   107.30389901
_cell_angle_beta   96.95406040
_cell_angle_gamma   104.43618260
_symmetry_Int_Tables_number   1
_chemical_formula_structural   Tb5SmRhI10
_chemical_formula_sum   'Tb5 Sm1 Rh1 I10'
_cell_volume   673.56772509
_cell_formula_units_Z   1
loop_
 _symmetry_equiv_pos_site_id
 _symmetry_equiv_pos_as_xyz
  1  'x, y, z'
loop_
 _atom_site_type_symbol
 _atom_site_label
 _atom_site_symmetry_multiplicity
 _atom_site_fract_x
 _atom_site_fract_y
 _atom_site_fract_z
 _atom_site_occupancy
  Tb  Tb0  1  0.468942  0.777146  0.582795  1
  Tb  Tb1  1  0.149676  0.375060  0.332599  1
  Tb  Tb2  1  0.850607  0.626732  0.667747  1
  Tb  Tb3  1  0.615021  0.541906  0.258169  1
  Tb  Tb4  1  0.385918  0.458016  0.742208  1
  Sm  Sm5  1  0.531135  0.218080  0.416047  1
  Rh  Rh6  1  0.500419  0.499448  0.499953  1
  I  I7  1  0.143523  0.048415  0.225652  1
  I  I8  1  0.848970  0.951425  0.772033  1
  I  I9  1  0.242258  0.412698  0.037225  1
  I  I10  1  0.758624  0.588547  0.962818  1
  I  I11  1  0.723606  0.244901  0.151494  1
  I  I12  1  0.280026  0.757935  0.845483  1
  I  I13  1  0.046904  0.684988  0.409952  1
  I  I14  1  0.956526  0.317719  0.592429  1
  I  I15  1  0.412091  0.126805  0.681562  1
  I  I16  1  0.585752  0.870179  0.321833  1
