# generated using pymatgen
data_LiAl11Re2Tc
_symmetry_space_group_name_H-M   'P 1'
_cell_length_a   5.17320994
_cell_length_b   5.19688131
_cell_length_c   9.08724769
_cell_angle_alpha   105.47612475
_cell_angle_beta   88.12461177
_cell_angle_gamma   100.08472668
_symmetry_Int_Tables_number   1
_chemical_formula_structural   LiAl11Re2Tc
_chemical_formula_sum   'Li1 Al11 Re2 Tc1'
_cell_volume   231.78556866
_cell_formula_units_Z   1
loop_
 _symmetry_equiv_pos_site_id
 _symmetry_equiv_pos_as_xyz
  1  'x, y, z'
loop_
 _atom_site_type_symbol
 _atom_site_label
 _atom_site_symmetry_multiplicity
 _atom_site_fract_x
 _atom_site_fract_y
 _atom_site_fract_z
 _atom_site_occupancy
  Li  Li0  1  0.337490  0.155954  0.612567  1
  Al  Al1  1  0.842138  0.290455  0.623792  1
  Al  Al2  1  0.159348  0.704400  0.381856  1
  Al  Al3  1  0.145969  0.462534  0.878475  1
  Al  Al4  1  0.847530  0.548200  0.132281  1
  Al  Al5  1  0.015330  0.992798  0.981173  1
  Al  Al6  1  0.540252  0.106838  0.885270  1
  Al  Al7  1  0.485905  0.902142  0.132374  1
  Al  Al8  1  0.574045  0.335581  0.370387  1
  Al  Al9  1  0.408646  0.669868  0.632347  1
  Al  Al10  1  0.927633  0.828442  0.663342  1
  Al  Al11  1  0.044835  0.142525  0.304225  1
  Re  Re12  1  0.661293  0.611154  0.867614  1
  Re  Re13  1  0.329270  0.387742  0.134097  1
  Tc  Tc14  1  0.680316  0.861367  0.400200  1
