# generated using pymatgen
data_Tb8Ti2VSi16Tc9
_symmetry_space_group_name_H-M   'P 1'
_cell_length_a   6.78799611
_cell_length_b   6.78799591
_cell_length_c   12.98691512
_cell_angle_alpha   89.99021565
_cell_angle_beta   90.00978474
_cell_angle_gamma   89.19767952
_symmetry_Int_Tables_number   1
_chemical_formula_structural   Tb8Ti2VSi16Tc9
_chemical_formula_sum   'Tb8 Ti2 V1 Si16 Tc9'
_cell_volume   598.33797051
_cell_formula_units_Z   1
loop_
 _symmetry_equiv_pos_site_id
 _symmetry_equiv_pos_as_xyz
  1  'x, y, z'
loop_
 _atom_site_type_symbol
 _atom_site_label
 _atom_site_symmetry_multiplicity
 _atom_site_fract_x
 _atom_site_fract_y
 _atom_site_fract_z
 _atom_site_occupancy
  Tb  Tb0  1  0.336856  0.002892  0.472166  1
  Tb  Tb1  1  0.510360  0.821650  0.715963  1
  Tb  Tb2  1  0.488266  0.180174  0.217637  1
  Tb  Tb3  1  0.821650  0.510360  0.284037  1
  Tb  Tb4  1  0.180174  0.488266  0.782363  1
  Tb  Tb5  1  0.663229  0.996972  0.972541  1
  Tb  Tb6  1  0.002892  0.336856  0.527834  1
  Tb  Tb7  1  0.996972  0.663229  0.027459  1
  Ti  Ti8  1  0.156407  0.843120  0.250508  1
  Ti  Ti9  1  0.843120  0.156407  0.749492  1
  V  V10  1  0.666132  0.666132  0.500000  1
  Si  Si11  1  0.211578  0.116317  0.682158  1
  Si  Si12  1  0.398674  0.680192  0.941110  1
  Si  Si13  1  0.603895  0.318326  0.441258  1
  Si  Si14  1  0.680192  0.398674  0.058890  1
  Si  Si15  1  0.318326  0.603895  0.558742  1
  Si  Si16  1  0.787654  0.884638  0.183293  1
  Si  Si17  1  0.116317  0.211578  0.317842  1
  Si  Si18  1  0.884638  0.787654  0.816707  1
  Si  Si19  1  0.262091  0.985814  0.055906  1
  Si  Si20  1  0.529069  0.802463  0.317534  1
  Si  Si21  1  0.470950  0.196602  0.816699  1
  Si  Si22  1  0.802463  0.529069  0.682466  1
  Si  Si23  1  0.196602  0.470950  0.183301  1
  Si  Si24  1  0.735503  0.014799  0.555088  1
  Si  Si25  1  0.985814  0.262091  0.944094  1
  Si  Si26  1  0.014799  0.735503  0.444912  1
  Tc  Tc27  1  0.333773  0.333773  0.000000  1
  Tc  Tc28  1  0.182904  0.981414  0.865305  1
  Tc  Tc29  1  0.472571  0.693896  0.133552  1
  Tc  Tc30  1  0.527508  0.308595  0.634552  1
  Tc  Tc31  1  0.693896  0.472571  0.866448  1
  Tc  Tc32  1  0.308595  0.527508  0.365448  1
  Tc  Tc33  1  0.819211  0.015505  0.364064  1
  Tc  Tc34  1  0.981414  0.182904  0.134695  1
  Tc  Tc35  1  0.015505  0.819211  0.635936  1
