# generated using pymatgen
data_Tb4Nd2TcBi2
_symmetry_space_group_name_H-M   'P 1'
_cell_length_a   8.47401800
_cell_length_b   8.42675798
_cell_length_c   4.34488500
_cell_angle_alpha   90.00000000
_cell_angle_beta   90.00000000
_cell_angle_gamma   120.18570393
_symmetry_Int_Tables_number   1
_chemical_formula_structural   Tb4Nd2TcBi2
_chemical_formula_sum   'Tb4 Nd2 Tc1 Bi2'
_cell_volume   268.19031517
_cell_formula_units_Z   1
loop_
 _symmetry_equiv_pos_site_id
 _symmetry_equiv_pos_as_xyz
  1  'x, y, z'
loop_
 _atom_site_type_symbol
 _atom_site_label
 _atom_site_symmetry_multiplicity
 _atom_site_fract_x
 _atom_site_fract_y
 _atom_site_fract_z
 _atom_site_occupancy
  Tb  Tb0  1  0.225589  0.000000  0.000000  1
  Tb  Tb1  1  0.766853  0.765654  0.000000  1
  Tb  Tb2  1  0.001199  0.234346  0.000000  1
  Tb  Tb3  1  0.608638  0.000000  0.500000  1
  Nd  Nd4  1  0.002378  0.603223  0.500000  1
  Nd  Nd5  1  0.399154  0.396777  0.500000  1
  Tc  Tc6  1  0.991232  0.000000  0.500000  1
  Bi  Bi7  1  0.339686  0.674415  0.000000  1
  Bi  Bi8  1  0.665271  0.325585  0.000000  1
