# generated using pymatgen
data_LiEu8Tm11Si16
_symmetry_space_group_name_H-M   'P 1'
_cell_length_a   7.41584200
_cell_length_b   7.76042572
_cell_length_c   14.70686600
_cell_angle_alpha   90.00000000
_cell_angle_beta   90.00000000
_cell_angle_gamma   90.03819263
_symmetry_Int_Tables_number   1
_chemical_formula_structural   LiEu8Tm11Si16
_chemical_formula_sum   'Li1 Eu8 Tm11 Si16'
_cell_volume   846.38128892
_cell_formula_units_Z   1
loop_
 _symmetry_equiv_pos_site_id
 _symmetry_equiv_pos_as_xyz
  1  'x, y, z'
loop_
 _atom_site_type_symbol
 _atom_site_label
 _atom_site_symmetry_multiplicity
 _atom_site_fract_x
 _atom_site_fract_y
 _atom_site_fract_z
 _atom_site_occupancy
  Li  Li0  1  0.652323  0.991611  0.750000  1
  Eu  Eu1  1  0.018220  0.175615  0.405948  1
  Eu  Eu2  1  0.517572  0.326908  0.405622  1
  Eu  Eu3  1  0.482824  0.685592  0.900601  1
  Eu  Eu4  1  0.482824  0.685592  0.599399  1
  Eu  Eu5  1  0.973274  0.824227  0.598650  1
  Eu  Eu6  1  0.973274  0.824227  0.901350  1
  Eu  Eu7  1  0.517572  0.326908  0.094378  1
  Eu  Eu8  1  0.018220  0.175615  0.094052  1
  Tm  Tm9  1  0.327467  0.172335  0.623941  1
  Tm  Tm10  1  0.680406  0.820193  0.377944  1
  Tm  Tm11  1  0.179737  0.676725  0.379417  1
  Tm  Tm12  1  0.818366  0.314454  0.876164  1
  Tm  Tm13  1  0.818366  0.314454  0.623836  1
  Tm  Tm14  1  0.846929  0.481168  0.250000  1
  Tm  Tm15  1  0.345338  0.016882  0.250000  1
  Tm  Tm16  1  0.327467  0.172335  0.876059  1
  Tm  Tm17  1  0.179737  0.676725  0.120583  1
  Tm  Tm18  1  0.680406  0.820193  0.122056  1
  Tm  Tm19  1  0.150922  0.513796  0.750000  1
  Si  Si20  1  0.263140  0.885327  0.750000  1
  Si  Si21  1  0.471782  0.614380  0.250000  1
  Si  Si22  1  0.031537  0.113198  0.750000  1
  Si  Si23  1  0.524804  0.395384  0.750000  1
  Si  Si24  1  0.145889  0.468136  0.542065  1
  Si  Si25  1  0.972795  0.883486  0.250000  1
  Si  Si26  1  0.732303  0.110431  0.250000  1
  Si  Si27  1  0.856608  0.531430  0.038268  1
  Si  Si28  1  0.357221  0.969415  0.041780  1
  Si  Si29  1  0.145889  0.468136  0.957935  1
  Si  Si30  1  0.645321  0.036011  0.534741  1
  Si  Si31  1  0.357221  0.969415  0.458220  1
  Si  Si32  1  0.856608  0.531430  0.461732  1
  Si  Si33  1  0.771004  0.603725  0.750000  1
  Si  Si34  1  0.231313  0.388526  0.250000  1
  Si  Si35  1  0.645321  0.036011  0.965259  1
