# generated using pymatgen
data_LaYbTm2(LuSe4)2
_symmetry_space_group_name_H-M   'P 1'
_cell_length_a   4.02159900
_cell_length_b   13.37231532
_cell_length_c   13.69727333
_cell_angle_alpha   89.97475289
_cell_angle_beta   90.00000000
_cell_angle_gamma   90.00000000
_symmetry_Int_Tables_number   1
_chemical_formula_structural   LaYbTm2(LuSe4)2
_chemical_formula_sum   'La2 Yb2 Tm4 Lu4 Se16'
_cell_volume   736.61312565
_cell_formula_units_Z   2
loop_
 _symmetry_equiv_pos_site_id
 _symmetry_equiv_pos_as_xyz
  1  'x, y, z'
loop_
 _atom_site_type_symbol
 _atom_site_label
 _atom_site_symmetry_multiplicity
 _atom_site_fract_x
 _atom_site_fract_y
 _atom_site_fract_z
 _atom_site_occupancy
  La  La0  1  0.250000  0.369252  0.585880  1
  La  La1  1  0.250000  0.869414  0.913953  1
  Yb  Yb2  1  0.750000  0.632819  0.413348  1
  Yb  Yb3  1  0.750000  0.132219  0.087152  1
  Tm  Tm4  1  0.250000  0.605872  0.081847  1
  Tm  Tm5  1  0.250000  0.148994  0.799779  1
  Tm  Tm6  1  0.250000  0.648850  0.700041  1
  Tm  Tm7  1  0.750000  0.350058  0.298175  1
  Lu  Lu8  1  0.250000  0.105490  0.418374  1
  Lu  Lu9  1  0.750000  0.893319  0.576397  1
  Lu  Lu10  1  0.750000  0.392979  0.923239  1
  Lu  Lu11  1  0.750000  0.850427  0.201684  1
  Se  Se12  1  0.250000  0.212189  0.238768  1
  Se  Se13  1  0.250000  0.714814  0.261902  1
  Se  Se14  1  0.750000  0.787434  0.759845  1
  Se  Se15  1  0.750000  0.287331  0.739897  1
  Se  Se16  1  0.250000  0.257133  0.976668  1
  Se  Se17  1  0.250000  0.757499  0.523390  1
  Se  Se18  1  0.750000  0.741514  0.026141  1
  Se  Se19  1  0.750000  0.239378  0.474437  1
  Se  Se20  1  0.250000  0.470126  0.382534  1
  Se  Se21  1  0.250000  0.968999  0.118109  1
  Se  Se22  1  0.750000  0.534760  0.614936  1
  Se  Se23  1  0.750000  0.034856  0.885093  1
  Se  Se24  1  0.250000  0.034116  0.618871  1
  Se  Se25  1  0.250000  0.533831  0.880400  1
  Se  Se26  1  0.750000  0.963901  0.379356  1
  Se  Se27  1  0.750000  0.462425  0.119784  1
