# generated using pymatgen
data_CaTb2Ho(SiPd2)4
_symmetry_space_group_name_H-M   'P 1'
_cell_length_a   5.56811500
_cell_length_b   6.99346300
_cell_length_c   7.35382000
_cell_angle_alpha   90.00000000
_cell_angle_beta   90.00121276
_cell_angle_gamma   90.00000000
_symmetry_Int_Tables_number   1
_chemical_formula_structural   CaTb2Ho(SiPd2)4
_chemical_formula_sum   'Ca1 Tb2 Ho1 Si4 Pd8'
_cell_volume   286.36073813
_cell_formula_units_Z   1
loop_
 _symmetry_equiv_pos_site_id
 _symmetry_equiv_pos_as_xyz
  1  'x, y, z'
loop_
 _atom_site_type_symbol
 _atom_site_label
 _atom_site_symmetry_multiplicity
 _atom_site_fract_x
 _atom_site_fract_y
 _atom_site_fract_z
 _atom_site_occupancy
  Ca  Ca0  1  0.361361  0.750000  0.027225  1
  Tb  Tb1  1  0.142070  0.750000  0.527940  1
  Tb  Tb2  1  0.639862  0.250000  0.971982  1
  Ho  Ho3  1  0.858031  0.250000  0.473173  1
  Si  Si4  1  0.643222  0.750000  0.377841  1
  Si  Si5  1  0.860186  0.750000  0.877955  1
  Si  Si6  1  0.357920  0.250000  0.622252  1
  Si  Si7  1  0.140279  0.250000  0.123210  1
  Pd  Pd8  1  0.903703  0.550736  0.176671  1
  Pd  Pd9  1  0.599476  0.948840  0.676054  1
  Pd  Pd10  1  0.090196  0.052859  0.820464  1
  Pd  Pd11  1  0.405160  0.446476  0.326024  1
  Pd  Pd12  1  0.090196  0.447141  0.820464  1
  Pd  Pd13  1  0.405160  0.053524  0.326024  1
  Pd  Pd14  1  0.903703  0.949264  0.176671  1
  Pd  Pd15  1  0.599476  0.551160  0.676054  1
