# generated using pymatgen
data_Zr6PS2
_symmetry_space_group_name_H-M   'P 1'
_cell_length_a   3.62230800
_cell_length_b   12.39503200
_cell_length_c   15.19091900
_cell_angle_alpha   90.00000000
_cell_angle_beta   90.00000000
_cell_angle_gamma   90.00000000
_symmetry_Int_Tables_number   1
_chemical_formula_structural   Zr6PS2
_chemical_formula_sum   'Zr24 P4 S8'
_cell_volume   682.05135392
_cell_formula_units_Z   4
loop_
 _symmetry_equiv_pos_site_id
 _symmetry_equiv_pos_as_xyz
  1  'x, y, z'
loop_
 _atom_site_type_symbol
 _atom_site_label
 _atom_site_symmetry_multiplicity
 _atom_site_fract_x
 _atom_site_fract_y
 _atom_site_fract_z
 _atom_site_occupancy
  Zr  Zr0  1  0.000000  0.030991  0.109421  1
  Zr  Zr1  1  0.000000  0.969009  0.890579  1
  Zr  Zr2  1  0.500000  0.469009  0.609421  1
  Zr  Zr3  1  0.500000  0.530991  0.390579  1
  Zr  Zr4  1  0.000000  0.414824  0.247368  1
  Zr  Zr5  1  0.000000  0.585176  0.752632  1
  Zr  Zr6  1  0.500000  0.085176  0.747368  1
  Zr  Zr7  1  0.500000  0.914824  0.252632  1
  Zr  Zr8  1  0.000000  0.087634  0.580317  1
  Zr  Zr9  1  0.000000  0.912366  0.419683  1
  Zr  Zr10  1  0.500000  0.412366  0.080317  1
  Zr  Zr11  1  0.500000  0.587634  0.919683  1
  Zr  Zr12  1  0.000000  0.341078  0.478732  1
  Zr  Zr13  1  0.000000  0.658922  0.521268  1
  Zr  Zr14  1  0.500000  0.158922  0.978732  1
  Zr  Zr15  1  0.500000  0.841078  0.021268  1
  Zr  Zr16  1  0.000000  0.693509  0.291411  1
  Zr  Zr17  1  0.000000  0.306491  0.708589  1
  Zr  Zr18  1  0.500000  0.806491  0.791411  1
  Zr  Zr19  1  0.500000  0.193509  0.208589  1
  Zr  Zr20  1  0.000000  0.622292  0.080446  1
  Zr  Zr21  1  0.000000  0.377708  0.919554  1
  Zr  Zr22  1  0.500000  0.877708  0.580446  1
  Zr  Zr23  1  0.500000  0.122292  0.419554  1
  P  P24  1  0.000000  0.255425  0.088039  1
  P  P25  1  0.000000  0.744575  0.911961  1
  P  P26  1  0.500000  0.244575  0.588039  1
  P  P27  1  0.500000  0.755425  0.411961  1
  S  S28  1  0.000000  0.066975  0.291429  1
  S  S29  1  0.000000  0.933025  0.708571  1
  S  S30  1  0.500000  0.433025  0.791429  1
  S  S31  1  0.500000  0.566975  0.208571  1
  S  S32  1  0.000000  0.816534  0.150219  1
  S  S33  1  0.000000  0.183466  0.849781  1
  S  S34  1  0.500000  0.683466  0.650219  1
  S  S35  1  0.500000  0.316534  0.349781  1
