# generated using pymatgen
data_Ti2Co3SiSn
_symmetry_space_group_name_H-M   'P 1'
_cell_length_a   7.25546103
_cell_length_b   7.25546114
_cell_length_c   7.25546012
_cell_angle_alpha   32.55302192
_cell_angle_beta   32.55301834
_cell_angle_gamma   32.55302326
_symmetry_Int_Tables_number   1
_chemical_formula_structural   Ti2Co3SiSn
_chemical_formula_sum   'Ti2 Co3 Si1 Sn1'
_cell_volume   98.33858742
_cell_formula_units_Z   1
loop_
 _symmetry_equiv_pos_site_id
 _symmetry_equiv_pos_as_xyz
  1  'x, y, z'
loop_
 _atom_site_type_symbol
 _atom_site_label
 _atom_site_symmetry_multiplicity
 _atom_site_fract_x
 _atom_site_fract_y
 _atom_site_fract_z
 _atom_site_occupancy
  Ti  Ti0  1  0.751013  0.751013  0.751013  1
  Ti  Ti1  1  0.252076  0.252076  0.252076  1
  Co  Co2  1  0.115879  0.115879  0.115879  1
  Co  Co3  1  0.632334  0.632334  0.632334  1
  Co  Co4  1  0.370373  0.370373  0.370373  1
  Si  Si5  1  0.998834  0.998834  0.998834  1
  Sn  Sn6  1  0.504491  0.504491  0.504491  1
