# generated using pymatgen
data_Sc5Fe10(Co3P4)3
_symmetry_space_group_name_H-M   'P 1'
_cell_length_a   11.78611300
_cell_length_b   11.79513902
_cell_length_c   3.60496100
_cell_angle_alpha   90.00000000
_cell_angle_beta   90.00000000
_cell_angle_gamma   119.97469236
_symmetry_Int_Tables_number   1
_chemical_formula_structural   Sc5Fe10(Co3P4)3
_chemical_formula_sum   'Sc5 Fe10 Co9 P12'
_cell_volume   434.12576604
_cell_formula_units_Z   1
loop_
 _symmetry_equiv_pos_site_id
 _symmetry_equiv_pos_as_xyz
  1  'x, y, z'
loop_
 _atom_site_type_symbol
 _atom_site_label
 _atom_site_symmetry_multiplicity
 _atom_site_fract_x
 _atom_site_fract_y
 _atom_site_fract_z
 _atom_site_occupancy
  Sc  Sc0  1  0.332875  0.667574  0.500000  1
  Sc  Sc1  1  0.665302  0.332426  0.500000  1
  Sc  Sc2  1  0.814312  0.000000  0.000000  1
  Sc  Sc3  1  0.002239  0.815040  0.000000  1
  Sc  Sc4  1  0.187199  0.184960  0.000000  1
  Fe  Fe5  1  0.622069  0.801235  0.500000  1
  Fe  Fe6  1  0.198057  0.819211  0.500000  1
  Fe  Fe7  1  0.179320  0.378154  0.500000  1
  Fe  Fe8  1  0.378847  0.180789  0.500000  1
  Fe  Fe9  1  0.801166  0.621846  0.500000  1
  Fe  Fe10  1  0.820835  0.198765  0.500000  1
  Fe  Fe11  1  0.284711  0.000000  0.000000  1
  Fe  Fe12  1  0.447719  0.000000  0.500000  1
  Fe  Fe13  1  0.999751  0.448003  0.500000  1
  Fe  Fe14  1  0.551748  0.551997  0.500000  1
  Co  Co15  1  0.000135  0.284356  0.000000  1
  Co  Co16  1  0.715779  0.715644  0.000000  1
  Co  Co17  1  0.515163  0.874150  0.000000  1
  Co  Co18  1  0.125649  0.640341  0.000000  1
  Co  Co19  1  0.358996  0.485214  0.000000  1
  Co  Co20  1  0.485308  0.359659  0.000000  1
  Co  Co21  1  0.873782  0.514786  0.000000  1
  Co  Co22  1  0.641014  0.125850  0.000000  1
  Co  Co23  1  0.999369  0.000000  0.500000  1
  P  P24  1  0.180586  0.000000  0.500000  1
  P  P25  1  0.000556  0.179939  0.500000  1
  P  P26  1  0.820618  0.820061  0.500000  1
  P  P27  1  0.517948  0.685703  0.000000  1
  P  P28  1  0.314103  0.833818  0.000000  1
  P  P29  1  0.167441  0.481901  0.000000  1
  P  P30  1  0.480285  0.166182  0.000000  1
  P  P31  1  0.685540  0.518099  0.000000  1
  P  P32  1  0.832245  0.314297  0.000000  1
  P  P33  1  0.636687  0.000000  0.500000  1
  P  P34  1  0.999905  0.637166  0.500000  1
  P  P35  1  0.362739  0.362834  0.500000  1
