# generated using pymatgen
data_NbAl(Ni2Pt)2
_symmetry_space_group_name_H-M   'P 1'
_cell_length_a   3.78466400
_cell_length_b   3.72590300
_cell_length_c   7.47140500
_cell_angle_alpha   90.00000000
_cell_angle_beta   90.00000000
_cell_angle_gamma   90.00000000
_symmetry_Int_Tables_number   1
_chemical_formula_structural   NbAl(Ni2Pt)2
_chemical_formula_sum   'Nb1 Al1 Ni4 Pt2'
_cell_volume   105.35645572
_cell_formula_units_Z   1
loop_
 _symmetry_equiv_pos_site_id
 _symmetry_equiv_pos_as_xyz
  1  'x, y, z'
loop_
 _atom_site_type_symbol
 _atom_site_label
 _atom_site_symmetry_multiplicity
 _atom_site_fract_x
 _atom_site_fract_y
 _atom_site_fract_z
 _atom_site_occupancy
  Nb  Nb0  1  0.000000  0.000000  0.500000  1
  Al  Al1  1  0.000000  0.000000  0.000000  1
  Ni  Ni2  1  0.500000  0.500000  0.000000  1
  Ni  Ni3  1  0.500000  0.500000  0.500000  1
  Ni  Ni4  1  0.000000  0.500000  0.249968  1
  Ni  Ni5  1  0.000000  0.500000  0.750032  1
  Pt  Pt6  1  0.500000  0.000000  0.243305  1
  Pt  Pt7  1  0.500000  0.000000  0.756695  1
