# generated using pymatgen
data_Ti2Be9W
_symmetry_space_group_name_H-M   'P 1'
_cell_length_a   7.43349129
_cell_length_b   7.43349110
_cell_length_c   7.43349112
_cell_angle_alpha   34.95571143
_cell_angle_beta   34.95571442
_cell_angle_gamma   34.95570375
_symmetry_Int_Tables_number   1
_chemical_formula_structural   Ti2Be9W
_chemical_formula_sum   'Ti2 Be9 W1'
_cell_volume   120.38211982
_cell_formula_units_Z   1
loop_
 _symmetry_equiv_pos_site_id
 _symmetry_equiv_pos_as_xyz
  1  'x, y, z'
loop_
 _atom_site_type_symbol
 _atom_site_label
 _atom_site_symmetry_multiplicity
 _atom_site_fract_x
 _atom_site_fract_y
 _atom_site_fract_z
 _atom_site_occupancy
  Ti  Ti0  1  0.142901  0.142901  0.142901  1
  Ti  Ti1  1  0.995904  0.995904  0.995904  1
  Be  Be2  1  0.414689  0.921971  0.414689  1
  Be  Be3  1  0.414689  0.414689  0.921971  1
  Be  Be4  1  0.921971  0.414689  0.414689  1
  Be  Be5  1  0.587220  0.075012  0.587220  1
  Be  Be6  1  0.587220  0.587220  0.075012  1
  Be  Be7  1  0.075012  0.587220  0.587220  1
  Be  Be8  1  0.666703  0.666703  0.666703  1
  Be  Be9  1  0.336352  0.336352  0.336352  1
  Be  Be10  1  0.499819  0.499819  0.499819  1
  W  W11  1  0.857521  0.857521  0.857521  1
