# generated using pymatgen
data_KY(TeO4)2
_symmetry_space_group_name_H-M   'P 1'
_cell_length_a   7.62827694
_cell_length_b   7.62827681
_cell_length_c   7.34260628
_cell_angle_alpha   63.06744235
_cell_angle_beta   63.06744265
_cell_angle_gamma   90.08473890
_symmetry_Int_Tables_number   1
_chemical_formula_structural   KY(TeO4)2
_chemical_formula_sum   'K2 Y2 Te4 O16'
_cell_volume   327.93666095
_cell_formula_units_Z   2
loop_
 _symmetry_equiv_pos_site_id
 _symmetry_equiv_pos_as_xyz
  1  'x, y, z'
loop_
 _atom_site_type_symbol
 _atom_site_label
 _atom_site_symmetry_multiplicity
 _atom_site_fract_x
 _atom_site_fract_y
 _atom_site_fract_z
 _atom_site_occupancy
  K  K0  1  0.203651  0.796349  0.750000  1
  K  K1  1  0.796349  0.203651  0.250000  1
  Y  Y2  1  0.786707  0.213293  0.750000  1
  Y  Y3  1  0.213293  0.786707  0.250000  1
  Te  Te4  1  0.703053  0.684515  0.797935  1
  Te  Te5  1  0.296947  0.315485  0.202065  1
  Te  Te6  1  0.315485  0.296947  0.702065  1
  Te  Te7  1  0.684515  0.703053  0.297935  1
  O  O8  1  0.613554  0.760181  0.560063  1
  O  O9  1  0.386446  0.239819  0.439937  1
  O  O10  1  0.239819  0.386446  0.939937  1
  O  O11  1  0.760181  0.613554  0.060063  1
  O  O12  1  0.380535  0.059301  0.865973  1
  O  O13  1  0.619465  0.940699  0.134027  1
  O  O14  1  0.940699  0.619465  0.634027  1
  O  O15  1  0.059301  0.380535  0.365973  1
  O  O16  1  0.589649  0.369492  0.967580  1
  O  O17  1  0.410351  0.630508  0.032420  1
  O  O18  1  0.630508  0.410351  0.532420  1
  O  O19  1  0.369492  0.589649  0.467580  1
  O  O20  1  0.787434  0.962733  0.676007  1
  O  O21  1  0.212566  0.037267  0.323993  1
  O  O22  1  0.037267  0.212566  0.823993  1
  O  O23  1  0.962733  0.787434  0.176007  1
