# generated using pymatgen
data_Gd4Er(ReO6)2
_symmetry_space_group_name_H-M   'P 1'
_cell_length_a   6.90727989
_cell_length_b   6.90728025
_cell_length_c   7.61225303
_cell_angle_alpha   73.67879086
_cell_angle_beta   73.67879234
_cell_angle_gamma   48.84469885
_symmetry_Int_Tables_number   1
_chemical_formula_structural   Gd4Er(ReO6)2
_chemical_formula_sum   'Gd4 Er1 Re2 O12'
_cell_volume   260.10194929
_cell_formula_units_Z   1
loop_
 _symmetry_equiv_pos_site_id
 _symmetry_equiv_pos_as_xyz
  1  'x, y, z'
loop_
 _atom_site_type_symbol
 _atom_site_label
 _atom_site_symmetry_multiplicity
 _atom_site_fract_x
 _atom_site_fract_y
 _atom_site_fract_z
 _atom_site_occupancy
  Gd  Gd0  1  0.695908  0.695908  0.642318  1
  Gd  Gd1  1  0.304092  0.304092  0.357682  1
  Gd  Gd2  1  0.684650  0.684650  0.175515  1
  Gd  Gd3  1  0.315350  0.315350  0.824485  1
  Er  Er4  1  0.000000  0.000000  0.500000  1
  Re  Re5  1  0.786561  0.213439  0.000000  1
  Re  Re6  1  0.213439  0.786561  0.000000  1
  O  O7  1  0.001456  0.001456  0.206041  1
  O  O8  1  0.998544  0.998544  0.793959  1
  O  O9  1  0.585057  0.087323  0.084040  1
  O  O10  1  0.414943  0.912677  0.915960  1
  O  O11  1  0.912677  0.414943  0.915960  1
  O  O12  1  0.087323  0.585057  0.084040  1
  O  O13  1  0.498835  0.498835  0.173727  1
  O  O14  1  0.501165  0.501165  0.826273  1
  O  O15  1  0.400412  0.901722  0.428048  1
  O  O16  1  0.599588  0.098278  0.571952  1
  O  O17  1  0.098278  0.599588  0.571952  1
  O  O18  1  0.901722  0.400412  0.428048  1
