# generated using pymatgen
data_CaYb12(TmSb4)3
_symmetry_space_group_name_H-M   'P 1'
_cell_length_a   9.39220945
_cell_length_b   9.39220901
_cell_length_c   9.39220923
_cell_angle_alpha   90.33418659
_cell_angle_beta   90.33418648
_cell_angle_gamma   89.66581007
_symmetry_Int_Tables_number   1
_chemical_formula_structural   CaYb12(TmSb4)3
_chemical_formula_sum   'Ca1 Yb12 Tm3 Sb12'
_cell_volume   828.47841779
_cell_formula_units_Z   1
loop_
 _symmetry_equiv_pos_site_id
 _symmetry_equiv_pos_as_xyz
  1  'x, y, z'
loop_
 _atom_site_type_symbol
 _atom_site_label
 _atom_site_symmetry_multiplicity
 _atom_site_fract_x
 _atom_site_fract_y
 _atom_site_fract_z
 _atom_site_occupancy
  Ca  Ca0  1  0.073438  0.573438  0.926562  1
  Yb  Yb1  1  0.825260  0.325260  0.174740  1
  Yb  Yb2  1  0.930728  0.927053  0.930544  1
  Yb  Yb3  1  0.827133  0.673677  0.326085  1
  Yb  Yb4  1  0.176319  0.822941  0.322795  1
  Yb  Yb5  1  0.173677  0.173915  0.172867  1
  Yb  Yb6  1  0.325386  0.825386  0.674614  1
  Yb  Yb7  1  0.069456  0.430728  0.572947  1
  Yb  Yb8  1  0.322941  0.177205  0.823681  1
  Yb  Yb9  1  0.673915  0.327133  0.826323  1
  Yb  Yb10  1  0.677205  0.676319  0.677059  1
  Yb  Yb11  1  0.569239  0.069239  0.430761  1
  Yb  Yb12  1  0.427053  0.569456  0.069272  1
  Tm  Tm13  1  0.929544  0.072410  0.572874  1
  Tm  Tm14  1  0.427126  0.429544  0.427590  1
  Tm  Tm15  1  0.572410  0.927126  0.070456  1
  Sb  Sb16  1  0.745116  0.368284  0.500101  1
  Sb  Sb17  1  0.868284  0.999899  0.254884  1
  Sb  Sb18  1  0.998895  0.759574  0.625478  1
  Sb  Sb19  1  0.244456  0.129641  0.498829  1
  Sb  Sb20  1  0.132078  0.497788  0.252255  1
  Sb  Sb21  1  0.997788  0.247745  0.867922  1
  Sb  Sb22  1  0.259574  0.874522  0.001105  1
  Sb  Sb23  1  0.374522  0.498895  0.740426  1
  Sb  Sb24  1  0.499899  0.245116  0.131716  1
  Sb  Sb25  1  0.747745  0.632078  0.002212  1
  Sb  Sb26  1  0.629641  0.001171  0.755544  1
  Sb  Sb27  1  0.501171  0.744456  0.370359  1
