# generated using pymatgen
data_LaMnAs12Os2Pd
_symmetry_space_group_name_H-M   'P 1'
_cell_length_a   7.47202495
_cell_length_b   7.44590124
_cell_length_c   7.46494062
_cell_angle_alpha   109.46648962
_cell_angle_beta   109.52475492
_cell_angle_gamma   109.53947450
_symmetry_Int_Tables_number   1
_chemical_formula_structural   LaMnAs12Os2Pd
_chemical_formula_sum   'La1 Mn1 As12 Os2 Pd1'
_cell_volume   319.25000578
_cell_formula_units_Z   1
loop_
 _symmetry_equiv_pos_site_id
 _symmetry_equiv_pos_as_xyz
  1  'x, y, z'
loop_
 _atom_site_type_symbol
 _atom_site_label
 _atom_site_symmetry_multiplicity
 _atom_site_fract_x
 _atom_site_fract_y
 _atom_site_fract_z
 _atom_site_occupancy
  La  La0  1  0.000000  0.000000  0.000000  1
  Mn  Mn1  1  0.000000  0.000000  0.500000  1
  As  As2  1  0.333819  0.196170  0.836965  1
  As  As3  1  0.666181  0.803830  0.163035  1
  As  As4  1  0.652498  0.501845  0.850487  1
  As  As5  1  0.347502  0.498155  0.149513  1
  As  As6  1  0.186529  0.852495  0.349017  1
  As  As7  1  0.813471  0.147505  0.650983  1
  As  As8  1  0.502017  0.850018  0.643289  1
  As  As9  1  0.497983  0.149982  0.356711  1
  As  As10  1  0.858817  0.356443  0.206551  1
  As  As11  1  0.141183  0.643557  0.793449  1
  As  As12  1  0.851345  0.664876  0.503863  1
  As  As13  1  0.148655  0.335124  0.496137  1
  Os  Os14  1  0.000000  0.500000  0.000000  1
  Os  Os15  1  0.500000  0.500000  0.500000  1
  Pd  Pd16  1  0.500000  0.000000  0.000000  1
