# generated using pymatgen
data_DyY8HoRu4
_symmetry_space_group_name_H-M   'P 1'
_cell_length_a   6.37570443
_cell_length_b   7.29283824
_cell_length_c   8.51621362
_cell_angle_alpha   96.61817473
_cell_angle_beta   111.98275400
_cell_angle_gamma   89.99999507
_symmetry_Int_Tables_number   1
_chemical_formula_structural   DyY8HoRu4
_chemical_formula_sum   'Dy1 Y8 Ho1 Ru4'
_cell_volume   364.34211153
_cell_formula_units_Z   1
loop_
 _symmetry_equiv_pos_site_id
 _symmetry_equiv_pos_as_xyz
  1  'x, y, z'
loop_
 _atom_site_type_symbol
 _atom_site_label
 _atom_site_symmetry_multiplicity
 _atom_site_fract_x
 _atom_site_fract_y
 _atom_site_fract_z
 _atom_site_occupancy
  Dy  Dy0  1  0.421025  0.750000  0.000000  1
  Y  Y1  1  0.977676  0.915438  0.186346  1
  Y  Y2  1  0.791329  0.584562  0.813654  1
  Y  Y3  1  0.022225  0.085039  0.813720  1
  Y  Y4  1  0.208505  0.414961  0.186280  1
  Y  Y5  1  0.640661  0.815245  0.434612  1
  Y  Y6  1  0.206050  0.684755  0.565388  1
  Y  Y7  1  0.359495  0.184926  0.565603  1
  Y  Y8  1  0.793892  0.315074  0.434397  1
  Ho  Ho9  1  0.578505  0.250000  0.000000  1
  Ru  Ru10  1  0.820710  0.574259  0.218144  1
  Ru  Ru11  1  0.602566  0.925741  0.781856  1
  Ru  Ru12  1  0.179569  0.425067  0.781777  1
  Ru  Ru13  1  0.397792  0.074933  0.218223  1
