# generated using pymatgen
data_TbY3Th4(ReB6)4
_symmetry_space_group_name_H-M   'P 1'
_cell_length_a   3.77236700
_cell_length_b   9.28333902
_cell_length_c   11.70397003
_cell_angle_alpha   89.99228498
_cell_angle_beta   90.00000000
_cell_angle_gamma   90.00000000
_symmetry_Int_Tables_number   1
_chemical_formula_structural   TbY3Th4(ReB6)4
_chemical_formula_sum   'Tb1 Y3 Th4 Re4 B24'
_cell_volume   409.87492000
_cell_formula_units_Z   1
loop_
 _symmetry_equiv_pos_site_id
 _symmetry_equiv_pos_as_xyz
  1  'x, y, z'
loop_
 _atom_site_type_symbol
 _atom_site_label
 _atom_site_symmetry_multiplicity
 _atom_site_fract_x
 _atom_site_fract_y
 _atom_site_fract_z
 _atom_site_occupancy
  Tb  Tb0  1  0.000000  0.444320  0.127366  1
  Y  Y1  1  0.000000  0.555608  0.872723  1
  Y  Y2  1  0.000000  0.944401  0.372820  1
  Y  Y3  1  0.000000  0.055599  0.627226  1
  Th  Th4  1  0.000000  0.822915  0.085797  1
  Th  Th5  1  0.000000  0.177144  0.914067  1
  Th  Th6  1  0.000000  0.322861  0.414189  1
  Th  Th7  1  0.000000  0.677142  0.585944  1
  Re  Re8  1  0.000000  0.138532  0.179575  1
  Re  Re9  1  0.000000  0.861446  0.820399  1
  Re  Re10  1  0.000000  0.638557  0.320430  1
  Re  Re11  1  0.000000  0.361480  0.679568  1
  B  B12  1  0.500000  0.055693  0.070130  1
  B  B13  1  0.500000  0.944098  0.929825  1
  B  B14  1  0.500000  0.555948  0.429980  1
  B  B15  1  0.500000  0.444139  0.570153  1
  B  B16  1  0.500000  0.248218  0.082907  1
  B  B17  1  0.500000  0.751411  0.917203  1
  B  B18  1  0.500000  0.748666  0.417218  1
  B  B19  1  0.500000  0.251382  0.582801  1
  B  B20  1  0.500000  0.289810  0.233229  1
  B  B21  1  0.500000  0.709765  0.766705  1
  B  B22  1  0.500000  0.790424  0.266788  1
  B  B23  1  0.500000  0.209775  0.733277  1
  B  B24  1  0.500000  0.130676  0.313461  1
  B  B25  1  0.500000  0.869191  0.686582  1
  B  B26  1  0.500000  0.631088  0.186823  1
  B  B27  1  0.500000  0.369128  0.813390  1
  B  B28  1  0.500000  0.485518  0.286395  1
  B  B29  1  0.500000  0.514806  0.713793  1
  B  B30  1  0.500000  0.985132  0.213830  1
  B  B31  1  0.500000  0.014823  0.786180  1
  B  B32  1  0.500000  0.103988  0.471327  1
  B  B33  1  0.500000  0.895969  0.528699  1
  B  B34  1  0.500000  0.604536  0.028389  1
  B  B35  1  0.500000  0.395811  0.970811  1
