# generated using pymatgen
data_Yb3Zr(Pt2O7)2
_symmetry_space_group_name_H-M   'P 1'
_cell_length_a   7.20977139
_cell_length_b   7.20382329
_cell_length_c   7.20977200
_cell_angle_alpha   59.97267996
_cell_angle_beta   59.99999719
_cell_angle_gamma   59.97267825
_symmetry_Int_Tables_number   1
_chemical_formula_structural   Yb3Zr(Pt2O7)2
_chemical_formula_sum   'Yb3 Zr1 Pt4 O14'
_cell_volume   264.67419536
_cell_formula_units_Z   1
loop_
 _symmetry_equiv_pos_site_id
 _symmetry_equiv_pos_as_xyz
  1  'x, y, z'
loop_
 _atom_site_type_symbol
 _atom_site_label
 _atom_site_symmetry_multiplicity
 _atom_site_fract_x
 _atom_site_fract_y
 _atom_site_fract_z
 _atom_site_occupancy
  Yb  Yb0  1  0.125000  0.125000  0.125000  1
  Yb  Yb1  1  0.625000  0.125000  0.125000  1
  Yb  Yb2  1  0.125000  0.125000  0.625000  1
  Zr  Zr3  1  0.125000  0.625000  0.125000  1
  Pt  Pt4  1  0.625000  0.625000  0.625000  1
  Pt  Pt5  1  0.125000  0.625000  0.625000  1
  Pt  Pt6  1  0.625000  0.625000  0.125000  1
  Pt  Pt7  1  0.625000  0.125000  0.625000  1
  O  O8  1  0.009278  0.972165  0.009278  1
  O  O9  1  0.240722  0.277835  0.240722  1
  O  O10  1  0.522473  0.548994  0.964267  1
  O  O11  1  0.288447  0.290507  0.710523  1
  O  O12  1  0.964267  0.548994  0.964267  1
  O  O13  1  0.964267  0.548994  0.522473  1
  O  O14  1  0.539477  0.959493  0.961553  1
  O  O15  1  0.539477  0.959493  0.539477  1
  O  O16  1  0.961553  0.959493  0.539477  1
  O  O17  1  0.710523  0.290507  0.288447  1
  O  O18  1  0.285733  0.701006  0.727527  1
  O  O19  1  0.727527  0.701006  0.285733  1
  O  O20  1  0.710523  0.290507  0.710523  1
  O  O21  1  0.285733  0.701006  0.285733  1
