# generated using pymatgen
data_PaFe2(Sb6Os)2
_symmetry_space_group_name_H-M   'P 1'
_cell_length_a   8.03883824
_cell_length_b   8.00427643
_cell_length_c   8.03883752
_cell_angle_alpha   109.46722876
_cell_angle_beta   109.54389463
_cell_angle_gamma   109.57721006
_symmetry_Int_Tables_number   1
_chemical_formula_structural   PaFe2(Sb6Os)2
_chemical_formula_sum   'Pa1 Fe2 Sb12 Os2'
_cell_volume   397.32571044
_cell_formula_units_Z   1
loop_
 _symmetry_equiv_pos_site_id
 _symmetry_equiv_pos_as_xyz
  1  'x, y, z'
loop_
 _atom_site_type_symbol
 _atom_site_label
 _atom_site_symmetry_multiplicity
 _atom_site_fract_x
 _atom_site_fract_y
 _atom_site_fract_z
 _atom_site_occupancy
  Pa  Pa0  1  0.000000  0.000000  0.000000  1
  Fe  Fe1  1  0.000000  0.000000  0.500000  1
  Fe  Fe2  1  0.500000  0.000000  0.000000  1
  Sb  Sb3  1  0.330417  0.168297  0.837881  1
  Sb  Sb4  1  0.669583  0.831703  0.162119  1
  Sb  Sb5  1  0.660138  0.504019  0.843882  1
  Sb  Sb6  1  0.339862  0.495981  0.156118  1
  Sb  Sb7  1  0.175696  0.847064  0.341479  1
  Sb  Sb8  1  0.824304  0.152936  0.658521  1
  Sb  Sb9  1  0.505584  0.847064  0.671369  1
  Sb  Sb10  1  0.494416  0.152936  0.328631  1
  Sb  Sb11  1  0.834452  0.328344  0.175371  1
  Sb  Sb12  1  0.165548  0.671656  0.824629  1
  Sb  Sb13  1  0.847027  0.671656  0.506108  1
  Sb  Sb14  1  0.152973  0.328344  0.493892  1
  Os  Os15  1  0.000000  0.500000  0.000000  1
  Os  Os16  1  0.500000  0.500000  0.500000  1
