# generated using pymatgen
data_Eu20Ir3RuAu8
_symmetry_space_group_name_H-M   'P 1'
_cell_length_a   11.80768200
_cell_length_b   11.80768200
_cell_length_c   6.60071500
_cell_angle_alpha   90.00000000
_cell_angle_beta   90.00000000
_cell_angle_gamma   90.00000000
_symmetry_Int_Tables_number   1
_chemical_formula_structural   Eu20Ir3RuAu8
_chemical_formula_sum   'Eu20 Ir3 Ru1 Au8'
_cell_volume   920.28062407
_cell_formula_units_Z   1
loop_
 _symmetry_equiv_pos_site_id
 _symmetry_equiv_pos_as_xyz
  1  'x, y, z'
loop_
 _atom_site_type_symbol
 _atom_site_label
 _atom_site_symmetry_multiplicity
 _atom_site_fract_x
 _atom_site_fract_y
 _atom_site_fract_z
 _atom_site_occupancy
  Eu  Eu0  1  0.300817  0.081756  0.357933  1
  Eu  Eu1  1  0.301197  0.918112  0.860308  1
  Eu  Eu2  1  0.698803  0.081888  0.860308  1
  Eu  Eu3  1  0.699183  0.918244  0.357933  1
  Eu  Eu4  1  0.581888  0.801197  0.860308  1
  Eu  Eu5  1  0.581756  0.199183  0.357933  1
  Eu  Eu6  1  0.418244  0.800817  0.357933  1
  Eu  Eu7  1  0.418112  0.198803  0.860308  1
  Eu  Eu8  1  0.200482  0.417240  0.641661  1
  Eu  Eu9  1  0.200384  0.582602  0.141543  1
  Eu  Eu10  1  0.799616  0.417398  0.141543  1
  Eu  Eu11  1  0.799518  0.582760  0.641661  1
  Eu  Eu12  1  0.917398  0.700384  0.141543  1
  Eu  Eu13  1  0.917240  0.299518  0.641661  1
  Eu  Eu14  1  0.082760  0.700482  0.641661  1
  Eu  Eu15  1  0.082602  0.299616  0.141543  1
  Eu  Eu16  1  0.000000  0.000000  0.499051  1
  Eu  Eu17  1  0.000000  0.000000  0.998946  1
  Eu  Eu18  1  0.500000  0.500000  0.998946  1
  Eu  Eu19  1  0.500000  0.500000  0.499051  1
  Ir  Ir20  1  0.500000  0.000000  0.608428  1
  Ir  Ir21  1  0.000000  0.500000  0.893717  1
  Ir  Ir22  1  0.000000  0.500000  0.393664  1
  Ru  Ru23  1  0.500000  0.000000  0.109546  1
  Au  Au24  1  0.844140  0.155936  0.249175  1
  Au  Au25  1  0.843868  0.844281  0.749041  1
  Au  Au26  1  0.156132  0.155719  0.749041  1
  Au  Au27  1  0.155860  0.844064  0.249175  1
  Au  Au28  1  0.655719  0.343868  0.749041  1
  Au  Au29  1  0.655936  0.655860  0.249175  1
  Au  Au30  1  0.344064  0.344140  0.249175  1
  Au  Au31  1  0.344281  0.656132  0.749041  1
