# generated using pymatgen
data_HoHf(Al3Co)3
_symmetry_space_group_name_H-M   'P 1'
_cell_length_a   7.29320400
_cell_length_b   7.28496673
_cell_length_c   9.09716900
_cell_angle_alpha   90.00000000
_cell_angle_beta   90.00000000
_cell_angle_gamma   119.47029924
_symmetry_Int_Tables_number   1
_chemical_formula_structural   HoHf(Al3Co)3
_chemical_formula_sum   'Ho2 Hf2 Al18 Co6'
_cell_volume   420.80051916
_cell_formula_units_Z   2
loop_
 _symmetry_equiv_pos_site_id
 _symmetry_equiv_pos_as_xyz
  1  'x, y, z'
loop_
 _atom_site_type_symbol
 _atom_site_label
 _atom_site_symmetry_multiplicity
 _atom_site_fract_x
 _atom_site_fract_y
 _atom_site_fract_z
 _atom_site_occupancy
  Ho  Ho0  1  0.671848  0.992435  0.250000  1
  Ho  Ho1  1  0.328152  0.007565  0.750000  1
  Hf  Hf2  1  0.994547  0.672388  0.250000  1
  Hf  Hf3  1  0.005453  0.327612  0.750000  1
  Al  Al4  1  0.122669  0.120151  0.250000  1
  Al  Al5  1  0.877331  0.879849  0.750000  1
  Al  Al6  1  0.996808  0.337189  0.071848  1
  Al  Al7  1  0.003192  0.662811  0.928152  1
  Al  Al8  1  0.003192  0.662811  0.571848  1
  Al  Al9  1  0.332637  0.995481  0.425730  1
  Al  Al10  1  0.996808  0.337189  0.428152  1
  Al  Al11  1  0.667363  0.004519  0.574270  1
  Al  Al12  1  0.667363  0.004519  0.925730  1
  Al  Al13  1  0.332637  0.995481  0.074270  1
  Al  Al14  1  0.329604  0.332266  0.547321  1
  Al  Al15  1  0.670396  0.667734  0.452679  1
  Al  Al16  1  0.670396  0.667734  0.047321  1
  Al  Al17  1  0.329604  0.332266  0.952679  1
  Al  Al18  1  0.333735  0.553402  0.250000  1
  Al  Al19  1  0.666265  0.446598  0.750000  1
  Al  Al20  1  0.561257  0.345022  0.250000  1
  Al  Al21  1  0.438743  0.654978  0.750000  1
  Co  Co22  1  0.673050  0.329118  0.999346  1
  Co  Co23  1  0.326950  0.670882  0.000654  1
  Co  Co24  1  0.326950  0.670882  0.499346  1
  Co  Co25  1  0.673050  0.329118  0.500654  1
  Co  Co26  1  0.000000  0.000000  0.000000  1
  Co  Co27  1  0.000000  0.000000  0.500000  1
