# generated using pymatgen
data_Dy7Lu(AlRh)2
_symmetry_space_group_name_H-M   'P 1'
_cell_length_a   9.51058203
_cell_length_b   9.52596592
_cell_length_c   9.52192944
_cell_angle_alpha   59.98598109
_cell_angle_beta   60.08451954
_cell_angle_gamma   59.94647625
_symmetry_Int_Tables_number   1
_chemical_formula_structural   Dy7Lu(AlRh)2
_chemical_formula_sum   'Dy14 Lu2 Al4 Rh4'
_cell_volume   610.07110817
_cell_formula_units_Z   2
loop_
 _symmetry_equiv_pos_site_id
 _symmetry_equiv_pos_as_xyz
  1  'x, y, z'
loop_
 _atom_site_type_symbol
 _atom_site_label
 _atom_site_symmetry_multiplicity
 _atom_site_fract_x
 _atom_site_fract_y
 _atom_site_fract_z
 _atom_site_occupancy
  Dy  Dy0  1  0.309845  0.691404  0.307347  1
  Dy  Dy1  1  0.934398  0.938157  0.562771  1
  Dy  Dy2  1  0.144853  0.148447  0.558252  1
  Dy  Dy3  1  0.563322  0.937883  0.560914  1
  Dy  Dy4  1  0.145881  0.149383  0.148706  1
  Dy  Dy5  1  0.308690  0.306877  0.692478  1
  Dy  Dy6  1  0.934398  0.564675  0.562771  1
  Dy  Dy7  1  0.563174  0.562489  0.937566  1
  Dy  Dy8  1  0.563174  0.936771  0.937566  1
  Dy  Dy9  1  0.934349  0.563412  0.938827  1
  Dy  Dy10  1  0.145881  0.556031  0.148706  1
  Dy  Dy11  1  0.308690  0.691955  0.692478  1
  Dy  Dy12  1  0.691547  0.309170  0.690114  1
  Dy  Dy13  1  0.561919  0.146492  0.145094  1
  Lu  Lu14  1  0.693006  0.308251  0.307607  1
  Lu  Lu15  1  0.693006  0.691135  0.307607  1
  Al  Al16  1  0.923557  0.922223  0.231996  1
  Al  Al17  1  0.232041  0.922297  0.923365  1
  Al  Al18  1  0.922873  0.232296  0.922902  1
  Al  Al19  1  0.922873  0.921928  0.922902  1
  Rh  Rh20  1  0.360426  0.355108  0.357106  1
  Rh  Rh21  1  0.924597  0.359431  0.356542  1
  Rh  Rh22  1  0.357071  0.356825  0.929281  1
  Rh  Rh23  1  0.360426  0.927361  0.357106  1
