# generated using pymatgen
data_LiLu2Cu3O8
_symmetry_space_group_name_H-M   'P 1'
_cell_length_a   6.16806142
_cell_length_b   6.30894785
_cell_length_c   6.22410402
_cell_angle_alpha   127.25739299
_cell_angle_beta   126.22810895
_cell_angle_gamma   80.94956342
_symmetry_Int_Tables_number   1
_chemical_formula_structural   LiLu2Cu3O8
_chemical_formula_sum   'Li1 Lu2 Cu3 O8'
_cell_volume   147.73117140
_cell_formula_units_Z   1
loop_
 _symmetry_equiv_pos_site_id
 _symmetry_equiv_pos_as_xyz
  1  'x, y, z'
loop_
 _atom_site_type_symbol
 _atom_site_label
 _atom_site_symmetry_multiplicity
 _atom_site_fract_x
 _atom_site_fract_y
 _atom_site_fract_z
 _atom_site_occupancy
  Li  Li0  1  0.875000  0.125000  0.250000  1
  Lu  Lu1  1  0.509505  0.487866  0.999993  1
  Lu  Lu2  1  0.240495  0.762134  0.500007  1
  Cu  Cu3  1  0.375000  0.125000  0.250000  1
  Cu  Cu4  1  0.875000  0.125000  0.750000  1
  Cu  Cu5  1  0.875000  0.625000  0.750000  1
  O  O6  1  0.902183  0.362185  0.140999  1
  O  O7  1  0.204311  0.749233  0.853478  1
  O  O8  1  0.847817  0.887815  0.359001  1
  O  O9  1  0.545689  0.500767  0.646522  1
  O  O10  1  0.490347  0.164956  0.057026  1
  O  O11  1  0.085542  0.445928  0.918647  1
  O  O12  1  0.664458  0.804072  0.581353  1
  O  O13  1  0.259653  0.085044  0.442974  1
