# generated using pymatgen
data_KVH5
_symmetry_space_group_name_H-M   'P 1'
_cell_length_a   10.30197900
_cell_length_b   6.85818100
_cell_length_c   4.77863200
_cell_angle_alpha   90.00000000
_cell_angle_beta   90.00000000
_cell_angle_gamma   90.00000000
_symmetry_Int_Tables_number   1
_chemical_formula_structural   KVH5
_chemical_formula_sum   'K4 V4 H20'
_cell_volume   337.62390606
_cell_formula_units_Z   4
loop_
 _symmetry_equiv_pos_site_id
 _symmetry_equiv_pos_as_xyz
  1  'x, y, z'
loop_
 _atom_site_type_symbol
 _atom_site_label
 _atom_site_symmetry_multiplicity
 _atom_site_fract_x
 _atom_site_fract_y
 _atom_site_fract_z
 _atom_site_occupancy
  K  K0  1  0.669186  0.076211  0.342537  1
  K  K1  1  0.169186  0.423788  0.342537  1
  K  K2  1  0.830814  0.576211  0.842537  1
  K  K3  1  0.330814  0.923789  0.842537  1
  V  V4  1  0.518565  0.570201  0.305093  1
  V  V5  1  0.018565  0.929799  0.305093  1
  V  V6  1  0.981435  0.070200  0.805092  1
  V  V7  1  0.481435  0.429800  0.805092  1
  H  H8  1  0.336404  0.315383  0.801437  1
  H  H9  1  0.836404  0.184617  0.801437  1
  H  H10  1  0.973136  0.691524  0.309267  1
  H  H11  1  0.473136  0.808475  0.309267  1
  H  H12  1  0.597270  0.400203  0.078844  1
  H  H13  1  0.097269  0.099797  0.078844  1
  H  H14  1  0.383766  0.529211  0.075652  1
  H  H15  1  0.883766  0.970790  0.075652  1
  H  H16  1  0.957281  0.154816  0.454166  1
  H  H17  1  0.457281  0.345185  0.454166  1
  H  H18  1  0.163596  0.815383  0.301436  1
  H  H19  1  0.663596  0.684616  0.301436  1
  H  H20  1  0.526865  0.191524  0.809269  1
  H  H21  1  0.026865  0.308475  0.809269  1
  H  H22  1  0.902731  0.900202  0.578844  1
  H  H23  1  0.402731  0.599798  0.578844  1
  H  H24  1  0.116234  0.029210  0.575652  1
  H  H25  1  0.616234  0.470790  0.575652  1
  H  H26  1  0.542719  0.654816  0.954168  1
  H  H27  1  0.042719  0.845185  0.954168  1
