# generated using pymatgen
data_Dy4Al15(SiRh2)3
_symmetry_space_group_name_H-M   'P 1'
_cell_length_a   7.53969822
_cell_length_b   7.50248152
_cell_length_c   9.41201977
_cell_angle_alpha   90.00863513
_cell_angle_beta   89.93520265
_cell_angle_gamma   119.83339037
_symmetry_Int_Tables_number   1
_chemical_formula_structural   Dy4Al15(SiRh2)3
_chemical_formula_sum   'Dy4 Al15 Si3 Rh6'
_cell_volume   461.84762209
_cell_formula_units_Z   1
loop_
 _symmetry_equiv_pos_site_id
 _symmetry_equiv_pos_as_xyz
  1  'x, y, z'
loop_
 _atom_site_type_symbol
 _atom_site_label
 _atom_site_symmetry_multiplicity
 _atom_site_fract_x
 _atom_site_fract_y
 _atom_site_fract_z
 _atom_site_occupancy
  Dy  Dy0  1  0.994719  0.663957  0.747468  1
  Dy  Dy1  1  0.005849  0.342086  0.253747  1
  Dy  Dy2  1  0.674447  0.000402  0.747819  1
  Dy  Dy3  1  0.320127  0.992404  0.249780  1
  Al  Al4  1  0.128088  0.125712  0.750050  1
  Al  Al5  1  0.871797  0.871645  0.249216  1
  Al  Al6  1  0.338977  0.003084  0.923547  1
  Al  Al7  1  0.001418  0.329858  0.929517  1
  Al  Al8  1  0.665997  0.002094  0.075205  1
  Al  Al9  1  0.662015  0.997891  0.422382  1
  Al  Al10  1  0.338731  0.003082  0.576945  1
  Al  Al11  1  0.333092  0.331511  0.055402  1
  Al  Al12  1  0.664189  0.668052  0.945426  1
  Al  Al13  1  0.663631  0.667398  0.556022  1
  Al  Al14  1  0.335637  0.332062  0.444870  1
  Al  Al15  1  0.337746  0.549897  0.750215  1
  Al  Al16  1  0.661767  0.451044  0.250337  1
  Al  Al17  1  0.548381  0.342795  0.749937  1
  Al  Al18  1  0.455144  0.658397  0.249769  1
  Si  Si19  1  0.002452  0.328168  0.575899  1
  Si  Si20  1  0.997055  0.672222  0.430879  1
  Si  Si21  1  0.997788  0.665653  0.064941  1
  Rh  Rh22  1  0.689928  0.337594  0.501316  1
  Rh  Rh23  1  0.310314  0.662677  0.497270  1
  Rh  Rh24  1  0.319420  0.670503  0.002861  1
  Rh  Rh25  1  0.680098  0.336305  0.999647  1
  Rh  Rh26  1  0.000089  0.000443  0.499156  1
  Rh  Rh27  1  0.001103  0.993065  0.000378  1
