# generated using pymatgen
data_Er7TmTi12Si15Pb
_symmetry_space_group_name_H-M   'P 1'
_cell_length_a   7.10108918
_cell_length_b   7.05732770
_cell_length_c   12.98387307
_cell_angle_alpha   89.97776894
_cell_angle_beta   89.69045590
_cell_angle_gamma   89.89813816
_symmetry_Int_Tables_number   1
_chemical_formula_structural   Er7TmTi12Si15Pb
_chemical_formula_sum   'Er7 Tm1 Ti12 Si15 Pb1'
_cell_volume   650.67250577
_cell_formula_units_Z   1
loop_
 _symmetry_equiv_pos_site_id
 _symmetry_equiv_pos_as_xyz
  1  'x, y, z'
loop_
 _atom_site_type_symbol
 _atom_site_label
 _atom_site_symmetry_multiplicity
 _atom_site_fract_x
 _atom_site_fract_y
 _atom_site_fract_z
 _atom_site_occupancy
  Er  Er0  1  0.507645  0.834491  0.718514  1
  Er  Er1  1  0.501922  0.159631  0.216907  1
  Er  Er2  1  0.841368  0.497744  0.281974  1
  Er  Er3  1  0.158785  0.511112  0.786685  1
  Er  Er4  1  0.661169  0.996456  0.969302  1
  Er  Er5  1  0.990508  0.350677  0.526072  1
  Er  Er6  1  0.999087  0.658798  0.034321  1
  Tm  Tm7  1  0.345232  0.997689  0.459973  1
  Ti  Ti8  1  0.325956  0.326850  0.001359  1
  Ti  Ti9  1  0.173966  0.826181  0.249740  1
  Ti  Ti10  1  0.813543  0.175243  0.752580  1
  Ti  Ti11  1  0.672650  0.672978  0.499417  1
  Ti  Ti12  1  0.152108  0.007339  0.884246  1
  Ti  Ti13  1  0.492603  0.650223  0.126499  1
  Ti  Ti14  1  0.517255  0.355331  0.626260  1
  Ti  Ti15  1  0.653919  0.493553  0.876072  1
  Ti  Ti16  1  0.348033  0.509125  0.372964  1
  Ti  Ti17  1  0.847443  0.992619  0.375359  1
  Ti  Ti18  1  0.009259  0.151520  0.123806  1
  Ti  Ti19  1  0.977688  0.832248  0.618281  1
  Si  Si20  1  0.370473  0.703412  0.935596  1
  Si  Si21  1  0.628361  0.296787  0.431843  1
  Si  Si22  1  0.703724  0.369023  0.067244  1
  Si  Si23  1  0.297176  0.631517  0.566056  1
  Si  Si24  1  0.797096  0.869510  0.183651  1
  Si  Si25  1  0.130536  0.203029  0.315744  1
  Si  Si26  1  0.869973  0.799750  0.817134  1
  Si  Si27  1  0.292757  0.952211  0.067274  1
  Si  Si28  1  0.549798  0.789431  0.313264  1
  Si  Si29  1  0.460641  0.210379  0.821538  1
  Si  Si30  1  0.794799  0.543993  0.687298  1
  Si  Si31  1  0.209163  0.452981  0.185294  1
  Si  Si32  1  0.706414  0.048027  0.564301  1
  Si  Si33  1  0.952552  0.291855  0.935426  1
  Si  Si34  1  0.048627  0.711334  0.432361  1
  Pb  Pb35  1  0.197769  0.126951  0.675644  1
