# generated using pymatgen
data_YbSm6Sn23Ir6
_symmetry_space_group_name_H-M   'P 1'
_cell_length_a   9.90250900
_cell_length_b   9.90251031
_cell_length_c   10.09561800
_cell_angle_alpha   90.00000000
_cell_angle_beta   90.00000000
_cell_angle_gamma   120.00000565
_symmetry_Int_Tables_number   1
_chemical_formula_structural   YbSm6Sn23Ir6
_chemical_formula_sum   'Yb1 Sm6 Sn23 Ir6'
_cell_volume   857.34193186
_cell_formula_units_Z   1
loop_
 _symmetry_equiv_pos_site_id
 _symmetry_equiv_pos_as_xyz
  1  'x, y, z'
loop_
 _atom_site_type_symbol
 _atom_site_label
 _atom_site_symmetry_multiplicity
 _atom_site_fract_x
 _atom_site_fract_y
 _atom_site_fract_z
 _atom_site_occupancy
  Yb  Yb0  1  0.000000  0.000000  0.000000  1
  Sm  Sm1  1  0.038720  0.519360  0.305982  1
  Sm  Sm2  1  0.480640  0.961280  0.305982  1
  Sm  Sm3  1  0.480640  0.519360  0.305982  1
  Sm  Sm4  1  0.961280  0.480640  0.694018  1
  Sm  Sm5  1  0.519360  0.038720  0.694018  1
  Sm  Sm6  1  0.519360  0.480640  0.694018  1
  Sn  Sn7  1  0.000000  0.000000  0.500000  1
  Sn  Sn8  1  0.116786  0.883214  0.282865  1
  Sn  Sn9  1  0.766428  0.883214  0.282865  1
  Sn  Sn10  1  0.116786  0.233572  0.282865  1
  Sn  Sn11  1  0.883214  0.116786  0.717135  1
  Sn  Sn12  1  0.233572  0.116786  0.717135  1
  Sn  Sn13  1  0.883214  0.766428  0.717135  1
  Sn  Sn14  1  0.351169  0.000000  0.000000  1
  Sn  Sn15  1  0.648831  0.648831  0.000000  1
  Sn  Sn16  1  0.000000  0.351169  0.000000  1
  Sn  Sn17  1  0.351169  0.351169  0.000000  1
  Sn  Sn18  1  0.000000  0.648831  0.000000  1
  Sn  Sn19  1  0.648831  0.000000  0.000000  1
  Sn  Sn20  1  0.777963  0.555926  0.457777  1
  Sn  Sn21  1  0.777963  0.222037  0.457777  1
  Sn  Sn22  1  0.444074  0.222037  0.457777  1
  Sn  Sn23  1  0.222037  0.444074  0.542223  1
  Sn  Sn24  1  0.222037  0.777963  0.542223  1
  Sn  Sn25  1  0.555926  0.777963  0.542223  1
  Sn  Sn26  1  0.666667  0.333333  0.173971  1
  Sn  Sn27  1  0.333333  0.666667  0.826029  1
  Sn  Sn28  1  0.666667  0.333333  0.879598  1
  Sn  Sn29  1  0.333333  0.666667  0.120402  1
  Ir  Ir30  1  0.169601  0.830399  0.800116  1
  Ir  Ir31  1  0.660799  0.830399  0.800116  1
  Ir  Ir32  1  0.169601  0.339201  0.800116  1
  Ir  Ir33  1  0.830399  0.169601  0.199884  1
  Ir  Ir34  1  0.339201  0.169601  0.199884  1
  Ir  Ir35  1  0.830399  0.660799  0.199884  1
