# generated using pymatgen
data_Ta2Nb2AlV(B2Ru5)2
_symmetry_space_group_name_H-M   'P 1'
_cell_length_a   9.30094700
_cell_length_b   9.30094672
_cell_length_c   3.00161500
_cell_angle_alpha   90.00000000
_cell_angle_beta   90.00000000
_cell_angle_gamma   90.10532732
_symmetry_Int_Tables_number   1
_chemical_formula_structural   Ta2Nb2AlV(B2Ru5)2
_chemical_formula_sum   'Ta2 Nb2 Al1 V1 B4 Ru10'
_cell_volume   259.66210840
_cell_formula_units_Z   1
loop_
 _symmetry_equiv_pos_site_id
 _symmetry_equiv_pos_as_xyz
  1  'x, y, z'
loop_
 _atom_site_type_symbol
 _atom_site_label
 _atom_site_symmetry_multiplicity
 _atom_site_fract_x
 _atom_site_fract_y
 _atom_site_fract_z
 _atom_site_occupancy
  Ta  Ta0  1  0.320894  0.824865  0.000000  1
  Ta  Ta1  1  0.679106  0.175135  0.000000  1
  Nb  Nb2  1  0.824572  0.679415  0.000000  1
  Nb  Nb3  1  0.175428  0.320585  0.000000  1
  Al  Al4  1  0.000000  0.000000  0.000000  1
  V  V5  1  0.500000  0.500000  0.000000  1
  B  B6  1  0.627116  0.878734  0.000000  1
  B  B7  1  0.372884  0.121266  0.000000  1
  B  B8  1  0.121060  0.626957  0.000000  1
  B  B9  1  0.878940  0.373043  0.000000  1
  Ru  Ru10  1  0.567278  0.713332  0.500000  1
  Ru  Ru11  1  0.432722  0.286668  0.500000  1
  Ru  Ru12  1  0.072350  0.785111  0.500000  1
  Ru  Ru13  1  0.927650  0.214889  0.500000  1
  Ru  Ru14  1  0.287099  0.568550  0.500000  1
  Ru  Ru15  1  0.712901  0.431450  0.500000  1
  Ru  Ru16  1  0.215471  0.070695  0.500000  1
  Ru  Ru17  1  0.784529  0.929305  0.500000  1
  Ru  Ru18  1  0.500000  0.000000  0.500000  1
  Ru  Ru19  1  0.000000  0.500000  0.500000  1
