# generated using pymatgen
data_Nd6Al24Ir3Os5
_symmetry_space_group_name_H-M   'P 1'
_cell_length_a   8.89473286
_cell_length_b   8.88338783
_cell_length_c   9.69803158
_cell_angle_alpha   90.14817822
_cell_angle_beta   89.98492868
_cell_angle_gamma   119.56590043
_symmetry_Int_Tables_number   1
_chemical_formula_structural   Nd6Al24Ir3Os5
_chemical_formula_sum   'Nd6 Al24 Ir3 Os5'
_cell_volume   666.51075640
_cell_formula_units_Z   1
loop_
 _symmetry_equiv_pos_site_id
 _symmetry_equiv_pos_as_xyz
  1  'x, y, z'
loop_
 _atom_site_type_symbol
 _atom_site_label
 _atom_site_symmetry_multiplicity
 _atom_site_fract_x
 _atom_site_fract_y
 _atom_site_fract_z
 _atom_site_occupancy
  Nd  Nd0  1  0.187212  0.383139  0.250371  1
  Nd  Nd1  1  0.812788  0.616861  0.749629  1
  Nd  Nd2  1  0.618226  0.812440  0.250633  1
  Nd  Nd3  1  0.381774  0.187560  0.749367  1
  Nd  Nd4  1  0.190135  0.807419  0.250654  1
  Nd  Nd5  1  0.809865  0.192581  0.749346  1
  Al  Al6  1  0.331741  0.666056  0.019404  1
  Al  Al7  1  0.668259  0.333944  0.980596  1
  Al  Al8  1  0.667419  0.332331  0.519377  1
  Al  Al9  1  0.332581  0.667669  0.480623  1
  Al  Al10  1  0.163091  0.327649  0.574135  1
  Al  Al11  1  0.836909  0.672351  0.425865  1
  Al  Al12  1  0.672755  0.837588  0.574420  1
  Al  Al13  1  0.837432  0.672965  0.074937  1
  Al  Al14  1  0.327245  0.162412  0.425580  1
  Al  Al15  1  0.162568  0.327035  0.925063  1
  Al  Al16  1  0.164786  0.835936  0.574174  1
  Al  Al17  1  0.326744  0.163944  0.074967  1
  Al  Al18  1  0.835214  0.164064  0.425826  1
  Al  Al19  1  0.673256  0.836056  0.925033  1
  Al  Al20  1  0.837328  0.165972  0.074353  1
  Al  Al21  1  0.162672  0.834028  0.925647  1
  Al  Al22  1  0.561380  0.125900  0.250640  1
  Al  Al23  1  0.438620  0.874100  0.749360  1
  Al  Al24  1  0.873183  0.438179  0.249761  1
  Al  Al25  1  0.126817  0.561821  0.750239  1
  Al  Al26  1  0.562128  0.437712  0.249720  1
  Al  Al27  1  0.437872  0.562288  0.750280  1
  Al  Al28  1  0.998269  0.001080  0.250067  1
  Al  Al29  1  0.001731  0.998920  0.749933  1
  Ir  Ir30  1  0.500000  0.000000  0.000000  1
  Ir  Ir31  1  0.500000  0.500000  0.000000  1
  Ir  Ir32  1  0.500000  0.500000  0.500000  1
  Os  Os33  1  0.000000  0.500000  0.000000  1
  Os  Os34  1  0.500000  0.000000  0.500000  1
  Os  Os35  1  0.000000  0.500000  0.500000  1
  Os  Os36  1  0.000000  0.000000  0.000000  1
  Os  Os37  1  0.000000  0.000000  0.500000  1
