# generated using pymatgen
data_Hf2Ta2Fe3Co5P6
_symmetry_space_group_name_H-M   'P 1'
_cell_length_a   12.00462600
_cell_length_b   11.97982828
_cell_length_c   3.62716000
_cell_angle_alpha   90.00000000
_cell_angle_beta   90.00000000
_cell_angle_gamma   120.29780479
_symmetry_Int_Tables_number   1
_chemical_formula_structural   Hf2Ta2Fe3Co5P6
_chemical_formula_sum   'Hf4 Ta4 Fe6 Co10 P12'
_cell_volume   450.38660926
_cell_formula_units_Z   2
loop_
 _symmetry_equiv_pos_site_id
 _symmetry_equiv_pos_as_xyz
  1  'x, y, z'
loop_
 _atom_site_type_symbol
 _atom_site_label
 _atom_site_symmetry_multiplicity
 _atom_site_fract_x
 _atom_site_fract_y
 _atom_site_fract_z
 _atom_site_occupancy
  Hf  Hf0  1  0.666696  0.333357  0.000000  1
  Hf  Hf1  1  0.329525  0.664479  0.000000  1
  Hf  Hf2  1  0.177502  0.000123  0.500000  1
  Hf  Hf3  1  0.001856  0.180438  0.500000  1
  Ta  Ta4  1  0.443981  0.444925  0.000000  1
  Ta  Ta5  1  0.555817  0.999691  0.000000  1
  Ta  Ta6  1  0.999540  0.556325  0.000000  1
  Ta  Ta7  1  0.823398  0.821806  0.500000  1
  Fe  Fe8  1  0.197232  0.372569  0.000000  1
  Fe  Fe9  1  0.176946  0.804829  0.000000  1
  Fe  Fe10  1  0.822556  0.629745  0.000000  1
  Fe  Fe11  1  0.804581  0.176194  0.000000  1
  Fe  Fe12  1  0.374889  0.196638  0.000000  1
  Fe  Fe13  1  0.124471  0.481958  0.500000  1
  Co  Co14  1  0.356806  0.871949  0.500000  1
  Co  Co15  1  0.517470  0.645869  0.500000  1
  Co  Co16  1  0.643799  0.518639  0.500000  1
  Co  Co17  1  0.869798  0.357662  0.500000  1
  Co  Co18  1  0.485770  0.127379  0.500000  1
  Co  Co19  1  0.997710  0.997268  0.000000  1
  Co  Co20  1  0.720019  0.995143  0.500000  1
  Co  Co21  1  0.997751  0.721323  0.500000  1
  Co  Co22  1  0.630809  0.822331  0.000000  1
  Co  Co23  1  0.279896  0.278477  0.500000  1
  P  P24  1  0.654414  0.652616  0.000000  1
  P  P25  1  0.347455  0.000197  0.000000  1
  P  P26  1  0.002543  0.349693  0.000000  1
  P  P27  1  0.481655  0.309902  0.500000  1
  P  P28  1  0.691338  0.171204  0.500000  1
  P  P29  1  0.827733  0.519176  0.500000  1
  P  P30  1  0.515773  0.827440  0.500000  1
  P  P31  1  0.169944  0.688756  0.500000  1
  P  P32  1  0.827004  0.002104  0.000000  1
  P  P33  1  0.000480  0.824705  0.000000  1
  P  P34  1  0.307969  0.480852  0.500000  1
  P  P35  1  0.174875  0.174237  0.000000  1
