# generated using pymatgen
data_Lu7Hf9(Si4Mo)4
_symmetry_space_group_name_H-M   'P 1'
_cell_length_a   7.09415135
_cell_length_b   7.09143684
_cell_length_c   12.91829458
_cell_angle_alpha   90.09628720
_cell_angle_beta   90.00784289
_cell_angle_gamma   89.96494614
_symmetry_Int_Tables_number   1
_chemical_formula_structural   Lu7Hf9(Si4Mo)4
_chemical_formula_sum   'Lu7 Hf9 Si16 Mo4'
_cell_volume   649.88898172
_cell_formula_units_Z   1
loop_
 _symmetry_equiv_pos_site_id
 _symmetry_equiv_pos_as_xyz
  1  'x, y, z'
loop_
 _atom_site_type_symbol
 _atom_site_label
 _atom_site_symmetry_multiplicity
 _atom_site_fract_x
 _atom_site_fract_y
 _atom_site_fract_z
 _atom_site_occupancy
  Lu  Lu0  1  0.498579  0.155188  0.532768  1
  Lu  Lu1  1  0.501507  0.845547  0.033845  1
  Lu  Lu2  1  0.656158  0.002512  0.282577  1
  Lu  Lu3  1  0.345322  0.998402  0.783744  1
  Lu  Lu4  1  0.844893  0.501314  0.967171  1
  Lu  Lu5  1  0.154268  0.498500  0.467002  1
  Lu  Lu6  1  0.001419  0.654826  0.716501  1
  Hf  Hf7  1  0.001978  0.346749  0.216587  1
  Hf  Hf8  1  0.493775  0.355091  0.125316  1
  Hf  Hf9  1  0.505353  0.644525  0.624214  1
  Hf  Hf10  1  0.855233  0.006743  0.875593  1
  Hf  Hf11  1  0.143034  0.994621  0.373188  1
  Hf  Hf12  1  0.645032  0.504483  0.374294  1
  Hf  Hf13  1  0.355144  0.494429  0.876305  1
  Hf  Hf14  1  0.005219  0.855846  0.126364  1
  Hf  Hf15  1  0.993765  0.145005  0.624895  1
  Si  Si16  1  0.800071  0.146092  0.072018  1
  Si  Si17  1  0.203120  0.857227  0.568347  1
  Si  Si18  1  0.642901  0.702923  0.818625  1
  Si  Si19  1  0.353059  0.298582  0.318042  1
  Si  Si20  1  0.857867  0.205057  0.429108  1
  Si  Si21  1  0.142426  0.796320  0.931782  1
  Si  Si22  1  0.706504  0.640632  0.180406  1
  Si  Si23  1  0.297161  0.356925  0.681321  1
  Si  Si24  1  0.550915  0.202205  0.933983  1
  Si  Si25  1  0.449251  0.798048  0.433119  1
  Si  Si26  1  0.701670  0.949567  0.683505  1
  Si  Si27  1  0.297261  0.051868  0.183353  1
  Si  Si28  1  0.798313  0.449869  0.566062  1
  Si  Si29  1  0.199900  0.548458  0.067763  1
  Si  Si30  1  0.951147  0.697559  0.315646  1
  Si  Si31  1  0.050547  0.298344  0.816447  1
  Mo  Mo32  1  0.676526  0.323295  0.749918  1
  Mo  Mo33  1  0.321540  0.673969  0.249986  1
  Mo  Mo34  1  0.823990  0.822367  0.499040  1
  Mo  Mo35  1  0.175155  0.176911  0.001164  1
