# generated using pymatgen
data_Zr2Pa(ZnIr)3
_symmetry_space_group_name_H-M   'P 1'
_cell_length_a   7.20478400
_cell_length_b   7.07517359
_cell_length_c   3.70798500
_cell_angle_alpha   90.00000000
_cell_angle_beta   90.00000000
_cell_angle_gamma   120.60786208
_symmetry_Int_Tables_number   1
_chemical_formula_structural   Zr2Pa(ZnIr)3
_chemical_formula_sum   'Zr2 Pa1 Zn3 Ir3'
_cell_volume   162.67986123
_cell_formula_units_Z   1
loop_
 _symmetry_equiv_pos_site_id
 _symmetry_equiv_pos_as_xyz
  1  'x, y, z'
loop_
 _atom_site_type_symbol
 _atom_site_label
 _atom_site_symmetry_multiplicity
 _atom_site_fract_x
 _atom_site_fract_y
 _atom_site_fract_z
 _atom_site_occupancy
  Zr  Zr0  1  0.001268  0.600441  0.000000  1
  Zr  Zr1  1  0.400827  0.399559  0.000000  1
  Pa  Pa2  1  0.587994  0.000000  0.000000  1
  Zn  Zn3  1  0.242790  0.000000  0.500000  1
  Zn  Zn4  1  0.013864  0.268276  0.500000  1
  Zn  Zn5  1  0.745588  0.731724  0.500000  1
  Ir  Ir6  1  0.346257  0.679284  0.500000  1
  Ir  Ir7  1  0.666974  0.320716  0.500000  1
  Ir  Ir8  1  0.994438  0.000000  0.000000  1
