# generated using pymatgen
data_CaCdPbO4
_symmetry_space_group_name_H-M   'P 1'
_cell_length_a   3.40163000
_cell_length_b   5.81389846
_cell_length_c   10.03035177
_cell_angle_alpha   90.88877946
_cell_angle_beta   90.00000000
_cell_angle_gamma   90.00000000
_symmetry_Int_Tables_number   1
_chemical_formula_structural   CaCdPbO4
_chemical_formula_sum   'Ca2 Cd2 Pb2 O8'
_cell_volume   198.34370722
_cell_formula_units_Z   2
loop_
 _symmetry_equiv_pos_site_id
 _symmetry_equiv_pos_as_xyz
  1  'x, y, z'
loop_
 _atom_site_type_symbol
 _atom_site_label
 _atom_site_symmetry_multiplicity
 _atom_site_fract_x
 _atom_site_fract_y
 _atom_site_fract_z
 _atom_site_occupancy
  Ca  Ca0  1  0.500000  0.931246  0.317084  1
  Ca  Ca1  1  0.500000  0.068754  0.682916  1
  Cd  Cd2  1  0.500000  0.432784  0.176492  1
  Cd  Cd3  1  0.500000  0.567216  0.823508  1
  Pb  Pb4  1  0.000000  0.500000  0.500000  1
  Pb  Pb5  1  0.000000  0.000000  0.000000  1
  O  O6  1  0.000000  0.143897  0.200326  1
  O  O7  1  0.000000  0.856103  0.799674  1
  O  O8  1  0.000000  0.639359  0.298541  1
  O  O9  1  0.000000  0.360641  0.701459  1
  O  O10  1  0.500000  0.252591  0.461129  1
  O  O11  1  0.500000  0.747409  0.538871  1
  O  O12  1  0.500000  0.759216  0.046450  1
  O  O13  1  0.500000  0.240784  0.953550  1
