# generated using pymatgen
data_AlCr3(SiRu3)2
_symmetry_space_group_name_H-M   'P 1'
_cell_length_a   4.20952700
_cell_length_b   5.95115500
_cell_length_c   12.57603100
_cell_angle_alpha   90.00000000
_cell_angle_beta   90.00054558
_cell_angle_gamma   90.00000000
_symmetry_Int_Tables_number   1
_chemical_formula_structural   AlCr3(SiRu3)2
_chemical_formula_sum   'Al2 Cr6 Si4 Ru12'
_cell_volume   315.04903988
_cell_formula_units_Z   2
loop_
 _symmetry_equiv_pos_site_id
 _symmetry_equiv_pos_as_xyz
  1  'x, y, z'
loop_
 _atom_site_type_symbol
 _atom_site_label
 _atom_site_symmetry_multiplicity
 _atom_site_fract_x
 _atom_site_fract_y
 _atom_site_fract_z
 _atom_site_occupancy
  Al  Al0  1  0.000006  0.000000  0.998966  1
  Al  Al1  1  0.499802  0.500001  0.167912  1
  Cr  Cr2  1  0.999999  0.500001  0.002714  1
  Cr  Cr3  1  0.499836  0.000000  0.164122  1
  Cr  Cr4  1  0.999848  0.500001  0.331609  1
  Cr  Cr5  1  0.500001  0.000000  0.500591  1
  Cr  Cr6  1  0.000179  0.500001  0.665931  1
  Cr  Cr7  1  0.500143  0.000000  0.835106  1
  Si  Si8  1  0.999809  0.000000  0.334860  1
  Si  Si9  1  0.500005  0.500001  0.500004  1
  Si  Si10  1  0.000214  0.000000  0.666534  1
  Si  Si11  1  0.500180  0.500001  0.831752  1
  Ru  Ru12  1  0.500007  0.253822  0.997100  1
  Ru  Ru13  1  0.500007  0.746178  0.997100  1
  Ru  Ru14  1  0.999854  0.246156  0.169706  1
  Ru  Ru15  1  0.999854  0.753844  0.169706  1
  Ru  Ru16  1  0.499852  0.246826  0.336806  1
  Ru  Ru17  1  0.499852  0.753174  0.336806  1
  Ru  Ru18  1  0.000001  0.249649  0.500725  1
  Ru  Ru19  1  0.000001  0.750351  0.500725  1
  Ru  Ru20  1  0.500146  0.250588  0.665850  1
  Ru  Ru21  1  0.500146  0.749412  0.665850  1
  Ru  Ru22  1  0.000133  0.253163  0.829761  1
  Ru  Ru23  1  0.000133  0.746837  0.829761  1
