# generated using pymatgen
data_Cs6HoNpBr12
_symmetry_space_group_name_H-M   'P 1'
_cell_length_a   10.05207947
_cell_length_b   10.05524753
_cell_length_c   8.37811100
_cell_angle_alpha   90.00000000
_cell_angle_beta   90.00000000
_cell_angle_gamma   89.83289726
_symmetry_Int_Tables_number   1
_chemical_formula_structural   Cs6HoNpBr12
_chemical_formula_sum   'Cs6 Ho1 Np1 Br12'
_cell_volume   846.82357964
_cell_formula_units_Z   1
loop_
 _symmetry_equiv_pos_site_id
 _symmetry_equiv_pos_as_xyz
  1  'x, y, z'
loop_
 _atom_site_type_symbol
 _atom_site_label
 _atom_site_symmetry_multiplicity
 _atom_site_fract_x
 _atom_site_fract_y
 _atom_site_fract_z
 _atom_site_occupancy
  Cs  Cs0  1  0.000000  0.000000  0.500000  1
  Cs  Cs1  1  0.000000  0.000000  0.000000  1
  Cs  Cs2  1  0.233591  0.585043  0.500000  1
  Cs  Cs3  1  0.766409  0.414957  0.500000  1
  Cs  Cs4  1  0.415020  0.236290  0.000000  1
  Cs  Cs5  1  0.584980  0.763710  0.000000  1
  Ho  Ho6  1  0.000000  0.500000  0.000000  1
  Np  Np7  1  0.500000  0.000000  0.500000  1
  Br  Br8  1  0.696519  0.060144  0.743886  1
  Br  Br9  1  0.303481  0.939856  0.743886  1
  Br  Br10  1  0.942691  0.690216  0.237926  1
  Br  Br11  1  0.057309  0.309784  0.237926  1
  Br  Br12  1  0.303481  0.939856  0.256114  1
  Br  Br13  1  0.696519  0.060144  0.256114  1
  Br  Br14  1  0.057309  0.309784  0.762074  1
  Br  Br15  1  0.942691  0.690216  0.762074  1
  Br  Br16  1  0.568864  0.721753  0.500000  1
  Br  Br17  1  0.431136  0.278247  0.500000  1
  Br  Br18  1  0.268901  0.568895  0.000000  1
  Br  Br19  1  0.731099  0.431105  0.000000  1
