# generated using pymatgen
data_CeY2(InNi)3
_symmetry_space_group_name_H-M   'P 1'
_cell_length_a   7.53953800
_cell_length_b   7.43822545
_cell_length_c   3.86155700
_cell_angle_alpha   90.00000000
_cell_angle_beta   90.00000000
_cell_angle_gamma   120.45159559
_symmetry_Int_Tables_number   1
_chemical_formula_structural   CeY2(InNi)3
_chemical_formula_sum   'Ce1 Y2 In3 Ni3'
_cell_volume   186.68646048
_cell_formula_units_Z   1
loop_
 _symmetry_equiv_pos_site_id
 _symmetry_equiv_pos_as_xyz
  1  'x, y, z'
loop_
 _atom_site_type_symbol
 _atom_site_label
 _atom_site_symmetry_multiplicity
 _atom_site_fract_x
 _atom_site_fract_y
 _atom_site_fract_z
 _atom_site_occupancy
  Ce  Ce0  1  0.584011  0.000000  0.000000  1
  Y  Y1  1  0.000744  0.590353  0.000000  1
  Y  Y2  1  0.410392  0.409647  0.000000  1
  In  In3  1  0.748420  0.743264  0.500000  1
  In  In4  1  0.005156  0.256736  0.500000  1
  In  In5  1  0.245817  0.000000  0.500000  1
  Ni  Ni6  1  0.345368  0.681355  0.500000  1
  Ni  Ni7  1  0.996079  0.000000  0.000000  1
  Ni  Ni8  1  0.664014  0.318645  0.500000  1
