# generated using pymatgen
data_Hf3Ga3Cu2Ru
_symmetry_space_group_name_H-M   'P 1'
_cell_length_a   7.13622000
_cell_length_b   7.13622017
_cell_length_c   3.35909200
_cell_angle_alpha   90.00000000
_cell_angle_beta   90.00000000
_cell_angle_gamma   119.99999923
_symmetry_Int_Tables_number   1
_chemical_formula_structural   Hf3Ga3Cu2Ru
_chemical_formula_sum   'Hf3 Ga3 Cu2 Ru1'
_cell_volume   148.14568433
_cell_formula_units_Z   1
loop_
 _symmetry_equiv_pos_site_id
 _symmetry_equiv_pos_as_xyz
  1  'x, y, z'
loop_
 _atom_site_type_symbol
 _atom_site_label
 _atom_site_symmetry_multiplicity
 _atom_site_fract_x
 _atom_site_fract_y
 _atom_site_fract_z
 _atom_site_occupancy
  Hf  Hf0  1  0.396990  0.387705  0.500000  1
  Hf  Hf1  1  0.612295  0.009285  0.500000  1
  Hf  Hf2  1  0.990715  0.603010  0.500000  1
  Ga  Ga3  1  0.728306  0.738291  0.000000  1
  Ga  Ga4  1  0.261709  0.990017  0.000000  1
  Ga  Ga5  1  0.009983  0.271694  0.000000  1
  Cu  Cu6  1  0.333333  0.666667  0.000000  1
  Cu  Cu7  1  0.000000  0.000000  0.500000  1
  Ru  Ru8  1  0.666667  0.333333  0.000000  1
