# generated using pymatgen
data_AcAl3Au
_symmetry_space_group_name_H-M   'P 1'
_cell_length_a   6.36452881
_cell_length_b   6.36452927
_cell_length_c   6.36452845
_cell_angle_alpha   138.81964972
_cell_angle_beta   138.81965033
_cell_angle_gamma   59.64995588
_symmetry_Int_Tables_number   1
_chemical_formula_structural   AcAl3Au
_chemical_formula_sum   'Ac1 Al3 Au1'
_cell_volume   110.64983470
_cell_formula_units_Z   1
loop_
 _symmetry_equiv_pos_site_id
 _symmetry_equiv_pos_as_xyz
  1  'x, y, z'
loop_
 _atom_site_type_symbol
 _atom_site_label
 _atom_site_symmetry_multiplicity
 _atom_site_fract_x
 _atom_site_fract_y
 _atom_site_fract_z
 _atom_site_occupancy
  Ac  Ac0  1  0.993741  0.993741  0.000000  1
  Al  Al1  1  0.394488  0.394488  0.000000  1
  Al  Al2  1  0.249710  0.749710  0.500000  1
  Al  Al3  1  0.749710  0.249710  0.500000  1
  Au  Au4  1  0.628351  0.628351  0.000000  1
