# generated using pymatgen
data_Er5Th(SnIr)6
_symmetry_space_group_name_H-M   'P 1'
_cell_length_a   7.49747067
_cell_length_b   7.53889925
_cell_length_c   7.89214700
_cell_angle_alpha   90.00000000
_cell_angle_beta   90.00000000
_cell_angle_gamma   120.19538654
_symmetry_Int_Tables_number   1
_chemical_formula_structural   Er5Th(SnIr)6
_chemical_formula_sum   'Er5 Th1 Sn6 Ir6'
_cell_volume   385.55832312
_cell_formula_units_Z   1
loop_
 _symmetry_equiv_pos_site_id
 _symmetry_equiv_pos_as_xyz
  1  'x, y, z'
loop_
 _atom_site_type_symbol
 _atom_site_label
 _atom_site_symmetry_multiplicity
 _atom_site_fract_x
 _atom_site_fract_y
 _atom_site_fract_z
 _atom_site_occupancy
  Er  Er0  1  0.403881  0.001985  0.250000  1
  Er  Er1  1  0.595143  0.592917  0.750000  1
  Er  Er2  1  0.596358  0.597581  0.250000  1
  Er  Er3  1  0.000536  0.403358  0.750000  1
  Er  Er4  1  0.404579  0.997356  0.750000  1
  Th  Th5  1  0.999790  0.412821  0.250000  1
  Sn  Sn6  1  0.265129  0.258876  0.501932  1
  Sn  Sn7  1  0.265129  0.258876  0.998068  1
  Sn  Sn8  1  0.734857  0.993848  0.998048  1
  Sn  Sn9  1  0.999974  0.746457  0.505784  1
  Sn  Sn10  1  0.734857  0.993848  0.501952  1
  Sn  Sn11  1  0.999974  0.746457  0.994216  1
  Ir  Ir12  1  0.672333  0.333662  0.501049  1
  Ir  Ir13  1  0.672333  0.333662  0.998951  1
  Ir  Ir14  1  0.327649  0.661425  0.000103  1
  Ir  Ir15  1  0.327649  0.661425  0.499897  1
  Ir  Ir16  1  0.999968  0.002580  0.750000  1
  Ir  Ir17  1  0.999862  0.002866  0.250000  1
