# generated using pymatgen
data_K6CdS4
_symmetry_space_group_name_H-M   'P 1'
_cell_length_a   10.09357000
_cell_length_b   10.09356997
_cell_length_c   7.78282700
_cell_angle_alpha   90.00000000
_cell_angle_beta   90.00000000
_cell_angle_gamma   120.00000010
_symmetry_Int_Tables_number   1
_chemical_formula_structural   K6CdS4
_chemical_formula_sum   'K12 Cd2 S8'
_cell_volume   686.68507051
_cell_formula_units_Z   2
loop_
 _symmetry_equiv_pos_site_id
 _symmetry_equiv_pos_as_xyz
  1  'x, y, z'
loop_
 _atom_site_type_symbol
 _atom_site_label
 _atom_site_symmetry_multiplicity
 _atom_site_fract_x
 _atom_site_fract_y
 _atom_site_fract_z
 _atom_site_occupancy
  K  K0  1  0.148366  0.296733  0.206736  1
  K  K1  1  0.148366  0.851634  0.206736  1
  K  K2  1  0.703267  0.851634  0.206736  1
  K  K3  1  0.851634  0.703267  0.706736  1
  K  K4  1  0.851634  0.148366  0.706736  1
  K  K5  1  0.296733  0.148366  0.706736  1
  K  K6  1  0.529501  0.059003  0.378758  1
  K  K7  1  0.529501  0.470499  0.378758  1
  K  K8  1  0.940997  0.470499  0.378758  1
  K  K9  1  0.470499  0.940997  0.878758  1
  K  K10  1  0.470499  0.529501  0.878758  1
  K  K11  1  0.059003  0.529501  0.878758  1
  Cd  Cd12  1  0.333333  0.666667  0.499387  1
  Cd  Cd13  1  0.666667  0.333333  0.999387  1
  S  S14  1  0.333333  0.666667  0.162632  1
  S  S15  1  0.666667  0.333333  0.662632  1
  S  S16  1  0.808611  0.617221  0.101494  1
  S  S17  1  0.808611  0.191389  0.101494  1
  S  S18  1  0.382779  0.191389  0.101494  1
  S  S19  1  0.191389  0.382779  0.601494  1
  S  S20  1  0.191389  0.808611  0.601494  1
  S  S21  1  0.617221  0.808611  0.601494  1
