# generated using pymatgen
data_Ce3In3NiIrRh
_symmetry_space_group_name_H-M   'P 1'
_cell_length_a   7.54587200
_cell_length_b   7.54587300
_cell_length_c   3.93388600
_cell_angle_alpha   90.00000000
_cell_angle_beta   90.00000000
_cell_angle_gamma   119.99999562
_symmetry_Int_Tables_number   1
_chemical_formula_structural   Ce3In3NiIrRh
_chemical_formula_sum   'Ce3 In3 Ni1 Ir1 Rh1'
_cell_volume   193.98642829
_cell_formula_units_Z   1
loop_
 _symmetry_equiv_pos_site_id
 _symmetry_equiv_pos_as_xyz
  1  'x, y, z'
loop_
 _atom_site_type_symbol
 _atom_site_label
 _atom_site_symmetry_multiplicity
 _atom_site_fract_x
 _atom_site_fract_y
 _atom_site_fract_z
 _atom_site_occupancy
  Ce  Ce0  1  0.416228  0.414952  0.000000  1
  Ce  Ce1  1  0.585048  0.001276  0.000000  1
  Ce  Ce2  1  0.998724  0.583772  0.000000  1
  In  In3  1  0.000387  0.244668  0.500000  1
  In  In4  1  0.755332  0.755719  0.500000  1
  In  In5  1  0.244281  0.999613  0.500000  1
  Ni  Ni6  1  0.000000  0.000000  0.000000  1
  Ir  Ir7  1  0.666667  0.333333  0.500000  1
  Rh  Rh8  1  0.333333  0.666667  0.500000  1
