# generated using pymatgen
data_Sc8Ti2Nb9Si16Rh
_symmetry_space_group_name_H-M   'P 1'
_cell_length_a   6.67179268
_cell_length_b   6.89858804
_cell_length_c   13.08270975
_cell_angle_alpha   90.03887501
_cell_angle_beta   89.99740554
_cell_angle_gamma   90.30032370
_symmetry_Int_Tables_number   1
_chemical_formula_structural   Sc8Ti2Nb9Si16Rh
_chemical_formula_sum   'Sc8 Ti2 Nb9 Si16 Rh1'
_cell_volume   602.13572340
_cell_formula_units_Z   1
loop_
 _symmetry_equiv_pos_site_id
 _symmetry_equiv_pos_as_xyz
  1  'x, y, z'
loop_
 _atom_site_type_symbol
 _atom_site_label
 _atom_site_symmetry_multiplicity
 _atom_site_fract_x
 _atom_site_fract_y
 _atom_site_fract_z
 _atom_site_occupancy
  Sc  Sc0  1  0.497068  0.675503  0.593522  1
  Sc  Sc1  1  0.002618  0.829714  0.907066  1
  Sc  Sc2  1  0.498948  0.325605  0.094849  1
  Sc  Sc3  1  0.999094  0.174189  0.404107  1
  Sc  Sc4  1  0.498793  0.326295  0.405282  1
  Sc  Sc5  1  0.999209  0.173368  0.096290  1
  Sc  Sc6  1  0.498186  0.675541  0.905895  1
  Sc  Sc7  1  0.002919  0.825678  0.592984  1
  Ti  Ti8  1  0.669913  0.171356  0.627720  1
  Ti  Ti9  1  0.161531  0.324382  0.872448  1
  Nb  Nb10  1  0.334882  0.824935  0.124122  1
  Nb  Nb11  1  0.836013  0.674218  0.377397  1
  Nb  Nb12  1  0.335179  0.825563  0.375729  1
  Nb  Nb13  1  0.836439  0.673760  0.122619  1
  Nb  Nb14  1  0.669817  0.171342  0.872449  1
  Nb  Nb15  1  0.164383  0.323500  0.627542  1
  Nb  Nb16  1  0.338454  0.002758  0.749774  1
  Nb  Nb17  1  0.162305  0.507028  0.249779  1
  Nb  Nb18  1  0.661943  0.993958  0.250106  1
  Si  Si19  1  0.669589  0.969770  0.462294  1
  Si  Si20  1  0.167796  0.529259  0.036040  1
  Si  Si21  1  0.333154  0.037976  0.958823  1
  Si  Si22  1  0.829507  0.462228  0.543051  1
  Si  Si23  1  0.335445  0.035231  0.540790  1
  Si  Si24  1  0.831211  0.464876  0.957691  1
  Si  Si25  1  0.668996  0.967008  0.039033  1
  Si  Si26  1  0.167553  0.532382  0.462346  1
  Si  Si27  1  0.469235  0.388300  0.750763  1
  Si  Si28  1  0.962108  0.104272  0.749729  1
  Si  Si29  1  0.539555  0.613704  0.250004  1
  Si  Si30  1  0.038038  0.887539  0.249930  1
  Si  Si31  1  0.706397  0.857486  0.748260  1
  Si  Si32  1  0.197302  0.631701  0.750940  1
  Si  Si33  1  0.294535  0.138149  0.250337  1
  Si  Si34  1  0.792869  0.363598  0.249831  1
  Rh  Rh35  1  0.829013  0.517824  0.750460  1
