# generated using pymatgen
data_Tb8DyYRu4
_symmetry_space_group_name_H-M   'P 1'
_cell_length_a   8.53778819
_cell_length_b   8.54044009
_cell_length_c   7.28521063
_cell_angle_alpha   83.40234102
_cell_angle_beta   83.32242202
_cell_angle_gamma   43.97029806
_symmetry_Int_Tables_number   1
_chemical_formula_structural   Tb8DyYRu4
_chemical_formula_sum   'Tb8 Dy1 Y1 Ru4'
_cell_volume   365.93532916
_cell_formula_units_Z   1
loop_
 _symmetry_equiv_pos_site_id
 _symmetry_equiv_pos_as_xyz
  1  'x, y, z'
loop_
 _atom_site_type_symbol
 _atom_site_label
 _atom_site_symmetry_multiplicity
 _atom_site_fract_x
 _atom_site_fract_y
 _atom_site_fract_z
 _atom_site_occupancy
  Tb  Tb0  1  0.020672  0.793244  0.915440  1
  Tb  Tb1  1  0.206372  0.359657  0.314029  1
  Tb  Tb2  1  0.640312  0.793675  0.185732  1
  Tb  Tb3  1  0.793378  0.640538  0.685851  1
  Tb  Tb4  1  0.359516  0.206384  0.814300  1
  Tb  Tb5  1  0.979687  0.206472  0.085145  1
  Tb  Tb6  1  0.793223  0.020703  0.414929  1
  Tb  Tb7  1  0.577446  0.422639  0.749973  1
  Dy  Dy8  1  0.423030  0.576799  0.249945  1
  Y  Y9  1  0.207106  0.978821  0.584222  1
  Ru  Ru10  1  0.175293  0.603829  0.574594  1
  Ru  Ru11  1  0.396841  0.824251  0.926268  1
  Ru  Ru12  1  0.823597  0.397739  0.424368  1
  Ru  Ru13  1  0.603527  0.175249  0.075204  1
