# generated using pymatgen
data_Dy5Tm5(Bi2Os)2
_symmetry_space_group_name_H-M   'P 1'
_cell_length_a   7.90858277
_cell_length_b   8.99610000
_cell_length_c   12.47738600
_cell_angle_alpha   90.00000000
_cell_angle_beta   89.86869587
_cell_angle_gamma   90.00000000
_symmetry_Int_Tables_number   1
_chemical_formula_structural   Dy5Tm5(Bi2Os)2
_chemical_formula_sum   'Dy10 Tm10 Bi8 Os4'
_cell_volume   887.71878211
_cell_formula_units_Z   2
loop_
 _symmetry_equiv_pos_site_id
 _symmetry_equiv_pos_as_xyz
  1  'x, y, z'
loop_
 _atom_site_type_symbol
 _atom_site_label
 _atom_site_symmetry_multiplicity
 _atom_site_fract_x
 _atom_site_fract_y
 _atom_site_fract_z
 _atom_site_occupancy
  Dy  Dy0  1  0.339511  0.250000  0.709335  1
  Dy  Dy1  1  0.660489  0.750000  0.290665  1
  Dy  Dy2  1  0.375629  0.750000  0.690544  1
  Dy  Dy3  1  0.624371  0.250000  0.309456  1
  Dy  Dy4  1  0.875074  0.250000  0.809420  1
  Dy  Dy5  1  0.124926  0.750000  0.190580  1
  Dy  Dy6  1  0.941950  0.750000  0.504478  1
  Dy  Dy7  1  0.058050  0.250000  0.495522  1
  Dy  Dy8  1  0.441588  0.250000  0.995225  1
  Dy  Dy9  1  0.558412  0.750000  0.004775  1
  Tm  Tm10  1  0.841218  0.750000  0.792775  1
  Tm  Tm11  1  0.158782  0.250000  0.207225  1
  Tm  Tm12  1  0.671640  0.041988  0.564847  1
  Tm  Tm13  1  0.328360  0.958012  0.435153  1
  Tm  Tm14  1  0.171464  0.957284  0.935061  1
  Tm  Tm15  1  0.328360  0.541988  0.435153  1
  Tm  Tm16  1  0.828536  0.042716  0.064939  1
  Tm  Tm17  1  0.671640  0.458012  0.564847  1
  Tm  Tm18  1  0.828536  0.457284  0.064939  1
  Tm  Tm19  1  0.171464  0.542716  0.935061  1
  Bi  Bi20  1  0.566928  0.494564  0.827475  1
  Bi  Bi21  1  0.433072  0.505436  0.172525  1
  Bi  Bi22  1  0.064595  0.507255  0.672580  1
  Bi  Bi23  1  0.433072  0.994564  0.172525  1
  Bi  Bi24  1  0.935405  0.492745  0.327420  1
  Bi  Bi25  1  0.566928  0.005436  0.827475  1
  Bi  Bi26  1  0.935405  0.007255  0.327420  1
  Bi  Bi27  1  0.064595  0.992745  0.672580  1
  Os  Os28  1  0.573481  0.750000  0.508253  1
  Os  Os29  1  0.426519  0.250000  0.491747  1
  Os  Os30  1  0.074099  0.250000  0.991467  1
  Os  Os31  1  0.925901  0.750000  0.008533  1
