# generated using pymatgen
data_EuScMn12P7
_symmetry_space_group_name_H-M   'P 1'
_cell_length_a   9.39469000
_cell_length_b   9.39468983
_cell_length_c   3.49259500
_cell_angle_alpha   90.00000000
_cell_angle_beta   90.00000000
_cell_angle_gamma   120.00000061
_symmetry_Int_Tables_number   1
_chemical_formula_structural   EuScMn12P7
_chemical_formula_sum   'Eu1 Sc1 Mn12 P7'
_cell_volume   266.95850227
_cell_formula_units_Z   1
loop_
 _symmetry_equiv_pos_site_id
 _symmetry_equiv_pos_as_xyz
  1  'x, y, z'
loop_
 _atom_site_type_symbol
 _atom_site_label
 _atom_site_symmetry_multiplicity
 _atom_site_fract_x
 _atom_site_fract_y
 _atom_site_fract_z
 _atom_site_occupancy
  Eu  Eu0  1  0.666667  0.333333  0.500000  1
  Sc  Sc1  1  0.000000  0.000000  0.000000  1
  Mn  Mn2  1  0.378991  0.286656  0.000000  1
  Mn  Mn3  1  0.907665  0.621009  0.000000  1
  Mn  Mn4  1  0.713344  0.092335  0.000000  1
  Mn  Mn5  1  0.609589  0.785746  0.000000  1
  Mn  Mn6  1  0.176158  0.390411  0.000000  1
  Mn  Mn7  1  0.214254  0.823842  0.000000  1
  Mn  Mn8  1  0.769793  0.719902  0.500000  1
  Mn  Mn9  1  0.950110  0.230207  0.500000  1
  Mn  Mn10  1  0.280098  0.049890  0.500000  1
  Mn  Mn11  1  0.433753  0.535299  0.500000  1
  Mn  Mn12  1  0.101547  0.566247  0.500000  1
  Mn  Mn13  1  0.464701  0.898453  0.500000  1
  P  P14  1  0.622240  0.547225  0.000000  1
  P  P15  1  0.924986  0.377760  0.000000  1
  P  P16  1  0.452775  0.075014  0.000000  1
  P  P17  1  0.752897  0.956101  0.500000  1
  P  P18  1  0.203204  0.247103  0.500000  1
  P  P19  1  0.043899  0.796796  0.500000  1
  P  P20  1  0.333333  0.666667  0.000000  1
