# generated using pymatgen
data_EuGa4PbCl16
_symmetry_space_group_name_H-M   'P 1'
_cell_length_a   7.11286700
_cell_length_b   7.85701475
_cell_length_c   12.88843832
_cell_angle_alpha   85.62765716
_cell_angle_beta   90.00000000
_cell_angle_gamma   90.00000000
_symmetry_Int_Tables_number   1
_chemical_formula_structural   EuGa4PbCl16
_chemical_formula_sum   'Eu1 Ga4 Pb1 Cl16'
_cell_volume   718.18572793
_cell_formula_units_Z   1
loop_
 _symmetry_equiv_pos_site_id
 _symmetry_equiv_pos_as_xyz
  1  'x, y, z'
loop_
 _atom_site_type_symbol
 _atom_site_label
 _atom_site_symmetry_multiplicity
 _atom_site_fract_x
 _atom_site_fract_y
 _atom_site_fract_z
 _atom_site_occupancy
  Eu  Eu0  1  0.158037  0.500000  0.250000  1
  Ga  Ga1  1  0.260577  0.674773  0.580014  1
  Ga  Ga2  1  0.739407  0.674501  0.080311  1
  Ga  Ga3  1  0.739407  0.325499  0.419689  1
  Ga  Ga4  1  0.260577  0.325227  0.919986  1
  Pb  Pb5  1  0.845134  0.500000  0.750000  1
  Cl  Cl6  1  0.824417  0.406246  0.116767  1
  Cl  Cl7  1  0.824417  0.593754  0.383233  1
  Cl  Cl8  1  0.301712  0.732480  0.411060  1
  Cl  Cl9  1  0.301712  0.267520  0.088940  1
  Cl  Cl10  1  0.697244  0.265840  0.588304  1
  Cl  Cl11  1  0.697244  0.734160  0.911696  1
  Cl  Cl12  1  0.022657  0.820267  0.639970  1
  Cl  Cl13  1  0.022657  0.179733  0.860030  1
  Cl  Cl14  1  0.977676  0.180847  0.359495  1
  Cl  Cl15  1  0.977676  0.819153  0.140505  1
  Cl  Cl16  1  0.527238  0.737342  0.654991  1
  Cl  Cl17  1  0.527238  0.262658  0.845009  1
  Cl  Cl18  1  0.471011  0.264871  0.344333  1
  Cl  Cl19  1  0.471011  0.735129  0.155667  1
  Cl  Cl20  1  0.176474  0.405782  0.616271  1
  Cl  Cl21  1  0.176474  0.594218  0.883729  1
