# generated using pymatgen
data_Yb2Pd5PtO12
_symmetry_space_group_name_H-M   'P 1'
_cell_length_a   3.24703700
_cell_length_b   7.26355034
_cell_length_c   10.20891015
_cell_angle_alpha   90.02737078
_cell_angle_beta   90.00000000
_cell_angle_gamma   90.00000000
_symmetry_Int_Tables_number   1
_chemical_formula_structural   Yb2Pd5PtO12
_chemical_formula_sum   'Yb2 Pd5 Pt1 O12'
_cell_volume   240.77728913
_cell_formula_units_Z   1
loop_
 _symmetry_equiv_pos_site_id
 _symmetry_equiv_pos_as_xyz
  1  'x, y, z'
loop_
 _atom_site_type_symbol
 _atom_site_label
 _atom_site_symmetry_multiplicity
 _atom_site_fract_x
 _atom_site_fract_y
 _atom_site_fract_z
 _atom_site_occupancy
  Yb  Yb0  1  0.000000  0.002048  0.998377  1
  Yb  Yb1  1  0.000000  0.498321  0.501602  1
  Pd  Pd2  1  0.000000  0.000871  0.500768  1
  Pd  Pd3  1  0.000000  0.499141  0.999184  1
  Pd  Pd4  1  0.500000  0.248103  0.249324  1
  Pd  Pd5  1  0.500000  0.751920  0.750756  1
  Pd  Pd6  1  0.500000  0.251881  0.749230  1
  Pt  Pt7  1  0.500000  0.748018  0.250854  1
  O  O8  1  0.500000  0.996447  0.160153  1
  O  O9  1  0.500000  0.002469  0.838767  1
  O  O10  1  0.500000  0.502375  0.661240  1
  O  O11  1  0.500000  0.498733  0.339821  1
  O  O12  1  0.000000  0.206511  0.371357  1
  O  O13  1  0.000000  0.793741  0.628465  1
  O  O14  1  0.000000  0.293114  0.871242  1
  O  O15  1  0.000000  0.707139  0.130557  1
  O  O16  1  0.000000  0.290216  0.126734  1
  O  O17  1  0.000000  0.709494  0.873509  1
  O  O18  1  0.000000  0.209987  0.626809  1
  O  O19  1  0.000000  0.789468  0.371255  1
