# generated using pymatgen
data_Pr3AuI3
_symmetry_space_group_name_H-M   'P 1'
_cell_length_a   11.03840613
_cell_length_b   11.03840608
_cell_length_c   11.03840500
_cell_angle_alpha   109.47122233
_cell_angle_beta   109.47122223
_cell_angle_gamma   109.47121653
_symmetry_Int_Tables_number   1
_chemical_formula_structural   Pr3AuI3
_chemical_formula_sum   'Pr12 Au4 I12'
_cell_volume   1035.37380554
_cell_formula_units_Z   4
loop_
 _symmetry_equiv_pos_site_id
 _symmetry_equiv_pos_as_xyz
  1  'x, y, z'
loop_
 _atom_site_type_symbol
 _atom_site_label
 _atom_site_symmetry_multiplicity
 _atom_site_fract_x
 _atom_site_fract_y
 _atom_site_fract_z
 _atom_site_occupancy
  Pr  Pr0  1  0.467949  0.483975  0.233975  1
  Pr  Pr1  1  0.750000  0.233975  0.266025  1
  Pr  Pr2  1  0.750000  0.016025  0.483975  1
  Pr  Pr3  1  0.233975  0.467949  0.483975  1
  Pr  Pr4  1  0.266025  0.750000  0.233975  1
  Pr  Pr5  1  0.032051  0.266025  0.016025  1
  Pr  Pr6  1  0.016025  0.032051  0.266025  1
  Pr  Pr7  1  0.483975  0.750000  0.016025  1
  Pr  Pr8  1  0.483975  0.233975  0.467949  1
  Pr  Pr9  1  0.016025  0.483975  0.750000  1
  Pr  Pr10  1  0.266025  0.016025  0.032051  1
  Pr  Pr11  1  0.233975  0.266025  0.750000  1
  Au  Au12  1  0.250000  0.250000  0.250000  1
  Au  Au13  1  0.500000  0.000000  0.250000  1
  Au  Au14  1  0.000000  0.250000  0.500000  1
  Au  Au15  1  0.250000  0.500000  0.000000  1
  I  I16  1  0.250000  0.758329  0.741671  1
  I  I17  1  0.516658  0.508329  0.758329  1
  I  I18  1  0.983342  0.741671  0.991671  1
  I  I19  1  0.741671  0.250000  0.758329  1
  I  I20  1  0.991671  0.983342  0.741671  1
  I  I21  1  0.250000  0.991671  0.508329  1
  I  I22  1  0.758329  0.516658  0.508329  1
  I  I23  1  0.508329  0.250000  0.991671  1
  I  I24  1  0.758329  0.741671  0.250000  1
  I  I25  1  0.741671  0.991671  0.983342  1
  I  I26  1  0.991671  0.508329  0.250000  1
  I  I27  1  0.508329  0.758329  0.516658  1
