# generated using pymatgen
data_Li8Tb2Y6Sn5Bi3
_symmetry_space_group_name_H-M   'P 1'
_cell_length_a   9.48814298
_cell_length_b   9.48602957
_cell_length_c   7.28386597
_cell_angle_alpha   90.18667632
_cell_angle_beta   89.81789052
_cell_angle_gamma   120.00117199
_symmetry_Int_Tables_number   1
_chemical_formula_structural   Li8Tb2Y6Sn5Bi3
_chemical_formula_sum   'Li8 Tb2 Y6 Sn5 Bi3'
_cell_volume   567.74084887
_cell_formula_units_Z   1
loop_
 _symmetry_equiv_pos_site_id
 _symmetry_equiv_pos_as_xyz
  1  'x, y, z'
loop_
 _atom_site_type_symbol
 _atom_site_label
 _atom_site_symmetry_multiplicity
 _atom_site_fract_x
 _atom_site_fract_y
 _atom_site_fract_z
 _atom_site_occupancy
  Li  Li0  1  0.168906  0.831198  0.196439  1
  Li  Li1  1  0.335825  0.170416  0.700191  1
  Li  Li2  1  0.829502  0.664216  0.700193  1
  Li  Li3  1  0.165756  0.335773  0.198146  1
  Li  Li4  1  0.664207  0.834296  0.198110  1
  Li  Li5  1  0.832648  0.167128  0.702730  1
  Li  Li6  1  0.334698  0.665400  0.810466  1
  Li  Li7  1  0.668206  0.331633  0.313610  1
  Tb  Tb8  1  0.509222  0.490769  0.985829  1
  Tb  Tb9  1  0.023834  0.504044  0.491356  1
  Y  Y10  1  0.496013  0.976040  0.491330  1
  Y  Y11  1  0.520020  0.024258  0.990496  1
  Y  Y12  1  0.975773  0.480028  0.990552  1
  Y  Y13  1  0.485425  0.514639  0.494960  1
  Y  Y14  1  0.994869  0.005105  0.981164  1
  Y  Y15  1  0.994910  0.005166  0.486113  1
  Sn  Sn16  1  0.166699  0.333212  0.752325  1
  Sn  Sn17  1  0.666767  0.833381  0.752346  1
  Sn  Sn18  1  0.833383  0.166464  0.252142  1
  Sn  Sn19  1  0.333262  0.666860  0.224241  1
  Sn  Sn20  1  0.666538  0.333258  0.724364  1
  Bi  Bi21  1  0.166647  0.833545  0.751013  1
  Bi  Bi22  1  0.333178  0.166250  0.251005  1
  Bi  Bi23  1  0.833711  0.666924  0.250883  1
