# generated using pymatgen
data_Er8ZnSiPd23
_symmetry_space_group_name_H-M   'P 1'
_cell_length_a   8.23134100
_cell_length_b   8.33879200
_cell_length_c   8.38699700
_cell_angle_alpha   90.00000000
_cell_angle_beta   90.00000000
_cell_angle_gamma   90.00000000
_symmetry_Int_Tables_number   1
_chemical_formula_structural   Er8ZnSiPd23
_chemical_formula_sum   'Er8 Zn1 Si1 Pd23'
_cell_volume   575.67878139
_cell_formula_units_Z   1
loop_
 _symmetry_equiv_pos_site_id
 _symmetry_equiv_pos_as_xyz
  1  'x, y, z'
loop_
 _atom_site_type_symbol
 _atom_site_label
 _atom_site_symmetry_multiplicity
 _atom_site_fract_x
 _atom_site_fract_y
 _atom_site_fract_z
 _atom_site_occupancy
  Er  Er0  1  0.253259  0.247155  0.263559  1
  Er  Er1  1  0.746348  0.745165  0.746523  1
  Er  Er2  1  0.746348  0.745165  0.253477  1
  Er  Er3  1  0.746348  0.254835  0.746523  1
  Er  Er4  1  0.253259  0.247155  0.736441  1
  Er  Er5  1  0.253259  0.752845  0.263559  1
  Er  Er6  1  0.253259  0.752845  0.736441  1
  Er  Er7  1  0.746348  0.254835  0.253477  1
  Zn  Zn8  1  0.268760  0.500000  0.000000  1
  Si  Si9  1  0.995882  0.000000  0.000000  1
  Pd  Pd10  1  0.745523  0.500000  0.000000  1
  Pd  Pd11  1  0.997197  0.256043  0.500000  1
  Pd  Pd12  1  0.491836  0.260216  0.000000  1
  Pd  Pd13  1  0.997197  0.743957  0.500000  1
  Pd  Pd14  1  0.491836  0.739784  0.000000  1
  Pd  Pd15  1  0.500642  0.000000  0.257175  1
  Pd  Pd16  1  0.255070  0.000000  0.500000  1
  Pd  Pd17  1  0.500642  0.000000  0.742825  1
  Pd  Pd18  1  0.743035  0.000000  0.500000  1
  Pd  Pd19  1  0.005038  0.500000  0.256613  1
  Pd  Pd20  1  0.005038  0.500000  0.743387  1
  Pd  Pd21  1  0.251998  0.500000  0.500000  1
  Pd  Pd22  1  0.747727  0.500000  0.500000  1
  Pd  Pd23  1  0.502211  0.252474  0.500000  1
  Pd  Pd24  1  0.502211  0.747526  0.500000  1
  Pd  Pd25  1  0.493930  0.500000  0.251025  1
  Pd  Pd26  1  0.493930  0.500000  0.748975  1
  Pd  Pd27  1  0.277747  0.000000  0.000000  1
  Pd  Pd28  1  0.714585  0.000000  0.000000  1
  Pd  Pd29  1  0.012835  0.282727  0.000000  1
  Pd  Pd30  1  0.012835  0.717273  0.000000  1
  Pd  Pd31  1  0.996933  0.000000  0.276654  1
  Pd  Pd32  1  0.996933  0.000000  0.723346  1
