# generated using pymatgen
data_Er13Th3(CdIr)4
_symmetry_space_group_name_H-M   'P 1'
_cell_length_a   9.65503863
_cell_length_b   9.64816003
_cell_length_c   9.64816100
_cell_angle_alpha   60.00000010
_cell_angle_beta   60.02356450
_cell_angle_gamma   60.02357161
_symmetry_Int_Tables_number   1
_chemical_formula_structural   Er13Th3(CdIr)4
_chemical_formula_sum   'Er13 Th3 Cd4 Ir4'
_cell_volume   635.74459366
_cell_formula_units_Z   1
loop_
 _symmetry_equiv_pos_site_id
 _symmetry_equiv_pos_as_xyz
  1  'x, y, z'
loop_
 _atom_site_type_symbol
 _atom_site_label
 _atom_site_symmetry_multiplicity
 _atom_site_fract_x
 _atom_site_fract_y
 _atom_site_fract_z
 _atom_site_occupancy
  Er  Er0  1  0.197501  0.600833  0.600833  1
  Er  Er1  1  0.061723  0.439326  0.439326  1
  Er  Er2  1  0.437521  0.062611  0.062611  1
  Er  Er3  1  0.437521  0.062611  0.437257  1
  Er  Er4  1  0.061723  0.439326  0.059624  1
  Er  Er5  1  0.437521  0.437257  0.062611  1
  Er  Er6  1  0.061723  0.059624  0.439326  1
  Er  Er7  1  0.185711  0.814054  0.814054  1
  Er  Er8  1  0.815778  0.184286  0.184286  1
  Er  Er9  1  0.815778  0.184286  0.815651  1
  Er  Er10  1  0.185711  0.814054  0.186181  1
  Er  Er11  1  0.815778  0.815651  0.184286  1
  Er  Er12  1  0.185711  0.186181  0.814054  1
  Th  Th13  1  0.598120  0.600609  0.600609  1
  Th  Th14  1  0.598120  0.600609  0.200661  1
  Th  Th15  1  0.598120  0.200661  0.600609  1
  Cd  Cd16  1  0.835627  0.831427  0.831427  1
  Cd  Cd17  1  0.835627  0.831427  0.501518  1
  Cd  Cd18  1  0.835627  0.501518  0.831427  1
  Cd  Cd19  1  0.498964  0.833678  0.833678  1
  Ir  Ir20  1  0.392443  0.392076  0.392076  1
  Ir  Ir21  1  0.392443  0.392076  0.823405  1
  Ir  Ir22  1  0.392443  0.823405  0.392076  1
  Ir  Ir23  1  0.822766  0.392411  0.392411  1
