# generated using pymatgen
data_Tb18Er2Bi3Pb13
_symmetry_space_group_name_H-M   'P 1'
_cell_length_a   8.29928860
_cell_length_b   8.32668613
_cell_length_c   15.68209249
_cell_angle_alpha   90.08114309
_cell_angle_beta   89.75076786
_cell_angle_gamma   90.11152419
_symmetry_Int_Tables_number   1
_chemical_formula_structural   Tb18Er2Bi3Pb13
_chemical_formula_sum   'Tb18 Er2 Bi3 Pb13'
_cell_volume   1083.70658109
_cell_formula_units_Z   1
loop_
 _symmetry_equiv_pos_site_id
 _symmetry_equiv_pos_as_xyz
  1  'x, y, z'
loop_
 _atom_site_type_symbol
 _atom_site_label
 _atom_site_symmetry_multiplicity
 _atom_site_fract_x
 _atom_site_fract_y
 _atom_site_fract_z
 _atom_site_occupancy
  Tb  Tb0  1  0.383916  0.839143  0.879684  1
  Tb  Tb1  1  0.887362  0.658721  0.620425  1
  Tb  Tb2  1  0.613908  0.157519  0.378622  1
  Tb  Tb3  1  0.116713  0.342641  0.120789  1
  Tb  Tb4  1  0.620313  0.158491  0.120418  1
  Tb  Tb5  1  0.118074  0.339914  0.379648  1
  Tb  Tb6  1  0.382202  0.840650  0.619475  1
  Tb  Tb7  1  0.882029  0.658745  0.879582  1
  Tb  Tb8  1  0.549935  0.333550  0.895003  1
  Tb  Tb9  1  0.057847  0.168703  0.607534  1
  Tb  Tb10  1  0.442467  0.668293  0.392076  1
  Tb  Tb11  1  0.948938  0.825955  0.104710  1
  Tb  Tb12  1  0.455705  0.668121  0.103591  1
  Tb  Tb13  1  0.956235  0.831292  0.394519  1
  Tb  Tb14  1  0.543117  0.330507  0.604939  1
  Tb  Tb15  1  0.041222  0.175544  0.896397  1
  Tb  Tb16  1  0.215808  0.501724  0.750639  1
  Tb  Tb17  1  0.715872  0.999447  0.753352  1
  Er  Er18  1  0.783329  0.498322  0.247259  1
  Er  Er19  1  0.283807  0.000602  0.251491  1
  Bi  Bi20  1  0.273356  0.023593  0.046506  1
  Bi  Bi21  1  0.770151  0.479143  0.453090  1
  Bi  Bi22  1  0.730250  0.979408  0.546015  1
  Pb  Pb23  1  0.225257  0.526784  0.956216  1
  Pb  Pb24  1  0.724234  0.971192  0.956426  1
  Pb  Pb25  1  0.224690  0.526578  0.543995  1
  Pb  Pb26  1  0.275954  0.026244  0.454906  1
  Pb  Pb27  1  0.778035  0.470604  0.044523  1
  Pb  Pb28  1  0.578768  0.630462  0.747897  1
  Pb  Pb29  1  0.078812  0.870858  0.750575  1
  Pb  Pb30  1  0.422792  0.368888  0.249384  1
  Pb  Pb31  1  0.922503  0.129547  0.250707  1
  Pb  Pb32  1  0.357648  0.150234  0.751303  1
  Pb  Pb33  1  0.856227  0.350213  0.748552  1
  Pb  Pb34  1  0.641821  0.847701  0.250414  1
  Pb  Pb35  1  0.140705  0.650668  0.249339  1
