# generated using pymatgen
data_ZrNb4Ga3C
_symmetry_space_group_name_H-M   'P 1'
_cell_length_a   7.90320600
_cell_length_b   7.81970387
_cell_length_c   5.45584300
_cell_angle_alpha   90.00000000
_cell_angle_beta   90.00000000
_cell_angle_gamma   120.35387265
_symmetry_Int_Tables_number   1
_chemical_formula_structural   ZrNb4Ga3C
_chemical_formula_sum   'Zr2 Nb8 Ga6 C2'
_cell_volume   290.95538733
_cell_formula_units_Z   2
loop_
 _symmetry_equiv_pos_site_id
 _symmetry_equiv_pos_as_xyz
  1  'x, y, z'
loop_
 _atom_site_type_symbol
 _atom_site_label
 _atom_site_symmetry_multiplicity
 _atom_site_fract_x
 _atom_site_fract_y
 _atom_site_fract_z
 _atom_site_occupancy
  Zr  Zr0  1  0.240648  0.000000  0.250000  1
  Zr  Zr1  1  0.759352  0.000000  0.750000  1
  Nb  Nb2  1  0.003795  0.229242  0.250000  1
  Nb  Nb3  1  0.996205  0.770758  0.750000  1
  Nb  Nb4  1  0.774553  0.770758  0.250000  1
  Nb  Nb5  1  0.225447  0.229242  0.750000  1
  Nb  Nb6  1  0.333044  0.666088  0.000000  1
  Nb  Nb7  1  0.666956  0.333912  0.000000  1
  Nb  Nb8  1  0.666956  0.333912  0.500000  1
  Nb  Nb9  1  0.333044  0.666088  0.500000  1
  Ga  Ga10  1  0.602608  0.000000  0.250000  1
  Ga  Ga11  1  0.397392  0.000000  0.750000  1
  Ga  Ga12  1  0.999801  0.587993  0.250000  1
  Ga  Ga13  1  0.000199  0.412007  0.750000  1
  Ga  Ga14  1  0.411808  0.412007  0.250000  1
  Ga  Ga15  1  0.588192  0.587993  0.750000  1
  C  C16  1  0.000000  0.000000  0.000000  1
  C  C17  1  0.000000  0.000000  0.500000  1
