# generated using pymatgen
data_Ce4Si4TcIr3
_symmetry_space_group_name_H-M   'P 1'
_cell_length_a   4.32665900
_cell_length_b   7.36155745
_cell_length_c   6.96983434
_cell_angle_alpha   89.76426526
_cell_angle_beta   90.00000000
_cell_angle_gamma   90.00000000
_symmetry_Int_Tables_number   1
_chemical_formula_structural   Ce4Si4TcIr3
_chemical_formula_sum   'Ce4 Si4 Tc1 Ir3'
_cell_volume   221.99395781
_cell_formula_units_Z   1
loop_
 _symmetry_equiv_pos_site_id
 _symmetry_equiv_pos_as_xyz
  1  'x, y, z'
loop_
 _atom_site_type_symbol
 _atom_site_label
 _atom_site_symmetry_multiplicity
 _atom_site_fract_x
 _atom_site_fract_y
 _atom_site_fract_z
 _atom_site_occupancy
  Ce  Ce0  1  0.750000  0.514212  0.834105  1
  Ce  Ce1  1  0.250000  0.981611  0.338080  1
  Ce  Ce2  1  0.750000  0.013354  0.664202  1
  Ce  Ce3  1  0.250000  0.491510  0.163566  1
  Si  Si4  1  0.250000  0.807626  0.881876  1
  Si  Si5  1  0.250000  0.304228  0.610665  1
  Si  Si6  1  0.750000  0.194996  0.114752  1
  Si  Si7  1  0.750000  0.693145  0.392144  1
  Tc  Tc8  1  0.250000  0.637477  0.568671  1
  Ir  Ir9  1  0.250000  0.142083  0.930631  1
  Ir  Ir10  1  0.750000  0.861842  0.071616  1
  Ir  Ir11  1  0.750000  0.357915  0.429693  1
