# generated using pymatgen
data_Tm3ThCdCo
_symmetry_space_group_name_H-M   'P 1'
_cell_length_a   9.50934532
_cell_length_b   9.50934517
_cell_length_c   9.50934500
_cell_angle_alpha   60.00000407
_cell_angle_beta   60.00000459
_cell_angle_gamma   60.00000054
_symmetry_Int_Tables_number   1
_chemical_formula_structural   Tm3ThCdCo
_chemical_formula_sum   'Tm12 Th4 Cd4 Co4'
_cell_volume   608.04660300
_cell_formula_units_Z   4
loop_
 _symmetry_equiv_pos_site_id
 _symmetry_equiv_pos_as_xyz
  1  'x, y, z'
loop_
 _atom_site_type_symbol
 _atom_site_label
 _atom_site_symmetry_multiplicity
 _atom_site_fract_x
 _atom_site_fract_y
 _atom_site_fract_z
 _atom_site_occupancy
  Tm  Tm0  1  0.813683  0.186317  0.186317  1
  Tm  Tm1  1  0.186317  0.813683  0.813683  1
  Tm  Tm2  1  0.186317  0.813683  0.186317  1
  Tm  Tm3  1  0.813683  0.186317  0.813683  1
  Tm  Tm4  1  0.186317  0.186317  0.813683  1
  Tm  Tm5  1  0.813683  0.813683  0.186317  1
  Tm  Tm6  1  0.935241  0.564759  0.564759  1
  Tm  Tm7  1  0.564759  0.935241  0.935241  1
  Tm  Tm8  1  0.564759  0.935241  0.564759  1
  Tm  Tm9  1  0.935241  0.564759  0.935241  1
  Tm  Tm10  1  0.564759  0.564759  0.935241  1
  Tm  Tm11  1  0.935241  0.935241  0.564759  1
  Th  Th12  1  0.346451  0.346451  0.346451  1
  Th  Th13  1  0.346451  0.346451  0.960649  1
  Th  Th14  1  0.346451  0.960649  0.346451  1
  Th  Th15  1  0.960649  0.346451  0.346451  1
  Cd  Cd16  1  0.582029  0.582029  0.582029  1
  Cd  Cd17  1  0.582029  0.582029  0.253911  1
  Cd  Cd18  1  0.582029  0.253911  0.582029  1
  Cd  Cd19  1  0.253911  0.582029  0.582029  1
  Co  Co20  1  0.144113  0.144113  0.144113  1
  Co  Co21  1  0.144113  0.144113  0.567661  1
  Co  Co22  1  0.144113  0.567661  0.144113  1
  Co  Co23  1  0.567661  0.144113  0.144113  1
