# generated using pymatgen
data_Ho9Th(In2Rh)4
_symmetry_space_group_name_H-M   'P 1'
_cell_length_a   8.03336191
_cell_length_b   18.30750916
_cell_length_c   3.64357600
_cell_angle_alpha   90.00000000
_cell_angle_beta   90.00000000
_cell_angle_gamma   90.18941203
_symmetry_Int_Tables_number   1
_chemical_formula_structural   Ho9Th(In2Rh)4
_chemical_formula_sum   'Ho9 Th1 In8 Rh4'
_cell_volume   535.86087928
_cell_formula_units_Z   1
loop_
 _symmetry_equiv_pos_site_id
 _symmetry_equiv_pos_as_xyz
  1  'x, y, z'
loop_
 _atom_site_type_symbol
 _atom_site_label
 _atom_site_symmetry_multiplicity
 _atom_site_fract_x
 _atom_site_fract_y
 _atom_site_fract_z
 _atom_site_occupancy
  Ho  Ho0  1  0.501623  0.499247  0.000000  1
  Ho  Ho1  1  0.000964  0.998708  0.000000  1
  Ho  Ho2  1  0.243648  0.721752  0.000000  1
  Ho  Ho3  1  0.743238  0.778368  0.000000  1
  Ho  Ho4  1  0.254827  0.221298  0.000000  1
  Ho  Ho5  1  0.620689  0.085845  0.000000  1
  Ho  Ho6  1  0.377231  0.910420  0.000000  1
  Ho  Ho7  1  0.878513  0.590128  0.000000  1
  Ho  Ho8  1  0.121890  0.414114  0.000000  1
  Th  Th9  1  0.757026  0.276911  0.000000  1
  In  In10  1  0.702734  0.931574  0.500000  1
  In  In11  1  0.297656  0.066982  0.500000  1
  In  In12  1  0.799629  0.436896  0.500000  1
  In  In13  1  0.202349  0.568098  0.500000  1
  In  In14  1  0.562989  0.649780  0.500000  1
  In  In15  1  0.428653  0.351205  0.500000  1
  In  In16  1  0.943346  0.145191  0.500000  1
  In  In17  1  0.062791  0.849859  0.500000  1
  Rh  Rh18  1  0.540596  0.198783  0.500000  1
  Rh  Rh19  1  0.468226  0.804739  0.500000  1
  Rh  Rh20  1  0.968917  0.695539  0.500000  1
  Rh  Rh21  1  0.022467  0.304562  0.500000  1
