# generated using pymatgen
data_DyEr5C2Br7
_symmetry_space_group_name_H-M   'P 1'
_cell_length_a   10.38179792
_cell_length_b   10.38179769
_cell_length_c   12.08181200
_cell_angle_alpha   57.60249282
_cell_angle_beta   57.60249364
_cell_angle_gamma   20.89032958
_symmetry_Int_Tables_number   1
_chemical_formula_structural   DyEr5C2Br7
_chemical_formula_sum   'Dy1 Er5 C2 Br7'
_cell_volume   389.37285426
_cell_formula_units_Z   1
loop_
 _symmetry_equiv_pos_site_id
 _symmetry_equiv_pos_as_xyz
  1  'x, y, z'
loop_
 _atom_site_type_symbol
 _atom_site_label
 _atom_site_symmetry_multiplicity
 _atom_site_fract_x
 _atom_site_fract_y
 _atom_site_fract_z
 _atom_site_occupancy
  Dy  Dy0  1  0.233771  0.233771  0.824600  1
  Er  Er1  1  0.312062  0.312062  0.369351  1
  Er  Er2  1  0.130331  0.130331  0.448091  1
  Er  Er3  1  0.868878  0.868878  0.552833  1
  Er  Er4  1  0.688300  0.688300  0.631435  1
  Er  Er5  1  0.765758  0.765758  0.178213  1
  C  C6  1  0.281177  0.281177  0.599192  1
  C  C7  1  0.718807  0.718807  0.400236  1
  Br  Br8  1  0.162005  0.162005  0.175652  1
  Br  Br9  1  0.841005  0.841005  0.821963  1
  Br  Br10  1  0.058887  0.058887  0.718408  1
  Br  Br11  1  0.941215  0.941215  0.280959  1
  Br  Br12  1  0.500604  0.500604  0.498954  1
  Br  Br13  1  0.385609  0.385609  0.075478  1
  Br  Br14  1  0.611594  0.611594  0.924631  1
