# generated using pymatgen
data_YbInNi3Pt
_symmetry_space_group_name_H-M   'P 1'
_cell_length_a   5.12569239
_cell_length_b   5.12569311
_cell_length_c   5.12569244
_cell_angle_alpha   58.22488583
_cell_angle_beta   58.22487984
_cell_angle_gamma   58.22487798
_symmetry_Int_Tables_number   1
_chemical_formula_structural   YbInNi3Pt
_chemical_formula_sum   'Yb1 In1 Ni3 Pt1'
_cell_volume   91.35050911
_cell_formula_units_Z   1
loop_
 _symmetry_equiv_pos_site_id
 _symmetry_equiv_pos_as_xyz
  1  'x, y, z'
loop_
 _atom_site_type_symbol
 _atom_site_label
 _atom_site_symmetry_multiplicity
 _atom_site_fract_x
 _atom_site_fract_y
 _atom_site_fract_z
 _atom_site_occupancy
  Yb  Yb0  1  0.247629  0.247629  0.247629  1
  In  In1  1  0.003322  0.003322  0.003322  1
  Ni  Ni2  1  0.625341  0.625341  0.123307  1
  Ni  Ni3  1  0.625341  0.123307  0.625341  1
  Ni  Ni4  1  0.123307  0.625341  0.625341  1
  Pt  Pt5  1  0.625059  0.625059  0.625059  1
