# generated using pymatgen
data_Pu8Si12OsAu3
_symmetry_space_group_name_H-M   'P 1'
_cell_length_a   8.20800800
_cell_length_b   8.20800812
_cell_length_c   8.22579100
_cell_angle_alpha   90.00000000
_cell_angle_beta   90.00000000
_cell_angle_gamma   120.00000759
_symmetry_Int_Tables_number   1
_chemical_formula_structural   Pu8Si12OsAu3
_chemical_formula_sum   'Pu8 Si12 Os1 Au3'
_cell_volume   479.93654149
_cell_formula_units_Z   1
loop_
 _symmetry_equiv_pos_site_id
 _symmetry_equiv_pos_as_xyz
  1  'x, y, z'
loop_
 _atom_site_type_symbol
 _atom_site_label
 _atom_site_symmetry_multiplicity
 _atom_site_fract_x
 _atom_site_fract_y
 _atom_site_fract_z
 _atom_site_occupancy
  Pu  Pu0  1  0.493835  0.987670  0.260163  1
  Pu  Pu1  1  0.492080  0.984164  0.739727  1
  Pu  Pu2  1  0.012330  0.506165  0.260163  1
  Pu  Pu3  1  0.015836  0.507920  0.739727  1
  Pu  Pu4  1  0.493835  0.506165  0.260163  1
  Pu  Pu5  1  0.492080  0.507920  0.739727  1
  Pu  Pu6  1  0.000000  0.000000  0.250832  1
  Pu  Pu7  1  0.000000  0.000000  0.748875  1
  Si  Si8  1  0.161985  0.323971  0.996183  1
  Si  Si9  1  0.836356  0.672713  0.004296  1
  Si  Si10  1  0.676029  0.838015  0.996183  1
  Si  Si11  1  0.838117  0.676235  0.500703  1
  Si  Si12  1  0.327287  0.163644  0.004296  1
  Si  Si13  1  0.164041  0.328081  0.499200  1
  Si  Si14  1  0.161985  0.838015  0.996183  1
  Si  Si15  1  0.323765  0.161883  0.500703  1
  Si  Si16  1  0.836356  0.163644  0.004296  1
  Si  Si17  1  0.671919  0.835959  0.499200  1
  Si  Si18  1  0.838117  0.161883  0.500703  1
  Si  Si19  1  0.164041  0.835959  0.499200  1
  Os  Os20  1  0.333333  0.666667  0.498245  1
  Au  Au21  1  0.333333  0.666667  0.003814  1
  Au  Au22  1  0.666667  0.333333  0.995031  1
  Au  Au23  1  0.666667  0.333333  0.502383  1
