# generated using pymatgen
data_PrDy5(AuO7)2
_symmetry_space_group_name_H-M   'P 1'
_cell_length_a   6.50464562
_cell_length_b   6.50464540
_cell_length_c   7.56195900
_cell_angle_alpha   89.92469662
_cell_angle_beta   90.07530337
_cell_angle_gamma   109.08561736
_symmetry_Int_Tables_number   1
_chemical_formula_structural   PrDy5(AuO7)2
_chemical_formula_sum   'Pr1 Dy5 Au2 O14'
_cell_volume   302.36191334
_cell_formula_units_Z   1
loop_
 _symmetry_equiv_pos_site_id
 _symmetry_equiv_pos_as_xyz
  1  'x, y, z'
loop_
 _atom_site_type_symbol
 _atom_site_label
 _atom_site_symmetry_multiplicity
 _atom_site_fract_x
 _atom_site_fract_y
 _atom_site_fract_z
 _atom_site_occupancy
  Pr  Pr0  1  0.498667  0.498667  0.250000  1
  Dy  Dy1  1  0.492848  0.492848  0.750000  1
  Dy  Dy2  1  0.000558  0.472743  0.502200  1
  Dy  Dy3  1  0.529637  0.997476  0.504203  1
  Dy  Dy4  1  0.997476  0.529637  0.995797  1
  Dy  Dy5  1  0.472743  0.000558  0.997800  1
  Au  Au6  1  0.000253  0.000253  0.250000  1
  Au  Au7  1  0.001310  0.001310  0.750000  1
  O  O8  1  0.073578  0.329632  0.225770  1
  O  O9  1  0.672274  0.921111  0.774735  1
  O  O10  1  0.921111  0.672274  0.725265  1
  O  O11  1  0.329632  0.073578  0.274230  1
  O  O12  1  0.670492  0.925800  0.227469  1
  O  O13  1  0.082899  0.330928  0.773428  1
  O  O14  1  0.330928  0.082899  0.726572  1
  O  O15  1  0.925800  0.670492  0.272531  1
  O  O16  1  0.364217  0.634559  0.509729  1
  O  O17  1  0.634559  0.364217  0.990271  1
  O  O18  1  0.358964  0.639663  0.990447  1
  O  O19  1  0.639663  0.358964  0.509553  1
  O  O20  1  0.924018  0.078374  0.500190  1
  O  O21  1  0.078374  0.924018  0.999810  1
