# generated using pymatgen
data_ThHgPt3Rh
_symmetry_space_group_name_H-M   'P 1'
_cell_length_a   5.44634455
_cell_length_b   5.41724607
_cell_length_c   5.41724500
_cell_angle_alpha   60.00000043
_cell_angle_beta   60.17658047
_cell_angle_gamma   60.17658710
_symmetry_Int_Tables_number   1
_chemical_formula_structural   ThHgPt3Rh
_chemical_formula_sum   'Th1 Hg1 Pt3 Rh1'
_cell_volume   113.31859307
_cell_formula_units_Z   1
loop_
 _symmetry_equiv_pos_site_id
 _symmetry_equiv_pos_as_xyz
  1  'x, y, z'
loop_
 _atom_site_type_symbol
 _atom_site_label
 _atom_site_symmetry_multiplicity
 _atom_site_fract_x
 _atom_site_fract_y
 _atom_site_fract_z
 _atom_site_occupancy
  Th  Th0  1  0.750334  0.749889  0.749889  1
  Hg  Hg1  1  0.999665  0.000112  0.000112  1
  Pt  Pt2  1  0.374277  0.876838  0.374444  1
  Pt  Pt3  1  0.374277  0.374444  0.374444  1
  Pt  Pt4  1  0.374277  0.374444  0.876838  1
  Rh  Rh5  1  0.877173  0.374276  0.374276  1
