# generated using pymatgen
data_Tb3Lu(PS4)4
_symmetry_space_group_name_H-M   'P 1'
_cell_length_a   6.56797214
_cell_length_b   8.79020587
_cell_length_c   12.73602596
_cell_angle_alpha   59.28403074
_cell_angle_beta   89.97477957
_cell_angle_gamma   90.04095506
_symmetry_Int_Tables_number   1
_chemical_formula_structural   Tb3Lu(PS4)4
_chemical_formula_sum   'Tb3 Lu1 P4 S16'
_cell_volume   632.14387014
_cell_formula_units_Z   1
loop_
 _symmetry_equiv_pos_site_id
 _symmetry_equiv_pos_as_xyz
  1  'x, y, z'
loop_
 _atom_site_type_symbol
 _atom_site_label
 _atom_site_symmetry_multiplicity
 _atom_site_fract_x
 _atom_site_fract_y
 _atom_site_fract_z
 _atom_site_occupancy
  Tb  Tb0  1  0.318919  0.556037  0.835240  1
  Tb  Tb1  1  0.819187  0.444319  0.664474  1
  Tb  Tb2  1  0.680811  0.444693  0.165206  1
  Lu  Lu3  1  0.177674  0.555503  0.335555  1
  P  P4  1  0.229490  0.686105  0.040712  1
  P  P5  1  0.729752  0.315047  0.460421  1
  P  P6  1  0.770628  0.312743  0.960991  1
  P  P7  1  0.270326  0.685969  0.537852  1
  S  S8  1  0.231700  0.423444  0.586003  1
  S  S9  1  0.733194  0.576615  0.910717  1
  S  S10  1  0.773272  0.578122  0.409922  1
  S  S11  1  0.267241  0.423251  0.088963  1
  S  S12  1  0.254198  0.839750  0.355068  1
  S  S13  1  0.755258  0.155330  0.143147  1
  S  S14  1  0.743993  0.155592  0.642498  1
  S  S15  1  0.244504  0.844427  0.858369  1
  S  S16  1  0.536987  0.719651  0.610853  1
  S  S17  1  0.037992  0.280320  0.887918  1
  S  S18  1  0.460390  0.285358  0.387450  1
  S  S19  1  0.964102  0.717193  0.116075  1
  S  S20  1  0.052608  0.739553  0.631781  1
  S  S21  1  0.551678  0.260322  0.867357  1
  S  S22  1  0.950595  0.263927  0.366898  1
  S  S23  1  0.445500  0.736728  0.136528  1
