# generated using pymatgen
data_RbLi6PtO6
_symmetry_space_group_name_H-M   'P 1'
_cell_length_a   5.38646787
_cell_length_b   5.37779579
_cell_length_c   5.37922987
_cell_angle_alpha   101.29632147
_cell_angle_beta   101.34287016
_cell_angle_gamma   101.17231650
_symmetry_Int_Tables_number   1
_chemical_formula_structural   RbLi6PtO6
_chemical_formula_sum   'Rb1 Li6 Pt1 O6'
_cell_volume   145.38057815
_cell_formula_units_Z   1
loop_
 _symmetry_equiv_pos_site_id
 _symmetry_equiv_pos_as_xyz
  1  'x, y, z'
loop_
 _atom_site_type_symbol
 _atom_site_label
 _atom_site_symmetry_multiplicity
 _atom_site_fract_x
 _atom_site_fract_y
 _atom_site_fract_z
 _atom_site_occupancy
  Rb  Rb0  1  0.500000  0.500000  0.500000  1
  Li  Li1  1  0.661852  0.338371  0.000024  1
  Li  Li2  1  0.338149  0.661630  0.999976  1
  Li  Li3  1  0.661617  0.000086  0.338520  1
  Li  Li4  1  0.000066  0.661567  0.338351  1
  Li  Li5  1  0.338385  0.999914  0.661481  1
  Li  Li6  1  0.999934  0.338435  0.661650  1
  Pt  Pt7  1  0.000000  0.000000  0.000000  1
  O  O8  1  0.726103  0.726143  0.084669  1
  O  O9  1  0.915237  0.273966  0.273959  1
  O  O10  1  0.273875  0.915331  0.273865  1
  O  O11  1  0.726125  0.084669  0.726135  1
  O  O12  1  0.084763  0.726034  0.726041  1
  O  O13  1  0.273897  0.273857  0.915331  1
