# generated using pymatgen
data_Li2Lu2BIr4
_symmetry_space_group_name_H-M   'P 1'
_cell_length_a   5.79924296
_cell_length_b   5.81826870
_cell_length_c   5.81826720
_cell_angle_alpha   58.63647352
_cell_angle_beta   60.10812134
_cell_angle_gamma   60.10811398
_symmetry_Int_Tables_number   1
_chemical_formula_structural   Li2Lu2BIr4
_chemical_formula_sum   'Li2 Lu2 B1 Ir4'
_cell_volume   137.55022092
_cell_formula_units_Z   1
loop_
 _symmetry_equiv_pos_site_id
 _symmetry_equiv_pos_as_xyz
  1  'x, y, z'
loop_
 _atom_site_type_symbol
 _atom_site_label
 _atom_site_symmetry_multiplicity
 _atom_site_fract_x
 _atom_site_fract_y
 _atom_site_fract_z
 _atom_site_occupancy
  Li  Li0  1  0.738013  0.736649  0.263351  1
  Li  Li1  1  0.261987  0.736649  0.263351  1
  Lu  Lu2  1  0.752787  0.743059  0.751368  1
  Lu  Lu3  1  0.247213  0.248632  0.256941  1
  B  B4  1  0.000000  0.024043  0.975957  1
  Ir  Ir5  1  0.751604  0.238973  0.257819  1
  Ir  Ir6  1  0.266023  0.264907  0.735093  1
  Ir  Ir7  1  0.733977  0.264907  0.735093  1
  Ir  Ir8  1  0.248396  0.742181  0.761027  1
