# generated using pymatgen
data_TbMnSbO6
_symmetry_space_group_name_H-M   'P 1'
_cell_length_a   5.14570822
_cell_length_b   5.14567178
_cell_length_c   4.96032456
_cell_angle_alpha   90.04317007
_cell_angle_beta   90.04277980
_cell_angle_gamma   119.94227805
_symmetry_Int_Tables_number   1
_chemical_formula_structural   TbMnSbO6
_chemical_formula_sum   'Tb1 Mn1 Sb1 O6'
_cell_volume   113.80983330
_cell_formula_units_Z   1
loop_
 _symmetry_equiv_pos_site_id
 _symmetry_equiv_pos_as_xyz
  1  'x, y, z'
loop_
 _atom_site_type_symbol
 _atom_site_label
 _atom_site_symmetry_multiplicity
 _atom_site_fract_x
 _atom_site_fract_y
 _atom_site_fract_z
 _atom_site_occupancy
  Tb  Tb0  1  0.517479  0.482530  0.500005  1
  Mn  Mn1  1  0.850807  0.149179  0.999999  1
  Sb  Sb2  1  0.184285  0.815713  0.000006  1
  O  O3  1  0.149762  0.125048  0.219028  1
  O  O4  1  0.527769  0.851670  0.219974  1
  O  O5  1  0.876335  0.473017  0.219841  1
  O  O6  1  0.526986  0.123669  0.780164  1
  O  O7  1  0.148334  0.472239  0.780034  1
  O  O8  1  0.874957  0.850243  0.780979  1
