# generated using pymatgen
data_Y8Al(Pd5Pt)4
_symmetry_space_group_name_H-M   'P 1'
_cell_length_a   8.38364800
_cell_length_b   8.37122100
_cell_length_c   8.35385100
_cell_angle_alpha   90.00000000
_cell_angle_beta   90.00000000
_cell_angle_gamma   90.00072500
_symmetry_Int_Tables_number   1
_chemical_formula_structural   Y8Al(Pd5Pt)4
_chemical_formula_sum   'Y8 Al1 Pd20 Pt4'
_cell_volume   586.28470955
_cell_formula_units_Z   1
loop_
 _symmetry_equiv_pos_site_id
 _symmetry_equiv_pos_as_xyz
  1  'x, y, z'
loop_
 _atom_site_type_symbol
 _atom_site_label
 _atom_site_symmetry_multiplicity
 _atom_site_fract_x
 _atom_site_fract_y
 _atom_site_fract_z
 _atom_site_occupancy
  Y  Y0  1  0.251368  0.251255  0.250501  1
  Y  Y1  1  0.747452  0.748984  0.748857  1
  Y  Y2  1  0.747452  0.748984  0.251143  1
  Y  Y3  1  0.748675  0.250603  0.750180  1
  Y  Y4  1  0.251368  0.251255  0.749499  1
  Y  Y5  1  0.252625  0.748316  0.251777  1
  Y  Y6  1  0.252625  0.748316  0.748223  1
  Y  Y7  1  0.748675  0.250603  0.249820  1
  Al  Al8  1  0.000121  0.003023  0.000000  1
  Pd  Pd9  1  0.260891  0.500106  0.000000  1
  Pd  Pd10  1  0.739015  0.500210  0.000000  1
  Pd  Pd11  1  0.999903  0.261102  0.500000  1
  Pd  Pd12  1  0.500074  0.259516  0.000000  1
  Pd  Pd13  1  0.999921  0.738431  0.500000  1
  Pd  Pd14  1  0.500075  0.739060  0.000000  1
  Pd  Pd15  1  0.500082  0.000282  0.260430  1
  Pd  Pd16  1  0.261011  0.000000  0.500000  1
  Pd  Pd17  1  0.500082  0.000282  0.739570  1
  Pd  Pd18  1  0.738878  0.000049  0.500000  1
  Pd  Pd19  1  0.999911  0.500269  0.261189  1
  Pd  Pd20  1  0.999911  0.500269  0.738811  1
  Pd  Pd21  1  0.746675  0.499874  0.500000  1
  Pd  Pd22  1  0.500051  0.253650  0.500000  1
  Pd  Pd23  1  0.500120  0.746497  0.500000  1
  Pd  Pd24  1  0.500084  0.499741  0.253466  1
  Pd  Pd25  1  0.500084  0.499741  0.746534  1
  Pd  Pd26  1  0.999895  0.710743  0.000000  1
  Pd  Pd27  1  0.999905  0.999030  0.292465  1
  Pd  Pd28  1  0.999905  0.999030  0.707535  1
  Pt  Pt29  1  0.253135  0.499794  0.500000  1
  Pt  Pt30  1  0.290274  0.998455  0.000000  1
  Pt  Pt31  1  0.709839  0.998463  0.000000  1
  Pt  Pt32  1  0.999917  0.294067  0.000000  1
