# generated using pymatgen
data_Tb7Zn(Sn11Ru3)2
_symmetry_space_group_name_H-M   'P 1'
_cell_length_a   9.84268200
_cell_length_b   9.84268193
_cell_length_c   10.09868700
_cell_angle_alpha   90.00000000
_cell_angle_beta   90.00000000
_cell_angle_gamma   120.00000694
_symmetry_Int_Tables_number   1
_chemical_formula_structural   Tb7Zn(Sn11Ru3)2
_chemical_formula_sum   'Tb7 Zn1 Sn22 Ru6'
_cell_volume   847.27114918
_cell_formula_units_Z   1
loop_
 _symmetry_equiv_pos_site_id
 _symmetry_equiv_pos_as_xyz
  1  'x, y, z'
loop_
 _atom_site_type_symbol
 _atom_site_label
 _atom_site_symmetry_multiplicity
 _atom_site_fract_x
 _atom_site_fract_y
 _atom_site_fract_z
 _atom_site_occupancy
  Tb  Tb0  1  0.000000  0.000000  0.000000  1
  Tb  Tb1  1  0.482015  0.517985  0.306317  1
  Tb  Tb2  1  0.517985  0.482015  0.693683  1
  Tb  Tb3  1  0.482015  0.964030  0.306317  1
  Tb  Tb4  1  0.517985  0.035970  0.693683  1
  Tb  Tb5  1  0.035970  0.517985  0.306317  1
  Tb  Tb6  1  0.964030  0.482015  0.693683  1
  Zn  Zn7  1  0.000000  0.000000  0.500000  1
  Sn  Sn8  1  0.348634  0.000000  0.000000  1
  Sn  Sn9  1  0.651366  0.000000  0.000000  1
  Sn  Sn10  1  0.000000  0.348634  0.000000  1
  Sn  Sn11  1  0.000000  0.651366  0.000000  1
  Sn  Sn12  1  0.651366  0.651366  0.000000  1
  Sn  Sn13  1  0.348634  0.348634  0.000000  1
  Sn  Sn14  1  0.333333  0.666667  0.819886  1
  Sn  Sn15  1  0.666667  0.333333  0.180114  1
  Sn  Sn16  1  0.780087  0.219913  0.461109  1
  Sn  Sn17  1  0.219913  0.780087  0.538891  1
  Sn  Sn18  1  0.780087  0.560176  0.461109  1
  Sn  Sn19  1  0.219913  0.439824  0.538891  1
  Sn  Sn20  1  0.439824  0.219913  0.461109  1
  Sn  Sn21  1  0.560176  0.780087  0.538891  1
  Sn  Sn22  1  0.333333  0.666667  0.123840  1
  Sn  Sn23  1  0.666667  0.333333  0.876160  1
  Sn  Sn24  1  0.120053  0.879947  0.271761  1
  Sn  Sn25  1  0.879947  0.120053  0.728239  1
  Sn  Sn26  1  0.120053  0.240107  0.271761  1
  Sn  Sn27  1  0.879947  0.759893  0.728239  1
  Sn  Sn28  1  0.759893  0.879947  0.271761  1
  Sn  Sn29  1  0.240107  0.120053  0.728239  1
  Ru  Ru30  1  0.831549  0.168451  0.204200  1
  Ru  Ru31  1  0.168451  0.831549  0.795800  1
  Ru  Ru32  1  0.831549  0.663099  0.204200  1
  Ru  Ru33  1  0.168451  0.336901  0.795800  1
  Ru  Ru34  1  0.336901  0.168451  0.204200  1
  Ru  Ru35  1  0.663099  0.831549  0.795800  1
