# generated using pymatgen
data_Nd2Y6CdNi2Hg
_symmetry_space_group_name_H-M   'P 1'
_cell_length_a   9.64199088
_cell_length_b   9.64199104
_cell_length_c   9.63698200
_cell_angle_alpha   60.01676835
_cell_angle_beta   60.01676921
_cell_angle_gamma   60.10484983
_symmetry_Int_Tables_number   1
_chemical_formula_structural   Nd2Y6CdNi2Hg
_chemical_formula_sum   'Nd4 Y12 Cd2 Ni4 Hg2'
_cell_volume   634.18015651
_cell_formula_units_Z   2
loop_
 _symmetry_equiv_pos_site_id
 _symmetry_equiv_pos_as_xyz
  1  'x, y, z'
loop_
 _atom_site_type_symbol
 _atom_site_label
 _atom_site_symmetry_multiplicity
 _atom_site_fract_x
 _atom_site_fract_y
 _atom_site_fract_z
 _atom_site_occupancy
  Nd  Nd0  1  0.600792  0.600792  0.599934  1
  Nd  Nd1  1  0.600794  0.600794  0.198481  1
  Nd  Nd2  1  0.602641  0.194752  0.601305  1
  Nd  Nd3  1  0.194752  0.602641  0.601305  1
  Y  Y4  1  0.062846  0.437334  0.438358  1
  Y  Y5  1  0.437334  0.062847  0.061461  1
  Y  Y6  1  0.437334  0.062846  0.438358  1
  Y  Y7  1  0.062847  0.437334  0.061461  1
  Y  Y8  1  0.438397  0.438397  0.061602  1
  Y  Y9  1  0.062537  0.062537  0.437463  1
  Y  Y10  1  0.185149  0.813582  0.814455  1
  Y  Y11  1  0.813583  0.185148  0.186813  1
  Y  Y12  1  0.813582  0.185149  0.814455  1
  Y  Y13  1  0.185148  0.813583  0.186813  1
  Y  Y14  1  0.814133  0.814133  0.185866  1
  Y  Y15  1  0.186045  0.186045  0.813955  1
  Cd  Cd16  1  0.831043  0.503167  0.832895  1
  Cd  Cd17  1  0.503167  0.831043  0.832895  1
  Ni  Ni18  1  0.391610  0.391610  0.392813  1
  Ni  Ni19  1  0.391617  0.391617  0.823956  1
  Ni  Ni20  1  0.391148  0.824349  0.392255  1
  Ni  Ni21  1  0.824349  0.391148  0.392255  1
  Hg  Hg22  1  0.834576  0.834576  0.837302  1
  Hg  Hg23  1  0.834576  0.834576  0.493544  1
