# generated using pymatgen
data_Zr6Fe15CoSi6W
_symmetry_space_group_name_H-M   'P 1'
_cell_length_a   8.15318136
_cell_length_b   8.15059999
_cell_length_c   8.15318000
_cell_angle_alpha   59.98952021
_cell_angle_beta   59.99999742
_cell_angle_gamma   59.98952576
_symmetry_Int_Tables_number   1
_chemical_formula_structural   Zr6Fe15CoSi6W
_chemical_formula_sum   'Zr6 Fe15 Co1 Si6 W1'
_cell_volume   383.05392270
_cell_formula_units_Z   1
loop_
 _symmetry_equiv_pos_site_id
 _symmetry_equiv_pos_as_xyz
  1  'x, y, z'
loop_
 _atom_site_type_symbol
 _atom_site_label
 _atom_site_symmetry_multiplicity
 _atom_site_fract_x
 _atom_site_fract_y
 _atom_site_fract_z
 _atom_site_occupancy
  Zr  Zr0  1  0.710526  0.289466  0.289482  1
  Zr  Zr1  1  0.289482  0.289466  0.710526  1
  Zr  Zr2  1  0.288635  0.709970  0.712760  1
  Zr  Zr3  1  0.712760  0.709970  0.288635  1
  Zr  Zr4  1  0.288635  0.709970  0.288635  1
  Zr  Zr5  1  0.710526  0.289466  0.710526  1
  Fe  Fe6  1  0.122828  0.125433  0.628911  1
  Fe  Fe7  1  0.676729  0.969811  0.676729  1
  Fe  Fe8  1  0.370794  0.876747  0.876229  1
  Fe  Fe9  1  0.030789  0.322457  0.323378  1
  Fe  Fe10  1  0.970584  0.676853  0.676281  1
  Fe  Fe11  1  0.323378  0.322457  0.030789  1
  Fe  Fe12  1  0.676281  0.676853  0.970584  1
  Fe  Fe13  1  0.628911  0.125433  0.122828  1
  Fe  Fe14  1  0.676281  0.676853  0.676281  1
  Fe  Fe15  1  0.876229  0.876747  0.370794  1
  Fe  Fe16  1  0.122828  0.125433  0.122828  1
  Fe  Fe17  1  0.876337  0.370989  0.876337  1
  Fe  Fe18  1  0.876229  0.876747  0.876229  1
  Fe  Fe19  1  0.323378  0.322457  0.323378  1
  Fe  Fe20  1  0.123882  0.628354  0.123882  1
  Co  Co21  1  0.325108  0.024676  0.325108  1
  Si  Si22  1  0.999554  0.500449  0.999554  1
  Si  Si23  1  0.999734  0.000676  0.499795  1
  Si  Si24  1  0.500444  0.500449  0.999554  1
  Si  Si25  1  0.499795  0.000676  0.499795  1
  Si  Si26  1  0.499795  0.000676  0.999734  1
  Si  Si27  1  0.999554  0.500449  0.500444  1
  W  W28  1  0.999995  0.000014  0.999995  1
