# generated using pymatgen
data_Pr6Ho10Cd4OsPt3
_symmetry_space_group_name_H-M   'P 1'
_cell_length_a   9.80146885
_cell_length_b   9.80146924
_cell_length_c   9.80146901
_cell_angle_alpha   59.74648447
_cell_angle_beta   59.74648838
_cell_angle_gamma   59.74648937
_symmetry_Int_Tables_number   1
_chemical_formula_structural   Pr6Ho10Cd4OsPt3
_chemical_formula_sum   'Pr6 Ho10 Cd4 Os1 Pt3'
_cell_volume   661.98953134
_cell_formula_units_Z   1
loop_
 _symmetry_equiv_pos_site_id
 _symmetry_equiv_pos_as_xyz
  1  'x, y, z'
loop_
 _atom_site_type_symbol
 _atom_site_label
 _atom_site_symmetry_multiplicity
 _atom_site_fract_x
 _atom_site_fract_y
 _atom_site_fract_z
 _atom_site_occupancy
  Pr  Pr0  1  0.938761  0.561562  0.561562  1
  Pr  Pr1  1  0.555166  0.940987  0.940987  1
  Pr  Pr2  1  0.561562  0.938761  0.561562  1
  Pr  Pr3  1  0.940987  0.555166  0.940987  1
  Pr  Pr4  1  0.561562  0.561562  0.938761  1
  Pr  Pr5  1  0.940987  0.940987  0.555166  1
  Ho  Ho6  1  0.350894  0.350894  0.350894  1
  Ho  Ho7  1  0.347086  0.347086  0.955556  1
  Ho  Ho8  1  0.347086  0.955556  0.347086  1
  Ho  Ho9  1  0.955556  0.347086  0.347086  1
  Ho  Ho10  1  0.817578  0.186230  0.186230  1
  Ho  Ho11  1  0.184474  0.811814  0.811814  1
  Ho  Ho12  1  0.186230  0.817578  0.186230  1
  Ho  Ho13  1  0.811814  0.184474  0.811814  1
  Ho  Ho14  1  0.186230  0.186230  0.817578  1
  Ho  Ho15  1  0.811814  0.811814  0.184474  1
  Cd  Cd16  1  0.579052  0.579052  0.579052  1
  Cd  Cd17  1  0.579370  0.579370  0.261381  1
  Cd  Cd18  1  0.579370  0.261381  0.579370  1
  Cd  Cd19  1  0.261381  0.579370  0.579370  1
  Os  Os20  1  0.142493  0.142493  0.142493  1
  Pt  Pt21  1  0.143227  0.143227  0.574099  1
  Pt  Pt22  1  0.143227  0.574099  0.143227  1
  Pt  Pt23  1  0.574099  0.143227  0.143227  1
