# generated using pymatgen
data_Co4Re2B4MoW
_symmetry_space_group_name_H-M   'P 1'
_cell_length_a   3.24143400
_cell_length_b   5.71704128
_cell_length_c   6.58032762
_cell_angle_alpha   89.23314134
_cell_angle_beta   90.00000000
_cell_angle_gamma   90.00000000
_symmetry_Int_Tables_number   1
_chemical_formula_structural   Co4Re2B4MoW
_chemical_formula_sum   'Co4 Re2 B4 Mo1 W1'
_cell_volume   121.93184003
_cell_formula_units_Z   1
loop_
 _symmetry_equiv_pos_site_id
 _symmetry_equiv_pos_as_xyz
  1  'x, y, z'
loop_
 _atom_site_type_symbol
 _atom_site_label
 _atom_site_symmetry_multiplicity
 _atom_site_fract_x
 _atom_site_fract_y
 _atom_site_fract_z
 _atom_site_occupancy
  Co  Co0  1  0.750000  0.853495  0.555727  1
  Co  Co1  1  0.250000  0.146289  0.444542  1
  Co  Co2  1  0.750000  0.354892  0.945355  1
  Co  Co3  1  0.250000  0.645461  0.053567  1
  Re  Re4  1  0.250000  0.030017  0.827708  1
  Re  Re5  1  0.750000  0.970116  0.172484  1
  B  B6  1  0.250000  0.268009  0.123875  1
  B  B7  1  0.750000  0.731408  0.876625  1
  B  B8  1  0.250000  0.775091  0.371283  1
  B  B9  1  0.750000  0.225350  0.628747  1
  Mo  Mo10  1  0.750000  0.471805  0.327636  1
  W  W11  1  0.250000  0.528067  0.672451  1
