# generated using pymatgen
data_Zr18CrFe2Re7
_symmetry_space_group_name_H-M   'P 1'
_cell_length_a   8.65807100
_cell_length_b   8.65806901
_cell_length_c   8.49167500
_cell_angle_alpha   90.00000000
_cell_angle_beta   90.00000000
_cell_angle_gamma   119.99999615
_symmetry_Int_Tables_number   1
_chemical_formula_structural   Zr18CrFe2Re7
_chemical_formula_sum   'Zr18 Cr1 Fe2 Re7'
_cell_volume   551.27233522
_cell_formula_units_Z   1
loop_
 _symmetry_equiv_pos_site_id
 _symmetry_equiv_pos_as_xyz
  1  'x, y, z'
loop_
 _atom_site_type_symbol
 _atom_site_label
 _atom_site_symmetry_multiplicity
 _atom_site_fract_x
 _atom_site_fract_y
 _atom_site_fract_z
 _atom_site_occupancy
  Zr  Zr0  1  0.198852  0.801148  0.442804  1
  Zr  Zr1  1  0.198852  0.397704  0.442804  1
  Zr  Zr2  1  0.602296  0.801148  0.442804  1
  Zr  Zr3  1  0.801148  0.198852  0.557196  1
  Zr  Zr4  1  0.801148  0.602296  0.557196  1
  Zr  Zr5  1  0.397704  0.198852  0.557196  1
  Zr  Zr6  1  0.800008  0.199992  0.941703  1
  Zr  Zr7  1  0.800008  0.600015  0.941703  1
  Zr  Zr8  1  0.399985  0.199992  0.941703  1
  Zr  Zr9  1  0.199992  0.800008  0.058297  1
  Zr  Zr10  1  0.199992  0.399985  0.058297  1
  Zr  Zr11  1  0.600015  0.800008  0.058297  1
  Zr  Zr12  1  0.541212  0.458788  0.250073  1
  Zr  Zr13  1  0.541212  0.082424  0.250073  1
  Zr  Zr14  1  0.917576  0.458788  0.250073  1
  Zr  Zr15  1  0.458788  0.541212  0.749927  1
  Zr  Zr16  1  0.458788  0.917576  0.749927  1
  Zr  Zr17  1  0.082424  0.541212  0.749927  1
  Cr  Cr18  1  0.000000  0.000000  0.500000  1
  Fe  Fe19  1  0.333333  0.666667  0.249975  1
  Fe  Fe20  1  0.666667  0.333333  0.750025  1
  Re  Re21  1  0.892570  0.107430  0.254151  1
  Re  Re22  1  0.892570  0.785141  0.254151  1
  Re  Re23  1  0.214859  0.107430  0.254151  1
  Re  Re24  1  0.107430  0.892570  0.745849  1
  Re  Re25  1  0.107430  0.214859  0.745849  1
  Re  Re26  1  0.785141  0.892570  0.745849  1
  Re  Re27  1  0.000000  0.000000  0.000000  1
