# generated using pymatgen
data_Y2Ho5Er9(In3Co)2
_symmetry_space_group_name_H-M   'P 1'
_cell_length_a   10.27484113
_cell_length_b   10.27362849
_cell_length_c   7.02891616
_cell_angle_alpha   90.00299722
_cell_angle_beta   90.00461627
_cell_angle_gamma   120.00557885
_symmetry_Int_Tables_number   1
_chemical_formula_structural   Y2Ho5Er9(In3Co)2
_chemical_formula_sum   'Y2 Ho5 Er9 In6 Co2'
_cell_volume   642.53020210
_cell_formula_units_Z   1
loop_
 _symmetry_equiv_pos_site_id
 _symmetry_equiv_pos_as_xyz
  1  'x, y, z'
loop_
 _atom_site_type_symbol
 _atom_site_label
 _atom_site_symmetry_multiplicity
 _atom_site_fract_x
 _atom_site_fract_y
 _atom_site_fract_z
 _atom_site_occupancy
  Y  Y0  1  0.999991  0.999956  0.495335  1
  Y  Y1  1  0.999991  0.999987  0.995246  1
  Ho  Ho2  1  0.464838  0.535190  0.482778  1
  Ho  Ho3  1  0.070353  0.535187  0.482754  1
  Ho  Ho4  1  0.464962  0.929945  0.482536  1
  Ho  Ho5  1  0.535264  0.464678  0.982643  1
  Ho  Ho6  1  0.929408  0.464674  0.982666  1
  Er  Er7  1  0.535573  0.071176  0.982186  1
  Er  Er8  1  0.820390  0.179043  0.276899  1
  Er  Er9  1  0.358656  0.179043  0.276840  1
  Er  Er10  1  0.820731  0.641450  0.277329  1
  Er  Er11  1  0.179673  0.820992  0.777633  1
  Er  Er12  1  0.641304  0.820992  0.777633  1
  Er  Er13  1  0.179173  0.358345  0.777379  1
  Er  Er14  1  0.333505  0.667015  0.090825  1
  Er  Er15  1  0.666513  0.333004  0.590937  1
  In  In16  1  0.162797  0.836959  0.232994  1
  In  In17  1  0.674177  0.836970  0.233018  1
  In  In18  1  0.162850  0.325703  0.233178  1
  In  In19  1  0.836798  0.163049  0.732889  1
  In  In20  1  0.326248  0.163095  0.732846  1
  In  In21  1  0.837094  0.674170  0.732861  1
  Co  Co22  1  0.333321  0.666617  0.707724  1
  Co  Co23  1  0.666389  0.332760  0.207425  1
