# generated using pymatgen
data_Zr2TiSi2Ir
_symmetry_space_group_name_H-M   'P 1'
_cell_length_a   3.84122000
_cell_length_b   6.68993200
_cell_length_c   7.90135500
_cell_angle_alpha   90.00000000
_cell_angle_beta   90.00000000
_cell_angle_gamma   90.00000000
_symmetry_Int_Tables_number   1
_chemical_formula_structural   Zr2TiSi2Ir
_chemical_formula_sum   'Zr4 Ti2 Si4 Ir2'
_cell_volume   203.04507483
_cell_formula_units_Z   2
loop_
 _symmetry_equiv_pos_site_id
 _symmetry_equiv_pos_as_xyz
  1  'x, y, z'
loop_
 _atom_site_type_symbol
 _atom_site_label
 _atom_site_symmetry_multiplicity
 _atom_site_fract_x
 _atom_site_fract_y
 _atom_site_fract_z
 _atom_site_occupancy
  Zr  Zr0  1  0.250000  0.025310  0.326972  1
  Zr  Zr1  1  0.250000  0.525310  0.173028  1
  Zr  Zr2  1  0.750000  0.972074  0.673133  1
  Zr  Zr3  1  0.750000  0.472074  0.826867  1
  Ti  Ti4  1  0.250000  0.140901  0.942295  1
  Ti  Ti5  1  0.250000  0.640901  0.557705  1
  Si  Si6  1  0.250000  0.263117  0.624401  1
  Si  Si7  1  0.250000  0.763117  0.875599  1
  Si  Si8  1  0.750000  0.732259  0.356311  1
  Si  Si9  1  0.750000  0.232259  0.143689  1
  Ir  Ir10  1  0.750000  0.866339  0.058400  1
  Ir  Ir11  1  0.750000  0.366339  0.441600  1
