# generated using pymatgen
data_Ca3Ac(NdSn)16
_symmetry_space_group_name_H-M   'P 1'
_cell_length_a   8.20247826
_cell_length_b   8.47313702
_cell_length_c   16.16942276
_cell_angle_alpha   90.04775942
_cell_angle_beta   89.63422295
_cell_angle_gamma   89.74489452
_symmetry_Int_Tables_number   1
_chemical_formula_structural   Ca3Ac(NdSn)16
_chemical_formula_sum   'Ca3 Ac1 Nd16 Sn16'
_cell_volume   1123.75210267
_cell_formula_units_Z   1
loop_
 _symmetry_equiv_pos_site_id
 _symmetry_equiv_pos_as_xyz
  1  'x, y, z'
loop_
 _atom_site_type_symbol
 _atom_site_label
 _atom_site_symmetry_multiplicity
 _atom_site_fract_x
 _atom_site_fract_y
 _atom_site_fract_z
 _atom_site_occupancy
  Ca  Ca0  1  0.186922  0.497097  0.247921  1
  Ca  Ca1  1  0.684733  0.999618  0.248028  1
  Ca  Ca2  1  0.315794  0.999667  0.751295  1
  Ac  Ac3  1  0.001959  0.182953  0.406693  1
  Nd  Nd4  1  0.356731  0.830014  0.121452  1
  Nd  Nd5  1  0.148891  0.332887  0.622371  1
  Nd  Nd6  1  0.490591  0.683020  0.902163  1
  Nd  Nd7  1  0.855981  0.665312  0.119345  1
  Nd  Nd8  1  0.145219  0.332739  0.878306  1
  Nd  Nd9  1  0.489843  0.681755  0.600097  1
  Nd  Nd10  1  0.647425  0.171010  0.625381  1
  Nd  Nd11  1  0.814043  0.503335  0.751334  1
  Nd  Nd12  1  0.854116  0.664723  0.379206  1
  Nd  Nd13  1  0.004284  0.183722  0.094178  1
  Nd  Nd14  1  0.995630  0.819290  0.903149  1
  Nd  Nd15  1  0.644204  0.167304  0.877021  1
  Nd  Nd16  1  0.507483  0.317696  0.094436  1
  Nd  Nd17  1  0.352966  0.829996  0.374651  1
  Nd  Nd18  1  0.997839  0.816200  0.598291  1
  Nd  Nd19  1  0.506714  0.320050  0.403045  1
  Sn  Sn20  1  0.802201  0.467675  0.544094  1
  Sn  Sn21  1  0.678666  0.955044  0.465327  1
  Sn  Sn22  1  0.692693  0.859219  0.750661  1
  Sn  Sn23  1  0.200750  0.543199  0.462888  1
  Sn  Sn24  1  0.305511  0.039519  0.962232  1
  Sn  Sn25  1  0.807040  0.360655  0.246963  1
  Sn  Sn26  1  0.801940  0.463576  0.957792  1
  Sn  Sn27  1  0.555990  0.609869  0.248710  1
  Sn  Sn28  1  0.199032  0.536884  0.038577  1
  Sn  Sn29  1  0.443358  0.389806  0.751349  1
  Sn  Sn30  1  0.186056  0.641846  0.750380  1
  Sn  Sn31  1  0.948888  0.112466  0.749609  1
  Sn  Sn32  1  0.318478  0.034505  0.540190  1
  Sn  Sn33  1  0.693755  0.961009  0.037608  1
  Sn  Sn34  1  0.311244  0.138693  0.247517  1
  Sn  Sn35  1  0.053029  0.887647  0.247739  1
