# generated using pymatgen
data_Dy5Y3Tc2(B12Os)2
_symmetry_space_group_name_H-M   'P 1'
_cell_length_a   3.67804700
_cell_length_b   9.17957003
_cell_length_c   11.56945104
_cell_angle_alpha   89.91973680
_cell_angle_beta   90.00000000
_cell_angle_gamma   90.00000000
_symmetry_Int_Tables_number   1
_chemical_formula_structural   Dy5Y3Tc2(B12Os)2
_chemical_formula_sum   'Dy5 Y3 Tc2 B24 Os2'
_cell_volume   390.61771952
_cell_formula_units_Z   1
loop_
 _symmetry_equiv_pos_site_id
 _symmetry_equiv_pos_as_xyz
  1  'x, y, z'
loop_
 _atom_site_type_symbol
 _atom_site_label
 _atom_site_symmetry_multiplicity
 _atom_site_fract_x
 _atom_site_fract_y
 _atom_site_fract_z
 _atom_site_occupancy
  Dy  Dy0  1  0.000000  0.178619  0.912619  1
  Dy  Dy1  1  0.000000  0.941753  0.370896  1
  Dy  Dy2  1  0.000000  0.058230  0.629093  1
  Dy  Dy3  1  0.000000  0.443618  0.129940  1
  Dy  Dy4  1  0.000000  0.556347  0.870062  1
  Y  Y5  1  0.000000  0.324943  0.415288  1
  Y  Y6  1  0.000000  0.675068  0.584708  1
  Y  Y7  1  0.000000  0.821141  0.087397  1
  Tc  Tc8  1  0.000000  0.638256  0.320368  1
  Tc  Tc9  1  0.000000  0.361684  0.679706  1
  B  B10  1  0.500000  0.553128  0.432790  1
  B  B11  1  0.500000  0.446852  0.567233  1
  B  B12  1  0.500000  0.053757  0.067026  1
  B  B13  1  0.500000  0.946555  0.932831  1
  B  B14  1  0.500000  0.747944  0.418799  1
  B  B15  1  0.500000  0.252065  0.581249  1
  B  B16  1  0.500000  0.248307  0.081244  1
  B  B17  1  0.500000  0.751717  0.918585  1
  B  B18  1  0.500000  0.791177  0.265727  1
  B  B19  1  0.500000  0.208799  0.734410  1
  B  B20  1  0.500000  0.290474  0.233859  1
  B  B21  1  0.500000  0.709537  0.766107  1
  B  B22  1  0.500000  0.631333  0.185612  1
  B  B23  1  0.500000  0.368497  0.814495  1
  B  B24  1  0.500000  0.130798  0.313695  1
  B  B25  1  0.500000  0.869256  0.686307  1
  B  B26  1  0.500000  0.983150  0.212016  1
  B  B27  1  0.500000  0.017033  0.788024  1
  B  B28  1  0.500000  0.483050  0.287618  1
  B  B29  1  0.500000  0.516889  0.712400  1
  B  B30  1  0.500000  0.604107  0.028670  1
  B  B31  1  0.500000  0.395746  0.971290  1
  B  B32  1  0.500000  0.103960  0.470823  1
  B  B33  1  0.500000  0.896052  0.529180  1
  Os  Os34  1  0.000000  0.137307  0.178025  1
  Os  Os35  1  0.000000  0.862846  0.821906  1
