# generated using pymatgen
data_Sc7Co3Sn23Ir3
_symmetry_space_group_name_H-M   'P 1'
_cell_length_a   9.62162200
_cell_length_b   9.62162143
_cell_length_c   9.90536500
_cell_angle_alpha   90.00000000
_cell_angle_beta   90.00000000
_cell_angle_gamma   119.99999507
_symmetry_Int_Tables_number   1
_chemical_formula_structural   Sc7Co3Sn23Ir3
_chemical_formula_sum   'Sc7 Co3 Sn23 Ir3'
_cell_volume   794.14113638
_cell_formula_units_Z   1
loop_
 _symmetry_equiv_pos_site_id
 _symmetry_equiv_pos_as_xyz
  1  'x, y, z'
loop_
 _atom_site_type_symbol
 _atom_site_label
 _atom_site_symmetry_multiplicity
 _atom_site_fract_x
 _atom_site_fract_y
 _atom_site_fract_z
 _atom_site_occupancy
  Sc  Sc0  1  0.000000  0.000000  0.969099  1
  Sc  Sc1  1  0.516340  0.483660  0.694065  1
  Sc  Sc2  1  0.516340  0.032679  0.694065  1
  Sc  Sc3  1  0.967321  0.483660  0.694065  1
  Sc  Sc4  1  0.035648  0.517825  0.309155  1
  Sc  Sc5  1  0.482175  0.964352  0.309155  1
  Sc  Sc6  1  0.482175  0.517825  0.309155  1
  Co  Co7  1  0.340205  0.170103  0.203514  1
  Co  Co8  1  0.829897  0.659795  0.203514  1
  Co  Co9  1  0.829897  0.170103  0.203514  1
  Sn  Sn10  1  0.666667  0.333333  0.179600  1
  Sn  Sn11  1  0.666667  0.333333  0.864078  1
  Sn  Sn12  1  0.333333  0.666667  0.139240  1
  Sn  Sn13  1  0.352062  0.345177  0.007972  1
  Sn  Sn14  1  0.993115  0.647938  0.007972  1
  Sn  Sn15  1  0.654823  0.006885  0.007972  1
  Sn  Sn16  1  0.654823  0.647938  0.007972  1
  Sn  Sn17  1  0.333333  0.666667  0.833447  1
  Sn  Sn18  1  0.444155  0.222077  0.452620  1
  Sn  Sn19  1  0.223048  0.776952  0.539979  1
  Sn  Sn20  1  0.223048  0.446093  0.539979  1
  Sn  Sn21  1  0.553907  0.776952  0.539979  1
  Sn  Sn22  1  0.119361  0.880639  0.273514  1
  Sn  Sn23  1  0.777923  0.555845  0.452620  1
  Sn  Sn24  1  0.777923  0.222077  0.452620  1
  Sn  Sn25  1  0.352062  0.006885  0.007972  1
  Sn  Sn26  1  0.119361  0.238723  0.273514  1
  Sn  Sn27  1  0.761277  0.880639  0.273514  1
  Sn  Sn28  1  0.249569  0.124784  0.712429  1
  Sn  Sn29  1  0.875216  0.750431  0.712429  1
  Sn  Sn30  1  0.875216  0.124784  0.712429  1
  Sn  Sn31  1  0.000000  0.000000  0.498657  1
  Sn  Sn32  1  0.993115  0.345177  0.007972  1
  Ir  Ir33  1  0.168495  0.831505  0.804074  1
  Ir  Ir34  1  0.168495  0.336989  0.804074  1
  Ir  Ir35  1  0.663011  0.831505  0.804074  1
