# generated using pymatgen
data_Yb7Dy(TmIr2)2
_symmetry_space_group_name_H-M   'P 1'
_cell_length_a   6.48758934
_cell_length_b   7.30311207
_cell_length_c   8.55434400
_cell_angle_alpha   96.66361490
_cell_angle_beta   112.80557665
_cell_angle_gamma   90.61230250
_symmetry_Int_Tables_number   1
_chemical_formula_structural   Yb7Dy(TmIr2)2
_chemical_formula_sum   'Yb7 Dy1 Tm2 Ir4'
_cell_volume   370.40668458
_cell_formula_units_Z   1
loop_
 _symmetry_equiv_pos_site_id
 _symmetry_equiv_pos_as_xyz
  1  'x, y, z'
loop_
 _atom_site_type_symbol
 _atom_site_label
 _atom_site_symmetry_multiplicity
 _atom_site_fract_x
 _atom_site_fract_y
 _atom_site_fract_z
 _atom_site_occupancy
  Yb  Yb0  1  0.797985  0.575687  0.824588  1
  Yb  Yb1  1  0.027759  0.079163  0.823787  1
  Yb  Yb2  1  0.195455  0.420098  0.170446  1
  Yb  Yb3  1  0.639054  0.819320  0.433403  1
  Yb  Yb4  1  0.204914  0.681510  0.565141  1
  Yb  Yb5  1  0.361366  0.179355  0.565795  1
  Yb  Yb6  1  0.799378  0.318293  0.435176  1
  Dy  Dy7  1  0.971942  0.918529  0.166155  1
  Tm  Tm8  1  0.430467  0.749012  0.999126  1
  Tm  Tm9  1  0.563382  0.251278  0.001608  1
  Ir  Ir10  1  0.813901  0.582411  0.210892  1
  Ir  Ir11  1  0.612585  0.928310  0.804631  1
  Ir  Ir12  1  0.191114  0.425243  0.789143  1
  Ir  Ir13  1  0.390699  0.071792  0.210110  1
