# generated using pymatgen
data_La4Pr11Y(MgIr)4
_symmetry_space_group_name_H-M   'P 1'
_cell_length_a   10.05645655
_cell_length_b   10.09378644
_cell_length_c   10.09378658
_cell_angle_alpha   60.15892592
_cell_angle_beta   60.12226744
_cell_angle_gamma   60.12227111
_symmetry_Int_Tables_number   1
_chemical_formula_structural   La4Pr11Y(MgIr)4
_chemical_formula_sum   'La4 Pr11 Y1 Mg4 Ir4'
_cell_volume   726.70675930
_cell_formula_units_Z   1
loop_
 _symmetry_equiv_pos_site_id
 _symmetry_equiv_pos_as_xyz
  1  'x, y, z'
loop_
 _atom_site_type_symbol
 _atom_site_label
 _atom_site_symmetry_multiplicity
 _atom_site_fract_x
 _atom_site_fract_y
 _atom_site_fract_z
 _atom_site_occupancy
  La  La0  1  0.349455  0.344921  0.344921  1
  La  La1  1  0.345833  0.347118  0.961215  1
  La  La2  1  0.345833  0.961215  0.347118  1
  La  La3  1  0.960703  0.344921  0.344921  1
  Pr  Pr4  1  0.189033  0.810967  0.810967  1
  Pr  Pr5  1  0.186127  0.813356  0.188750  1
  Pr  Pr6  1  0.811767  0.188750  0.813356  1
  Pr  Pr7  1  0.186127  0.188750  0.813356  1
  Pr  Pr8  1  0.811767  0.813356  0.188750  1
  Pr  Pr9  1  0.938180  0.561820  0.561820  1
  Pr  Pr10  1  0.561666  0.938334  0.938334  1
  Pr  Pr11  1  0.563801  0.939343  0.559972  1
  Pr  Pr12  1  0.936884  0.559972  0.939343  1
  Pr  Pr13  1  0.563801  0.559972  0.939343  1
  Pr  Pr14  1  0.936884  0.939343  0.559972  1
  Y  Y15  1  0.811286  0.188714  0.188714  1
  Mg  Mg16  1  0.579161  0.579274  0.579274  1
  Mg  Mg17  1  0.580356  0.577513  0.261776  1
  Mg  Mg18  1  0.580356  0.261776  0.577513  1
  Mg  Mg19  1  0.262291  0.579274  0.579274  1
  Ir  Ir20  1  0.137840  0.143139  0.143139  1
  Ir  Ir21  1  0.142484  0.142088  0.572945  1
  Ir  Ir22  1  0.142484  0.572945  0.142088  1
  Ir  Ir23  1  0.575882  0.143139  0.143139  1
