# generated using pymatgen
data_HoSb3F18
_symmetry_space_group_name_H-M   'P 1'
_cell_length_a   9.48716700
_cell_length_b   9.48716757
_cell_length_c   8.65390000
_cell_angle_alpha   90.00000000
_cell_angle_beta   90.00000000
_cell_angle_gamma   120.00000150
_symmetry_Int_Tables_number   1
_chemical_formula_structural   HoSb3F18
_chemical_formula_sum   'Ho2 Sb6 F36'
_cell_volume   674.55227975
_cell_formula_units_Z   2
loop_
 _symmetry_equiv_pos_site_id
 _symmetry_equiv_pos_as_xyz
  1  'x, y, z'
loop_
 _atom_site_type_symbol
 _atom_site_label
 _atom_site_symmetry_multiplicity
 _atom_site_fract_x
 _atom_site_fract_y
 _atom_site_fract_z
 _atom_site_occupancy
  Ho  Ho0  1  0.333333  0.666667  0.574625  1
  Ho  Ho1  1  0.666667  0.333333  0.425375  1
  Sb  Sb2  1  0.982066  0.345553  0.764728  1
  Sb  Sb3  1  0.363487  0.017934  0.764728  1
  Sb  Sb4  1  0.654447  0.636513  0.764728  1
  Sb  Sb5  1  0.017934  0.654447  0.235272  1
  Sb  Sb6  1  0.636513  0.982066  0.235272  1
  Sb  Sb7  1  0.345553  0.363487  0.235272  1
  F  F8  1  0.472770  0.862162  0.400325  1
  F  F9  1  0.389392  0.527230  0.400325  1
  F  F10  1  0.137838  0.610608  0.400325  1
  F  F11  1  0.527230  0.137838  0.599675  1
  F  F12  1  0.610608  0.472770  0.599675  1
  F  F13  1  0.862162  0.389392  0.599675  1
  F  F14  1  0.110766  0.314857  0.910418  1
  F  F15  1  0.204091  0.889234  0.910418  1
  F  F16  1  0.685143  0.795909  0.910418  1
  F  F17  1  0.889234  0.685143  0.089582  1
  F  F18  1  0.795909  0.110766  0.089582  1
  F  F19  1  0.314857  0.204091  0.089582  1
  F  F20  1  0.857377  0.387382  0.906059  1
  F  F21  1  0.530006  0.142623  0.906059  1
  F  F22  1  0.612618  0.469994  0.906059  1
  F  F23  1  0.142623  0.612618  0.093941  1
  F  F24  1  0.469994  0.857377  0.093941  1
  F  F25  1  0.387382  0.530006  0.093941  1
  F  F26  1  0.238412  0.870718  0.596565  1
  F  F27  1  0.632306  0.761588  0.596565  1
  F  F28  1  0.129282  0.367694  0.596565  1
  F  F29  1  0.761588  0.129282  0.403435  1
  F  F30  1  0.367694  0.238412  0.403435  1
  F  F31  1  0.870718  0.632306  0.403435  1
  F  F32  1  0.838130  0.122425  0.731455  1
  F  F33  1  0.284295  0.161870  0.731455  1
  F  F34  1  0.877575  0.715705  0.731455  1
  F  F35  1  0.161870  0.877575  0.268545  1
  F  F36  1  0.715705  0.838130  0.268545  1
  F  F37  1  0.122425  0.284295  0.268545  1
  F  F38  1  0.134285  0.584586  0.754651  1
  F  F39  1  0.450301  0.865715  0.754651  1
  F  F40  1  0.415414  0.549699  0.754651  1
  F  F41  1  0.865715  0.415414  0.245349  1
  F  F42  1  0.549699  0.134285  0.245349  1
  F  F43  1  0.584586  0.450301  0.245349  1
