# generated using pymatgen
data_Sc6Ti4Al12TcRh6
_symmetry_space_group_name_H-M   'P 1'
_cell_length_a   8.83725354
_cell_length_b   8.83725376
_cell_length_c   8.78872300
_cell_angle_alpha   60.18149911
_cell_angle_beta   60.18149828
_cell_angle_gamma   59.90237826
_symmetry_Int_Tables_number   1
_chemical_formula_structural   Sc6Ti4Al12TcRh6
_chemical_formula_sum   'Sc6 Ti4 Al12 Tc1 Rh6'
_cell_volume   486.30443702
_cell_formula_units_Z   1
loop_
 _symmetry_equiv_pos_site_id
 _symmetry_equiv_pos_as_xyz
  1  'x, y, z'
loop_
 _atom_site_type_symbol
 _atom_site_label
 _atom_site_symmetry_multiplicity
 _atom_site_fract_x
 _atom_site_fract_y
 _atom_site_fract_z
 _atom_site_occupancy
  Sc  Sc0  1  0.701301  0.298592  0.289138  1
  Sc  Sc1  1  0.701301  0.298592  0.710968  1
  Sc  Sc2  1  0.709896  0.709896  0.290104  1
  Sc  Sc3  1  0.298592  0.701301  0.710968  1
  Sc  Sc4  1  0.298592  0.701301  0.289138  1
  Sc  Sc5  1  0.292009  0.292009  0.707991  1
  Ti  Ti6  1  0.640441  0.121645  0.118958  1
  Ti  Ti7  1  0.121645  0.640441  0.118958  1
  Ti  Ti8  1  0.118480  0.118480  0.641842  1
  Ti  Ti9  1  0.118480  0.118480  0.121197  1
  Al  Al10  1  0.360026  0.879923  0.880025  1
  Al  Al11  1  0.879923  0.360026  0.880025  1
  Al  Al12  1  0.880573  0.880573  0.360314  1
  Al  Al13  1  0.880573  0.880573  0.878540  1
  Al  Al14  1  0.994097  0.334291  0.335805  1
  Al  Al15  1  0.334291  0.994097  0.335805  1
  Al  Al16  1  0.331373  0.331373  0.001938  1
  Al  Al17  1  0.331373  0.331373  0.335316  1
  Al  Al18  1  0.007507  0.665203  0.663645  1
  Al  Al19  1  0.665203  0.007507  0.663645  1
  Al  Al20  1  0.668325  0.668325  0.999134  1
  Al  Al21  1  0.668325  0.668325  0.664216  1
  Tc  Tc22  1  0.498405  0.498405  0.001595  1
  Rh  Rh23  1  0.999844  0.999844  0.000156  1
  Rh  Rh24  1  0.497989  0.001193  0.000896  1
  Rh  Rh25  1  0.497989  0.001193  0.499921  1
  Rh  Rh26  1  0.001193  0.497989  0.499921  1
  Rh  Rh27  1  0.001193  0.497989  0.000896  1
  Rh  Rh28  1  0.001058  0.001058  0.498942  1
