# generated using pymatgen
data_Dy5ErNi12(B2Ir)2
_symmetry_space_group_name_H-M   'P 1'
_cell_length_a   5.08152400
_cell_length_b   5.08152461
_cell_length_c   14.57969900
_cell_angle_alpha   90.00000000
_cell_angle_beta   90.00000000
_cell_angle_gamma   120.00000905
_symmetry_Int_Tables_number   1
_chemical_formula_structural   Dy5ErNi12(B2Ir)2
_chemical_formula_sum   'Dy5 Er1 Ni12 B4 Ir2'
_cell_volume   326.03720717
_cell_formula_units_Z   1
loop_
 _symmetry_equiv_pos_site_id
 _symmetry_equiv_pos_as_xyz
  1  'x, y, z'
loop_
 _atom_site_type_symbol
 _atom_site_label
 _atom_site_symmetry_multiplicity
 _atom_site_fract_x
 _atom_site_fract_y
 _atom_site_fract_z
 _atom_site_occupancy
  Dy  Dy0  1  0.333333  0.666667  0.468554  1
  Dy  Dy1  1  0.666667  0.333333  0.968900  1
  Dy  Dy2  1  0.666667  0.333333  0.531100  1
  Dy  Dy3  1  0.333333  0.666667  0.031446  1
  Dy  Dy4  1  0.666667  0.333333  0.750000  1
  Er  Er5  1  0.333333  0.666667  0.250000  1
  Ni  Ni6  1  0.834618  0.165382  0.347680  1
  Ni  Ni7  1  0.834618  0.669235  0.347680  1
  Ni  Ni8  1  0.834618  0.669235  0.152320  1
  Ni  Ni9  1  0.165395  0.834605  0.652015  1
  Ni  Ni10  1  0.669208  0.834605  0.652015  1
  Ni  Ni11  1  0.330765  0.165382  0.152320  1
  Ni  Ni12  1  0.834618  0.165382  0.152320  1
  Ni  Ni13  1  0.165395  0.330792  0.847985  1
  Ni  Ni14  1  0.165395  0.834605  0.847985  1
  Ni  Ni15  1  0.165395  0.330792  0.652015  1
  Ni  Ni16  1  0.669208  0.834605  0.847985  1
  Ni  Ni17  1  0.330765  0.165382  0.347680  1
  B  B18  1  0.666667  0.333333  0.250000  1
  B  B19  1  0.333333  0.666667  0.750000  1
  B  B20  1  0.000000  0.000000  0.750000  1
  B  B21  1  0.000000  0.000000  0.250000  1
  Ir  Ir22  1  0.000000  0.000000  0.000062  1
  Ir  Ir23  1  0.000000  0.000000  0.499938  1
