# generated using pymatgen
data_Y7NbTc2(B12Os)2
_symmetry_space_group_name_H-M   'P 1'
_cell_length_a   3.64313900
_cell_length_b   9.11916366
_cell_length_c   11.51460191
_cell_angle_alpha   89.97149891
_cell_angle_beta   90.00000000
_cell_angle_gamma   90.00000000
_symmetry_Int_Tables_number   1
_chemical_formula_structural   Y7NbTc2(B12Os)2
_chemical_formula_sum   'Y7 Nb1 Tc2 B24 Os2'
_cell_volume   382.54244168
_cell_formula_units_Z   1
loop_
 _symmetry_equiv_pos_site_id
 _symmetry_equiv_pos_as_xyz
  1  'x, y, z'
loop_
 _atom_site_type_symbol
 _atom_site_label
 _atom_site_symmetry_multiplicity
 _atom_site_fract_x
 _atom_site_fract_y
 _atom_site_fract_z
 _atom_site_occupancy
  Y  Y0  1  0.000000  0.324648  0.413729  1
  Y  Y1  1  0.000000  0.676335  0.585620  1
  Y  Y2  1  0.000000  0.819123  0.086849  1
  Y  Y3  1  0.000000  0.178993  0.913408  1
  Y  Y4  1  0.000000  0.942778  0.372684  1
  Y  Y5  1  0.000000  0.057638  0.628816  1
  Y  Y6  1  0.000000  0.445623  0.125536  1
  Nb  Nb7  1  0.000000  0.553102  0.871004  1
  Tc  Tc8  1  0.000000  0.637702  0.318625  1
  Tc  Tc9  1  0.000000  0.367342  0.685878  1
  B  B10  1  0.500000  0.552985  0.432630  1
  B  B11  1  0.500000  0.448109  0.568114  1
  B  B12  1  0.500000  0.052992  0.066109  1
  B  B13  1  0.500000  0.943077  0.933936  1
  B  B14  1  0.500000  0.747522  0.418364  1
  B  B15  1  0.500000  0.254127  0.583010  1
  B  B16  1  0.500000  0.248183  0.080377  1
  B  B17  1  0.500000  0.746029  0.918979  1
  B  B18  1  0.500000  0.791551  0.264927  1
  B  B19  1  0.500000  0.209782  0.736764  1
  B  B20  1  0.500000  0.291077  0.233284  1
  B  B21  1  0.500000  0.705678  0.766079  1
  B  B22  1  0.500000  0.630662  0.185055  1
  B  B23  1  0.500000  0.374146  0.816865  1
  B  B24  1  0.500000  0.132127  0.314044  1
  B  B25  1  0.500000  0.866784  0.685625  1
  B  B26  1  0.500000  0.983217  0.211980  1
  B  B27  1  0.500000  0.015105  0.789426  1
  B  B28  1  0.500000  0.481915  0.286900  1
  B  B29  1  0.500000  0.521127  0.714691  1
  B  B30  1  0.500000  0.602396  0.022014  1
  B  B31  1  0.500000  0.402964  0.967471  1
  B  B32  1  0.500000  0.108211  0.471318  1
  B  B33  1  0.500000  0.892912  0.530293  1
  Os  Os34  1  0.000000  0.138385  0.176746  1
  Os  Os35  1  0.000000  0.855656  0.822849  1
