# generated using pymatgen
data_La2Dy2TmRu2
_symmetry_space_group_name_H-M   'P 1'
_cell_length_a   6.48944628
_cell_length_b   7.24425987
_cell_length_c   8.76324302
_cell_angle_alpha   96.36652230
_cell_angle_beta   111.73196821
_cell_angle_gamma   90.00000243
_symmetry_Int_Tables_number   1
_chemical_formula_structural   La2Dy2TmRu2
_chemical_formula_sum   'La4 Dy4 Tm2 Ru4'
_cell_volume   379.95409680
_cell_formula_units_Z   2
loop_
 _symmetry_equiv_pos_site_id
 _symmetry_equiv_pos_as_xyz
  1  'x, y, z'
loop_
 _atom_site_type_symbol
 _atom_site_label
 _atom_site_symmetry_multiplicity
 _atom_site_fract_x
 _atom_site_fract_y
 _atom_site_fract_z
 _atom_site_occupancy
  La  La0  1  0.783264  0.088283  0.804967  1
  La  La1  1  0.978297  0.411717  0.195033  1
  La  La2  1  0.216736  0.911717  0.195033  1
  La  La3  1  0.021703  0.588283  0.804967  1
  Dy  Dy4  1  0.204069  0.184899  0.569738  1
  Dy  Dy5  1  0.634330  0.315101  0.430262  1
  Dy  Dy6  1  0.795931  0.815101  0.430262  1
  Dy  Dy7  1  0.365670  0.684899  0.569738  1
  Tm  Tm8  1  0.426023  0.250000  0.000000  1
  Tm  Tm9  1  0.573977  0.750000  0.000000  1
  Ru  Ru10  1  0.598420  0.418690  0.775542  1
  Ru  Ru11  1  0.822877  0.081310  0.224458  1
  Ru  Ru12  1  0.401580  0.581310  0.224458  1
  Ru  Ru13  1  0.177123  0.918690  0.775542  1
