# generated using pymatgen
data_La6Al23VOs8
_symmetry_space_group_name_H-M   'P 1'
_cell_length_a   8.97305800
_cell_length_b   8.97305698
_cell_length_c   9.72343600
_cell_angle_alpha   90.00000000
_cell_angle_beta   90.00000000
_cell_angle_gamma   120.00000376
_symmetry_Int_Tables_number   1
_chemical_formula_structural   La6Al23VOs8
_chemical_formula_sum   'La6 Al23 V1 Os8'
_cell_volume   678.00246962
_cell_formula_units_Z   1
loop_
 _symmetry_equiv_pos_site_id
 _symmetry_equiv_pos_as_xyz
  1  'x, y, z'
loop_
 _atom_site_type_symbol
 _atom_site_label
 _atom_site_symmetry_multiplicity
 _atom_site_fract_x
 _atom_site_fract_y
 _atom_site_fract_z
 _atom_site_occupancy
  La  La0  1  0.193730  0.387460  0.248281  1
  La  La1  1  0.808058  0.616115  0.749882  1
  La  La2  1  0.612540  0.806270  0.248281  1
  La  La3  1  0.383885  0.191942  0.749882  1
  La  La4  1  0.193730  0.806270  0.248281  1
  La  La5  1  0.808058  0.191942  0.749882  1
  Al  Al6  1  0.666667  0.333333  0.992074  1
  Al  Al7  1  0.666667  0.333333  0.506529  1
  Al  Al8  1  0.333333  0.666667  0.495179  1
  Al  Al9  1  0.162401  0.324801  0.574710  1
  Al  Al10  1  0.837663  0.675327  0.424997  1
  Al  Al11  1  0.675199  0.837599  0.574710  1
  Al  Al12  1  0.836216  0.672433  0.076628  1
  Al  Al13  1  0.324673  0.162337  0.424997  1
  Al  Al14  1  0.160775  0.321549  0.926047  1
  Al  Al15  1  0.162401  0.837599  0.574710  1
  Al  Al16  1  0.327567  0.163784  0.076628  1
  Al  Al17  1  0.837663  0.162337  0.424997  1
  Al  Al18  1  0.678451  0.839225  0.926047  1
  Al  Al19  1  0.836216  0.163784  0.076628  1
  Al  Al20  1  0.160775  0.839225  0.926047  1
  Al  Al21  1  0.564096  0.128192  0.252441  1
  Al  Al22  1  0.438419  0.876837  0.749088  1
  Al  Al23  1  0.871808  0.435904  0.252441  1
  Al  Al24  1  0.123163  0.561581  0.749088  1
  Al  Al25  1  0.564096  0.435904  0.252441  1
  Al  Al26  1  0.438419  0.561581  0.749088  1
  Al  Al27  1  0.000000  0.000000  0.251515  1
  Al  Al28  1  0.000000  0.000000  0.750106  1
  V  V29  1  0.333333  0.666667  0.972239  1
  Os  Os30  1  0.494425  0.988850  0.005636  1
  Os  Os31  1  0.011150  0.505575  0.005636  1
  Os  Os32  1  0.499478  0.998956  0.502451  1
  Os  Os33  1  0.494425  0.505575  0.005636  1
  Os  Os34  1  0.001044  0.500522  0.502451  1
  Os  Os35  1  0.499478  0.500522  0.502451  1
  Os  Os36  1  0.000000  0.000000  0.001617  1
  Os  Os37  1  0.000000  0.000000  0.500260  1
