# generated using pymatgen
data_Lu9Re(SiB4)4
_symmetry_space_group_name_H-M   'P 1'
_cell_length_a   7.05159300
_cell_length_b   7.05159300
_cell_length_c   7.63306700
_cell_angle_alpha   90.00000000
_cell_angle_beta   90.00000000
_cell_angle_gamma   90.00000000
_symmetry_Int_Tables_number   1
_chemical_formula_structural   Lu9Re(SiB4)4
_chemical_formula_sum   'Lu9 Re1 Si4 B16'
_cell_volume   379.55398055
_cell_formula_units_Z   1
loop_
 _symmetry_equiv_pos_site_id
 _symmetry_equiv_pos_as_xyz
  1  'x, y, z'
loop_
 _atom_site_type_symbol
 _atom_site_label
 _atom_site_symmetry_multiplicity
 _atom_site_fract_x
 _atom_site_fract_y
 _atom_site_fract_z
 _atom_site_occupancy
  Lu  Lu0  1  0.681436  0.178489  0.230931  1
  Lu  Lu1  1  0.318564  0.821511  0.769069  1
  Lu  Lu2  1  0.318564  0.821511  0.230931  1
  Lu  Lu3  1  0.821511  0.681436  0.230931  1
  Lu  Lu4  1  0.821511  0.681436  0.769069  1
  Lu  Lu5  1  0.681436  0.178489  0.769069  1
  Lu  Lu6  1  0.178489  0.318564  0.769069  1
  Lu  Lu7  1  0.178489  0.318564  0.230931  1
  Lu  Lu8  1  0.500000  0.500000  0.500000  1
  Re  Re9  1  0.000000  0.000000  0.500000  1
  Si  Si10  1  0.108946  0.634697  0.500000  1
  Si  Si11  1  0.891054  0.365303  0.500000  1
  Si  Si12  1  0.365303  0.108946  0.500000  1
  Si  Si13  1  0.634697  0.891054  0.500000  1
  B  B14  1  0.173232  0.039463  0.000000  1
  B  B15  1  0.826768  0.960537  0.000000  1
  B  B16  1  0.960537  0.173232  0.000000  1
  B  B17  1  0.327375  0.539648  0.000000  1
  B  B18  1  0.039463  0.826768  0.000000  1
  B  B19  1  0.672625  0.460352  0.000000  1
  B  B20  1  0.539648  0.672625  0.000000  1
  B  B21  1  0.460352  0.327375  0.000000  1
  B  B22  1  0.089812  0.588938  0.000000  1
  B  B23  1  0.910188  0.411062  0.000000  1
  B  B24  1  0.411062  0.089812  0.000000  1
  B  B25  1  0.588938  0.910188  0.000000  1
  B  B26  1  0.000000  0.000000  0.177421  1
  B  B27  1  0.000000  0.000000  0.822579  1
  B  B28  1  0.500000  0.500000  0.829212  1
  B  B29  1  0.500000  0.500000  0.170788  1
