# generated using pymatgen
data_TbDyCr2F14
_symmetry_space_group_name_H-M   'P 1'
_cell_length_a   5.50763561
_cell_length_b   8.78146332
_cell_length_c   11.70645190
_cell_angle_alpha   62.92855283
_cell_angle_beta   90.03255981
_cell_angle_gamma   89.97659187
_symmetry_Int_Tables_number   1
_chemical_formula_structural   TbDyCr2F14
_chemical_formula_sum   'Tb2 Dy2 Cr4 F28'
_cell_volume   504.15224300
_cell_formula_units_Z   2
loop_
 _symmetry_equiv_pos_site_id
 _symmetry_equiv_pos_as_xyz
  1  'x, y, z'
loop_
 _atom_site_type_symbol
 _atom_site_label
 _atom_site_symmetry_multiplicity
 _atom_site_fract_x
 _atom_site_fract_y
 _atom_site_fract_z
 _atom_site_occupancy
  Tb  Tb0  1  0.765167  0.190185  0.234508  1
  Tb  Tb1  1  0.234833  0.809815  0.765492  1
  Dy  Dy2  1  0.265832  0.809107  0.265535  1
  Dy  Dy3  1  0.734168  0.190893  0.734465  1
  Cr  Cr4  1  0.757139  0.726203  0.043808  1
  Cr  Cr5  1  0.242861  0.273797  0.956192  1
  Cr  Cr6  1  0.257311  0.274462  0.457010  1
  Cr  Cr7  1  0.742689  0.725538  0.542990  1
  F  F8  1  0.936322  0.706467  0.422378  1
  F  F9  1  0.063678  0.293533  0.577622  1
  F  F10  1  0.436173  0.293034  0.077212  1
  F  F11  1  0.563827  0.706966  0.922788  1
  F  F12  1  0.479594  0.730015  0.136795  1
  F  F13  1  0.520406  0.269985  0.863205  1
  F  F14  1  0.979414  0.270412  0.363837  1
  F  F15  1  0.020586  0.729588  0.636163  1
  F  F16  1  0.951329  0.744679  0.167978  1
  F  F17  1  0.048671  0.255321  0.832022  1
  F  F18  1  0.450004  0.256061  0.332525  1
  F  F19  1  0.549996  0.743939  0.667475  1
  F  F20  1  0.766894  0.491255  0.138343  1
  F  F21  1  0.233106  0.508745  0.861657  1
  F  F22  1  0.266791  0.509470  0.361954  1
  F  F23  1  0.733209  0.490530  0.638046  1
  F  F24  1  0.957501  0.282862  0.043771  1
  F  F25  1  0.042499  0.717138  0.956229  1
  F  F26  1  0.457032  0.717061  0.455424  1
  F  F27  1  0.542968  0.282939  0.544576  1
  F  F28  1  0.741823  0.959323  0.453411  1
  F  F29  1  0.258177  0.040677  0.546589  1
  F  F30  1  0.241935  0.040173  0.046404  1
  F  F31  1  0.758065  0.959827  0.953596  1
  F  F32  1  0.587144  0.972529  0.227257  1
  F  F33  1  0.412856  0.027471  0.772743  1
  F  F34  1  0.088781  0.025269  0.272780  1
  F  F35  1  0.911219  0.974731  0.727220  1
