# generated using pymatgen
data_RbNa3TiO4
_symmetry_space_group_name_H-M   'P 1'
_cell_length_a   6.52298996
_cell_length_b   8.53898832
_cell_length_c   11.27490257
_cell_angle_alpha   83.07686291
_cell_angle_beta   76.33739199
_cell_angle_gamma   79.72214821
_symmetry_Int_Tables_number   1
_chemical_formula_structural   RbNa3TiO4
_chemical_formula_sum   'Rb4 Na12 Ti4 O16'
_cell_volume   598.42504865
_cell_formula_units_Z   4
loop_
 _symmetry_equiv_pos_site_id
 _symmetry_equiv_pos_as_xyz
  1  'x, y, z'
loop_
 _atom_site_type_symbol
 _atom_site_label
 _atom_site_symmetry_multiplicity
 _atom_site_fract_x
 _atom_site_fract_y
 _atom_site_fract_z
 _atom_site_occupancy
  Rb  Rb0  1  0.035510  0.131546  0.626602  1
  Rb  Rb1  1  0.964490  0.868454  0.373398  1
  Rb  Rb2  1  0.035966  0.377502  0.870599  1
  Rb  Rb3  1  0.964034  0.622498  0.129401  1
  Na  Na4  1  0.202561  0.167055  0.145097  1
  Na  Na5  1  0.797439  0.832945  0.854903  1
  Na  Na6  1  0.504950  0.667418  0.392189  1
  Na  Na7  1  0.495050  0.332582  0.607811  1
  Na  Na8  1  0.182703  0.445050  0.397529  1
  Na  Na9  1  0.539085  0.429912  0.125106  1
  Na  Na10  1  0.200062  0.944257  0.895570  1
  Na  Na11  1  0.799938  0.055743  0.104430  1
  Na  Na12  1  0.570462  0.957774  0.623749  1
  Na  Na13  1  0.429538  0.042226  0.376251  1
  Na  Na14  1  0.460915  0.570088  0.874894  1
  Na  Na15  1  0.817297  0.554950  0.602471  1
  Ti  Ti16  1  0.163690  0.715302  0.645467  1
  Ti  Ti17  1  0.836310  0.284698  0.354533  1
  Ti  Ti18  1  0.581846  0.214432  0.861086  1
  Ti  Ti19  1  0.418154  0.785568  0.138914  1
  O  O20  1  0.345223  0.841389  0.542632  1
  O  O21  1  0.654777  0.158611  0.457368  1
  O  O22  1  0.425251  0.117498  0.782788  1
  O  O23  1  0.574749  0.882502  0.217212  1
  O  O24  1  0.175583  0.710173  0.807731  1
  O  O25  1  0.824417  0.289827  0.192269  1
  O  O26  1  0.823699  0.085062  0.895500  1
  O  O27  1  0.176301  0.914938  0.104500  1
  O  O28  1  0.679092  0.377443  0.751679  1
  O  O29  1  0.320908  0.622557  0.248321  1
  O  O30  1  0.593379  0.686520  0.006400  1
  O  O31  1  0.406621  0.313480  0.993600  1
  O  O32  1  0.885800  0.802297  0.640995  1
  O  O33  1  0.798657  0.484879  0.411418  1
  O  O34  1  0.114200  0.197703  0.359005  1
  O  O35  1  0.201343  0.515121  0.588582  1
