# generated using pymatgen
data_Nd3Pa(Ga3Ir)6
_symmetry_space_group_name_H-M   'P 1'
_cell_length_a   7.65830319
_cell_length_b   7.64602255
_cell_length_c   9.54495300
_cell_angle_alpha   90.00000000
_cell_angle_beta   90.00000000
_cell_angle_gamma   119.70766295
_symmetry_Int_Tables_number   1
_chemical_formula_structural   Nd3Pa(Ga3Ir)6
_chemical_formula_sum   'Nd3 Pa1 Ga18 Ir6'
_cell_volume   485.44984946
_cell_formula_units_Z   1
loop_
 _symmetry_equiv_pos_site_id
 _symmetry_equiv_pos_as_xyz
  1  'x, y, z'
loop_
 _atom_site_type_symbol
 _atom_site_label
 _atom_site_symmetry_multiplicity
 _atom_site_fract_x
 _atom_site_fract_y
 _atom_site_fract_z
 _atom_site_occupancy
  Nd  Nd0  1  0.003819  0.330206  0.750000  1
  Nd  Nd1  1  0.671051  0.996167  0.250000  1
  Nd  Nd2  1  0.330080  0.002923  0.750000  1
  Pa  Pa3  1  0.998201  0.671431  0.250000  1
  Ga  Ga4  1  0.133352  0.131708  0.250000  1
  Ga  Ga5  1  0.870243  0.870621  0.750000  1
  Ga  Ga6  1  0.000258  0.333524  0.080822  1
  Ga  Ga7  1  0.998895  0.664771  0.920414  1
  Ga  Ga8  1  0.998895  0.664771  0.579586  1
  Ga  Ga9  1  0.337740  0.002699  0.418850  1
  Ga  Ga10  1  0.000258  0.333524  0.419178  1
  Ga  Ga11  1  0.665243  0.999518  0.579029  1
  Ga  Ga12  1  0.665243  0.999518  0.920971  1
  Ga  Ga13  1  0.337740  0.002699  0.081150  1
  Ga  Ga14  1  0.332334  0.332217  0.561318  1
  Ga  Ga15  1  0.664128  0.666114  0.437418  1
  Ga  Ga16  1  0.664128  0.666114  0.062582  1
  Ga  Ga17  1  0.332334  0.332217  0.938682  1
  Ga  Ga18  1  0.338931  0.544973  0.250000  1
  Ga  Ga19  1  0.659270  0.453777  0.750000  1
  Ga  Ga20  1  0.547436  0.344904  0.250000  1
  Ga  Ga21  1  0.453283  0.659642  0.750000  1
  Ir  Ir22  1  0.673368  0.331752  0.002721  1
  Ir  Ir23  1  0.326188  0.670781  0.002882  1
  Ir  Ir24  1  0.326188  0.670781  0.497118  1
  Ir  Ir25  1  0.673368  0.331752  0.497279  1
  Ir  Ir26  1  0.999013  0.995448  0.004047  1
  Ir  Ir27  1  0.999013  0.995448  0.495953  1
