# generated using pymatgen
data_Er4CCl6
_symmetry_space_group_name_H-M   'P 1'
_cell_length_a   3.73856200
_cell_length_b   12.33485300
_cell_length_c   12.85311100
_cell_angle_alpha   90.00000000
_cell_angle_beta   90.00000000
_cell_angle_gamma   90.00000000
_symmetry_Int_Tables_number   1
_chemical_formula_structural   Er4CCl6
_chemical_formula_sum   'Er8 C2 Cl12'
_cell_volume   592.71623577
_cell_formula_units_Z   2
loop_
 _symmetry_equiv_pos_site_id
 _symmetry_equiv_pos_as_xyz
  1  'x, y, z'
loop_
 _atom_site_type_symbol
 _atom_site_label
 _atom_site_symmetry_multiplicity
 _atom_site_fract_x
 _atom_site_fract_y
 _atom_site_fract_z
 _atom_site_occupancy
  Er  Er0  1  0.000000  0.104131  0.079778  1
  Er  Er1  1  0.000000  0.895869  0.920222  1
  Er  Er2  1  0.000000  0.604131  0.420222  1
  Er  Er3  1  0.000000  0.395869  0.579778  1
  Er  Er4  1  0.500000  0.122384  0.853001  1
  Er  Er5  1  0.500000  0.877616  0.146999  1
  Er  Er6  1  0.500000  0.622384  0.646999  1
  Er  Er7  1  0.500000  0.377616  0.353001  1
  C  C8  1  0.500000  0.000000  0.000000  1
  C  C9  1  0.500000  0.500000  0.500000  1
  Cl  Cl10  1  0.500000  0.264556  0.678219  1
  Cl  Cl11  1  0.500000  0.735444  0.321781  1
  Cl  Cl12  1  0.500000  0.764556  0.821781  1
  Cl  Cl13  1  0.500000  0.235444  0.178219  1
  Cl  Cl14  1  0.000000  0.258054  0.928369  1
  Cl  Cl15  1  0.000000  0.741946  0.071631  1
  Cl  Cl16  1  0.000000  0.484126  0.242807  1
  Cl  Cl17  1  0.000000  0.515874  0.757193  1
  Cl  Cl18  1  0.000000  0.984126  0.257193  1
  Cl  Cl19  1  0.000000  0.015874  0.742807  1
  Cl  Cl20  1  0.000000  0.241946  0.428369  1
  Cl  Cl21  1  0.000000  0.758054  0.571631  1
