# generated using pymatgen
data_Y3Zn2(Ga2Ag)3
_symmetry_space_group_name_H-M   'P 1'
_cell_length_a   4.33230024
_cell_length_b   8.32787817
_cell_length_c   8.32500842
_cell_angle_alpha   70.78155310
_cell_angle_beta   74.91818799
_cell_angle_gamma   74.92351108
_symmetry_Int_Tables_number   1
_chemical_formula_structural   Y3Zn2(Ga2Ag)3
_chemical_formula_sum   'Y3 Zn2 Ga6 Ag3'
_cell_volume   268.78897975
_cell_formula_units_Z   1
loop_
 _symmetry_equiv_pos_site_id
 _symmetry_equiv_pos_as_xyz
  1  'x, y, z'
loop_
 _atom_site_type_symbol
 _atom_site_label
 _atom_site_symmetry_multiplicity
 _atom_site_fract_x
 _atom_site_fract_y
 _atom_site_fract_z
 _atom_site_occupancy
  Y  Y0  1  0.000000  0.000000  0.000000  1
  Y  Y1  1  0.298476  0.699310  0.703738  1
  Y  Y2  1  0.701524  0.300690  0.296262  1
  Zn  Zn3  1  0.339780  0.293369  0.027071  1
  Zn  Zn4  1  0.660220  0.706631  0.972929  1
  Ga  Ga5  1  0.342142  0.031918  0.283798  1
  Ga  Ga6  1  0.657858  0.968082  0.716202  1
  Ga  Ga7  1  0.143415  0.580323  0.132848  1
  Ga  Ga8  1  0.856585  0.419677  0.867152  1
  Ga  Ga9  1  0.143897  0.136512  0.575694  1
  Ga  Ga10  1  0.856103  0.863488  0.424306  1
  Ag  Ag11  1  0.500197  0.303971  0.695635  1
  Ag  Ag12  1  0.499803  0.696029  0.304365  1
  Ag  Ag13  1  0.000000  0.500000  0.500000  1
