# generated using pymatgen
data_Ca21MgGa13Hg
_symmetry_space_group_name_H-M   'P 1'
_cell_length_a   11.35350340
_cell_length_b   11.36011984
_cell_length_c   11.35350393
_cell_angle_alpha   59.98071911
_cell_angle_beta   60.03855606
_cell_angle_gamma   59.98071929
_symmetry_Int_Tables_number   1
_chemical_formula_structural   Ca21MgGa13Hg
_chemical_formula_sum   'Ca21 Mg1 Ga13 Hg1'
_cell_volume   1035.44589505
_cell_formula_units_Z   1
loop_
 _symmetry_equiv_pos_site_id
 _symmetry_equiv_pos_as_xyz
  1  'x, y, z'
loop_
 _atom_site_type_symbol
 _atom_site_label
 _atom_site_symmetry_multiplicity
 _atom_site_fract_x
 _atom_site_fract_y
 _atom_site_fract_z
 _atom_site_occupancy
  Ca  Ca0  1  0.997866  0.002134  0.997866  1
  Ca  Ca1  1  0.127210  0.137358  0.127210  1
  Ca  Ca2  1  0.391778  0.872790  0.862642  1
  Ca  Ca3  1  0.869715  0.389727  0.869715  1
  Ca  Ca4  1  0.862642  0.872790  0.391778  1
  Ca  Ca5  1  0.127210  0.608222  0.127210  1
  Ca  Ca6  1  0.129158  0.130285  0.610273  1
  Ca  Ca7  1  0.610273  0.130285  0.129158  1
  Ca  Ca8  1  0.869715  0.870842  0.869715  1
  Ca  Ca9  1  0.499896  0.828073  0.499896  1
  Ca  Ca10  1  0.829373  0.499570  0.500430  1
  Ca  Ca11  1  0.506886  0.828810  0.171190  1
  Ca  Ca12  1  0.171927  0.500104  0.827865  1
  Ca  Ca13  1  0.827865  0.500104  0.171927  1
  Ca  Ca14  1  0.500430  0.499570  0.829373  1
  Ca  Ca15  1  0.171190  0.828810  0.506886  1
  Ca  Ca16  1  0.500430  0.170627  0.829373  1
  Ca  Ca17  1  0.506886  0.493114  0.171190  1
  Ca  Ca18  1  0.829373  0.170627  0.500430  1
  Ca  Ca19  1  0.171190  0.493114  0.506886  1
  Ca  Ca20  1  0.499896  0.172135  0.499896  1
  Mg  Mg21  1  0.498141  0.501859  0.498141  1
  Ga  Ga22  1  0.217343  0.782657  0.785235  1
  Ga  Ga23  1  0.785235  0.214765  0.217343  1
  Ga  Ga24  1  0.785235  0.782657  0.217343  1
  Ga  Ga25  1  0.217343  0.214765  0.785235  1
  Ga  Ga26  1  0.783981  0.216019  0.783981  1
  Ga  Ga27  1  0.308609  0.311281  0.308608  1
  Ga  Ga28  1  0.928497  0.691392  0.688719  1
  Ga  Ga29  1  0.690418  0.928614  0.690418  1
  Ga  Ga30  1  0.688719  0.691392  0.928497  1
  Ga  Ga31  1  0.308608  0.071503  0.308608  1
  Ga  Ga32  1  0.309449  0.309582  0.071386  1
  Ga  Ga33  1  0.071386  0.309582  0.309449  1
  Ga  Ga34  1  0.690418  0.690551  0.690417  1
  Hg  Hg35  1  0.215711  0.784289  0.215711  1
