# generated using pymatgen
data_Ti24SiAsSe6
_symmetry_space_group_name_H-M   'P 1'
_cell_length_a   10.11261651
_cell_length_b   10.15470603
_cell_length_c   5.11084375
_cell_angle_alpha   89.89782124
_cell_angle_beta   90.06072127
_cell_angle_gamma   89.98115261
_symmetry_Int_Tables_number   1
_chemical_formula_structural   Ti24SiAsSe6
_chemical_formula_sum   'Ti24 Si1 As1 Se6'
_cell_volume   524.83469761
_cell_formula_units_Z   1
loop_
 _symmetry_equiv_pos_site_id
 _symmetry_equiv_pos_as_xyz
  1  'x, y, z'
loop_
 _atom_site_type_symbol
 _atom_site_label
 _atom_site_symmetry_multiplicity
 _atom_site_fract_x
 _atom_site_fract_y
 _atom_site_fract_z
 _atom_site_occupancy
  Ti  Ti0  1  0.215612  0.682856  0.990682  1
  Ti  Ti1  1  0.783053  0.317298  0.988897  1
  Ti  Ti2  1  0.183518  0.283955  0.492145  1
  Ti  Ti3  1  0.817123  0.715576  0.491088  1
  Ti  Ti4  1  0.284387  0.817922  0.509072  1
  Ti  Ti5  1  0.713595  0.182432  0.511475  1
  Ti  Ti6  1  0.317759  0.216275  0.006564  1
  Ti  Ti7  1  0.683293  0.784101  0.009763  1
  Ti  Ti8  1  0.642480  0.525945  0.714126  1
  Ti  Ti9  1  0.358098  0.471232  0.714859  1
  Ti  Ti10  1  0.027047  0.857800  0.213628  1
  Ti  Ti11  1  0.972660  0.141956  0.213565  1
  Ti  Ti12  1  0.857895  0.972946  0.785502  1
  Ti  Ti13  1  0.142155  0.026400  0.785750  1
  Ti  Ti14  1  0.472104  0.643463  0.287375  1
  Ti  Ti15  1  0.528629  0.355315  0.285203  1
  Ti  Ti16  1  0.103394  0.582348  0.461370  1
  Ti  Ti17  1  0.896386  0.417473  0.461912  1
  Ti  Ti18  1  0.082801  0.397731  0.960347  1
  Ti  Ti19  1  0.917071  0.602318  0.960610  1
  Ti  Ti20  1  0.396598  0.916780  0.033669  1
  Ti  Ti21  1  0.602644  0.085067  0.029784  1
  Ti  Ti22  1  0.418323  0.105166  0.549088  1
  Ti  Ti23  1  0.582956  0.896603  0.545490  1
  Si  Si24  1  0.539689  0.295856  0.787838  1
  As  As25  1  0.460679  0.704707  0.788902  1
  Se  Se26  1  0.706473  0.539106  0.211424  1
  Se  Se27  1  0.293722  0.460272  0.211574  1
  Se  Se28  1  0.038965  0.793130  0.711378  1
  Se  Se29  1  0.960883  0.206852  0.711763  1
  Se  Se30  1  0.792003  0.961576  0.287385  1
  Se  Se31  1  0.208005  0.039541  0.287770  1
