# generated using pymatgen
data_Lu2UMnGa3Ru2
_symmetry_space_group_name_H-M   'P 1'
_cell_length_a   6.88588998
_cell_length_b   6.88588926
_cell_length_c   3.83828200
_cell_angle_alpha   90.00000000
_cell_angle_beta   90.00000000
_cell_angle_gamma   117.21287744
_symmetry_Int_Tables_number   1
_chemical_formula_structural   Lu2UMnGa3Ru2
_chemical_formula_sum   'Lu2 U1 Mn1 Ga3 Ru2'
_cell_volume   161.84971329
_cell_formula_units_Z   1
loop_
 _symmetry_equiv_pos_site_id
 _symmetry_equiv_pos_as_xyz
  1  'x, y, z'
loop_
 _atom_site_type_symbol
 _atom_site_label
 _atom_site_symmetry_multiplicity
 _atom_site_fract_x
 _atom_site_fract_y
 _atom_site_fract_z
 _atom_site_occupancy
  Lu  Lu0  1  0.408020  0.004563  0.500000  1
  Lu  Lu1  1  0.004563  0.408020  0.500000  1
  U  U2  1  0.649746  0.649746  0.500000  1
  Mn  Mn3  1  0.944470  0.944470  0.500000  1
  Ga  Ga4  1  0.744465  0.040132  0.000000  1
  Ga  Ga5  1  0.040132  0.744465  0.000000  1
  Ga  Ga6  1  0.205267  0.205267  0.000000  1
  Ru  Ru7  1  0.371970  0.631368  0.000000  1
  Ru  Ru8  1  0.631368  0.371970  0.000000  1
