# generated using pymatgen
data_TaNiB2W
_symmetry_space_group_name_H-M   'P 1'
_cell_length_a   4.57303346
_cell_length_b   4.57303239
_cell_length_c   4.57303286
_cell_angle_alpha   138.56733131
_cell_angle_beta   119.14005204
_cell_angle_gamma   76.30933366
_symmetry_Int_Tables_number   1
_chemical_formula_structural   TaNiB2W
_chemical_formula_sum   'Ta1 Ni1 B2 W1'
_cell_volume   53.89384426
_cell_formula_units_Z   1
loop_
 _symmetry_equiv_pos_site_id
 _symmetry_equiv_pos_as_xyz
  1  'x, y, z'
loop_
 _atom_site_type_symbol
 _atom_site_label
 _atom_site_symmetry_multiplicity
 _atom_site_fract_x
 _atom_site_fract_y
 _atom_site_fract_z
 _atom_site_occupancy
  Ta  Ta0  1  0.704628  0.204628  0.500000  1
  Ni  Ni1  1  0.000760  0.000760  0.000000  1
  B  B2  1  0.697952  0.498205  0.199747  1
  B  B3  1  0.298457  0.498205  0.800253  1
  W  W4  1  0.298202  0.798202  0.500000  1
