# generated using pymatgen
data_Sm6Al2CO
_symmetry_space_group_name_H-M   'P 1'
_cell_length_a   6.92728990
_cell_length_b   6.92728940
_cell_length_c   6.92728800
_cell_angle_alpha   59.99999715
_cell_angle_beta   59.99999951
_cell_angle_gamma   60.00000007
_symmetry_Int_Tables_number   1
_chemical_formula_structural   Sm6Al2CO
_chemical_formula_sum   'Sm6 Al2 C1 O1'
_cell_volume   235.05794189
_cell_formula_units_Z   1
loop_
 _symmetry_equiv_pos_site_id
 _symmetry_equiv_pos_as_xyz
  1  'x, y, z'
loop_
 _atom_site_type_symbol
 _atom_site_label
 _atom_site_symmetry_multiplicity
 _atom_site_fract_x
 _atom_site_fract_y
 _atom_site_fract_z
 _atom_site_occupancy
  Sm  Sm0  1  0.749060  0.250940  0.250940  1
  Sm  Sm1  1  0.749060  0.250940  0.749060  1
  Sm  Sm2  1  0.250940  0.749060  0.250940  1
  Sm  Sm3  1  0.250940  0.250940  0.749060  1
  Sm  Sm4  1  0.749060  0.749060  0.250940  1
  Sm  Sm5  1  0.250940  0.749060  0.749060  1
  Al  Al6  1  0.750000  0.750000  0.750000  1
  Al  Al7  1  0.250000  0.250000  0.250000  1
  C  C8  1  0.500000  0.500000  0.500000  1
  O  O9  1  0.000000  0.000000  0.000000  1
