# generated using pymatgen
data_Yb6Co13IrC4
_symmetry_space_group_name_H-M   'P 1'
_cell_length_a   5.04236701
_cell_length_b   5.04351930
_cell_length_c   13.74895502
_cell_angle_alpha   90.00343531
_cell_angle_beta   90.00290869
_cell_angle_gamma   119.99826984
_symmetry_Int_Tables_number   1
_chemical_formula_structural   Yb6Co13IrC4
_chemical_formula_sum   'Yb6 Co13 Ir1 C4'
_cell_volume   302.81405677
_cell_formula_units_Z   1
loop_
 _symmetry_equiv_pos_site_id
 _symmetry_equiv_pos_as_xyz
  1  'x, y, z'
loop_
 _atom_site_type_symbol
 _atom_site_label
 _atom_site_symmetry_multiplicity
 _atom_site_fract_x
 _atom_site_fract_y
 _atom_site_fract_z
 _atom_site_occupancy
  Yb  Yb0  1  0.666663  0.333318  0.536326  1
  Yb  Yb1  1  0.333337  0.666682  0.463674  1
  Yb  Yb2  1  0.333376  0.666703  0.034051  1
  Yb  Yb3  1  0.666668  0.333315  0.748825  1
  Yb  Yb4  1  0.666624  0.333297  0.965949  1
  Yb  Yb5  1  0.333332  0.666685  0.251175  1
  Co  Co6  1  0.166009  0.332006  0.650972  1
  Co  Co7  1  0.332053  0.166045  0.349000  1
  Co  Co8  1  0.326815  0.163417  0.160930  1
  Co  Co9  1  0.163390  0.836596  0.839069  1
  Co  Co10  1  0.833991  0.667994  0.349028  1
  Co  Co11  1  0.836610  0.163404  0.160931  1
  Co  Co12  1  0.667947  0.833955  0.651000  1
  Co  Co13  1  0.673185  0.836583  0.839070  1
  Co  Co14  1  0.166017  0.833963  0.650983  1
  Co  Co15  1  0.836607  0.673217  0.160932  1
  Co  Co16  1  0.163393  0.326783  0.839068  1
  Co  Co17  1  0.833983  0.166037  0.349017  1
  Co  Co18  1  0.000000  0.000000  0.500000  1
  Ir  Ir19  1  0.000000  0.000000  0.000000  1
  C  C20  1  0.666705  0.333377  0.252615  1
  C  C21  1  0.000035  0.000029  0.744821  1
  C  C22  1  0.333295  0.666623  0.747385  1
  C  C23  1  0.999965  0.999971  0.255179  1
