# generated using pymatgen
data_LuPa2P4Pd7
_symmetry_space_group_name_H-M   'P 1'
_cell_length_a   7.89434480
_cell_length_b   7.89434549
_cell_length_c   9.45231800
_cell_angle_alpha   55.96328415
_cell_angle_beta   55.96328075
_cell_angle_gamma   29.53821415
_symmetry_Int_Tables_number   1
_chemical_formula_structural   LuPa2P4Pd7
_chemical_formula_sum   'Lu1 Pa2 P4 Pd7'
_cell_volume   236.81558613
_cell_formula_units_Z   1
loop_
 _symmetry_equiv_pos_site_id
 _symmetry_equiv_pos_as_xyz
  1  'x, y, z'
loop_
 _atom_site_type_symbol
 _atom_site_label
 _atom_site_symmetry_multiplicity
 _atom_site_fract_x
 _atom_site_fract_y
 _atom_site_fract_z
 _atom_site_occupancy
  Lu  Lu0  1  0.183963  0.183963  0.817195  1
  Pa  Pa1  1  0.497895  0.497895  0.503391  1
  Pa  Pa2  1  0.817772  0.817772  0.178858  1
  P  P3  1  0.394518  0.394518  0.322634  1
  P  P4  1  0.605838  0.605838  0.676475  1
  P  P5  1  0.844952  0.844952  0.743629  1
  P  P6  1  0.153042  0.153042  0.260293  1
  Pd  Pd7  1  0.670441  0.670441  0.066375  1
  Pd  Pd8  1  0.010836  0.010836  0.204054  1
  Pd  Pd9  1  0.988663  0.988663  0.797985  1
  Pd  Pd10  1  0.501759  0.501759  0.995510  1
  Pd  Pd11  1  0.190179  0.190179  0.479489  1
  Pd  Pd12  1  0.808056  0.808056  0.523452  1
  Pd  Pd13  1  0.332088  0.332088  0.930660  1
