# generated using pymatgen
data_HfTa3(FeP)4
_symmetry_space_group_name_H-M   'P 1'
_cell_length_a   3.63177400
_cell_length_b   6.17265492
_cell_length_c   6.98749957
_cell_angle_alpha   89.77447163
_cell_angle_beta   90.00000000
_cell_angle_gamma   90.00000000
_symmetry_Int_Tables_number   1
_chemical_formula_structural   HfTa3(FeP)4
_chemical_formula_sum   'Hf1 Ta3 Fe4 P4'
_cell_volume   156.64236936
_cell_formula_units_Z   1
loop_
 _symmetry_equiv_pos_site_id
 _symmetry_equiv_pos_as_xyz
  1  'x, y, z'
loop_
 _atom_site_type_symbol
 _atom_site_label
 _atom_site_symmetry_multiplicity
 _atom_site_fract_x
 _atom_site_fract_y
 _atom_site_fract_z
 _atom_site_occupancy
  Hf  Hf0  1  0.250000  0.519681  0.680800  1
  Ta  Ta1  1  0.250000  0.021381  0.823207  1
  Ta  Ta2  1  0.750000  0.979968  0.176957  1
  Ta  Ta3  1  0.750000  0.479078  0.320396  1
  Fe  Fe4  1  0.750000  0.356285  0.940094  1
  Fe  Fe5  1  0.250000  0.141468  0.435945  1
  Fe  Fe6  1  0.750000  0.856775  0.559820  1
  Fe  Fe7  1  0.250000  0.644595  0.065605  1
  P  P8  1  0.250000  0.778030  0.379115  1
  P  P9  1  0.250000  0.278162  0.118111  1
  P  P10  1  0.750000  0.218736  0.615673  1
  P  P11  1  0.750000  0.725841  0.884276  1
