# generated using pymatgen
data_NaNd6PtBr12
_symmetry_space_group_name_H-M   'P 1'
_cell_length_a   9.50955142
_cell_length_b   9.62110202
_cell_length_c   9.64872735
_cell_angle_alpha   107.11749242
_cell_angle_beta   107.39933936
_cell_angle_gamma   107.26818793
_symmetry_Int_Tables_number   1
_chemical_formula_structural   NaNd6PtBr12
_chemical_formula_sum   'Na1 Nd6 Pt1 Br12'
_cell_volume   729.87678829
_cell_formula_units_Z   1
loop_
 _symmetry_equiv_pos_site_id
 _symmetry_equiv_pos_as_xyz
  1  'x, y, z'
loop_
 _atom_site_type_symbol
 _atom_site_label
 _atom_site_symmetry_multiplicity
 _atom_site_fract_x
 _atom_site_fract_y
 _atom_site_fract_z
 _atom_site_occupancy
  Na  Na0  1  0.500000  0.500000  0.500000  1
  Nd  Nd1  1  0.316580  0.110069  0.029047  1
  Nd  Nd2  1  0.030324  0.327188  0.115766  1
  Nd  Nd3  1  0.115563  0.031286  0.326597  1
  Nd  Nd4  1  0.884436  0.968714  0.673403  1
  Nd  Nd5  1  0.969676  0.672812  0.884233  1
  Nd  Nd6  1  0.683420  0.889931  0.970952  1
  Pt  Pt7  1  0.000000  0.000000  0.000000  1
  Br  Br8  1  0.682478  0.216213  0.072631  1
  Br  Br9  1  0.371492  0.452361  0.155003  1
  Br  Br10  1  0.073142  0.685218  0.216746  1
  Br  Br11  1  0.781274  0.926718  0.314577  1
  Br  Br12  1  0.455024  0.155709  0.369802  1
  Br  Br13  1  0.153753  0.369806  0.452707  1
  Br  Br14  1  0.846248  0.630194  0.547294  1
  Br  Br15  1  0.544976  0.844292  0.630198  1
  Br  Br16  1  0.218725  0.073282  0.685423  1
  Br  Br17  1  0.926858  0.314782  0.783253  1
  Br  Br18  1  0.628509  0.547640  0.844997  1
  Br  Br19  1  0.317522  0.783786  0.927369  1
