# generated using pymatgen
data_Sc4InPd8Pt3
_symmetry_space_group_name_H-M   'P 1'
_cell_length_a   4.09043500
_cell_length_b   5.70566600
_cell_length_c   11.34947400
_cell_angle_alpha   87.00968848
_cell_angle_beta   90.00000000
_cell_angle_gamma   90.00000000
_symmetry_Int_Tables_number   1
_chemical_formula_structural   Sc4InPd8Pt3
_chemical_formula_sum   'Sc4 In1 Pd8 Pt3'
_cell_volume   264.52079811
_cell_formula_units_Z   1
loop_
 _symmetry_equiv_pos_site_id
 _symmetry_equiv_pos_as_xyz
  1  'x, y, z'
loop_
 _atom_site_type_symbol
 _atom_site_label
 _atom_site_symmetry_multiplicity
 _atom_site_fract_x
 _atom_site_fract_y
 _atom_site_fract_z
 _atom_site_occupancy
  Sc  Sc0  1  0.500000  0.755941  0.376271  1
  Sc  Sc1  1  0.500000  0.708793  0.859166  1
  Sc  Sc2  1  0.500000  0.291207  0.140834  1
  Sc  Sc3  1  0.500000  0.244059  0.623729  1
  In  In4  1  0.000000  0.000000  0.000000  1
  Pd  Pd5  1  0.000000  0.017637  0.250009  1
  Pd  Pd6  1  0.000000  0.982363  0.749991  1
  Pd  Pd7  1  0.000000  0.500000  0.500000  1
  Pd  Pd8  1  0.500000  0.256298  0.377783  1
  Pd  Pd9  1  0.500000  0.222551  0.881900  1
  Pd  Pd10  1  0.500000  0.777449  0.118100  1
  Pd  Pd11  1  0.500000  0.743702  0.622217  1
  Pd  Pd12  1  0.000000  0.000000  0.500000  1
  Pt  Pt13  1  0.000000  0.500000  0.000000  1
  Pt  Pt14  1  0.000000  0.520819  0.250851  1
  Pt  Pt15  1  0.000000  0.479181  0.749149  1
