# generated using pymatgen
data_Nd4AlZn3Pt4
_symmetry_space_group_name_H-M   'P 1'
_cell_length_a   4.43916300
_cell_length_b   7.08658335
_cell_length_c   8.02592010
_cell_angle_alpha   89.80743201
_cell_angle_beta   90.00000000
_cell_angle_gamma   90.00000000
_symmetry_Int_Tables_number   1
_chemical_formula_structural   Nd4AlZn3Pt4
_chemical_formula_sum   'Nd4 Al1 Zn3 Pt4'
_cell_volume   252.48197028
_cell_formula_units_Z   1
loop_
 _symmetry_equiv_pos_site_id
 _symmetry_equiv_pos_as_xyz
  1  'x, y, z'
loop_
 _atom_site_type_symbol
 _atom_site_label
 _atom_site_symmetry_multiplicity
 _atom_site_fract_x
 _atom_site_fract_y
 _atom_site_fract_z
 _atom_site_occupancy
  Nd  Nd0  1  0.750000  0.477828  0.192407  1
  Nd  Nd1  1  0.250000  0.025803  0.687440  1
  Nd  Nd2  1  0.750000  0.972370  0.312265  1
  Nd  Nd3  1  0.250000  0.525461  0.808553  1
  Al  Al4  1  0.250000  0.149355  0.064761  1
  Zn  Zn5  1  0.750000  0.847786  0.931220  1
  Zn  Zn6  1  0.250000  0.650396  0.431301  1
  Zn  Zn7  1  0.750000  0.345128  0.570081  1
  Pt  Pt8  1  0.750000  0.729882  0.611826  1
  Pt  Pt9  1  0.750000  0.229934  0.900558  1
  Pt  Pt10  1  0.250000  0.265991  0.379982  1
  Pt  Pt11  1  0.250000  0.780064  0.109606  1
