# generated using pymatgen
data_Ac2TeS2
_symmetry_space_group_name_H-M   'P 1'
_cell_length_a   4.90377000
_cell_length_b   4.90376966
_cell_length_c   8.05988800
_cell_angle_alpha   90.00000000
_cell_angle_beta   90.00000000
_cell_angle_gamma   120.00000230
_symmetry_Int_Tables_number   1
_chemical_formula_structural   Ac2TeS2
_chemical_formula_sum   'Ac2 Te1 S2'
_cell_volume   167.84939611
_cell_formula_units_Z   1
loop_
 _symmetry_equiv_pos_site_id
 _symmetry_equiv_pos_as_xyz
  1  'x, y, z'
loop_
 _atom_site_type_symbol
 _atom_site_label
 _atom_site_symmetry_multiplicity
 _atom_site_fract_x
 _atom_site_fract_y
 _atom_site_fract_z
 _atom_site_occupancy
  Ac  Ac0  1  0.666667  0.333333  0.734181  1
  Ac  Ac1  1  0.333333  0.666667  0.265819  1
  Te  Te2  1  0.000000  0.000000  0.000000  1
  S  S3  1  0.333333  0.666667  0.636031  1
  S  S4  1  0.666667  0.333333  0.363969  1
