# generated using pymatgen
data_BaTe28
_symmetry_space_group_name_H-M   'P 1'
_cell_length_a   8.78736729
_cell_length_b   12.23865361
_cell_length_c   12.12994311
_cell_angle_alpha   120.74404652
_cell_angle_beta   96.10808631
_cell_angle_gamma   96.57885179
_symmetry_Int_Tables_number   1
_chemical_formula_structural   BaTe28
_chemical_formula_sum   'Ba1 Te28'
_cell_volume   1092.81086739
_cell_formula_units_Z   1
loop_
 _symmetry_equiv_pos_site_id
 _symmetry_equiv_pos_as_xyz
  1  'x, y, z'
loop_
 _atom_site_type_symbol
 _atom_site_label
 _atom_site_symmetry_multiplicity
 _atom_site_fract_x
 _atom_site_fract_y
 _atom_site_fract_z
 _atom_site_occupancy
  Ba  Ba0  1  0.500000  0.000000  0.000000  1
  Te  Te1  1  0.174625  0.087224  0.428525  1
  Te  Te2  1  0.645239  0.097238  0.435194  1
  Te  Te3  1  0.295868  0.331498  0.830889  1
  Te  Te4  1  0.808541  0.352623  0.842017  1
  Te  Te5  1  0.223734  0.665776  0.784748  1
  Te  Te6  1  0.710002  0.549607  0.687223  1
  Te  Te7  1  0.354761  0.902762  0.564806  1
  Te  Te8  1  0.825375  0.912776  0.571475  1
  Te  Te9  1  0.191459  0.647377  0.157983  1
  Te  Te10  1  0.704132  0.668502  0.169111  1
  Te  Te11  1  0.289998  0.450393  0.312777  1
  Te  Te12  1  0.776266  0.334224  0.215252  1
  Te  Te13  1  0.666455  0.082156  0.776487  1
  Te  Te14  1  0.192789  0.024084  0.779534  1
  Te  Te15  1  0.928903  0.633472  0.931672  1
  Te  Te16  1  0.464549  0.684291  0.002161  1
  Te  Te17  1  0.501946  0.290628  0.316981  1
  Te  Te18  1  0.011582  0.212680  0.304657  1
  Te  Te19  1  0.807211  0.975916  0.220466  1
  Te  Te20  1  0.333545  0.917844  0.223513  1
  Te  Te21  1  0.535451  0.315709  0.997839  1
  Te  Te22  1  0.071097  0.366528  0.068328  1
  Te  Te23  1  0.988418  0.787320  0.695343  1
  Te  Te24  1  0.498054  0.709372  0.683019  1
  Te  Te25  1  0.919207  0.297983  0.605546  1
  Te  Te26  1  0.427756  0.299091  0.612570  1
  Te  Te27  1  0.572244  0.700909  0.387430  1
  Te  Te28  1  0.080793  0.702017  0.394454  1
