# generated using pymatgen
data_Er3Cd3In2Hg
_symmetry_space_group_name_H-M   'P 1'
_cell_length_a   4.59899700
_cell_length_b   7.47319909
_cell_length_c   7.47319900
_cell_angle_alpha   120.00000402
_cell_angle_beta   90.00000000
_cell_angle_gamma   90.00000000
_symmetry_Int_Tables_number   1
_chemical_formula_structural   Er3Cd3In2Hg
_chemical_formula_sum   'Er3 Cd3 In2 Hg1'
_cell_volume   222.43690304
_cell_formula_units_Z   1
loop_
 _symmetry_equiv_pos_site_id
 _symmetry_equiv_pos_as_xyz
  1  'x, y, z'
loop_
 _atom_site_type_symbol
 _atom_site_label
 _atom_site_symmetry_multiplicity
 _atom_site_fract_x
 _atom_site_fract_y
 _atom_site_fract_z
 _atom_site_occupancy
  Er  Er0  1  0.000000  0.422350  0.422350  1
  Er  Er1  1  0.000000  0.000000  0.577650  1
  Er  Er2  1  0.000000  0.577650  0.000000  1
  Cd  Cd3  1  0.500000  0.753774  0.753774  1
  Cd  Cd4  1  0.500000  0.000000  0.246226  1
  Cd  Cd5  1  0.500000  0.246226  0.000000  1
  In  In6  1  0.500000  0.666667  0.333333  1
  In  In7  1  0.500000  0.333333  0.666667  1
  Hg  Hg8  1  0.000000  0.000000  0.000000  1
