# generated using pymatgen
data_Ti3Co(BRu2)2
_symmetry_space_group_name_H-M   'P 1'
_cell_length_a   9.08356400
_cell_length_b   9.08356400
_cell_length_c   3.01915900
_cell_angle_alpha   90.00000000
_cell_angle_beta   90.00000000
_cell_angle_gamma   90.00000000
_symmetry_Int_Tables_number   1
_chemical_formula_structural   Ti3Co(BRu2)2
_chemical_formula_sum   'Ti6 Co2 B4 Ru8'
_cell_volume   249.11423566
_cell_formula_units_Z   2
loop_
 _symmetry_equiv_pos_site_id
 _symmetry_equiv_pos_as_xyz
  1  'x, y, z'
loop_
 _atom_site_type_symbol
 _atom_site_label
 _atom_site_symmetry_multiplicity
 _atom_site_fract_x
 _atom_site_fract_y
 _atom_site_fract_z
 _atom_site_occupancy
  Ti  Ti0  1  0.823463  0.676537  0.000000  1
  Ti  Ti1  1  0.176537  0.323463  0.000000  1
  Ti  Ti2  1  0.323463  0.823463  0.000000  1
  Ti  Ti3  1  0.676537  0.176537  0.000000  1
  Ti  Ti4  1  0.500000  0.500000  0.000000  1
  Ti  Ti5  1  0.000000  0.000000  0.000000  1
  Co  Co6  1  0.500000  0.000000  0.500000  1
  Co  Co7  1  0.000000  0.500000  0.500000  1
  B  B8  1  0.614898  0.885102  0.000000  1
  B  B9  1  0.385102  0.114898  0.000000  1
  B  B10  1  0.114898  0.614898  0.000000  1
  B  B11  1  0.885102  0.385102  0.000000  1
  Ru  Ru12  1  0.563611  0.721922  0.500000  1
  Ru  Ru13  1  0.436389  0.278078  0.500000  1
  Ru  Ru14  1  0.063611  0.778078  0.500000  1
  Ru  Ru15  1  0.936389  0.221922  0.500000  1
  Ru  Ru16  1  0.278078  0.563611  0.500000  1
  Ru  Ru17  1  0.721922  0.436389  0.500000  1
  Ru  Ru18  1  0.221922  0.063611  0.500000  1
  Ru  Ru19  1  0.778078  0.936389  0.500000  1
