# generated using pymatgen
data_Yb3Er3Al18(Si3Os4)2
_symmetry_space_group_name_H-M   'P 1'
_cell_length_a   8.68980125
_cell_length_b   8.64649170
_cell_length_c   9.59863500
_cell_angle_alpha   90.00000000
_cell_angle_beta   90.00000000
_cell_angle_gamma   120.13816674
_symmetry_Int_Tables_number   1
_chemical_formula_structural   Yb3Er3Al18(Si3Os4)2
_chemical_formula_sum   'Yb3 Er3 Al18 Si6 Os8'
_cell_volume   623.71120407
_cell_formula_units_Z   1
loop_
 _symmetry_equiv_pos_site_id
 _symmetry_equiv_pos_as_xyz
  1  'x, y, z'
loop_
 _atom_site_type_symbol
 _atom_site_label
 _atom_site_symmetry_multiplicity
 _atom_site_fract_x
 _atom_site_fract_y
 _atom_site_fract_z
 _atom_site_occupancy
  Yb  Yb0  1  0.194854  0.388922  0.250000  1
  Yb  Yb1  1  0.805517  0.611161  0.750000  1
  Yb  Yb2  1  0.608744  0.806580  0.250000  1
  Er  Er3  1  0.392845  0.193934  0.750000  1
  Er  Er4  1  0.199086  0.806896  0.250000  1
  Er  Er5  1  0.801363  0.193267  0.750000  1
  Al  Al6  1  0.165542  0.331546  0.578105  1
  Al  Al7  1  0.833608  0.668083  0.421971  1
  Al  Al8  1  0.669048  0.834233  0.576243  1
  Al  Al9  1  0.833608  0.668083  0.078029  1
  Al  Al10  1  0.330979  0.165932  0.422450  1
  Al  Al11  1  0.165542  0.331546  0.921895  1
  Al  Al12  1  0.165340  0.833999  0.577385  1
  Al  Al13  1  0.330979  0.165932  0.077550  1
  Al  Al14  1  0.834114  0.165663  0.423111  1
  Al  Al15  1  0.669048  0.834233  0.923757  1
  Al  Al16  1  0.834114  0.165663  0.076889  1
  Al  Al17  1  0.165340  0.833999  0.922615  1
  Al  Al18  1  0.872490  0.433004  0.250000  1
  Al  Al19  1  0.126698  0.567010  0.750000  1
  Al  Al20  1  0.560247  0.433917  0.250000  1
  Al  Al21  1  0.440503  0.567460  0.750000  1
  Al  Al22  1  0.999434  0.998692  0.250000  1
  Al  Al23  1  0.000107  0.000718  0.750000  1
  Si  Si24  1  0.331956  0.663864  0.038246  1
  Si  Si25  1  0.668867  0.336456  0.960628  1
  Si  Si26  1  0.668867  0.336456  0.539372  1
  Si  Si27  1  0.331956  0.663864  0.461754  1
  Si  Si28  1  0.563940  0.127242  0.250000  1
  Si  Si29  1  0.436437  0.872608  0.750000  1
  Os  Os30  1  0.499329  0.000912  0.998664  1
  Os  Os31  1  0.999937  0.499906  0.999456  1
  Os  Os32  1  0.499329  0.000912  0.501336  1
  Os  Os33  1  0.499410  0.498269  0.997985  1
  Os  Os34  1  0.999937  0.499906  0.500544  1
  Os  Os35  1  0.499410  0.498269  0.502015  1
  Os  Os36  1  0.000735  0.000434  0.000392  1
  Os  Os37  1  0.000735  0.000434  0.499608  1
