# generated using pymatgen
data_Sc8Ti6Nb6Si15Sn
_symmetry_space_group_name_H-M   'P 1'
_cell_length_a   6.75032435
_cell_length_b   6.88518430
_cell_length_c   13.19131786
_cell_angle_alpha   89.97042810
_cell_angle_beta   90.29275832
_cell_angle_gamma   90.05892332
_symmetry_Int_Tables_number   1
_chemical_formula_structural   Sc8Ti6Nb6Si15Sn
_chemical_formula_sum   'Sc8 Ti6 Nb6 Si15 Sn1'
_cell_volume   613.08746944
_cell_formula_units_Z   1
loop_
 _symmetry_equiv_pos_site_id
 _symmetry_equiv_pos_as_xyz
  1  'x, y, z'
loop_
 _atom_site_type_symbol
 _atom_site_label
 _atom_site_symmetry_multiplicity
 _atom_site_fract_x
 _atom_site_fract_y
 _atom_site_fract_z
 _atom_site_occupancy
  Sc  Sc0  1  0.494405  0.669054  0.600950  1
  Sc  Sc1  1  0.999544  0.826486  0.903611  1
  Sc  Sc2  1  0.497642  0.323932  0.094553  1
  Sc  Sc3  1  0.013978  0.184988  0.399998  1
  Sc  Sc4  1  0.496349  0.332747  0.401420  1
  Sc  Sc5  1  0.997927  0.174202  0.095245  1
  Sc  Sc6  1  0.502357  0.676454  0.904185  1
  Sc  Sc7  1  0.007120  0.819860  0.601302  1
  Ti  Ti8  1  0.657338  0.184877  0.631314  1
  Ti  Ti9  1  0.161597  0.323757  0.876125  1
  Ti  Ti10  1  0.337773  0.824367  0.124805  1
  Ti  Ti11  1  0.849051  0.660461  0.367778  1
  Ti  Ti12  1  0.329471  0.823705  0.372152  1
  Ti  Ti13  1  0.837644  0.675431  0.124859  1
  Nb  Nb14  1  0.662817  0.174881  0.874958  1
  Nb  Nb15  1  0.160928  0.326731  0.628045  1
  Nb  Nb16  1  0.834152  0.494314  0.750799  1
  Nb  Nb17  1  0.334292  0.007727  0.751569  1
  Nb  Nb18  1  0.165101  0.505378  0.248898  1
  Nb  Nb19  1  0.664577  0.991343  0.243100  1
  Si  Si20  1  0.164330  0.533552  0.039841  1
  Si  Si21  1  0.332700  0.033067  0.961088  1
  Si  Si22  1  0.831268  0.465746  0.537848  1
  Si  Si23  1  0.324000  0.033902  0.539954  1
  Si  Si24  1  0.834238  0.468827  0.961293  1
  Si  Si25  1  0.665286  0.962847  0.039359  1
  Si  Si26  1  0.168310  0.538727  0.461774  1
  Si  Si27  1  0.455808  0.387387  0.753823  1
  Si  Si28  1  0.957681  0.115135  0.751102  1
  Si  Si29  1  0.541473  0.617329  0.248600  1
  Si  Si30  1  0.040776  0.884436  0.247487  1
  Si  Si31  1  0.703139  0.865871  0.749904  1
  Si  Si32  1  0.203311  0.635002  0.753931  1
  Si  Si33  1  0.298119  0.132421  0.248689  1
  Si  Si34  1  0.793788  0.362410  0.247376  1
  Sn  Sn35  1  0.681710  0.962645  0.462265  1
