# generated using pymatgen
data_Tb5Mn(Co3P2)6
_symmetry_space_group_name_H-M   'P 1'
_cell_length_a   12.00895900
_cell_length_b   12.00895883
_cell_length_c   3.67352800
_cell_angle_alpha   90.00000000
_cell_angle_beta   90.00000000
_cell_angle_gamma   119.85746429
_symmetry_Int_Tables_number   1
_chemical_formula_structural   Tb5Mn(Co3P2)6
_chemical_formula_sum   'Tb5 Mn1 Co18 P12'
_cell_volume   459.45891679
_cell_formula_units_Z   1
loop_
 _symmetry_equiv_pos_site_id
 _symmetry_equiv_pos_as_xyz
  1  'x, y, z'
loop_
 _atom_site_type_symbol
 _atom_site_label
 _atom_site_symmetry_multiplicity
 _atom_site_fract_x
 _atom_site_fract_y
 _atom_site_fract_z
 _atom_site_occupancy
  Tb  Tb0  1  0.666068  0.333387  0.000000  1
  Tb  Tb1  1  0.333387  0.666068  0.000000  1
  Tb  Tb2  1  0.186842  0.186842  0.500000  1
  Tb  Tb3  1  0.811966  0.999384  0.500000  1
  Tb  Tb4  1  0.999384  0.811966  0.500000  1
  Mn  Mn5  1  0.557847  0.557847  0.000000  1
  Co  Co6  1  0.447543  0.000152  0.000000  1
  Co  Co7  1  0.000152  0.447543  0.000000  1
  Co  Co8  1  0.822312  0.201030  0.000000  1
  Co  Co9  1  0.801618  0.622145  0.000000  1
  Co  Co10  1  0.377243  0.176624  0.000000  1
  Co  Co11  1  0.201030  0.822312  0.000000  1
  Co  Co12  1  0.622145  0.801618  0.000000  1
  Co  Co13  1  0.176624  0.377243  0.000000  1
  Co  Co14  1  0.641359  0.124889  0.500000  1
  Co  Co15  1  0.875319  0.515908  0.500000  1
  Co  Co16  1  0.482636  0.356952  0.500000  1
  Co  Co17  1  0.124889  0.641359  0.500000  1
  Co  Co18  1  0.515908  0.875319  0.500000  1
  Co  Co19  1  0.356952  0.482636  0.500000  1
  Co  Co20  1  0.716269  0.716269  0.500000  1
  Co  Co21  1  0.284982  0.999419  0.500000  1
  Co  Co22  1  0.999419  0.284982  0.500000  1
  Co  Co23  1  0.000786  0.000786  0.000000  1
  P  P24  1  0.366058  0.366058  0.000000  1
  P  P25  1  0.631916  0.000865  0.000000  1
  P  P26  1  0.000865  0.631916  0.000000  1
  P  P27  1  0.833938  0.313930  0.500000  1
  P  P28  1  0.686249  0.520348  0.500000  1
  P  P29  1  0.479133  0.164940  0.500000  1
  P  P30  1  0.313930  0.833938  0.500000  1
  P  P31  1  0.520348  0.686249  0.500000  1
  P  P32  1  0.164940  0.479133  0.500000  1
  P  P33  1  0.819203  0.819203  0.000000  1
  P  P34  1  0.181274  0.999467  0.000000  1
  P  P35  1  0.999467  0.181274  0.000000  1
