# generated using pymatgen
data_Hf6Al23Fe8Si
_symmetry_space_group_name_H-M   'P 1'
_cell_length_a   8.45516900
_cell_length_b   8.45516912
_cell_length_c   9.07067200
_cell_angle_alpha   90.00000000
_cell_angle_beta   90.00000000
_cell_angle_gamma   120.00000343
_symmetry_Int_Tables_number   1
_chemical_formula_structural   Hf6Al23Fe8Si
_chemical_formula_sum   'Hf6 Al23 Fe8 Si1'
_cell_volume   561.58392914
_cell_formula_units_Z   1
loop_
 _symmetry_equiv_pos_site_id
 _symmetry_equiv_pos_as_xyz
  1  'x, y, z'
loop_
 _atom_site_type_symbol
 _atom_site_label
 _atom_site_symmetry_multiplicity
 _atom_site_fract_x
 _atom_site_fract_y
 _atom_site_fract_z
 _atom_site_occupancy
  Hf  Hf0  1  0.800870  0.199130  0.750827  1
  Hf  Hf1  1  0.197105  0.802895  0.249935  1
  Hf  Hf2  1  0.398260  0.199130  0.750827  1
  Hf  Hf3  1  0.605790  0.802895  0.249935  1
  Hf  Hf4  1  0.800870  0.601740  0.750827  1
  Hf  Hf5  1  0.197105  0.394210  0.249935  1
  Al  Al6  1  0.333333  0.666667  0.023126  1
  Al  Al7  1  0.333333  0.666667  0.475937  1
  Al  Al8  1  0.666667  0.333333  0.521640  1
  Al  Al9  1  0.838530  0.161470  0.425307  1
  Al  Al10  1  0.161585  0.838415  0.575226  1
  Al  Al11  1  0.322941  0.161470  0.425307  1
  Al  Al12  1  0.161139  0.838861  0.925039  1
  Al  Al13  1  0.676829  0.838415  0.575226  1
  Al  Al14  1  0.837593  0.162407  0.076213  1
  Al  Al15  1  0.838530  0.677059  0.425307  1
  Al  Al16  1  0.677721  0.838861  0.925039  1
  Al  Al17  1  0.161585  0.323171  0.575226  1
  Al  Al18  1  0.324816  0.162407  0.076213  1
  Al  Al19  1  0.161139  0.322279  0.925039  1
  Al  Al20  1  0.837593  0.675184  0.076213  1
  Al  Al21  1  0.442955  0.557045  0.750478  1
  Al  Al22  1  0.556690  0.443310  0.251429  1
  Al  Al23  1  0.114091  0.557045  0.750478  1
  Al  Al24  1  0.886620  0.443310  0.251429  1
  Al  Al25  1  0.442955  0.885909  0.750478  1
  Al  Al26  1  0.556690  0.113380  0.251429  1
  Al  Al27  1  0.000000  0.000000  0.750283  1
  Al  Al28  1  0.000000  0.000000  0.250082  1
  Fe  Fe29  1  0.505208  0.494792  0.997665  1
  Fe  Fe30  1  0.989583  0.494792  0.997665  1
  Fe  Fe31  1  0.500051  0.499949  0.501690  1
  Fe  Fe32  1  0.505208  0.010417  0.997665  1
  Fe  Fe33  1  0.999898  0.499949  0.501690  1
  Fe  Fe34  1  0.500051  0.000102  0.501690  1
  Fe  Fe35  1  0.000000  0.000000  0.000603  1
  Fe  Fe36  1  0.000000  0.000000  0.500003  1
  Si  Si37  1  0.666667  0.333333  0.966903  1
