# generated using pymatgen
data_Ac3Pr(GaPd)4
_symmetry_space_group_name_H-M   'P 1'
_cell_length_a   4.60940800
_cell_length_b   7.43073468
_cell_length_c   8.17536211
_cell_angle_alpha   89.54557809
_cell_angle_beta   90.00000000
_cell_angle_gamma   90.00000000
_symmetry_Int_Tables_number   1
_chemical_formula_structural   Ac3Pr(GaPd)4
_chemical_formula_sum   'Ac3 Pr1 Ga4 Pd4'
_cell_volume   280.00787419
_cell_formula_units_Z   1
loop_
 _symmetry_equiv_pos_site_id
 _symmetry_equiv_pos_as_xyz
  1  'x, y, z'
loop_
 _atom_site_type_symbol
 _atom_site_label
 _atom_site_symmetry_multiplicity
 _atom_site_fract_x
 _atom_site_fract_y
 _atom_site_fract_z
 _atom_site_occupancy
  Ac  Ac0  1  0.250000  0.027471  0.699117  1
  Ac  Ac1  1  0.250000  0.524360  0.807824  1
  Ac  Ac2  1  0.750000  0.973686  0.301541  1
  Pr  Pr3  1  0.750000  0.475042  0.199701  1
  Ga  Ga4  1  0.250000  0.176079  0.077850  1
  Ga  Ga5  1  0.250000  0.654301  0.421659  1
  Ga  Ga6  1  0.750000  0.828519  0.927898  1
  Ga  Ga7  1  0.750000  0.340796  0.567011  1
  Pd  Pd8  1  0.250000  0.285099  0.397057  1
  Pd  Pd9  1  0.250000  0.782330  0.097592  1
  Pd  Pd10  1  0.750000  0.712500  0.595265  1
  Pd  Pd11  1  0.750000  0.219817  0.907484  1
