# generated using pymatgen
data_Ce7Dy3Si8O3
_symmetry_space_group_name_H-M   'P 1'
_cell_length_a   10.52187400
_cell_length_b   10.52187608
_cell_length_c   4.45688200
_cell_angle_alpha   90.00000000
_cell_angle_beta   90.00000000
_cell_angle_gamma   119.99999976
_symmetry_Int_Tables_number   1
_chemical_formula_structural   Ce7Dy3Si8O3
_chemical_formula_sum   'Ce7 Dy3 Si8 O3'
_cell_volume   427.31491131
_cell_formula_units_Z   1
loop_
 _symmetry_equiv_pos_site_id
 _symmetry_equiv_pos_as_xyz
  1  'x, y, z'
loop_
 _atom_site_type_symbol
 _atom_site_label
 _atom_site_symmetry_multiplicity
 _atom_site_fract_x
 _atom_site_fract_y
 _atom_site_fract_z
 _atom_site_occupancy
  Ce  Ce0  1  0.212643  0.787357  0.000000  1
  Ce  Ce1  1  0.212643  0.425285  0.000000  1
  Ce  Ce2  1  0.787357  0.574715  0.000000  1
  Ce  Ce3  1  0.425285  0.212643  0.000000  1
  Ce  Ce4  1  0.000000  0.000000  0.000000  1
  Ce  Ce5  1  0.574715  0.787357  0.000000  1
  Ce  Ce6  1  0.787357  0.212643  0.000000  1
  Dy  Dy7  1  0.500000  0.000000  0.500000  1
  Dy  Dy8  1  0.000000  0.500000  0.500000  1
  Dy  Dy9  1  0.500000  0.500000  0.500000  1
  Si  Si10  1  0.666667  0.333333  0.500000  1
  Si  Si11  1  0.000000  0.775838  0.500000  1
  Si  Si12  1  0.333333  0.666667  0.500000  1
  Si  Si13  1  0.224162  0.224162  0.500000  1
  Si  Si14  1  0.775838  0.775838  0.500000  1
  Si  Si15  1  0.775838  0.000000  0.500000  1
  Si  Si16  1  0.224162  0.000000  0.500000  1
  Si  Si17  1  0.000000  0.224162  0.500000  1
  O  O18  1  0.500000  0.500000  0.000000  1
  O  O19  1  0.500000  0.000000  0.000000  1
  O  O20  1  0.000000  0.500000  0.000000  1
