# generated using pymatgen
data_Dy4Y2B14MoRu
_symmetry_space_group_name_H-M   'P 1'
_cell_length_a   8.12017723
_cell_length_b   8.12017700
_cell_length_c   9.39469500
_cell_angle_alpha   90.00000000
_cell_angle_beta   90.00000000
_cell_angle_gamma   155.05650958
_symmetry_Int_Tables_number   1
_chemical_formula_structural   Dy4Y2B14MoRu
_chemical_formula_sum   'Dy4 Y2 B14 Mo1 Ru1'
_cell_volume   261.24151682
_cell_formula_units_Z   1
loop_
 _symmetry_equiv_pos_site_id
 _symmetry_equiv_pos_as_xyz
  1  'x, y, z'
loop_
 _atom_site_type_symbol
 _atom_site_label
 _atom_site_symmetry_multiplicity
 _atom_site_fract_x
 _atom_site_fract_y
 _atom_site_fract_z
 _atom_site_occupancy
  Dy  Dy0  1  0.605634  0.394366  0.061979  1
  Dy  Dy1  1  0.393428  0.606572  0.941140  1
  Dy  Dy2  1  0.393428  0.606572  0.558860  1
  Dy  Dy3  1  0.605634  0.394366  0.438021  1
  Y  Y4  1  0.256589  0.743411  0.250000  1
  Y  Y5  1  0.744818  0.255182  0.750000  1
  B  B6  1  0.978696  0.021304  0.096745  1
  B  B7  1  0.019685  0.980315  0.908452  1
  B  B8  1  0.019685  0.980315  0.591548  1
  B  B9  1  0.978696  0.021304  0.403255  1
  B  B10  1  0.773586  0.226414  0.034937  1
  B  B11  1  0.227851  0.772149  0.968237  1
  B  B12  1  0.227851  0.772149  0.531763  1
  B  B13  1  0.773586  0.226414  0.465063  1
  B  B14  1  0.868722  0.131278  0.151274  1
  B  B15  1  0.134345  0.865655  0.852796  1
  B  B16  1  0.134345  0.865655  0.647204  1
  B  B17  1  0.868722  0.131278  0.348726  1
  B  B18  1  0.041061  0.958939  0.250000  1
  B  B19  1  0.955196  0.044804  0.750000  1
  Mo  Mo20  1  0.552825  0.447175  0.750000  1
  Ru  Ru21  1  0.445626  0.554374  0.250000  1
