# generated using pymatgen
data_Dy3ErFePt3O14
_symmetry_space_group_name_H-M   'P 1'
_cell_length_a   7.27570055
_cell_length_b   7.21065144
_cell_length_c   7.21065200
_cell_angle_alpha   59.99999745
_cell_angle_beta   60.29531195
_cell_angle_gamma   60.29532271
_symmetry_Int_Tables_number   1
_chemical_formula_structural   Dy3ErFePt3O14
_chemical_formula_sum   'Dy3 Er1 Fe1 Pt3 O14'
_cell_volume   268.67859194
_cell_formula_units_Z   1
loop_
 _symmetry_equiv_pos_site_id
 _symmetry_equiv_pos_as_xyz
  1  'x, y, z'
loop_
 _atom_site_type_symbol
 _atom_site_label
 _atom_site_symmetry_multiplicity
 _atom_site_fract_x
 _atom_site_fract_y
 _atom_site_fract_z
 _atom_site_occupancy
  Dy  Dy0  1  0.125000  0.625000  0.125000  1
  Dy  Dy1  1  0.125000  0.125000  0.625000  1
  Dy  Dy2  1  0.125000  0.125000  0.125000  1
  Er  Er3  1  0.625000  0.125000  0.125000  1
  Fe  Fe4  1  0.125000  0.625000  0.625000  1
  Pt  Pt5  1  0.625000  0.625000  0.625000  1
  Pt  Pt6  1  0.625000  0.125000  0.625000  1
  Pt  Pt7  1  0.625000  0.625000  0.125000  1
  O  O8  1  0.288357  0.713550  0.713550  1
  O  O9  1  0.537629  0.964892  0.964892  1
  O  O10  1  0.712371  0.285108  0.717413  1
  O  O11  1  0.288357  0.284544  0.713550  1
  O  O12  1  0.712371  0.717413  0.285108  1
  O  O13  1  0.992903  0.002365  0.002365  1
  O  O14  1  0.288357  0.713550  0.284544  1
  O  O15  1  0.961643  0.536450  0.965456  1
  O  O16  1  0.961643  0.965456  0.536450  1
  O  O17  1  0.537629  0.532587  0.964892  1
  O  O18  1  0.257097  0.247635  0.247635  1
  O  O19  1  0.537629  0.964892  0.532587  1
  O  O20  1  0.712371  0.285108  0.285108  1
  O  O21  1  0.961643  0.536450  0.536450  1
