# generated using pymatgen
data_Dy7YPt4
_symmetry_space_group_name_H-M   'P 1'
_cell_length_a   4.76578300
_cell_length_b   7.16882316
_cell_length_c   8.82631135
_cell_angle_alpha   89.85852406
_cell_angle_beta   90.00000000
_cell_angle_gamma   90.00000000
_symmetry_Int_Tables_number   1
_chemical_formula_structural   Dy7YPt4
_chemical_formula_sum   'Dy7 Y1 Pt4'
_cell_volume   301.55049830
_cell_formula_units_Z   1
loop_
 _symmetry_equiv_pos_site_id
 _symmetry_equiv_pos_as_xyz
  1  'x, y, z'
loop_
 _atom_site_type_symbol
 _atom_site_label
 _atom_site_symmetry_multiplicity
 _atom_site_fract_x
 _atom_site_fract_y
 _atom_site_fract_z
 _atom_site_occupancy
  Dy  Dy0  1  0.250000  0.855124  0.920498  1
  Dy  Dy1  1  0.250000  0.354127  0.579546  1
  Dy  Dy2  1  0.750000  0.145183  0.080296  1
  Dy  Dy3  1  0.750000  0.645649  0.420186  1
  Dy  Dy4  1  0.250000  0.989586  0.331458  1
  Dy  Dy5  1  0.250000  0.489821  0.168064  1
  Dy  Dy6  1  0.750000  0.009872  0.668251  1
  Y  Y7  1  0.750000  0.510495  0.830501  1
  Pt  Pt8  1  0.250000  0.258324  0.907423  1
  Pt  Pt9  1  0.250000  0.758980  0.593167  1
  Pt  Pt10  1  0.750000  0.741685  0.093673  1
  Pt  Pt11  1  0.750000  0.241155  0.406938  1
