# generated using pymatgen
data_Zr2Pa3FeBi3
_symmetry_space_group_name_H-M   'P 1'
_cell_length_a   9.16876300
_cell_length_b   9.16876439
_cell_length_c   6.06075600
_cell_angle_alpha   90.00000000
_cell_angle_beta   90.00000000
_cell_angle_gamma   119.99999858
_symmetry_Int_Tables_number   1
_chemical_formula_structural   Zr2Pa3FeBi3
_chemical_formula_sum   'Zr4 Pa6 Fe2 Bi6'
_cell_volume   441.24418797
_cell_formula_units_Z   2
loop_
 _symmetry_equiv_pos_site_id
 _symmetry_equiv_pos_as_xyz
  1  'x, y, z'
loop_
 _atom_site_type_symbol
 _atom_site_label
 _atom_site_symmetry_multiplicity
 _atom_site_fract_x
 _atom_site_fract_y
 _atom_site_fract_z
 _atom_site_occupancy
  Zr  Zr0  1  0.666667  0.333333  0.000000  1
  Zr  Zr1  1  0.333333  0.666667  0.000000  1
  Zr  Zr2  1  0.333333  0.666667  0.500000  1
  Zr  Zr3  1  0.666667  0.333333  0.500000  1
  Pa  Pa4  1  0.760872  0.760872  0.750000  1
  Pa  Pa5  1  0.239128  0.000000  0.750000  1
  Pa  Pa6  1  0.000000  0.239128  0.750000  1
  Pa  Pa7  1  0.239128  0.239128  0.250000  1
  Pa  Pa8  1  0.760872  0.000000  0.250000  1
  Pa  Pa9  1  0.000000  0.760872  0.250000  1
  Fe  Fe10  1  0.000000  0.000000  0.000000  1
  Fe  Fe11  1  0.000000  0.000000  0.500000  1
  Bi  Bi12  1  0.400047  0.400047  0.750000  1
  Bi  Bi13  1  0.599953  0.000000  0.750000  1
  Bi  Bi14  1  0.000000  0.599953  0.750000  1
  Bi  Bi15  1  0.599953  0.599953  0.250000  1
  Bi  Bi16  1  0.400047  0.000000  0.250000  1
  Bi  Bi17  1  0.000000  0.400047  0.250000  1
