# generated using pymatgen
data_LaPrCd2(SiPt2)2
_symmetry_space_group_name_H-M   'P 1'
_cell_length_a   4.24232400
_cell_length_b   4.24232400
_cell_length_c   11.34540700
_cell_angle_alpha   90.00000000
_cell_angle_beta   90.00000000
_cell_angle_gamma   90.00000000
_symmetry_Int_Tables_number   1
_chemical_formula_structural   LaPrCd2(SiPt2)2
_chemical_formula_sum   'La1 Pr1 Cd2 Si2 Pt4'
_cell_volume   204.18683999
_cell_formula_units_Z   1
loop_
 _symmetry_equiv_pos_site_id
 _symmetry_equiv_pos_as_xyz
  1  'x, y, z'
loop_
 _atom_site_type_symbol
 _atom_site_label
 _atom_site_symmetry_multiplicity
 _atom_site_fract_x
 _atom_site_fract_y
 _atom_site_fract_z
 _atom_site_occupancy
  La  La0  1  0.500000  0.000000  0.764165  1
  Pr  Pr1  1  0.000000  0.500000  0.234854  1
  Cd  Cd2  1  0.000000  0.000000  0.499451  1
  Cd  Cd3  1  0.500000  0.500000  0.499451  1
  Si  Si4  1  0.000000  0.500000  0.887531  1
  Si  Si5  1  0.500000  0.000000  0.113620  1
  Pt  Pt6  1  0.000000  0.000000  0.000398  1
  Pt  Pt7  1  0.500000  0.500000  0.000398  1
  Pt  Pt8  1  0.000000  0.500000  0.678356  1
  Pt  Pt9  1  0.500000  0.000000  0.321776  1
