# generated using pymatgen
data_Nd5Si3P9Ru9Rh10
_symmetry_space_group_name_H-M   'P 1'
_cell_length_a   12.77184900
_cell_length_b   12.77184915
_cell_length_c   3.98205700
_cell_angle_alpha   90.00000000
_cell_angle_beta   90.00000000
_cell_angle_gamma   120.00000737
_symmetry_Int_Tables_number   1
_chemical_formula_structural   Nd5Si3P9Ru9Rh10
_chemical_formula_sum   'Nd5 Si3 P9 Ru9 Rh10'
_cell_volume   562.52992107
_cell_formula_units_Z   1
loop_
 _symmetry_equiv_pos_site_id
 _symmetry_equiv_pos_as_xyz
  1  'x, y, z'
loop_
 _atom_site_type_symbol
 _atom_site_label
 _atom_site_symmetry_multiplicity
 _atom_site_fract_x
 _atom_site_fract_y
 _atom_site_fract_z
 _atom_site_occupancy
  Nd  Nd0  1  0.998562  0.184984  0.500000  1
  Nd  Nd1  1  0.815016  0.813579  0.500000  1
  Nd  Nd2  1  0.186421  0.001438  0.500000  1
  Nd  Nd3  1  0.666667  0.333333  0.000000  1
  Nd  Nd4  1  0.333333  0.666667  0.000000  1
  Si  Si5  1  0.685732  0.163558  0.500000  1
  Si  Si6  1  0.836442  0.522174  0.500000  1
  Si  Si7  1  0.477826  0.314268  0.500000  1
  P  P8  1  0.002345  0.816080  0.000000  1
  P  P9  1  0.183920  0.186265  0.000000  1
  P  P10  1  0.813735  0.997655  0.000000  1
  P  P11  1  0.173608  0.692501  0.500000  1
  P  P12  1  0.518893  0.826392  0.500000  1
  P  P13  1  0.307499  0.481107  0.500000  1
  P  P14  1  0.997365  0.373756  0.000000  1
  P  P15  1  0.626244  0.623610  0.000000  1
  P  P16  1  0.376390  0.002635  0.000000  1
  Ru  Ru17  1  0.006820  0.720599  0.500000  1
  Ru  Ru18  1  0.279401  0.286222  0.500000  1
  Ru  Ru19  1  0.713778  0.993180  0.500000  1
  Ru  Ru20  1  0.879429  0.359310  0.500000  1
  Ru  Ru21  1  0.640690  0.520120  0.500000  1
  Ru  Ru22  1  0.479880  0.120571  0.500000  1
  Ru  Ru23  1  0.365606  0.874675  0.500000  1
  Ru  Ru24  1  0.509069  0.634394  0.500000  1
  Ru  Ru25  1  0.125325  0.490931  0.500000  1
  Rh  Rh26  1  0.997192  0.552952  0.000000  1
  Rh  Rh27  1  0.447048  0.444241  0.000000  1
  Rh  Rh28  1  0.555759  0.002808  0.000000  1
  Rh  Rh29  1  0.807156  0.179651  0.000000  1
  Rh  Rh30  1  0.820349  0.627506  0.000000  1
  Rh  Rh31  1  0.372494  0.192844  0.000000  1
  Rh  Rh32  1  0.186873  0.808449  0.000000  1
  Rh  Rh33  1  0.621577  0.813127  0.000000  1
  Rh  Rh34  1  0.191551  0.378423  0.000000  1
  Rh  Rh35  1  0.000000  0.000000  0.000000  1
