# generated using pymatgen
data_Tb3YEr4(B6Ru)4
_symmetry_space_group_name_H-M   'P 1'
_cell_length_a   3.64991400
_cell_length_b   9.12007400
_cell_length_c   11.50210700
_cell_angle_alpha   90.00197762
_cell_angle_beta   90.00000000
_cell_angle_gamma   90.00000000
_symmetry_Int_Tables_number   1
_chemical_formula_structural   Tb3YEr4(B6Ru)4
_chemical_formula_sum   'Tb3 Y1 Er4 B24 Ru4'
_cell_volume   382.87622302
_cell_formula_units_Z   1
loop_
 _symmetry_equiv_pos_site_id
 _symmetry_equiv_pos_as_xyz
  1  'x, y, z'
loop_
 _atom_site_type_symbol
 _atom_site_label
 _atom_site_symmetry_multiplicity
 _atom_site_fract_x
 _atom_site_fract_y
 _atom_site_fract_z
 _atom_site_occupancy
  Tb  Tb0  1  0.000000  0.322113  0.414174  1
  Tb  Tb1  1  0.000000  0.677879  0.585833  1
  Tb  Tb2  1  0.000000  0.822127  0.085798  1
  Y  Y3  1  0.000000  0.178189  0.914271  1
  Er  Er4  1  0.000000  0.943541  0.372156  1
  Er  Er5  1  0.000000  0.056469  0.627899  1
  Er  Er6  1  0.000000  0.443522  0.127847  1
  Er  Er7  1  0.000000  0.556457  0.872120  1
  B  B8  1  0.500000  0.554423  0.432665  1
  B  B9  1  0.500000  0.445556  0.567333  1
  B  B10  1  0.500000  0.054399  0.067256  1
  B  B11  1  0.500000  0.945624  0.932724  1
  B  B12  1  0.500000  0.748631  0.419195  1
  B  B13  1  0.500000  0.251358  0.580802  1
  B  B14  1  0.500000  0.248610  0.080732  1
  B  B15  1  0.500000  0.751372  0.919191  1
  B  B16  1  0.500000  0.790881  0.266091  1
  B  B17  1  0.500000  0.209024  0.733971  1
  B  B18  1  0.500000  0.290885  0.233877  1
  B  B19  1  0.500000  0.709110  0.766088  1
  B  B20  1  0.500000  0.630866  0.184806  1
  B  B21  1  0.500000  0.369074  0.815211  1
  B  B22  1  0.500000  0.130890  0.315169  1
  B  B23  1  0.500000  0.869117  0.684819  1
  B  B24  1  0.500000  0.983266  0.213107  1
  B  B25  1  0.500000  0.016846  0.786891  1
  B  B26  1  0.500000  0.483258  0.286871  1
  B  B27  1  0.500000  0.516714  0.713144  1
  B  B28  1  0.500000  0.605855  0.029152  1
  B  B29  1  0.500000  0.393935  0.970804  1
  B  B30  1  0.500000  0.105841  0.470864  1
  B  B31  1  0.500000  0.894154  0.529134  1
  Ru  Ru32  1  0.000000  0.638014  0.320597  1
  Ru  Ru33  1  0.000000  0.361940  0.679401  1
  Ru  Ru34  1  0.000000  0.138009  0.179373  1
  Ru  Ru35  1  0.000000  0.862050  0.820635  1
