# generated using pymatgen
data_Tb5Tc6P12Ir13
_symmetry_space_group_name_H-M   'P 1'
_cell_length_a   12.66167400
_cell_length_b   12.66167321
_cell_length_c   3.99328900
_cell_angle_alpha   90.00000000
_cell_angle_beta   90.00000000
_cell_angle_gamma   119.99999685
_symmetry_Int_Tables_number   1
_chemical_formula_structural   Tb5Tc6P12Ir13
_chemical_formula_sum   'Tb5 Tc6 P12 Ir13'
_cell_volume   554.42603417
_cell_formula_units_Z   1
loop_
 _symmetry_equiv_pos_site_id
 _symmetry_equiv_pos_as_xyz
  1  'x, y, z'
loop_
 _atom_site_type_symbol
 _atom_site_label
 _atom_site_symmetry_multiplicity
 _atom_site_fract_x
 _atom_site_fract_y
 _atom_site_fract_z
 _atom_site_occupancy
  Tb  Tb0  1  0.333333  0.666667  0.500000  1
  Tb  Tb1  1  0.000384  0.812207  0.000000  1
  Tb  Tb2  1  0.187793  0.188178  0.000000  1
  Tb  Tb3  1  0.811822  0.999616  0.000000  1
  Tb  Tb4  1  0.666667  0.333333  0.500000  1
  Tc  Tc5  1  0.990196  0.446391  0.500000  1
  Tc  Tc6  1  0.553609  0.543805  0.500000  1
  Tc  Tc7  1  0.456195  0.009804  0.500000  1
  Tc  Tc8  1  0.620241  0.798977  0.500000  1
  Tc  Tc9  1  0.201023  0.821264  0.500000  1
  Tc  Tc10  1  0.178736  0.379759  0.500000  1
  P  P11  1  0.007068  0.638303  0.500000  1
  P  P12  1  0.361697  0.368766  0.500000  1
  P  P13  1  0.631234  0.992932  0.500000  1
  P  P14  1  0.521483  0.694068  0.000000  1
  P  P15  1  0.305932  0.827415  0.000000  1
  P  P16  1  0.172585  0.478517  0.000000  1
  P  P17  1  0.482212  0.167999  0.000000  1
  P  P18  1  0.685786  0.517788  0.000000  1
  P  P19  1  0.832001  0.314214  0.000000  1
  P  P20  1  0.003697  0.182656  0.500000  1
  P  P21  1  0.817344  0.821041  0.500000  1
  P  P22  1  0.178959  0.996303  0.500000  1
  Ir  Ir23  1  0.507013  0.875002  0.000000  1
  Ir  Ir24  1  0.124998  0.632012  0.000000  1
  Ir  Ir25  1  0.367988  0.492987  0.000000  1
  Ir  Ir26  1  0.493514  0.357940  0.000000  1
  Ir  Ir27  1  0.864427  0.506486  0.000000  1
  Ir  Ir28  1  0.642060  0.135573  0.000000  1
  Ir  Ir29  1  0.995120  0.281801  0.000000  1
  Ir  Ir30  1  0.718199  0.713318  0.000000  1
  Ir  Ir31  1  0.286682  0.004880  0.000000  1
  Ir  Ir32  1  0.374191  0.185039  0.500000  1
  Ir  Ir33  1  0.810848  0.625809  0.500000  1
  Ir  Ir34  1  0.814961  0.189152  0.500000  1
  Ir  Ir35  1  0.000000  0.000000  0.500000  1
