# generated using pymatgen
data_PrTm(Si7Rh3)2
_symmetry_space_group_name_H-M   'P 1'
_cell_length_a   8.03905494
_cell_length_b   8.03905506
_cell_length_c   8.03905666
_cell_angle_alpha   56.93349640
_cell_angle_beta   56.93349504
_cell_angle_gamma   56.93349317
_symmetry_Int_Tables_number   1
_chemical_formula_structural   PrTm(Si7Rh3)2
_chemical_formula_sum   'Pr1 Tm1 Si14 Rh6'
_cell_volume   341.38317609
_cell_formula_units_Z   1
loop_
 _symmetry_equiv_pos_site_id
 _symmetry_equiv_pos_as_xyz
  1  'x, y, z'
loop_
 _atom_site_type_symbol
 _atom_site_label
 _atom_site_symmetry_multiplicity
 _atom_site_fract_x
 _atom_site_fract_y
 _atom_site_fract_z
 _atom_site_occupancy
  Pr  Pr0  1  0.000000  0.000000  0.000000  1
  Tm  Tm1  1  0.500000  0.500000  0.500000  1
  Si  Si2  1  0.750026  0.750026  0.750026  1
  Si  Si3  1  0.249974  0.249974  0.249974  1
  Si  Si4  1  0.850065  0.065381  0.671295  1
  Si  Si5  1  0.671295  0.850065  0.065381  1
  Si  Si6  1  0.065381  0.671295  0.850065  1
  Si  Si7  1  0.647095  0.826618  0.437230  1
  Si  Si8  1  0.437230  0.647095  0.826618  1
  Si  Si9  1  0.826618  0.437230  0.647095  1
  Si  Si10  1  0.173382  0.562770  0.352905  1
  Si  Si11  1  0.562770  0.352905  0.173382  1
  Si  Si12  1  0.352905  0.173382  0.562770  1
  Si  Si13  1  0.934619  0.328705  0.149935  1
  Si  Si14  1  0.328705  0.149935  0.934619  1
  Si  Si15  1  0.149935  0.934619  0.328705  1
  Rh  Rh16  1  0.071207  0.433153  0.747248  1
  Rh  Rh17  1  0.252752  0.928793  0.566847  1
  Rh  Rh18  1  0.566847  0.252752  0.928793  1
  Rh  Rh19  1  0.928793  0.566847  0.252752  1
  Rh  Rh20  1  0.433153  0.747248  0.071207  1
  Rh  Rh21  1  0.747248  0.071207  0.433153  1
