# generated using pymatgen
data_Er3Lu5Mn2(B12Ru)2
_symmetry_space_group_name_H-M   'P 1'
_cell_length_a   3.55768700
_cell_length_b   9.02427222
_cell_length_c   11.40180005
_cell_angle_alpha   89.99280280
_cell_angle_beta   90.00000000
_cell_angle_gamma   90.00000000
_symmetry_Int_Tables_number   1
_chemical_formula_structural   Er3Lu5Mn2(B12Ru)2
_chemical_formula_sum   'Er3 Lu5 Mn2 B24 Ru2'
_cell_volume   366.06089886
_cell_formula_units_Z   1
loop_
 _symmetry_equiv_pos_site_id
 _symmetry_equiv_pos_as_xyz
  1  'x, y, z'
loop_
 _atom_site_type_symbol
 _atom_site_label
 _atom_site_symmetry_multiplicity
 _atom_site_fract_x
 _atom_site_fract_y
 _atom_site_fract_z
 _atom_site_occupancy
  Er  Er0  1  0.000000  0.326178  0.416206  1
  Er  Er1  1  0.000000  0.673804  0.583827  1
  Er  Er2  1  0.000000  0.820076  0.087760  1
  Lu  Lu3  1  0.000000  0.180208  0.912175  1
  Lu  Lu4  1  0.000000  0.940095  0.370963  1
  Lu  Lu5  1  0.000000  0.060053  0.629153  1
  Lu  Lu6  1  0.000000  0.445237  0.131130  1
  Lu  Lu7  1  0.000000  0.554336  0.868737  1
  Mn  Mn8  1  0.000000  0.638375  0.319931  1
  Mn  Mn9  1  0.000000  0.361461  0.680246  1
  B  B10  1  0.500000  0.554098  0.432220  1
  B  B11  1  0.500000  0.445844  0.567843  1
  B  B12  1  0.500000  0.053862  0.066359  1
  B  B13  1  0.500000  0.946961  0.933217  1
  B  B14  1  0.500000  0.747229  0.417898  1
  B  B15  1  0.500000  0.252812  0.582260  1
  B  B16  1  0.500000  0.249994  0.080308  1
  B  B17  1  0.500000  0.749948  0.918981  1
  B  B18  1  0.500000  0.790071  0.266124  1
  B  B19  1  0.500000  0.209704  0.734412  1
  B  B20  1  0.500000  0.292551  0.235194  1
  B  B21  1  0.500000  0.707507  0.764698  1
  B  B22  1  0.500000  0.630624  0.186348  1
  B  B23  1  0.500000  0.368837  0.813990  1
  B  B24  1  0.500000  0.130568  0.315461  1
  B  B25  1  0.500000  0.869563  0.684567  1
  B  B26  1  0.500000  0.981453  0.212889  1
  B  B27  1  0.500000  0.019305  0.787380  1
  B  B28  1  0.500000  0.484501  0.288405  1
  B  B29  1  0.500000  0.515276  0.711634  1
  B  B30  1  0.500000  0.601930  0.028226  1
  B  B31  1  0.500000  0.397142  0.971511  1
  B  B32  1  0.500000  0.102537  0.471810  1
  B  B33  1  0.500000  0.897501  0.528244  1
  Ru  Ru34  1  0.000000  0.138392  0.179052  1
  Ru  Ru35  1  0.000000  0.861967  0.820841  1
