# generated using pymatgen
data_Ho8Lu6Sc5Si16Ag
_symmetry_space_group_name_H-M   'P 1'
_cell_length_a   7.08248579
_cell_length_b   7.50595520
_cell_length_c   14.19685385
_cell_angle_alpha   90.15893050
_cell_angle_beta   90.18801359
_cell_angle_gamma   90.03923243
_symmetry_Int_Tables_number   1
_chemical_formula_structural   Ho8Lu6Sc5Si16Ag
_chemical_formula_sum   'Ho8 Lu6 Sc5 Si16 Ag1'
_cell_volume   754.70925878
_cell_formula_units_Z   1
loop_
 _symmetry_equiv_pos_site_id
 _symmetry_equiv_pos_as_xyz
  1  'x, y, z'
loop_
 _atom_site_type_symbol
 _atom_site_label
 _atom_site_symmetry_multiplicity
 _atom_site_fract_x
 _atom_site_fract_y
 _atom_site_fract_z
 _atom_site_occupancy
  Ho  Ho0  1  0.012820  0.179073  0.095374  1
  Ho  Ho1  1  0.987613  0.812222  0.903353  1
  Ho  Ho2  1  0.482873  0.676775  0.902278  1
  Ho  Ho3  1  0.986665  0.810432  0.599848  1
  Ho  Ho4  1  0.511311  0.320912  0.095899  1
  Ho  Ho5  1  0.015012  0.179733  0.401458  1
  Ho  Ho6  1  0.512839  0.320669  0.402214  1
  Ho  Ho7  1  0.482017  0.676151  0.599817  1
  Lu  Lu8  1  0.321414  0.183622  0.628775  1
  Lu  Lu9  1  0.674839  0.824062  0.373551  1
  Lu  Lu10  1  0.174344  0.679983  0.372155  1
  Lu  Lu11  1  0.673641  0.823734  0.123839  1
  Lu  Lu12  1  0.836099  0.326943  0.628333  1
  Lu  Lu13  1  0.320708  0.183943  0.874113  1
  Sc  Sc14  1  0.841194  0.491456  0.247838  1
  Sc  Sc15  1  0.342481  0.009005  0.247743  1
  Sc  Sc16  1  0.653532  0.991200  0.751899  1
  Sc  Sc17  1  0.835357  0.327560  0.872726  1
  Sc  Sc18  1  0.173455  0.677932  0.126808  1
  Si  Si19  1  0.017309  0.084220  0.751838  1
  Si  Si20  1  0.977585  0.898072  0.247495  1
  Si  Si21  1  0.472434  0.604389  0.246949  1
  Si  Si22  1  0.534739  0.395291  0.752914  1
  Si  Si23  1  0.283968  0.875344  0.751432  1
  Si  Si24  1  0.716343  0.134571  0.248631  1
  Si  Si25  1  0.214238  0.367286  0.248062  1
  Si  Si26  1  0.773453  0.632636  0.752139  1
  Si  Si27  1  0.162350  0.462053  0.530309  1
  Si  Si28  1  0.844507  0.531935  0.460589  1
  Si  Si29  1  0.346228  0.968720  0.462873  1
  Si  Si30  1  0.846270  0.530875  0.037702  1
  Si  Si31  1  0.655681  0.030469  0.541525  1
  Si  Si32  1  0.158079  0.465378  0.969971  1
  Si  Si33  1  0.659679  0.035563  0.958680  1
  Si  Si34  1  0.339773  0.963790  0.037591  1
  Ag  Ag35  1  0.159144  0.524001  0.753280  1
