# generated using pymatgen
data_Tb6Pr(CCl5)2
_symmetry_space_group_name_H-M   'P 1'
_cell_length_a   10.39064555
_cell_length_b   10.39064585
_cell_length_c   12.98420634
_cell_angle_alpha   80.18448517
_cell_angle_beta   80.18448480
_cell_angle_gamma   20.97352479
_symmetry_Int_Tables_number   1
_chemical_formula_structural   Tb6Pr(CCl5)2
_chemical_formula_sum   'Tb6 Pr1 C2 Cl10'
_cell_volume   494.17343929
_cell_formula_units_Z   1
loop_
 _symmetry_equiv_pos_site_id
 _symmetry_equiv_pos_as_xyz
  1  'x, y, z'
loop_
 _atom_site_type_symbol
 _atom_site_label
 _atom_site_symmetry_multiplicity
 _atom_site_fract_x
 _atom_site_fract_y
 _atom_site_fract_z
 _atom_site_occupancy
  Tb  Tb0  1  0.818944  0.818944  0.506538  1
  Tb  Tb1  1  0.181056  0.181056  0.493462  1
  Tb  Tb2  1  0.698824  0.698824  0.721977  1
  Tb  Tb3  1  0.301176  0.301176  0.278023  1
  Tb  Tb4  1  0.345455  0.345455  0.731050  1
  Tb  Tb5  1  0.654545  0.654545  0.268950  1
  Pr  Pr6  1  0.000000  0.000000  0.000000  1
  C  C7  1  0.261418  0.261418  0.626308  1
  C  C8  1  0.738582  0.738582  0.373692  1
  Cl  Cl9  1  0.446872  0.446872  0.870548  1
  Cl  Cl10  1  0.553128  0.553128  0.129452  1
  Cl  Cl11  1  0.785162  0.785162  0.867065  1
  Cl  Cl12  1  0.214838  0.214838  0.132935  1
  Cl  Cl13  1  0.124077  0.124077  0.863279  1
  Cl  Cl14  1  0.075930  0.075930  0.374800  1
  Cl  Cl15  1  0.924070  0.924070  0.625200  1
  Cl  Cl16  1  0.402025  0.402025  0.385624  1
  Cl  Cl17  1  0.597975  0.597975  0.614376  1
  Cl  Cl18  1  0.875923  0.875923  0.136721  1
