# generated using pymatgen
data_YbV(GaI4)4
_symmetry_space_group_name_H-M   'P 1'
_cell_length_a   11.50995585
_cell_length_b   11.50995638
_cell_length_c   13.66676900
_cell_angle_alpha   55.32834671
_cell_angle_beta   55.32834491
_cell_angle_gamma   49.89338981
_symmetry_Int_Tables_number   1
_chemical_formula_structural   YbV(GaI4)4
_chemical_formula_sum   'Yb1 V1 Ga4 I16'
_cell_volume   1078.33086691
_cell_formula_units_Z   1
loop_
 _symmetry_equiv_pos_site_id
 _symmetry_equiv_pos_as_xyz
  1  'x, y, z'
loop_
 _atom_site_type_symbol
 _atom_site_label
 _atom_site_symmetry_multiplicity
 _atom_site_fract_x
 _atom_site_fract_y
 _atom_site_fract_z
 _atom_site_occupancy
  Yb  Yb0  1  0.997573  0.002427  0.750000  1
  V  V1  1  0.007504  0.992496  0.250000  1
  Ga  Ga2  1  0.677724  0.158319  0.036972  1
  Ga  Ga3  1  0.328094  0.840675  0.974884  1
  Ga  Ga4  1  0.841681  0.322276  0.463028  1
  Ga  Ga5  1  0.159325  0.671906  0.525116  1
  I  I6  1  0.872983  0.836002  0.504790  1
  I  I7  1  0.129523  0.184205  0.469350  1
  I  I8  1  0.692521  0.616642  0.438869  1
  I  I9  1  0.618418  0.697450  0.958128  1
  I  I10  1  0.815795  0.870477  0.030650  1
  I  I11  1  0.861917  0.297806  0.273208  1
  I  I12  1  0.147386  0.722346  0.185880  1
  I  I13  1  0.277654  0.852614  0.314120  1
  I  I14  1  0.150422  0.672662  0.721145  1
  I  I15  1  0.302550  0.381582  0.541872  1
  I  I16  1  0.702194  0.138083  0.226792  1
  I  I17  1  0.163998  0.127017  0.995210  1
  I  I18  1  0.383358  0.307479  0.061131  1
  I  I19  1  0.327338  0.849578  0.778855  1
  I  I20  1  0.702996  0.160955  0.674528  1
  I  I21  1  0.839045  0.297004  0.825472  1
