# generated using pymatgen
data_Lu3Ti2(Re3Tc)6
_symmetry_space_group_name_H-M   'P 1'
_cell_length_a   8.45512632
_cell_length_b   8.45512590
_cell_length_c   8.45555202
_cell_angle_alpha   109.48226586
_cell_angle_beta   109.48226820
_cell_angle_gamma   109.44708401
_symmetry_Int_Tables_number   1
_chemical_formula_structural   Lu3Ti2(Re3Tc)6
_chemical_formula_sum   'Lu3 Ti2 Re18 Tc6'
_cell_volume   465.34083763
_cell_formula_units_Z   1
loop_
 _symmetry_equiv_pos_site_id
 _symmetry_equiv_pos_as_xyz
  1  'x, y, z'
loop_
 _atom_site_type_symbol
 _atom_site_label
 _atom_site_symmetry_multiplicity
 _atom_site_fract_x
 _atom_site_fract_y
 _atom_site_fract_z
 _atom_site_occupancy
  Lu  Lu0  1  0.001507  0.001507  0.000000  1
  Lu  Lu1  1  0.628216  0.999773  0.000000  1
  Lu  Lu2  1  0.999773  0.628216  0.000000  1
  Ti  Ti3  1  0.000102  0.000102  0.628892  1
  Ti  Ti4  1  0.371211  0.371211  0.371108  1
  Re  Re5  1  0.318366  0.318366  0.721788  1
  Re  Re6  1  0.999551  0.680801  0.400392  1
  Re  Re7  1  0.680801  0.999551  0.400392  1
  Re  Re8  1  0.596577  0.596577  0.278212  1
  Re  Re9  1  0.280409  0.599159  0.599608  1
  Re  Re10  1  0.599159  0.280409  0.599608  1
  Re  Re11  1  0.376161  0.195279  0.000000  1
  Re  Re12  1  0.183133  0.808773  0.804373  1
  Re  Re13  1  0.378760  0.004399  0.195627  1
  Re  Re14  1  0.195279  0.376161  0.000000  1
  Re  Re15  1  0.004399  0.378760  0.195627  1
  Re  Re16  1  0.808773  0.183133  0.804373  1
  Re  Re17  1  0.808762  0.808762  0.189526  1
  Re  Re18  1  0.004106  0.196246  0.381231  1
  Re  Re19  1  0.196246  0.004106  0.381231  1
  Re  Re20  1  0.619236  0.619236  0.810474  1
  Re  Re21  1  0.815015  0.622875  0.618769  1
  Re  Re22  1  0.622875  0.815015  0.618769  1
  Tc  Tc23  1  0.395427  0.674452  0.000000  1
  Tc  Tc24  1  0.721733  0.324806  0.325686  1
  Tc  Tc25  1  0.396047  0.999120  0.674314  1
  Tc  Tc26  1  0.674452  0.395427  0.000000  1
  Tc  Tc27  1  0.999120  0.396047  0.674314  1
  Tc  Tc28  1  0.324806  0.721733  0.325686  1
