# generated using pymatgen
data_Lu10Cd3Os
_symmetry_space_group_name_H-M   'P 1'
_cell_length_a   9.38006700
_cell_length_b   9.38006785
_cell_length_c   9.70660300
_cell_angle_alpha   90.00000000
_cell_angle_beta   90.00000000
_cell_angle_gamma   120.00000054
_symmetry_Int_Tables_number   1
_chemical_formula_structural   Lu10Cd3Os
_chemical_formula_sum   'Lu20 Cd6 Os2'
_cell_volume   739.62199331
_cell_formula_units_Z   2
loop_
 _symmetry_equiv_pos_site_id
 _symmetry_equiv_pos_as_xyz
  1  'x, y, z'
loop_
 _atom_site_type_symbol
 _atom_site_label
 _atom_site_symmetry_multiplicity
 _atom_site_fract_x
 _atom_site_fract_y
 _atom_site_fract_z
 _atom_site_occupancy
  Lu  Lu0  1  0.000000  0.000000  0.500000  1
  Lu  Lu1  1  0.000000  0.000000  0.000000  1
  Lu  Lu2  1  0.209715  0.790285  0.441186  1
  Lu  Lu3  1  0.209715  0.419428  0.441186  1
  Lu  Lu4  1  0.580572  0.790285  0.441186  1
  Lu  Lu5  1  0.790285  0.209715  0.558814  1
  Lu  Lu6  1  0.790285  0.580572  0.558814  1
  Lu  Lu7  1  0.419428  0.209715  0.558814  1
  Lu  Lu8  1  0.790285  0.209715  0.941186  1
  Lu  Lu9  1  0.790285  0.580572  0.941186  1
  Lu  Lu10  1  0.419428  0.209715  0.941186  1
  Lu  Lu11  1  0.209715  0.790285  0.058814  1
  Lu  Lu12  1  0.209715  0.419428  0.058814  1
  Lu  Lu13  1  0.580572  0.790285  0.058814  1
  Lu  Lu14  1  0.539933  0.460067  0.250000  1
  Lu  Lu15  1  0.539933  0.079866  0.250000  1
  Lu  Lu16  1  0.920134  0.460067  0.250000  1
  Lu  Lu17  1  0.460067  0.539933  0.750000  1
  Lu  Lu18  1  0.460067  0.920134  0.750000  1
  Lu  Lu19  1  0.079866  0.539933  0.750000  1
  Cd  Cd20  1  0.886296  0.113704  0.250000  1
  Cd  Cd21  1  0.886296  0.772595  0.250000  1
  Cd  Cd22  1  0.227405  0.113704  0.250000  1
  Cd  Cd23  1  0.113704  0.886296  0.750000  1
  Cd  Cd24  1  0.113704  0.227405  0.750000  1
  Cd  Cd25  1  0.772595  0.886296  0.750000  1
  Os  Os26  1  0.333333  0.666667  0.250000  1
  Os  Os27  1  0.666667  0.333333  0.750000  1
