# generated using pymatgen
data_Dy2Y3Ho(Al3Os)8
_symmetry_space_group_name_H-M   'P 1'
_cell_length_a   8.84073301
_cell_length_b   8.83741879
_cell_length_c   9.57233800
_cell_angle_alpha   90.00000000
_cell_angle_beta   90.00000000
_cell_angle_gamma   120.01770379
_symmetry_Int_Tables_number   1
_chemical_formula_structural   Dy2Y3Ho(Al3Os)8
_chemical_formula_sum   'Dy2 Y3 Ho1 Al24 Os8'
_cell_volume   647.56723136
_cell_formula_units_Z   1
loop_
 _symmetry_equiv_pos_site_id
 _symmetry_equiv_pos_as_xyz
  1  'x, y, z'
loop_
 _atom_site_type_symbol
 _atom_site_label
 _atom_site_symmetry_multiplicity
 _atom_site_fract_x
 _atom_site_fract_y
 _atom_site_fract_z
 _atom_site_occupancy
  Dy  Dy0  1  0.193312  0.386610  0.250000  1
  Dy  Dy1  1  0.806724  0.613389  0.750000  1
  Y  Y2  1  0.613240  0.806582  0.250000  1
  Y  Y3  1  0.386752  0.193371  0.750000  1
  Y  Y4  1  0.193349  0.806591  0.250000  1
  Ho  Ho5  1  0.806585  0.193448  0.750000  1
  Al  Al6  1  0.333364  0.666681  0.015683  1
  Al  Al7  1  0.666687  0.333273  0.984304  1
  Al  Al8  1  0.666687  0.333273  0.515696  1
  Al  Al9  1  0.333364  0.666681  0.484317  1
  Al  Al10  1  0.162618  0.325331  0.576106  1
  Al  Al11  1  0.837295  0.674637  0.423931  1
  Al  Al12  1  0.674700  0.837472  0.576112  1
  Al  Al13  1  0.837295  0.674637  0.076069  1
  Al  Al14  1  0.325336  0.162619  0.423927  1
  Al  Al15  1  0.162618  0.325331  0.923894  1
  Al  Al16  1  0.162729  0.837422  0.576075  1
  Al  Al17  1  0.325336  0.162619  0.076073  1
  Al  Al18  1  0.837262  0.162594  0.423995  1
  Al  Al19  1  0.674700  0.837472  0.923888  1
  Al  Al20  1  0.837262  0.162594  0.076005  1
  Al  Al21  1  0.162729  0.837422  0.923925  1
  Al  Al22  1  0.560251  0.120511  0.250000  1
  Al  Al23  1  0.439884  0.879596  0.750000  1
  Al  Al24  1  0.879385  0.439702  0.250000  1
  Al  Al25  1  0.120512  0.560165  0.750000  1
  Al  Al26  1  0.560300  0.439712  0.250000  1
  Al  Al27  1  0.439697  0.560296  0.750000  1
  Al  Al28  1  0.999973  0.999954  0.250000  1
  Al  Al29  1  0.999932  0.000147  0.750000  1
  Os  Os30  1  0.500130  0.000104  0.999888  1
  Os  Os31  1  0.999894  0.499865  0.999886  1
  Os  Os32  1  0.500130  0.000104  0.500112  1
  Os  Os33  1  0.500032  0.499970  0.999958  1
  Os  Os34  1  0.999894  0.499865  0.500114  1
  Os  Os35  1  0.500032  0.499970  0.500042  1
  Os  Os36  1  0.000003  0.999995  0.999971  1
  Os  Os37  1  0.000003  0.999995  0.500029  1
