# generated using pymatgen
data_Pr7Dy11(ErSi8)2
_symmetry_space_group_name_H-M   'P 1'
_cell_length_a   7.74374100
_cell_length_b   7.74822997
_cell_length_c   14.34647600
_cell_angle_alpha   89.99165139
_cell_angle_beta   89.92296920
_cell_angle_gamma   90.07639809
_symmetry_Int_Tables_number   1
_chemical_formula_structural   Pr7Dy11(ErSi8)2
_chemical_formula_sum   'Pr7 Dy11 Er2 Si16'
_cell_volume   860.79111202
_cell_formula_units_Z   1
loop_
 _symmetry_equiv_pos_site_id
 _symmetry_equiv_pos_as_xyz
  1  'x, y, z'
loop_
 _atom_site_type_symbol
 _atom_site_label
 _atom_site_symmetry_multiplicity
 _atom_site_fract_x
 _atom_site_fract_y
 _atom_site_fract_z
 _atom_site_occupancy
  Pr  Pr0  1  0.358557  0.006758  0.958120  1
  Pr  Pr1  1  0.993118  0.642746  0.541230  1
  Pr  Pr2  1  0.490917  0.858697  0.208462  1
  Pr  Pr3  1  0.508952  0.139831  0.706823  1
  Pr  Pr4  1  0.859502  0.491121  0.792043  1
  Pr  Pr5  1  0.139657  0.507778  0.293111  1
  Pr  Pr6  1  0.006765  0.357988  0.043002  1
  Dy  Dy7  1  0.490978  0.361299  0.124857  1
  Dy  Dy8  1  0.991565  0.136354  0.624151  1
  Dy  Dy9  1  0.862342  0.008552  0.874884  1
  Dy  Dy10  1  0.136912  0.993103  0.375242  1
  Dy  Dy11  1  0.511341  0.639190  0.623204  1
  Dy  Dy12  1  0.361692  0.491198  0.875270  1
  Dy  Dy13  1  0.639203  0.510197  0.376009  1
  Dy  Dy14  1  0.006879  0.861705  0.126344  1
  Dy  Dy15  1  0.636699  0.995873  0.455914  1
  Dy  Dy16  1  0.317844  0.316663  0.499828  1
  Dy  Dy17  1  0.184465  0.816010  0.749204  1
  Er  Er18  1  0.814911  0.183140  0.250505  1
  Er  Er19  1  0.683036  0.682285  0.000470  1
  Si  Si20  1  0.294161  0.937540  0.559669  1
  Si  Si21  1  0.709455  0.063982  0.061908  1
  Si  Si22  1  0.932309  0.287730  0.438101  1
  Si  Si23  1  0.437777  0.209003  0.312289  1
  Si  Si24  1  0.565903  0.788329  0.811745  1
  Si  Si25  1  0.211516  0.435084  0.688307  1
  Si  Si26  1  0.788429  0.565512  0.188942  1
  Si  Si27  1  0.064608  0.710060  0.939218  1
  Si  Si28  1  0.798463  0.845006  0.691081  1
  Si  Si29  1  0.202877  0.153327  0.190484  1
  Si  Si30  1  0.843019  0.801353  0.313161  1
  Si  Si31  1  0.350476  0.707690  0.438619  1
  Si  Si32  1  0.653531  0.296127  0.940529  1
  Si  Si33  1  0.702130  0.342360  0.558244  1
  Si  Si34  1  0.295832  0.653475  0.060050  1
  Si  Si35  1  0.154177  0.202936  0.808980  1
