# generated using pymatgen
data_HoTm7Re2(B12Ru)2
_symmetry_space_group_name_H-M   'P 1'
_cell_length_a   3.63296300
_cell_length_b   9.09060800
_cell_length_c   11.46805600
_cell_angle_alpha   89.80475896
_cell_angle_beta   90.00000000
_cell_angle_gamma   90.00000000
_symmetry_Int_Tables_number   1
_chemical_formula_structural   HoTm7Re2(B12Ru)2
_chemical_formula_sum   'Ho1 Tm7 Re2 B24 Ru2'
_cell_volume   378.74001261
_cell_formula_units_Z   1
loop_
 _symmetry_equiv_pos_site_id
 _symmetry_equiv_pos_as_xyz
  1  'x, y, z'
loop_
 _atom_site_type_symbol
 _atom_site_label
 _atom_site_symmetry_multiplicity
 _atom_site_fract_x
 _atom_site_fract_y
 _atom_site_fract_z
 _atom_site_occupancy
  Ho  Ho0  1  0.000000  0.324273  0.415363  1
  Tm  Tm1  1  0.000000  0.675574  0.584488  1
  Tm  Tm2  1  0.000000  0.820546  0.087662  1
  Tm  Tm3  1  0.000000  0.179444  0.912301  1
  Tm  Tm4  1  0.000000  0.942863  0.370984  1
  Tm  Tm5  1  0.000000  0.056906  0.629169  1
  Tm  Tm6  1  0.000000  0.442903  0.129038  1
  Tm  Tm7  1  0.000000  0.557248  0.870916  1
  Re  Re8  1  0.000000  0.638899  0.319994  1
  Re  Re9  1  0.000000  0.361497  0.680163  1
  B  B10  1  0.500000  0.553218  0.433483  1
  B  B11  1  0.500000  0.447419  0.566858  1
  B  B12  1  0.500000  0.053462  0.066427  1
  B  B13  1  0.500000  0.946450  0.933491  1
  B  B14  1  0.500000  0.749642  0.419593  1
  B  B15  1  0.500000  0.250384  0.580986  1
  B  B16  1  0.500000  0.249005  0.080425  1
  B  B17  1  0.500000  0.751012  0.919446  1
  B  B18  1  0.500000  0.792585  0.264852  1
  B  B19  1  0.500000  0.207447  0.735278  1
  B  B20  1  0.500000  0.291011  0.233921  1
  B  B21  1  0.500000  0.708804  0.765693  1
  B  B22  1  0.500000  0.631168  0.184294  1
  B  B23  1  0.500000  0.369011  0.815686  1
  B  B24  1  0.500000  0.130403  0.314261  1
  B  B25  1  0.500000  0.869161  0.685459  1
  B  B26  1  0.500000  0.982307  0.211866  1
  B  B27  1  0.500000  0.017539  0.788095  1
  B  B28  1  0.500000  0.481951  0.287075  1
  B  B29  1  0.500000  0.518679  0.712769  1
  B  B30  1  0.500000  0.603333  0.028361  1
  B  B31  1  0.500000  0.396736  0.971582  1
  B  B32  1  0.500000  0.102239  0.471560  1
  B  B33  1  0.500000  0.897064  0.528681  1
  Ru  Ru34  1  0.000000  0.137560  0.178268  1
  Ru  Ru35  1  0.000000  0.862258  0.821514  1
