# generated using pymatgen
data_Li4TeWO8
_symmetry_space_group_name_H-M   'P 1'
_cell_length_a   6.10674921
_cell_length_b   6.10674921
_cell_length_c   8.48531122
_cell_angle_alpha   90.01746488
_cell_angle_beta   90.01746488
_cell_angle_gamma   89.74479812
_symmetry_Int_Tables_number   1
_chemical_formula_structural   Li4TeWO8
_chemical_formula_sum   'Li8 Te2 W2 O16'
_cell_volume   316.43433207
_cell_formula_units_Z   2
loop_
 _symmetry_equiv_pos_site_id
 _symmetry_equiv_pos_as_xyz
  1  'x, y, z'
loop_
 _atom_site_type_symbol
 _atom_site_label
 _atom_site_symmetry_multiplicity
 _atom_site_fract_x
 _atom_site_fract_y
 _atom_site_fract_z
 _atom_site_occupancy
  Li  Li0  1  0.759605  0.741347  0.879371  1
  Li  Li1  1  0.248480  0.751520  0.125000  1
  Li  Li2  1  0.757045  0.242955  0.625000  1
  Li  Li3  1  0.258653  0.240395  0.370629  1
  Li  Li4  1  0.710876  0.504487  0.233405  1
  Li  Li5  1  0.495513  0.289124  0.016595  1
  Li  Li6  1  0.494894  0.715996  0.480543  1
  Li  Li7  1  0.284004  0.505106  0.769457  1
  Te  Te8  1  0.733870  0.001519  0.252374  1
  Te  Te9  1  0.998481  0.266130  0.997626  1
  W  W10  1  0.994085  0.716954  0.506050  1
  W  W11  1  0.283046  0.005915  0.743950  1
  O  O12  1  0.228061  0.986354  0.521854  1
  O  O13  1  0.768147  0.982638  0.481857  1
  O  O14  1  0.017362  0.231853  0.768143  1
  O  O15  1  0.773192  0.016882  0.017800  1
  O  O16  1  0.230348  0.468917  0.004824  1
  O  O17  1  0.532068  0.234597  0.252261  1
  O  O18  1  0.467965  0.771707  0.764891  1
  O  O19  1  0.228293  0.532035  0.485109  1
  O  O20  1  0.765403  0.467932  0.997739  1
  O  O21  1  0.766968  0.525856  0.509784  1
  O  O22  1  0.474144  0.233032  0.740216  1
  O  O23  1  0.531083  0.769652  0.245176  1
  O  O24  1  0.983118  0.226808  0.232200  1
  O  O25  1  0.222023  0.020374  0.978334  1
  O  O26  1  0.979626  0.777977  0.271666  1
  O  O27  1  0.013646  0.771939  0.728146  1
