# generated using pymatgen
data_Bi(S8F)3
_symmetry_space_group_name_H-M   'P 1'
_cell_length_a   14.72245495
_cell_length_b   14.72245571
_cell_length_c   14.72245552
_cell_angle_alpha   118.78813349
_cell_angle_beta   118.78814044
_cell_angle_gamma   118.78813753
_symmetry_Int_Tables_number   1
_chemical_formula_structural   Bi(S8F)3
_chemical_formula_sum   'Bi1 S24 F3'
_cell_volume   907.64282914
_cell_formula_units_Z   1
loop_
 _symmetry_equiv_pos_site_id
 _symmetry_equiv_pos_as_xyz
  1  'x, y, z'
loop_
 _atom_site_type_symbol
 _atom_site_label
 _atom_site_symmetry_multiplicity
 _atom_site_fract_x
 _atom_site_fract_y
 _atom_site_fract_z
 _atom_site_occupancy
  Bi  Bi0  1  0.257865  0.257865  0.257865  1
  S  S1  1  0.009810  0.609971  0.609971  1
  S  S2  1  0.609971  0.609971  0.009810  1
  S  S3  1  0.609971  0.009810  0.609971  1
  S  S4  1  0.237395  0.851818  0.720306  1
  S  S5  1  0.851818  0.720306  0.237395  1
  S  S6  1  0.720306  0.237395  0.851818  1
  S  S7  1  0.851818  0.237395  0.720306  1
  S  S8  1  0.237395  0.720306  0.851818  1
  S  S9  1  0.720306  0.851818  0.237395  1
  S  S10  1  0.096742  0.626667  0.440518  1
  S  S11  1  0.626667  0.440518  0.096742  1
  S  S12  1  0.440518  0.096742  0.626667  1
  S  S13  1  0.626667  0.096742  0.440518  1
  S  S14  1  0.096742  0.440518  0.626667  1
  S  S15  1  0.440518  0.626667  0.096742  1
  S  S16  1  0.361605  0.747273  0.614438  1
  S  S17  1  0.747273  0.614438  0.361605  1
  S  S18  1  0.614438  0.361605  0.747273  1
  S  S19  1  0.747273  0.361605  0.614438  1
  S  S20  1  0.361605  0.614438  0.747273  1
  S  S21  1  0.614438  0.747273  0.361605  1
  S  S22  1  0.186167  0.460401  0.460401  1
  S  S23  1  0.460401  0.460401  0.186167  1
  S  S24  1  0.460401  0.186167  0.460401  1
  F  F25  1  0.096481  0.981255  0.981255  1
  F  F26  1  0.981255  0.981255  0.096481  1
  F  F27  1  0.981255  0.096481  0.981255  1
