# generated using pymatgen
data_Gd4Tm8Co5Sn
_symmetry_space_group_name_H-M   'P 1'
_cell_length_a   8.18586497
_cell_length_b   8.18586574
_cell_length_c   8.18586500
_cell_angle_alpha   106.75487579
_cell_angle_beta   110.63355341
_cell_angle_gamma   111.05921592
_symmetry_Int_Tables_number   1
_chemical_formula_structural   Gd4Tm8Co5Sn
_chemical_formula_sum   'Gd4 Tm8 Co5 Sn1'
_cell_volume   421.53845319
_cell_formula_units_Z   1
loop_
 _symmetry_equiv_pos_site_id
 _symmetry_equiv_pos_as_xyz
  1  'x, y, z'
loop_
 _atom_site_type_symbol
 _atom_site_label
 _atom_site_symmetry_multiplicity
 _atom_site_fract_x
 _atom_site_fract_y
 _atom_site_fract_z
 _atom_site_occupancy
  Gd  Gd0  1  0.194162  0.210644  0.404915  1
  Gd  Gd1  1  0.805838  0.789356  0.595085  1
  Gd  Gd2  1  0.194270  0.789356  0.983518  1
  Gd  Gd3  1  0.805730  0.210644  0.016482  1
  Tm  Tm4  1  0.475020  0.290841  0.184232  1
  Tm  Tm5  1  0.106608  0.290841  0.815821  1
  Tm  Tm6  1  0.893392  0.709159  0.184179  1
  Tm  Tm7  1  0.524980  0.709159  0.815768  1
  Tm  Tm8  1  0.306091  0.620812  0.314721  1
  Tm  Tm9  1  0.305998  0.991254  0.685253  1
  Tm  Tm10  1  0.693909  0.379188  0.685279  1
  Tm  Tm11  1  0.694002  0.008746  0.314747  1
  Co  Co12  1  0.500029  0.612864  0.112835  1
  Co  Co13  1  0.499971  0.387136  0.887165  1
  Co  Co14  1  0.376229  0.000000  0.376229  1
  Co  Co15  1  0.623771  0.000000  0.623771  1
  Co  Co16  1  0.000000  0.000000  0.000000  1
  Sn  Sn17  1  0.000000  0.500000  0.500000  1
