# generated using pymatgen
data_La3Ho6ThPb8
_symmetry_space_group_name_H-M   'P 1'
_cell_length_a   8.30075600
_cell_length_b   8.37496881
_cell_length_c   15.76360500
_cell_angle_alpha   89.88519586
_cell_angle_beta   90.00000000
_cell_angle_gamma   90.00000000
_symmetry_Int_Tables_number   1
_chemical_formula_structural   La3Ho6ThPb8
_chemical_formula_sum   'La6 Ho12 Th2 Pb16'
_cell_volume   1095.86111904
_cell_formula_units_Z   2
loop_
 _symmetry_equiv_pos_site_id
 _symmetry_equiv_pos_as_xyz
  1  'x, y, z'
loop_
 _atom_site_type_symbol
 _atom_site_label
 _atom_site_symmetry_multiplicity
 _atom_site_fract_x
 _atom_site_fract_y
 _atom_site_fract_z
 _atom_site_occupancy
  La  La0  1  0.522810  0.323106  0.096839  1
  La  La1  1  0.022810  0.176894  0.403161  1
  La  La2  1  0.523197  0.322867  0.402930  1
  La  La3  1  0.023197  0.177133  0.097070  1
  La  La4  1  0.475375  0.677552  0.902780  1
  La  La5  1  0.975375  0.822448  0.597220  1
  Ho  Ho6  1  0.635894  0.158252  0.622994  1
  Ho  Ho7  1  0.135894  0.341748  0.877006  1
  Ho  Ho8  1  0.363736  0.842434  0.122662  1
  Ho  Ho9  1  0.863736  0.657566  0.377338  1
  Ho  Ho10  1  0.365323  0.841270  0.377305  1
  Ho  Ho11  1  0.865323  0.658730  0.122695  1
  Ho  Ho12  1  0.636014  0.159107  0.876590  1
  Ho  Ho13  1  0.136014  0.340893  0.623410  1
  Ho  Ho14  1  0.802524  0.496464  0.750633  1
  Ho  Ho15  1  0.302524  0.003536  0.749367  1
  Ho  Ho16  1  0.198354  0.504230  0.250506  1
  Ho  Ho17  1  0.698354  0.995770  0.249494  1
  Th  Th18  1  0.476046  0.677862  0.597893  1
  Th  Th19  1  0.976046  0.822138  0.902107  1
  Pb  Pb20  1  0.702354  0.956303  0.457062  1
  Pb  Pb21  1  0.202354  0.543697  0.042938  1
  Pb  Pb22  1  0.293938  0.039122  0.954905  1
  Pb  Pb23  1  0.793938  0.460878  0.545095  1
  Pb  Pb24  1  0.297053  0.038162  0.545045  1
  Pb  Pb25  1  0.797053  0.461838  0.954955  1
  Pb  Pb26  1  0.706454  0.957392  0.041856  1
  Pb  Pb27  1  0.206454  0.542608  0.458144  1
  Pb  Pb28  1  0.440060  0.370703  0.748462  1
  Pb  Pb29  1  0.940060  0.129297  0.751538  1
  Pb  Pb30  1  0.560633  0.631135  0.249442  1
  Pb  Pb31  1  0.060633  0.868865  0.250558  1
  Pb  Pb32  1  0.664599  0.850808  0.749941  1
  Pb  Pb33  1  0.164599  0.649192  0.750059  1
  Pb  Pb34  1  0.335636  0.149041  0.250002  1
  Pb  Pb35  1  0.835636  0.350959  0.249998  1
