# generated using pymatgen
data_Y7PSe7
_symmetry_space_group_name_H-M   'P 1'
_cell_length_a   8.21024302
_cell_length_b   8.21057541
_cell_length_c   8.21031200
_cell_angle_alpha   120.00100963
_cell_angle_beta   89.99593149
_cell_angle_gamma   120.00216603
_symmetry_Int_Tables_number   1
_chemical_formula_structural   Y7PSe7
_chemical_formula_sum   'Y7 P1 Se7'
_cell_volume   391.35315701
_cell_formula_units_Z   1
loop_
 _symmetry_equiv_pos_site_id
 _symmetry_equiv_pos_as_xyz
  1  'x, y, z'
loop_
 _atom_site_type_symbol
 _atom_site_label
 _atom_site_symmetry_multiplicity
 _atom_site_fract_x
 _atom_site_fract_y
 _atom_site_fract_z
 _atom_site_occupancy
  Y  Y0  1  0.240406  0.000017  0.240410  1
  Y  Y1  1  0.240415  0.480787  0.240393  1
  Y  Y2  1  0.759585  0.999970  0.240388  1
  Y  Y3  1  0.249988  0.499996  0.750002  1
  Y  Y4  1  0.240388  0.999992  0.759601  1
  Y  Y5  1  0.759596  0.999993  0.759585  1
  Y  Y6  1  0.759605  0.519200  0.759602  1
  P  P7  1  0.999995  0.999998  0.000002  1
  Se  Se8  1  0.500005  0.000006  0.499998  1
  Se  Se9  1  0.999241  0.998487  0.499241  1
  Se  Se10  1  0.999243  0.499999  0.499249  1
  Se  Se11  1  0.500765  0.500004  0.499244  1
  Se  Se12  1  0.999237  0.499998  0.000763  1
  Se  Se13  1  0.500762  0.499990  0.000761  1
  Se  Se14  1  0.500770  0.001566  0.000766  1
