# generated using pymatgen
data_Li4Pr4Pt3Rh
_symmetry_space_group_name_H-M   'P 1'
_cell_length_a   4.12772000
_cell_length_b   7.26946405
_cell_length_c   8.63850024
_cell_angle_alpha   90.16934988
_cell_angle_beta   90.00000000
_cell_angle_gamma   90.00000000
_symmetry_Int_Tables_number   1
_chemical_formula_structural   Li4Pr4Pt3Rh
_chemical_formula_sum   'Li4 Pr4 Pt3 Rh1'
_cell_volume   259.20840249
_cell_formula_units_Z   1
loop_
 _symmetry_equiv_pos_site_id
 _symmetry_equiv_pos_as_xyz
  1  'x, y, z'
loop_
 _atom_site_type_symbol
 _atom_site_label
 _atom_site_symmetry_multiplicity
 _atom_site_fract_x
 _atom_site_fract_y
 _atom_site_fract_z
 _atom_site_occupancy
  Li  Li0  1  0.250000  0.628896  0.554377  1
  Li  Li1  1  0.750000  0.372908  0.444068  1
  Li  Li2  1  0.750000  0.873188  0.056843  1
  Li  Li3  1  0.250000  0.127577  0.946416  1
  Pr  Pr4  1  0.250000  0.544386  0.181609  1
  Pr  Pr5  1  0.750000  0.454349  0.811183  1
  Pr  Pr6  1  0.750000  0.962666  0.683651  1
  Pr  Pr7  1  0.250000  0.045575  0.320737  1
  Pt  Pt8  1  0.250000  0.749869  0.880362  1
  Pt  Pt9  1  0.750000  0.249386  0.118241  1
  Pt  Pt10  1  0.750000  0.748252  0.379961  1
  Rh  Rh11  1  0.250000  0.242944  0.622553  1
