# generated using pymatgen
data_ErLu4Pa3(ReB6)4
_symmetry_space_group_name_H-M   'P 1'
_cell_length_a   3.67697700
_cell_length_b   9.09838673
_cell_length_c   11.45988619
_cell_angle_alpha   90.11407892
_cell_angle_beta   90.00000000
_cell_angle_gamma   90.00000000
_symmetry_Int_Tables_number   1
_chemical_formula_structural   ErLu4Pa3(ReB6)4
_chemical_formula_sum   'Er1 Lu4 Pa3 Re4 B24'
_cell_volume   383.38467581
_cell_formula_units_Z   1
loop_
 _symmetry_equiv_pos_site_id
 _symmetry_equiv_pos_as_xyz
  1  'x, y, z'
loop_
 _atom_site_type_symbol
 _atom_site_label
 _atom_site_symmetry_multiplicity
 _atom_site_fract_x
 _atom_site_fract_y
 _atom_site_fract_z
 _atom_site_occupancy
  Er  Er0  1  0.000000  0.180340  0.913398  1
  Lu  Lu1  1  0.000000  0.945454  0.374148  1
  Lu  Lu2  1  0.000000  0.055460  0.627431  1
  Lu  Lu3  1  0.000000  0.443502  0.125090  1
  Lu  Lu4  1  0.000000  0.553856  0.873954  1
  Pa  Pa5  1  0.000000  0.320262  0.413591  1
  Pa  Pa6  1  0.000000  0.678753  0.587037  1
  Pa  Pa7  1  0.000000  0.822627  0.085459  1
  Re  Re8  1  0.000000  0.639205  0.321194  1
  Re  Re9  1  0.000000  0.362766  0.676981  1
  Re  Re10  1  0.000000  0.138544  0.181176  1
  Re  Re11  1  0.000000  0.859523  0.820365  1
  B  B12  1  0.500000  0.553943  0.432632  1
  B  B13  1  0.500000  0.446304  0.566749  1
  B  B14  1  0.500000  0.053813  0.067475  1
  B  B15  1  0.500000  0.945693  0.932986  1
  B  B16  1  0.500000  0.750584  0.419774  1
  B  B17  1  0.500000  0.249679  0.581104  1
  B  B18  1  0.500000  0.249783  0.079655  1
  B  B19  1  0.500000  0.750415  0.919873  1
  B  B20  1  0.500000  0.793150  0.264937  1
  B  B21  1  0.500000  0.207071  0.735117  1
  B  B22  1  0.500000  0.293053  0.233922  1
  B  B23  1  0.500000  0.706794  0.765418  1
  B  B24  1  0.500000  0.631394  0.183718  1
  B  B25  1  0.500000  0.368386  0.815815  1
  B  B26  1  0.500000  0.131547  0.315904  1
  B  B27  1  0.500000  0.868827  0.685038  1
  B  B28  1  0.500000  0.982307  0.213154  1
  B  B29  1  0.500000  0.018509  0.786716  1
  B  B30  1  0.500000  0.482267  0.285492  1
  B  B31  1  0.500000  0.517121  0.714394  1
  B  B32  1  0.500000  0.604937  0.028906  1
  B  B33  1  0.500000  0.394096  0.970713  1
  B  B34  1  0.500000  0.105492  0.471337  1
  B  B35  1  0.500000  0.894546  0.529351  1
