# generated using pymatgen
data_Pr3In3Rh2Au
_symmetry_space_group_name_H-M   'P 1'
_cell_length_a   7.91844400
_cell_length_b   7.91844429
_cell_length_c   3.95909400
_cell_angle_alpha   90.00000000
_cell_angle_beta   90.00000000
_cell_angle_gamma   119.99999878
_symmetry_Int_Tables_number   1
_chemical_formula_structural   Pr3In3Rh2Au
_chemical_formula_sum   'Pr3 In3 Rh2 Au1'
_cell_volume   214.98401316
_cell_formula_units_Z   1
loop_
 _symmetry_equiv_pos_site_id
 _symmetry_equiv_pos_as_xyz
  1  'x, y, z'
loop_
 _atom_site_type_symbol
 _atom_site_label
 _atom_site_symmetry_multiplicity
 _atom_site_fract_x
 _atom_site_fract_y
 _atom_site_fract_z
 _atom_site_occupancy
  Pr  Pr0  1  0.982645  0.581459  0.500000  1
  Pr  Pr1  1  0.418541  0.401186  0.500000  1
  Pr  Pr2  1  0.598814  0.017355  0.500000  1
  In  In3  1  0.753474  0.749919  0.000000  1
  In  In4  1  0.996445  0.246526  0.000000  1
  In  In5  1  0.250081  0.003555  0.000000  1
  Rh  Rh6  1  0.000000  0.000000  0.500000  1
  Rh  Rh7  1  0.666667  0.333333  0.000000  1
  Au  Au8  1  0.333333  0.666667  0.000000  1
