# generated using pymatgen
data_Pr(Eu2Ru)2
_symmetry_space_group_name_H-M   'P 1'
_cell_length_a   8.93446700
_cell_length_b   8.93446569
_cell_length_c   7.60442839
_cell_angle_alpha   83.29792177
_cell_angle_beta   83.29792394
_cell_angle_gamma   43.79155827
_symmetry_Int_Tables_number   1
_chemical_formula_structural   Pr(Eu2Ru)2
_chemical_formula_sum   'Pr2 Eu8 Ru4'
_cell_volume   416.74475716
_cell_formula_units_Z   2
loop_
 _symmetry_equiv_pos_site_id
 _symmetry_equiv_pos_as_xyz
  1  'x, y, z'
loop_
 _atom_site_type_symbol
 _atom_site_label
 _atom_site_symmetry_multiplicity
 _atom_site_fract_x
 _atom_site_fract_y
 _atom_site_fract_z
 _atom_site_occupancy
  Pr  Pr0  1  0.571481  0.428519  0.750000  1
  Pr  Pr1  1  0.428519  0.571481  0.250000  1
  Eu  Eu2  1  0.018774  0.800563  0.915778  1
  Eu  Eu3  1  0.199437  0.981226  0.584222  1
  Eu  Eu4  1  0.981226  0.199437  0.084222  1
  Eu  Eu5  1  0.800563  0.018774  0.415778  1
  Eu  Eu6  1  0.362954  0.204699  0.819702  1
  Eu  Eu7  1  0.795301  0.637046  0.680298  1
  Eu  Eu8  1  0.637046  0.795301  0.180298  1
  Eu  Eu9  1  0.204699  0.362954  0.319702  1
  Ru  Ru10  1  0.183355  0.602316  0.574364  1
  Ru  Ru11  1  0.397684  0.816645  0.925636  1
  Ru  Ru12  1  0.816645  0.397684  0.425636  1
  Ru  Ru13  1  0.602316  0.183355  0.074364  1
