# generated using pymatgen
data_TbPu2(NiSn)3
_symmetry_space_group_name_H-M   'P 1'
_cell_length_a   7.29174361
_cell_length_b   7.29174296
_cell_length_c   4.02361900
_cell_angle_alpha   90.00000000
_cell_angle_beta   90.00000000
_cell_angle_gamma   121.16514231
_symmetry_Int_Tables_number   1
_chemical_formula_structural   TbPu2(NiSn)3
_chemical_formula_sum   'Tb1 Pu2 Ni3 Sn3'
_cell_volume   183.05879389
_cell_formula_units_Z   1
loop_
 _symmetry_equiv_pos_site_id
 _symmetry_equiv_pos_as_xyz
  1  'x, y, z'
loop_
 _atom_site_type_symbol
 _atom_site_label
 _atom_site_symmetry_multiplicity
 _atom_site_fract_x
 _atom_site_fract_y
 _atom_site_fract_z
 _atom_site_occupancy
  Tb  Tb0  1  0.410887  0.410887  0.000000  1
  Pu  Pu1  1  0.585049  0.000836  0.000000  1
  Pu  Pu2  1  0.000836  0.585049  0.000000  1
  Ni  Ni3  1  0.333153  0.669069  0.500000  1
  Ni  Ni4  1  0.669069  0.333153  0.500000  1
  Ni  Ni5  1  0.001279  0.001279  0.000000  1
  Sn  Sn6  1  0.252333  0.001226  0.500000  1
  Sn  Sn7  1  0.001226  0.252333  0.500000  1
  Sn  Sn8  1  0.746169  0.746169  0.500000  1
