# generated using pymatgen
data_Ho6Pa(Al3Co8)2
_symmetry_space_group_name_H-M   'P 1'
_cell_length_a   8.49313600
_cell_length_b   8.49845600
_cell_length_c   8.50401500
_cell_angle_alpha   120.02164432
_cell_angle_beta   90.00000000
_cell_angle_gamma   119.98784853
_symmetry_Int_Tables_number   1
_chemical_formula_structural   Ho6Pa(Al3Co8)2
_chemical_formula_sum   'Ho6 Pa1 Al6 Co16'
_cell_volume   433.96505996
_cell_formula_units_Z   1
loop_
 _symmetry_equiv_pos_site_id
 _symmetry_equiv_pos_as_xyz
  1  'x, y, z'
loop_
 _atom_site_type_symbol
 _atom_site_label
 _atom_site_symmetry_multiplicity
 _atom_site_fract_x
 _atom_site_fract_y
 _atom_site_fract_z
 _atom_site_occupancy
  Ho  Ho0  1  0.291364  0.000014  0.291302  1
  Ho  Ho1  1  0.291361  0.582676  0.291338  1
  Ho  Ho2  1  0.708637  0.999986  0.291288  1
  Ho  Ho3  1  0.708636  0.999986  0.708698  1
  Ho  Ho4  1  0.291364  0.000014  0.708713  1
  Ho  Ho5  1  0.708640  0.417325  0.708663  1
  Pa  Pa6  1  0.000000  0.000000  0.000000  1
  Al  Al7  1  0.500000  0.000000  0.000000  1
  Al  Al8  1  0.000000  0.500000  0.000000  1
  Al  Al9  1  0.500000  0.500000  0.000000  1
  Al  Al10  1  0.000000  0.000000  0.500000  1
  Al  Al11  1  0.000000  0.500000  0.500000  1
  Al  Al12  1  0.500000  0.500000  0.500000  1
  Co  Co13  1  0.678408  0.356833  0.035397  1
  Co  Co14  1  0.375297  0.250238  0.125120  1
  Co  Co15  1  0.875031  0.249969  0.124985  1
  Co  Co16  1  0.874832  0.749661  0.125221  1
  Co  Co17  1  0.678408  0.356833  0.321437  1
  Co  Co18  1  0.678504  0.642697  0.321350  1
  Co  Co19  1  0.964693  0.643019  0.321510  1
  Co  Co20  1  0.125168  0.250338  0.375558  1
  Co  Co21  1  0.874832  0.749661  0.624441  1
  Co  Co22  1  0.035308  0.356980  0.678490  1
  Co  Co23  1  0.321496  0.357302  0.678650  1
  Co  Co24  1  0.321592  0.643166  0.678563  1
  Co  Co25  1  0.125168  0.250338  0.874779  1
  Co  Co26  1  0.124969  0.750030  0.875015  1
  Co  Co27  1  0.624702  0.749761  0.874880  1
  Co  Co28  1  0.321592  0.643166  0.964604  1
