# generated using pymatgen
data_HoEr4(In2Au)2
_symmetry_space_group_name_H-M   'P 1'
_cell_length_a   3.62581100
_cell_length_b   8.19752000
_cell_length_c   18.38487500
_cell_angle_alpha   90.00000000
_cell_angle_beta   90.00000000
_cell_angle_gamma   90.00000000
_symmetry_Int_Tables_number   1
_chemical_formula_structural   HoEr4(In2Au)2
_chemical_formula_sum   'Ho2 Er8 In8 Au4'
_cell_volume   546.44735547
_cell_formula_units_Z   2
loop_
 _symmetry_equiv_pos_site_id
 _symmetry_equiv_pos_as_xyz
  1  'x, y, z'
loop_
 _atom_site_type_symbol
 _atom_site_label
 _atom_site_symmetry_multiplicity
 _atom_site_fract_x
 _atom_site_fract_y
 _atom_site_fract_z
 _atom_site_occupancy
  Ho  Ho0  1  0.000000  0.000000  0.000000  1
  Ho  Ho1  1  0.000000  0.500000  0.500000  1
  Er  Er2  1  0.000000  0.122024  0.420299  1
  Er  Er3  1  0.000000  0.877976  0.579701  1
  Er  Er4  1  0.000000  0.377976  0.920299  1
  Er  Er5  1  0.000000  0.622024  0.079701  1
  Er  Er6  1  0.000000  0.238711  0.217251  1
  Er  Er7  1  0.000000  0.761289  0.782749  1
  Er  Er8  1  0.000000  0.261289  0.717251  1
  Er  Er9  1  0.000000  0.738711  0.282749  1
  In  In10  1  0.500000  0.420827  0.352979  1
  In  In11  1  0.500000  0.579173  0.647021  1
  In  In12  1  0.500000  0.079173  0.852979  1
  In  In13  1  0.500000  0.920827  0.147021  1
  In  In14  1  0.500000  0.291770  0.066575  1
  In  In15  1  0.500000  0.708230  0.933425  1
  In  In16  1  0.500000  0.208230  0.566575  1
  In  In17  1  0.500000  0.791770  0.433425  1
  Au  Au18  1  0.500000  0.030013  0.303634  1
  Au  Au19  1  0.500000  0.969987  0.696366  1
  Au  Au20  1  0.500000  0.469987  0.803634  1
  Au  Au21  1  0.500000  0.530013  0.196366  1
