# generated using pymatgen
data_Tb13Dy3(TmSn4)4
_symmetry_space_group_name_H-M   'P 1'
_cell_length_a   8.01900703
_cell_length_b   8.16932173
_cell_length_c   15.46416500
_cell_angle_alpha   90.00372418
_cell_angle_beta   89.99486989
_cell_angle_gamma   90.02397959
_symmetry_Int_Tables_number   1
_chemical_formula_structural   Tb13Dy3(TmSn4)4
_chemical_formula_sum   'Tb13 Dy3 Tm4 Sn16'
_cell_volume   1013.05501021
_cell_formula_units_Z   1
loop_
 _symmetry_equiv_pos_site_id
 _symmetry_equiv_pos_as_xyz
  1  'x, y, z'
loop_
 _atom_site_type_symbol
 _atom_site_label
 _atom_site_symmetry_multiplicity
 _atom_site_fract_x
 _atom_site_fract_y
 _atom_site_fract_z
 _atom_site_occupancy
  Tb  Tb0  1  0.134372  0.337342  0.122054  1
  Tb  Tb1  1  0.633985  0.162731  0.122423  1
  Tb  Tb2  1  0.133851  0.337300  0.377843  1
  Tb  Tb3  1  0.366225  0.837408  0.622404  1
  Tb  Tb4  1  0.866294  0.662584  0.877698  1
  Tb  Tb5  1  0.519065  0.320582  0.903039  1
  Tb  Tb6  1  0.019262  0.179476  0.597045  1
  Tb  Tb7  1  0.480872  0.679651  0.403300  1
  Tb  Tb8  1  0.980688  0.820539  0.096946  1
  Tb  Tb9  1  0.481101  0.679498  0.096680  1
  Tb  Tb10  1  0.981126  0.820656  0.403460  1
  Tb  Tb11  1  0.518906  0.320856  0.596862  1
  Tb  Tb12  1  0.019037  0.178972  0.902741  1
  Dy  Dy13  1  0.365662  0.837826  0.876868  1
  Dy  Dy14  1  0.865281  0.662324  0.622656  1
  Dy  Dy15  1  0.634490  0.162243  0.377670  1
  Tm  Tm16  1  0.197223  0.503227  0.750149  1
  Tm  Tm17  1  0.697316  0.996914  0.749725  1
  Tm  Tm18  1  0.802695  0.496943  0.250426  1
  Tm  Tm19  1  0.302890  0.003005  0.249883  1
  Sn  Sn20  1  0.294160  0.036150  0.041708  1
  Sn  Sn21  1  0.793563  0.462837  0.458199  1
  Sn  Sn22  1  0.706486  0.962790  0.542060  1
  Sn  Sn23  1  0.206836  0.537686  0.957530  1
  Sn  Sn24  1  0.704506  0.963007  0.957426  1
  Sn  Sn25  1  0.204481  0.537117  0.542631  1
  Sn  Sn26  1  0.295306  0.037044  0.457632  1
  Sn  Sn27  1  0.794255  0.463357  0.042434  1
  Sn  Sn28  1  0.562708  0.617951  0.749935  1
  Sn  Sn29  1  0.062562  0.881954  0.749934  1
  Sn  Sn30  1  0.437452  0.382250  0.250286  1
  Sn  Sn31  1  0.937088  0.117343  0.250179  1
  Sn  Sn32  1  0.328493  0.149438  0.749977  1
  Sn  Sn33  1  0.828431  0.350939  0.749928  1
  Sn  Sn34  1  0.671544  0.850919  0.250196  1
  Sn  Sn35  1  0.171788  0.649142  0.250068  1
