# generated using pymatgen
data_TbHo2Pa(Al3Ir)6
_symmetry_space_group_name_H-M   'P 1'
_cell_length_a   7.57193502
_cell_length_b   7.56791498
_cell_length_c   9.42268400
_cell_angle_alpha   90.00000000
_cell_angle_beta   90.00000000
_cell_angle_gamma   119.61229161
_symmetry_Int_Tables_number   1
_chemical_formula_structural   TbHo2Pa(Al3Ir)6
_chemical_formula_sum   'Tb1 Ho2 Pa1 Al18 Ir6'
_cell_volume   469.43110499
_cell_formula_units_Z   1
loop_
 _symmetry_equiv_pos_site_id
 _symmetry_equiv_pos_as_xyz
  1  'x, y, z'
loop_
 _atom_site_type_symbol
 _atom_site_label
 _atom_site_symmetry_multiplicity
 _atom_site_fract_x
 _atom_site_fract_y
 _atom_site_fract_z
 _atom_site_occupancy
  Tb  Tb0  1  0.004794  0.329261  0.750000  1
  Ho  Ho1  1  0.672270  0.994934  0.250000  1
  Ho  Ho2  1  0.329423  0.004276  0.750000  1
  Pa  Pa3  1  0.996093  0.671213  0.250000  1
  Al  Al4  1  0.131487  0.130359  0.250000  1
  Al  Al5  1  0.872679  0.874062  0.750000  1
  Al  Al6  1  0.000823  0.332065  0.074796  1
  Al  Al7  1  0.999157  0.665004  0.921146  1
  Al  Al8  1  0.999157  0.665004  0.578854  1
  Al  Al9  1  0.338607  0.003888  0.425229  1
  Al  Al10  1  0.000823  0.332065  0.425204  1
  Al  Al11  1  0.664958  0.999851  0.575643  1
  Al  Al12  1  0.664958  0.999851  0.924357  1
  Al  Al13  1  0.338607  0.003888  0.074771  1
  Al  Al14  1  0.332693  0.332574  0.555611  1
  Al  Al15  1  0.663206  0.665894  0.448313  1
  Al  Al16  1  0.663206  0.665894  0.051687  1
  Al  Al17  1  0.332693  0.332574  0.944389  1
  Al  Al18  1  0.339316  0.547001  0.250000  1
  Al  Al19  1  0.659212  0.449876  0.750000  1
  Al  Al20  1  0.546791  0.341657  0.250000  1
  Al  Al21  1  0.450995  0.661135  0.750000  1
  Ir  Ir22  1  0.673780  0.329857  0.002158  1
  Ir  Ir23  1  0.325993  0.672170  0.002224  1
  Ir  Ir24  1  0.325993  0.672170  0.497776  1
  Ir  Ir25  1  0.673780  0.329857  0.497842  1
  Ir  Ir26  1  0.999255  0.996809  0.003085  1
  Ir  Ir27  1  0.999255  0.996809  0.496915  1
