# generated using pymatgen
data_Nb3In2Br9
_symmetry_space_group_name_H-M   'P 1'
_cell_length_a   10.40716389
_cell_length_b   10.40716431
_cell_length_c   10.27279882
_cell_angle_alpha   77.54239380
_cell_angle_beta   77.54239384
_cell_angle_gamma   117.48207495
_symmetry_Int_Tables_number   1
_chemical_formula_structural   Nb3In2Br9
_chemical_formula_sum   'Nb6 In4 Br18'
_cell_volume   897.74624695
_cell_formula_units_Z   2
loop_
 _symmetry_equiv_pos_site_id
 _symmetry_equiv_pos_as_xyz
  1  'x, y, z'
loop_
 _atom_site_type_symbol
 _atom_site_label
 _atom_site_symmetry_multiplicity
 _atom_site_fract_x
 _atom_site_fract_y
 _atom_site_fract_z
 _atom_site_occupancy
  Nb  Nb0  1  0.544235  0.711388  0.366249  1
  Nb  Nb1  1  0.288612  0.455765  0.633751  1
  Nb  Nb2  1  0.455765  0.288612  0.633751  1
  Nb  Nb3  1  0.711388  0.544235  0.366249  1
  Nb  Nb4  1  0.384418  0.384418  0.376966  1
  Nb  Nb5  1  0.615582  0.615582  0.623034  1
  In  In6  1  0.272077  0.950740  0.165870  1
  In  In7  1  0.049260  0.727923  0.834130  1
  In  In8  1  0.727923  0.049260  0.834130  1
  In  In9  1  0.950740  0.272077  0.165870  1
  Br  Br10  1  0.998670  0.393616  0.822020  1
  Br  Br11  1  0.606384  0.001330  0.177980  1
  Br  Br12  1  0.184352  0.184352  0.825823  1
  Br  Br13  1  0.815648  0.815648  0.174177  1
  Br  Br14  1  0.381614  0.585726  0.813419  1
  Br  Br15  1  0.414274  0.618386  0.186581  1
  Br  Br16  1  0.618386  0.414274  0.186581  1
  Br  Br17  1  0.585726  0.381614  0.813419  1
  Br  Br18  1  0.693879  0.900592  0.486925  1
  Br  Br19  1  0.099408  0.306121  0.513075  1
  Br  Br20  1  0.306121  0.099408  0.513075  1
  Br  Br21  1  0.900592  0.693879  0.486925  1
  Br  Br22  1  0.705154  0.294846  0.500000  1
  Br  Br23  1  0.294846  0.705154  0.500000  1
  Br  Br24  1  0.228103  0.228103  0.211773  1
  Br  Br25  1  0.771897  0.771897  0.788227  1
  Br  Br26  1  0.393616  0.998670  0.822020  1
  Br  Br27  1  0.001330  0.606384  0.177980  1
