# generated using pymatgen
data_Nd7Sm2Sc11Sn16
_symmetry_space_group_name_H-M   'P 1'
_cell_length_a   7.89591666
_cell_length_b   8.10158560
_cell_length_c   15.21231400
_cell_angle_alpha   90.20035495
_cell_angle_beta   90.08487066
_cell_angle_gamma   90.19501546
_symmetry_Int_Tables_number   1
_chemical_formula_structural   Nd7Sm2Sc11Sn16
_chemical_formula_sum   'Nd7 Sm2 Sc11 Sn16'
_cell_volume   973.11060895
_cell_formula_units_Z   1
loop_
 _symmetry_equiv_pos_site_id
 _symmetry_equiv_pos_as_xyz
  1  'x, y, z'
loop_
 _atom_site_type_symbol
 _atom_site_label
 _atom_site_symmetry_multiplicity
 _atom_site_fract_x
 _atom_site_fract_y
 _atom_site_fract_z
 _atom_site_occupancy
  Nd  Nd0  1  0.010194  0.173503  0.593030  1
  Nd  Nd1  1  0.491164  0.673177  0.405175  1
  Nd  Nd2  1  0.991753  0.824506  0.098251  1
  Nd  Nd3  1  0.491652  0.671733  0.097385  1
  Nd  Nd4  1  0.990861  0.826968  0.404011  1
  Nd  Nd5  1  0.507669  0.324413  0.593487  1
  Nd  Nd6  1  0.008338  0.175810  0.904540  1
  Sm  Sm7  1  0.845624  0.665791  0.878025  1
  Sm  Sm8  1  0.510397  0.325492  0.902736  1
  Sc  Sc9  1  0.345459  0.834829  0.871726  1
  Sc  Sc10  1  0.845085  0.663883  0.625485  1
  Sc  Sc11  1  0.655183  0.162639  0.373556  1
  Sc  Sc12  1  0.154169  0.337164  0.127047  1
  Sc  Sc13  1  0.651565  0.162530  0.131305  1
  Sc  Sc14  1  0.154390  0.336096  0.373420  1
  Sc  Sc15  1  0.345387  0.839790  0.623138  1
  Sc  Sc16  1  0.178796  0.504288  0.749351  1
  Sc  Sc17  1  0.676339  0.996999  0.747616  1
  Sc  Sc18  1  0.822230  0.493801  0.251551  1
  Sc  Sc19  1  0.322192  0.005231  0.250132  1
  Sn  Sn20  1  0.320105  0.044795  0.043034  1
  Sn  Sn21  1  0.821935  0.455887  0.456737  1
  Sn  Sn22  1  0.681350  0.954862  0.542099  1
  Sn  Sn23  1  0.195854  0.541869  0.958624  1
  Sn  Sn24  1  0.669627  0.967039  0.960183  1
  Sn  Sn25  1  0.177321  0.544855  0.542498  1
  Sn  Sn26  1  0.320544  0.044770  0.454956  1
  Sn  Sn27  1  0.816797  0.447046  0.049217  1
  Sn  Sn28  1  0.536393  0.632009  0.744231  1
  Sn  Sn29  1  0.045242  0.873621  0.746012  1
  Sn  Sn30  1  0.457712  0.368091  0.252364  1
  Sn  Sn31  1  0.959786  0.131806  0.250345  1
  Sn  Sn32  1  0.317508  0.142972  0.749140  1
  Sn  Sn33  1  0.815665  0.353837  0.747110  1
  Sn  Sn34  1  0.682592  0.857737  0.251619  1
  Sn  Sn35  1  0.183121  0.640164  0.250862  1
