# generated using pymatgen
data_Ho10Si7Rh
_symmetry_space_group_name_H-M   'P 1'
_cell_length_a   7.29043100
_cell_length_b   14.52937100
_cell_length_c   7.76016700
_cell_angle_alpha   90.00000000
_cell_angle_beta   90.00000000
_cell_angle_gamma   90.00000000
_symmetry_Int_Tables_number   1
_chemical_formula_structural   Ho10Si7Rh
_chemical_formula_sum   'Ho20 Si14 Rh2'
_cell_volume   821.99861311
_cell_formula_units_Z   2
loop_
 _symmetry_equiv_pos_site_id
 _symmetry_equiv_pos_as_xyz
  1  'x, y, z'
loop_
 _atom_site_type_symbol
 _atom_site_label
 _atom_site_symmetry_multiplicity
 _atom_site_fract_x
 _atom_site_fract_y
 _atom_site_fract_z
 _atom_site_occupancy
  Ho  Ho0  1  0.663255  0.750000  0.011997  1
  Ho  Ho1  1  0.836746  0.250000  0.511998  1
  Ho  Ho2  1  0.149211  0.750000  0.477716  1
  Ho  Ho3  1  0.350789  0.250000  0.977717  1
  Ho  Ho4  1  0.189777  0.373780  0.323930  1
  Ho  Ho5  1  0.310224  0.626219  0.823928  1
  Ho  Ho6  1  0.675568  0.124297  0.180114  1
  Ho  Ho7  1  0.824432  0.875702  0.680114  1
  Ho  Ho8  1  0.824432  0.624297  0.680114  1
  Ho  Ho9  1  0.675568  0.375702  0.180114  1
  Ho  Ho10  1  0.310224  0.873780  0.823928  1
  Ho  Ho11  1  0.189777  0.126219  0.323930  1
  Ho  Ho12  1  0.022423  0.405872  0.815871  1
  Ho  Ho13  1  0.477576  0.594129  0.315871  1
  Ho  Ho14  1  0.521401  0.093351  0.680014  1
  Ho  Ho15  1  0.978600  0.906649  0.180013  1
  Ho  Ho16  1  0.978600  0.593352  0.180013  1
  Ho  Ho17  1  0.521401  0.406649  0.680014  1
  Ho  Ho18  1  0.477576  0.905872  0.315871  1
  Ho  Ho19  1  0.022423  0.094128  0.815871  1
  Si  Si20  1  0.522842  0.750000  0.601794  1
  Si  Si21  1  0.977159  0.250000  0.101794  1
  Si  Si22  1  0.761504  0.750000  0.375003  1
  Si  Si23  1  0.738496  0.250000  0.875003  1
  Si  Si24  1  0.273523  0.750000  0.131906  1
  Si  Si25  1  0.226476  0.250000  0.631906  1
  Si  Si26  1  0.153141  0.538946  0.526049  1
  Si  Si27  1  0.346860  0.461055  0.026051  1
  Si  Si28  1  0.648206  0.960732  0.970199  1
  Si  Si29  1  0.851794  0.039268  0.470199  1
  Si  Si30  1  0.851794  0.460732  0.470199  1
  Si  Si31  1  0.648206  0.539269  0.970199  1
  Si  Si32  1  0.346860  0.038945  0.026051  1
  Si  Si33  1  0.153141  0.961055  0.526049  1
  Rh  Rh34  1  0.017348  0.750000  0.909232  1
  Rh  Rh35  1  0.482652  0.250000  0.409231  1
