# generated using pymatgen
data_Na5HfP3
_symmetry_space_group_name_H-M   'P 1'
_cell_length_a   7.37343700
_cell_length_b   8.27470128
_cell_length_c   15.83259690
_cell_angle_alpha   58.99272879
_cell_angle_beta   90.00000000
_cell_angle_gamma   90.00000000
_symmetry_Int_Tables_number   1
_chemical_formula_structural   Na5HfP3
_chemical_formula_sum   'Na20 Hf4 P12'
_cell_volume   827.95537020
_cell_formula_units_Z   4
loop_
 _symmetry_equiv_pos_site_id
 _symmetry_equiv_pos_as_xyz
  1  'x, y, z'
loop_
 _atom_site_type_symbol
 _atom_site_label
 _atom_site_symmetry_multiplicity
 _atom_site_fract_x
 _atom_site_fract_y
 _atom_site_fract_z
 _atom_site_occupancy
  Na  Na0  1  0.491798  0.916546  0.262456  1
  Na  Na1  1  0.991798  0.083454  0.237544  1
  Na  Na2  1  0.508202  0.083454  0.737544  1
  Na  Na3  1  0.008202  0.916546  0.762456  1
  Na  Na4  1  0.011658  0.260061  0.406866  1
  Na  Na5  1  0.511658  0.739939  0.093134  1
  Na  Na6  1  0.988342  0.739939  0.593134  1
  Na  Na7  1  0.488342  0.260061  0.906866  1
  Na  Na8  1  0.471823  0.595720  0.584922  1
  Na  Na9  1  0.971823  0.404280  0.915078  1
  Na  Na10  1  0.528177  0.404280  0.415078  1
  Na  Na11  1  0.028177  0.595720  0.084922  1
  Na  Na12  1  0.844442  0.679605  0.242566  1
  Na  Na13  1  0.344442  0.320395  0.257434  1
  Na  Na14  1  0.155558  0.320395  0.757434  1
  Na  Na15  1  0.655558  0.679605  0.742566  1
  Na  Na16  1  0.664037  0.002143  0.419081  1
  Na  Na17  1  0.164037  0.997857  0.080919  1
  Na  Na18  1  0.335963  0.997857  0.580919  1
  Na  Na19  1  0.835963  0.002143  0.919081  1
  Hf  Hf20  1  0.142213  0.661066  0.413666  1
  Hf  Hf21  1  0.642213  0.338934  0.086334  1
  Hf  Hf22  1  0.857787  0.338934  0.586334  1
  Hf  Hf23  1  0.357787  0.661066  0.913666  1
  P  P24  1  0.796780  0.654643  0.431443  1
  P  P25  1  0.296780  0.345357  0.068557  1
  P  P26  1  0.203220  0.345357  0.568557  1
  P  P27  1  0.703220  0.654643  0.931443  1
  P  P28  1  0.256813  0.941766  0.417144  1
  P  P29  1  0.756813  0.058234  0.082856  1
  P  P30  1  0.743187  0.058234  0.582856  1
  P  P31  1  0.243187  0.941766  0.917144  1
  P  P32  1  0.236605  0.646878  0.266455  1
  P  P33  1  0.736605  0.353122  0.233545  1
  P  P34  1  0.763395  0.353122  0.733545  1
  P  P35  1  0.263395  0.646878  0.766455  1
