# generated using pymatgen
data_Yb2GaAg2Ge
_symmetry_space_group_name_H-M   'P 1'
_cell_length_a   5.82310866
_cell_length_b   5.78797321
_cell_length_c   5.78797384
_cell_angle_alpha   133.42366351
_cell_angle_beta   104.42522215
_cell_angle_gamma   93.53224217
_symmetry_Int_Tables_number   1
_chemical_formula_structural   Yb2GaAg2Ge
_chemical_formula_sum   'Yb2 Ga1 Ag2 Ge1'
_cell_volume   129.47989818
_cell_formula_units_Z   1
loop_
 _symmetry_equiv_pos_site_id
 _symmetry_equiv_pos_as_xyz
  1  'x, y, z'
loop_
 _atom_site_type_symbol
 _atom_site_label
 _atom_site_symmetry_multiplicity
 _atom_site_fract_x
 _atom_site_fract_y
 _atom_site_fract_z
 _atom_site_occupancy
  Yb  Yb0  1  0.292067  0.292571  0.999495  1
  Yb  Yb1  1  0.864460  0.365181  0.499279  1
  Ga  Ga2  1  0.473432  0.661596  0.811837  1
  Ag  Ag3  1  0.270950  0.990201  0.280749  1
  Ag  Ag4  1  0.707102  0.989888  0.717214  1
  Ge  Ge5  1  0.853789  0.662363  0.191426  1
