# generated using pymatgen
data_Tm8InAgIr2
_symmetry_space_group_name_H-M   'P 1'
_cell_length_a   9.47406529
_cell_length_b   9.47406467
_cell_length_c   9.50551800
_cell_angle_alpha   59.89012334
_cell_angle_beta   59.89012551
_cell_angle_gamma   59.79216679
_symmetry_Int_Tables_number   1
_chemical_formula_structural   Tm8InAgIr2
_chemical_formula_sum   'Tm16 In2 Ag2 Ir4'
_cell_volume   601.34779177
_cell_formula_units_Z   2
loop_
 _symmetry_equiv_pos_site_id
 _symmetry_equiv_pos_as_xyz
  1  'x, y, z'
loop_
 _atom_site_type_symbol
 _atom_site_label
 _atom_site_symmetry_multiplicity
 _atom_site_fract_x
 _atom_site_fract_y
 _atom_site_fract_z
 _atom_site_occupancy
  Tm  Tm0  1  0.600227  0.600227  0.600137  1
  Tm  Tm1  1  0.600227  0.600227  0.199409  1
  Tm  Tm2  1  0.600555  0.199892  0.599777  1
  Tm  Tm3  1  0.199892  0.600555  0.599777  1
  Tm  Tm4  1  0.058958  0.439259  0.442129  1
  Tm  Tm5  1  0.439259  0.058958  0.059655  1
  Tm  Tm6  1  0.439259  0.058958  0.442129  1
  Tm  Tm7  1  0.058958  0.439259  0.059655  1
  Tm  Tm8  1  0.440948  0.440948  0.059052  1
  Tm  Tm9  1  0.059663  0.059663  0.440337  1
  Tm  Tm10  1  0.185203  0.810601  0.813205  1
  Tm  Tm11  1  0.810601  0.185203  0.190990  1
  Tm  Tm12  1  0.810601  0.185203  0.813205  1
  Tm  Tm13  1  0.185203  0.810601  0.190990  1
  Tm  Tm14  1  0.810427  0.810427  0.189573  1
  Tm  Tm15  1  0.186651  0.186651  0.813349  1
  In  In16  1  0.833420  0.507373  0.829604  1
  In  In17  1  0.507373  0.833420  0.829604  1
  Ag  Ag18  1  0.834610  0.834610  0.831882  1
  Ag  Ag19  1  0.834610  0.834610  0.498898  1
  Ir  Ir20  1  0.392736  0.392736  0.390102  1
  Ir  Ir21  1  0.392736  0.392736  0.824425  1
  Ir  Ir22  1  0.393102  0.824784  0.391056  1
  Ir  Ir23  1  0.824784  0.393102  0.391056  1
