# generated using pymatgen
data_Tb6Al23Tc8Mo
_symmetry_space_group_name_H-M   'P 1'
_cell_length_a   8.86997200
_cell_length_b   8.86997279
_cell_length_c   9.76769800
_cell_angle_alpha   90.00000000
_cell_angle_beta   90.00000000
_cell_angle_gamma   119.99999704
_symmetry_Int_Tables_number   1
_chemical_formula_structural   Tb6Al23Tc8Mo
_chemical_formula_sum   'Tb6 Al23 Tc8 Mo1'
_cell_volume   665.52964443
_cell_formula_units_Z   1
loop_
 _symmetry_equiv_pos_site_id
 _symmetry_equiv_pos_as_xyz
  1  'x, y, z'
loop_
 _atom_site_type_symbol
 _atom_site_label
 _atom_site_symmetry_multiplicity
 _atom_site_fract_x
 _atom_site_fract_y
 _atom_site_fract_z
 _atom_site_occupancy
  Tb  Tb0  1  0.194462  0.388924  0.247429  1
  Tb  Tb1  1  0.807155  0.614308  0.749557  1
  Tb  Tb2  1  0.611076  0.805538  0.247429  1
  Tb  Tb3  1  0.385692  0.192845  0.749557  1
  Tb  Tb4  1  0.194462  0.805538  0.247429  1
  Tb  Tb5  1  0.807155  0.192845  0.749557  1
  Al  Al6  1  0.666667  0.333333  0.990912  1
  Al  Al7  1  0.666667  0.333333  0.514505  1
  Al  Al8  1  0.333333  0.666667  0.486128  1
  Al  Al9  1  0.162131  0.324260  0.577578  1
  Al  Al10  1  0.837343  0.674689  0.425104  1
  Al  Al11  1  0.675740  0.837869  0.577578  1
  Al  Al12  1  0.837571  0.675144  0.076610  1
  Al  Al13  1  0.325311  0.162657  0.425104  1
  Al  Al14  1  0.158400  0.316798  0.923676  1
  Al  Al15  1  0.162131  0.837869  0.577578  1
  Al  Al16  1  0.324856  0.162429  0.076610  1
  Al  Al17  1  0.837343  0.162657  0.425104  1
  Al  Al18  1  0.683202  0.841600  0.923676  1
  Al  Al19  1  0.837571  0.162429  0.076610  1
  Al  Al20  1  0.158400  0.841600  0.923676  1
  Al  Al21  1  0.561993  0.123986  0.252909  1
  Al  Al22  1  0.441722  0.883446  0.749298  1
  Al  Al23  1  0.876014  0.438007  0.252909  1
  Al  Al24  1  0.116554  0.558278  0.749298  1
  Al  Al25  1  0.561993  0.438007  0.252909  1
  Al  Al26  1  0.441722  0.558278  0.749298  1
  Al  Al27  1  0.000000  0.000000  0.250831  1
  Al  Al28  1  0.000000  0.000000  0.750695  1
  Tc  Tc29  1  0.495918  0.991837  0.004332  1
  Tc  Tc30  1  0.008163  0.504082  0.004332  1
  Tc  Tc31  1  0.498962  0.997923  0.501854  1
  Tc  Tc32  1  0.495918  0.504082  0.004332  1
  Tc  Tc33  1  0.002077  0.501038  0.501854  1
  Tc  Tc34  1  0.498962  0.501038  0.501854  1
  Tc  Tc35  1  0.000000  0.000000  0.001842  1
  Tc  Tc36  1  0.000000  0.000000  0.499780  1
  Mo  Mo37  1  0.333333  0.666667  0.980267  1
