# generated using pymatgen
data_Rb4Sn(TeS)2
_symmetry_space_group_name_H-M   'P 1'
_cell_length_a   8.77969800
_cell_length_b   10.95685500
_cell_length_c   15.60111200
_cell_angle_alpha   90.00000000
_cell_angle_beta   90.00000000
_cell_angle_gamma   90.00000000
_symmetry_Int_Tables_number   1
_chemical_formula_structural   Rb4Sn(TeS)2
_chemical_formula_sum   'Rb16 Sn4 Te8 S8'
_cell_volume   1500.79386774
_cell_formula_units_Z   4
loop_
 _symmetry_equiv_pos_site_id
 _symmetry_equiv_pos_as_xyz
  1  'x, y, z'
loop_
 _atom_site_type_symbol
 _atom_site_label
 _atom_site_symmetry_multiplicity
 _atom_site_fract_x
 _atom_site_fract_y
 _atom_site_fract_z
 _atom_site_occupancy
  Rb  Rb0  1  0.500000  0.500000  0.500000  1
  Rb  Rb1  1  0.142363  0.464148  0.273162  1
  Rb  Rb2  1  0.142363  0.035852  0.273162  1
  Rb  Rb3  1  0.984232  0.750000  0.439803  1
  Rb  Rb4  1  0.015768  0.250000  0.560197  1
  Rb  Rb5  1  0.642363  0.964148  0.226838  1
  Rb  Rb6  1  0.357637  0.035852  0.773162  1
  Rb  Rb7  1  0.857637  0.964148  0.726838  1
  Rb  Rb8  1  0.357637  0.464148  0.773162  1
  Rb  Rb9  1  0.000000  0.500000  0.000000  1
  Rb  Rb10  1  0.484232  0.250000  0.060197  1
  Rb  Rb11  1  0.642363  0.535852  0.226838  1
  Rb  Rb12  1  0.515768  0.750000  0.939803  1
  Rb  Rb13  1  0.000000  0.000000  0.000000  1
  Rb  Rb14  1  0.857637  0.535852  0.726838  1
  Rb  Rb15  1  0.500000  0.000000  0.500000  1
  Sn  Sn16  1  0.732878  0.250000  0.841106  1
  Sn  Sn17  1  0.767122  0.250000  0.341106  1
  Sn  Sn18  1  0.232878  0.750000  0.658894  1
  Sn  Sn19  1  0.267122  0.750000  0.158894  1
  Te  Te20  1  0.552514  0.750000  0.667519  1
  Te  Te21  1  0.447486  0.250000  0.332481  1
  Te  Te22  1  0.370156  0.750000  0.330402  1
  Te  Te23  1  0.129844  0.750000  0.830402  1
  Te  Te24  1  0.052514  0.250000  0.832481  1
  Te  Te25  1  0.947486  0.750000  0.167519  1
  Te  Te26  1  0.629844  0.250000  0.669598  1
  Te  Te27  1  0.870156  0.250000  0.169598  1
  S  S28  1  0.850246  0.434032  0.411312  1
  S  S29  1  0.649754  0.065968  0.911312  1
  S  S30  1  0.350246  0.934032  0.088688  1
  S  S31  1  0.350246  0.565968  0.088688  1
  S  S32  1  0.149754  0.565968  0.588688  1
  S  S33  1  0.850246  0.065968  0.411312  1
  S  S34  1  0.149754  0.934032  0.588688  1
  S  S35  1  0.649754  0.434032  0.911312  1
