# generated using pymatgen
data_Hf18Re8NiS
_symmetry_space_group_name_H-M   'P 1'
_cell_length_a   8.57398600
_cell_length_b   8.57398677
_cell_length_c   8.57749300
_cell_angle_alpha   90.00000000
_cell_angle_beta   90.00000000
_cell_angle_gamma   120.00000474
_symmetry_Int_Tables_number   1
_chemical_formula_structural   Hf18Re8NiS
_chemical_formula_sum   'Hf18 Re8 Ni1 S1'
_cell_volume   546.08036642
_cell_formula_units_Z   1
loop_
 _symmetry_equiv_pos_site_id
 _symmetry_equiv_pos_as_xyz
  1  'x, y, z'
loop_
 _atom_site_type_symbol
 _atom_site_label
 _atom_site_symmetry_multiplicity
 _atom_site_fract_x
 _atom_site_fract_y
 _atom_site_fract_z
 _atom_site_occupancy
  Hf  Hf0  1  0.194912  0.805084  0.448971  1
  Hf  Hf1  1  0.194911  0.389826  0.448976  1
  Hf  Hf2  1  0.610177  0.805088  0.448980  1
  Hf  Hf3  1  0.802586  0.197414  0.557104  1
  Hf  Hf4  1  0.802583  0.605167  0.557105  1
  Hf  Hf5  1  0.394838  0.197419  0.557104  1
  Hf  Hf6  1  0.802586  0.197414  0.942896  1
  Hf  Hf7  1  0.802583  0.605167  0.942895  1
  Hf  Hf8  1  0.394838  0.197419  0.942896  1
  Hf  Hf9  1  0.194912  0.805084  0.051029  1
  Hf  Hf10  1  0.194911  0.389826  0.051024  1
  Hf  Hf11  1  0.610177  0.805088  0.051020  1
  Hf  Hf12  1  0.544087  0.455911  0.250000  1
  Hf  Hf13  1  0.544092  0.088182  0.250000  1
  Hf  Hf14  1  0.911811  0.455904  0.250000  1
  Hf  Hf15  1  0.458105  0.541896  0.750000  1
  Hf  Hf16  1  0.458110  0.916212  0.750000  1
  Hf  Hf17  1  0.083787  0.541891  0.750000  1
  Re  Re18  1  0.889378  0.110621  0.250000  1
  Re  Re19  1  0.889377  0.778755  0.250000  1
  Re  Re20  1  0.221242  0.110622  0.250000  1
  Re  Re21  1  0.110825  0.889176  0.750000  1
  Re  Re22  1  0.110824  0.221651  0.750000  1
  Re  Re23  1  0.778346  0.889175  0.750000  1
  Re  Re24  1  0.999992  0.999999  0.500672  1
  Re  Re25  1  0.999992  0.999999  0.999328  1
  Ni  Ni26  1  0.666667  0.333338  0.750000  1
  S  S27  1  0.333350  0.666670  0.250000  1
