# generated using pymatgen
data_LuAl2PdPt4
_symmetry_space_group_name_H-M   'P 1'
_cell_length_a   8.08980335
_cell_length_b   8.08980354
_cell_length_c   8.08980344
_cell_angle_alpha   150.67146856
_cell_angle_beta   150.67147287
_cell_angle_gamma   41.95664026
_symmetry_Int_Tables_number   1
_chemical_formula_structural   LuAl2PdPt4
_chemical_formula_sum   'Lu1 Al2 Pd1 Pt4'
_cell_volume   126.72443577
_cell_formula_units_Z   1
loop_
 _symmetry_equiv_pos_site_id
 _symmetry_equiv_pos_as_xyz
  1  'x, y, z'
loop_
 _atom_site_type_symbol
 _atom_site_label
 _atom_site_symmetry_multiplicity
 _atom_site_fract_x
 _atom_site_fract_y
 _atom_site_fract_z
 _atom_site_occupancy
  Lu  Lu0  1  0.000000  0.000000  0.000000  1
  Al  Al1  1  0.252977  0.252977  0.000000  1
  Al  Al2  1  0.747023  0.747023  0.000000  1
  Pd  Pd3  1  0.500000  0.500000  0.000000  1
  Pt  Pt4  1  0.641771  0.141771  0.500000  1
  Pt  Pt5  1  0.358229  0.858229  0.500000  1
  Pt  Pt6  1  0.141771  0.641771  0.500000  1
  Pt  Pt7  1  0.858229  0.358229  0.500000  1
