# generated using pymatgen
data_Pu3ScH12
_symmetry_space_group_name_H-M   'P 1'
_cell_length_a   6.47345000
_cell_length_b   6.47345000
_cell_length_c   6.47345000
_cell_angle_alpha   90.00000000
_cell_angle_beta   90.00000000
_cell_angle_gamma   90.00000000
_symmetry_Int_Tables_number   1
_chemical_formula_structural   Pu3ScH12
_chemical_formula_sum   'Pu6 Sc2 H24'
_cell_volume   271.27351438
_cell_formula_units_Z   2
loop_
 _symmetry_equiv_pos_site_id
 _symmetry_equiv_pos_as_xyz
  1  'x, y, z'
loop_
 _atom_site_type_symbol
 _atom_site_label
 _atom_site_symmetry_multiplicity
 _atom_site_fract_x
 _atom_site_fract_y
 _atom_site_fract_z
 _atom_site_occupancy
  Pu  Pu0  1  0.250000  0.000000  0.500000  1
  Pu  Pu1  1  0.750000  0.000000  0.500000  1
  Pu  Pu2  1  0.000000  0.500000  0.250000  1
  Pu  Pu3  1  0.000000  0.500000  0.750000  1
  Pu  Pu4  1  0.500000  0.750000  0.000000  1
  Pu  Pu5  1  0.500000  0.250000  0.000000  1
  Sc  Sc6  1  0.000000  0.000000  0.000000  1
  Sc  Sc7  1  0.500000  0.500000  0.500000  1
  H  H8  1  0.000000  0.153544  0.296163  1
  H  H9  1  0.500000  0.203837  0.653544  1
  H  H10  1  0.500000  0.796163  0.346456  1
  H  H11  1  0.796163  0.653544  0.500000  1
  H  H12  1  0.203837  0.653544  0.500000  1
  H  H13  1  0.346456  0.500000  0.796163  1
  H  H14  1  0.653544  0.500000  0.796163  1
  H  H15  1  0.296163  0.000000  0.153544  1
  H  H16  1  0.153544  0.296163  0.000000  1
  H  H17  1  0.846456  0.703837  0.000000  1
  H  H18  1  0.296163  0.000000  0.846456  1
  H  H19  1  0.846456  0.296163  0.000000  1
  H  H20  1  0.703837  0.000000  0.153544  1
  H  H21  1  0.703837  0.000000  0.846456  1
  H  H22  1  0.153544  0.703837  0.000000  1
  H  H23  1  0.000000  0.846456  0.703837  1
  H  H24  1  0.000000  0.153544  0.703837  1
  H  H25  1  0.000000  0.846456  0.296163  1
  H  H26  1  0.653544  0.500000  0.203837  1
  H  H27  1  0.346456  0.500000  0.203837  1
  H  H28  1  0.796163  0.346456  0.500000  1
  H  H29  1  0.203837  0.346456  0.500000  1
  H  H30  1  0.500000  0.796163  0.653544  1
  H  H31  1  0.500000  0.203837  0.346456  1
