# generated using pymatgen
data_Dy5Mg2P12Rh17
_symmetry_space_group_name_H-M   'P 1'
_cell_length_a   12.72122500
_cell_length_b   12.80309107
_cell_length_c   3.93927000
_cell_angle_alpha   90.00000000
_cell_angle_beta   90.00000000
_cell_angle_gamma   119.78870719
_symmetry_Int_Tables_number   1
_chemical_formula_structural   Dy5Mg2P12Rh17
_chemical_formula_sum   'Dy5 Mg2 P12 Rh17'
_cell_volume   556.81494733
_cell_formula_units_Z   1
loop_
 _symmetry_equiv_pos_site_id
 _symmetry_equiv_pos_as_xyz
  1  'x, y, z'
loop_
 _atom_site_type_symbol
 _atom_site_label
 _atom_site_symmetry_multiplicity
 _atom_site_fract_x
 _atom_site_fract_y
 _atom_site_fract_z
 _atom_site_occupancy
  Dy  Dy0  1  0.332930  0.665911  0.500000  1
  Dy  Dy1  1  0.667019  0.334089  0.500000  1
  Dy  Dy2  1  0.000615  0.810787  0.000000  1
  Dy  Dy3  1  0.189828  0.189213  0.000000  1
  Dy  Dy4  1  0.811605  0.000000  0.000000  1
  Mg  Mg5  1  0.999149  0.443649  0.500000  1
  Mg  Mg6  1  0.555500  0.556351  0.500000  1
  P  P7  1  0.002714  0.642585  0.500000  1
  P  P8  1  0.360128  0.357415  0.500000  1
  P  P9  1  0.637040  0.000000  0.500000  1
  P  P10  1  0.513580  0.687247  0.000000  1
  P  P11  1  0.311855  0.830230  0.000000  1
  P  P12  1  0.172464  0.482415  0.000000  1
  P  P13  1  0.481624  0.169770  0.000000  1
  P  P14  1  0.690050  0.517585  0.000000  1
  P  P15  1  0.826332  0.312753  0.000000  1
  P  P16  1  0.999489  0.176548  0.500000  1
  P  P17  1  0.822941  0.823452  0.500000  1
  P  P18  1  0.179074  0.000000  0.500000  1
  Rh  Rh19  1  0.508755  0.868804  0.000000  1
  Rh  Rh20  1  0.130836  0.641826  0.000000  1
  Rh  Rh21  1  0.358965  0.488076  0.000000  1
  Rh  Rh22  1  0.489011  0.358174  0.000000  1
  Rh  Rh23  1  0.870891  0.511924  0.000000  1
  Rh  Rh24  1  0.639952  0.131196  0.000000  1
  Rh  Rh25  1  0.456962  0.000000  0.500000  1
  Rh  Rh26  1  0.996053  0.279444  0.000000  1
  Rh  Rh27  1  0.716609  0.720556  0.000000  1
  Rh  Rh28  1  0.283354  0.000000  0.000000  1
  Rh  Rh29  1  0.622155  0.804983  0.500000  1
  Rh  Rh30  1  0.199776  0.823894  0.500000  1
  Rh  Rh31  1  0.176123  0.372731  0.500000  1
  Rh  Rh32  1  0.375882  0.176106  0.500000  1
  Rh  Rh33  1  0.803392  0.627269  0.500000  1
  Rh  Rh34  1  0.817171  0.195017  0.500000  1
  Rh  Rh35  1  0.000173  0.000000  0.500000  1
