# generated using pymatgen
data_CaTbYbUN4
_symmetry_space_group_name_H-M   'P 1'
_cell_length_a   6.90915313
_cell_length_b   9.19984203
_cell_length_c   6.07459320
_cell_angle_alpha   29.09205529
_cell_angle_beta   55.34089476
_cell_angle_gamma   41.32224843
_symmetry_Int_Tables_number   1
_chemical_formula_structural   CaTbYbUN4
_chemical_formula_sum   'Ca1 Tb1 Yb1 U1 N4'
_cell_volume   119.26119525
_cell_formula_units_Z   1
loop_
 _symmetry_equiv_pos_site_id
 _symmetry_equiv_pos_as_xyz
  1  'x, y, z'
loop_
 _atom_site_type_symbol
 _atom_site_label
 _atom_site_symmetry_multiplicity
 _atom_site_fract_x
 _atom_site_fract_y
 _atom_site_fract_z
 _atom_site_occupancy
  Ca  Ca0  1  0.500000  0.000000  0.000000  1
  Tb  Tb1  1  0.250000  0.500000  0.000000  1
  Yb  Yb2  1  0.750000  0.500000  0.000000  1
  U  U3  1  0.000000  0.000000  0.000000  1
  N  N4  1  0.492632  0.500000  0.514736  1
  N  N5  1  0.212459  0.000000  0.575081  1
  N  N6  1  0.007368  0.500000  0.485264  1
  N  N7  1  0.787541  0.000000  0.424919  1
