# generated using pymatgen
data_Zn3GeP6N13
_symmetry_space_group_name_H-M   'P 1'
_cell_length_a   7.02595615
_cell_length_b   7.04804715
_cell_length_c   7.02595634
_cell_angle_alpha   109.53491469
_cell_angle_beta   109.40743691
_cell_angle_gamma   109.53492581
_symmetry_Int_Tables_number   1
_chemical_formula_structural   Zn3GeP6N13
_chemical_formula_sum   'Zn3 Ge1 P6 N13'
_cell_volume   267.61830806
_cell_formula_units_Z   1
loop_
 _symmetry_equiv_pos_site_id
 _symmetry_equiv_pos_as_xyz
  1  'x, y, z'
loop_
 _atom_site_type_symbol
 _atom_site_label
 _atom_site_symmetry_multiplicity
 _atom_site_fract_x
 _atom_site_fract_y
 _atom_site_fract_z
 _atom_site_occupancy
  Zn  Zn0  1  0.710270  0.000847  0.000000  1
  Zn  Zn1  1  0.000000  0.000847  0.710270  1
  Zn  Zn2  1  0.289730  0.290577  0.289730  1
  Ge  Ge3  1  0.000000  0.709635  0.000000  1
  P  P4  1  0.497526  0.247105  0.747323  1
  P  P5  1  0.502474  0.749579  0.249797  1
  P  P6  1  0.750203  0.499782  0.252677  1
  P  P7  1  0.249797  0.749579  0.502474  1
  P  P8  1  0.747323  0.247105  0.497526  1
  P  P9  1  0.252677  0.499782  0.750203  1
  N  N10  1  0.000000  0.736001  0.455571  1
  N  N11  1  0.276416  0.542151  0.542379  1
  N  N12  1  0.736008  0.454771  0.000000  1
  N  N13  1  0.263992  0.718764  0.263992  1
  N  N14  1  0.457621  0.999772  0.734038  1
  N  N15  1  0.723584  0.265734  0.265962  1
  N  N16  1  0.544429  0.280429  0.544429  1
  N  N17  1  0.734038  0.999772  0.457621  1
  N  N18  1  0.265962  0.265734  0.723584  1
  N  N19  1  0.455571  0.736001  0.000000  1
  N  N20  1  0.542379  0.542151  0.276416  1
  N  N21  1  0.000000  0.454771  0.736008  1
  N  N22  1  0.000000  0.009112  0.000000  1
