# generated using pymatgen
data_TbSmY4NiI10
_symmetry_space_group_name_H-M   'P 1'
_cell_length_a   7.74453368
_cell_length_b   9.74178460
_cell_length_c   9.78206414
_cell_angle_alpha   107.14325827
_cell_angle_beta   96.85061732
_cell_angle_gamma   104.75551699
_symmetry_Int_Tables_number   1
_chemical_formula_structural   TbSmY4NiI10
_chemical_formula_sum   'Tb1 Sm1 Y4 Ni1 I10'
_cell_volume   666.71174776
_cell_formula_units_Z   1
loop_
 _symmetry_equiv_pos_site_id
 _symmetry_equiv_pos_as_xyz
  1  'x, y, z'
loop_
 _atom_site_type_symbol
 _atom_site_label
 _atom_site_symmetry_multiplicity
 _atom_site_fract_x
 _atom_site_fract_y
 _atom_site_fract_z
 _atom_site_occupancy
  Tb  Tb0  1  0.113215  0.040756  0.764634  1
  Sm  Sm1  1  0.885629  0.958654  0.238166  1
  Y  Y2  1  0.030624  0.719985  0.915261  1
  Y  Y3  1  0.969689  0.280059  0.083136  1
  Y  Y4  1  0.659166  0.878962  0.837880  1
  Y  Y5  1  0.341454  0.121494  0.161246  1
  Ni  Ni6  1  0.000104  0.999909  0.999649  1
  I  I7  1  0.648673  0.550127  0.728554  1
  I  I8  1  0.351137  0.449962  0.271541  1
  I  I9  1  0.740677  0.912255  0.540826  1
  I  I10  1  0.262853  0.089108  0.463081  1
  I  I11  1  0.084626  0.372131  0.820417  1
  I  I12  1  0.916058  0.624336  0.177663  1
  I  I13  1  0.450552  0.814753  0.090463  1
  I  I14  1  0.546290  0.183944  0.907679  1
  I  I15  1  0.224695  0.743614  0.656072  1
  I  I16  1  0.774557  0.259951  0.343733  1
