# generated using pymatgen
data_Tb2Ho4Al23VOs8
_symmetry_space_group_name_H-M   'P 1'
_cell_length_a   8.83207800
_cell_length_b   8.83443124
_cell_length_c   9.53542011
_cell_angle_alpha   90.01481848
_cell_angle_beta   90.00000000
_cell_angle_gamma   119.99118889
_symmetry_Int_Tables_number   1
_chemical_formula_structural   Tb2Ho4Al23VOs8
_chemical_formula_sum   'Tb2 Ho4 Al23 V1 Os8'
_cell_volume   644.39251556
_cell_formula_units_Z   1
loop_
 _symmetry_equiv_pos_site_id
 _symmetry_equiv_pos_as_xyz
  1  'x, y, z'
loop_
 _atom_site_type_symbol
 _atom_site_label
 _atom_site_symmetry_multiplicity
 _atom_site_fract_x
 _atom_site_fract_y
 _atom_site_fract_z
 _atom_site_occupancy
  Tb  Tb0  1  0.195208  0.390417  0.246342  1
  Tb  Tb1  1  0.807450  0.614900  0.750384  1
  Ho  Ho2  1  0.608567  0.804454  0.246057  1
  Ho  Ho3  1  0.386092  0.192874  0.750390  1
  Ho  Ho4  1  0.195887  0.804454  0.246057  1
  Ho  Ho5  1  0.806782  0.192874  0.750390  1
  Al  Al6  1  0.666484  0.332967  0.977180  1
  Al  Al7  1  0.666485  0.332970  0.519345  1
  Al  Al8  1  0.333519  0.667038  0.483177  1
  Al  Al9  1  0.162119  0.324239  0.575805  1
  Al  Al10  1  0.837214  0.674430  0.424573  1
  Al  Al11  1  0.675620  0.837926  0.575553  1
  Al  Al12  1  0.835565  0.671129  0.076560  1
  Al  Al13  1  0.325708  0.162762  0.424934  1
  Al  Al14  1  0.160502  0.321006  0.925048  1
  Al  Al15  1  0.162306  0.837926  0.575553  1
  Al  Al16  1  0.329006  0.164369  0.076279  1
  Al  Al17  1  0.837052  0.162762  0.424934  1
  Al  Al18  1  0.678896  0.839633  0.925346  1
  Al  Al19  1  0.835363  0.164369  0.076279  1
  Al  Al20  1  0.160736  0.839633  0.925346  1
  Al  Al21  1  0.561989  0.123977  0.253223  1
  Al  Al22  1  0.441630  0.883258  0.751370  1
  Al  Al23  1  0.875633  0.438035  0.253225  1
  Al  Al24  1  0.117205  0.558381  0.751291  1
  Al  Al25  1  0.562402  0.438035  0.253225  1
  Al  Al26  1  0.441178  0.558381  0.751291  1
  Al  Al27  1  0.999715  0.999430  0.250345  1
  Al  Al28  1  0.000263  0.000527  0.749577  1
  V  V29  1  0.333325  0.666652  0.983782  1
  Os  Os30  1  0.495232  0.990463  0.005536  1
  Os  Os31  1  0.009483  0.504842  0.005478  1
  Os  Os32  1  0.499353  0.998706  0.503551  1
  Os  Os33  1  0.495359  0.504842  0.005478  1
  Os  Os34  1  0.001391  0.500624  0.503481  1
  Os  Os35  1  0.499233  0.500624  0.503481  1
  Os  Os36  1  0.000046  0.000092  0.000966  1
  Os  Os37  1  0.000000  0.000001  0.499165  1
