# generated using pymatgen
data_Ho2Er3Zr3(Co4As3)4
_symmetry_space_group_name_H-M   'P 1'
_cell_length_a   12.70121600
_cell_length_b   12.70121725
_cell_length_c   3.81927400
_cell_angle_alpha   90.00000000
_cell_angle_beta   90.00000000
_cell_angle_gamma   120.00000717
_symmetry_Int_Tables_number   1
_chemical_formula_structural   Ho2Er3Zr3(Co4As3)4
_chemical_formula_sum   'Ho2 Er3 Zr3 Co16 As12'
_cell_volume   533.58309641
_cell_formula_units_Z   1
loop_
 _symmetry_equiv_pos_site_id
 _symmetry_equiv_pos_as_xyz
  1  'x, y, z'
loop_
 _atom_site_type_symbol
 _atom_site_label
 _atom_site_symmetry_multiplicity
 _atom_site_fract_x
 _atom_site_fract_y
 _atom_site_fract_z
 _atom_site_occupancy
  Ho  Ho0  1  0.333333  0.666667  0.000000  1
  Ho  Ho1  1  0.666667  0.333333  0.000000  1
  Er  Er2  1  0.182817  0.182817  0.500000  1
  Er  Er3  1  0.817183  0.000000  0.500000  1
  Er  Er4  1  0.000000  0.817183  0.500000  1
  Zr  Zr5  1  0.561141  0.561141  0.000000  1
  Zr  Zr6  1  0.438859  0.000000  0.000000  1
  Zr  Zr7  1  0.000000  0.438859  0.000000  1
  Co  Co8  1  0.720435  0.720435  0.500000  1
  Co  Co9  1  0.279565  0.000000  0.500000  1
  Co  Co10  1  0.000000  0.279565  0.500000  1
  Co  Co11  1  0.177889  0.373289  0.000000  1
  Co  Co12  1  0.626711  0.804599  0.000000  1
  Co  Co13  1  0.195401  0.822111  0.000000  1
  Co  Co14  1  0.804599  0.626711  0.000000  1
  Co  Co15  1  0.822111  0.195401  0.000000  1
  Co  Co16  1  0.373289  0.177889  0.000000  1
  Co  Co17  1  0.357501  0.480124  0.500000  1
  Co  Co18  1  0.519876  0.877378  0.500000  1
  Co  Co19  1  0.122622  0.642499  0.500000  1
  Co  Co20  1  0.877378  0.519876  0.500000  1
  Co  Co21  1  0.642499  0.122622  0.500000  1
  Co  Co22  1  0.480124  0.357501  0.500000  1
  Co  Co23  1  0.000000  0.000000  0.000000  1
  As  As24  1  0.823174  0.823174  0.000000  1
  As  As25  1  0.176826  0.000000  0.000000  1
  As  As26  1  0.000000  0.176826  0.000000  1
  As  As27  1  0.173844  0.481868  0.500000  1
  As  As28  1  0.518132  0.691976  0.500000  1
  As  As29  1  0.308024  0.826156  0.500000  1
  As  As30  1  0.691976  0.518132  0.500000  1
  As  As31  1  0.826156  0.308024  0.500000  1
  As  As32  1  0.481868  0.173844  0.500000  1
  As  As33  1  0.351467  0.351467  0.000000  1
  As  As34  1  0.648533  0.000000  0.000000  1
  As  As35  1  0.000000  0.648533  0.000000  1
