# generated using pymatgen
data_FeCo3As4
_symmetry_space_group_name_H-M   'P 1'
_cell_length_a   3.50493400
_cell_length_b   5.23419010
_cell_length_c   5.84899713
_cell_angle_alpha   89.97650864
_cell_angle_beta   90.00000000
_cell_angle_gamma   90.00000000
_symmetry_Int_Tables_number   1
_chemical_formula_structural   FeCo3As4
_chemical_formula_sum   'Fe1 Co3 As4'
_cell_volume   107.30271435
_cell_formula_units_Z   1
loop_
 _symmetry_equiv_pos_site_id
 _symmetry_equiv_pos_as_xyz
  1  'x, y, z'
loop_
 _atom_site_type_symbol
 _atom_site_label
 _atom_site_symmetry_multiplicity
 _atom_site_fract_x
 _atom_site_fract_y
 _atom_site_fract_z
 _atom_site_occupancy
  Fe  Fe0  1  0.750000  0.499756  0.299845  1
  Co  Co1  1  0.750000  0.998318  0.201558  1
  Co  Co2  1  0.250000  0.499704  0.698830  1
  Co  Co3  1  0.250000  0.000080  0.799570  1
  As  As4  1  0.750000  0.798622  0.588679  1
  As  As5  1  0.250000  0.697745  0.089913  1
  As  As6  1  0.250000  0.203199  0.408980  1
  As  As7  1  0.750000  0.302575  0.912625  1
