# generated using pymatgen
data_Ho5Er(CoSn6)2
_symmetry_space_group_name_H-M   'P 1'
_cell_length_a   8.45894917
_cell_length_b   8.45895019
_cell_length_c   13.10988600
_cell_angle_alpha   90.00000000
_cell_angle_beta   90.00000000
_cell_angle_gamma   148.81916033
_symmetry_Int_Tables_number   1
_chemical_formula_structural   Ho5Er(CoSn6)2
_chemical_formula_sum   'Ho5 Er1 Co2 Sn12'
_cell_volume   485.67338404
_cell_formula_units_Z   1
loop_
 _symmetry_equiv_pos_site_id
 _symmetry_equiv_pos_as_xyz
  1  'x, y, z'
loop_
 _atom_site_type_symbol
 _atom_site_label
 _atom_site_symmetry_multiplicity
 _atom_site_fract_x
 _atom_site_fract_y
 _atom_site_fract_z
 _atom_site_occupancy
  Ho  Ho0  1  0.899279  0.100721  0.093397  1
  Ho  Ho1  1  0.100704  0.899296  0.593408  1
  Ho  Ho2  1  0.100704  0.899296  0.906592  1
  Ho  Ho3  1  0.099565  0.900435  0.250000  1
  Ho  Ho4  1  0.899279  0.100721  0.406603  1
  Er  Er5  1  0.900380  0.099620  0.750000  1
  Co  Co6  1  0.299221  0.700779  0.250000  1
  Co  Co7  1  0.700837  0.299163  0.750000  1
  Sn  Sn8  1  0.755216  0.244784  0.571141  1
  Sn  Sn9  1  0.427458  0.572542  0.576130  1
  Sn  Sn10  1  0.572511  0.427489  0.423998  1
  Sn  Sn11  1  0.733223  0.266777  0.250000  1
  Sn  Sn12  1  0.266918  0.733082  0.750000  1
  Sn  Sn13  1  0.244806  0.755194  0.071117  1
  Sn  Sn14  1  0.244806  0.755194  0.428883  1
  Sn  Sn15  1  0.572511  0.427489  0.076002  1
  Sn  Sn16  1  0.453515  0.546485  0.250000  1
  Sn  Sn17  1  0.546392  0.453608  0.750000  1
  Sn  Sn18  1  0.755216  0.244784  0.928859  1
  Sn  Sn19  1  0.427458  0.572542  0.923870  1
