# generated using pymatgen
data_Ho16Cd3AgIr3Rh
_symmetry_space_group_name_H-M   'P 1'
_cell_length_a   9.58078325
_cell_length_b   9.58078442
_cell_length_c   9.58259970
_cell_angle_alpha   59.91634893
_cell_angle_beta   59.91634617
_cell_angle_gamma   59.98518597
_symmetry_Int_Tables_number   1
_chemical_formula_structural   Ho16Cd3AgIr3Rh
_chemical_formula_sum   'Ho16 Cd3 Ag1 Ir3 Rh1'
_cell_volume   621.11443981
_cell_formula_units_Z   1
loop_
 _symmetry_equiv_pos_site_id
 _symmetry_equiv_pos_as_xyz
  1  'x, y, z'
loop_
 _atom_site_type_symbol
 _atom_site_label
 _atom_site_symmetry_multiplicity
 _atom_site_fract_x
 _atom_site_fract_y
 _atom_site_fract_z
 _atom_site_occupancy
  Ho  Ho0  1  0.938159  0.938159  0.558633  1
  Ho  Ho1  1  0.563473  0.563473  0.935234  1
  Ho  Ho2  1  0.689168  0.689168  0.312258  1
  Ho  Ho3  1  0.149527  0.549179  0.148945  1
  Ho  Ho4  1  0.689006  0.311702  0.689607  1
  Ho  Ho5  1  0.151063  0.151063  0.151149  1
  Ho  Ho6  1  0.549179  0.149527  0.148945  1
  Ho  Ho7  1  0.690526  0.311246  0.311058  1
  Ho  Ho8  1  0.149725  0.149725  0.548426  1
  Ho  Ho9  1  0.311246  0.690526  0.311058  1
  Ho  Ho10  1  0.311702  0.689006  0.689607  1
  Ho  Ho11  1  0.936556  0.565235  0.560108  1
  Ho  Ho12  1  0.937411  0.561930  0.936487  1
  Ho  Ho13  1  0.565235  0.936556  0.560108  1
  Ho  Ho14  1  0.561930  0.937411  0.936487  1
  Ho  Ho15  1  0.310949  0.310949  0.690809  1
  Cd  Cd16  1  0.242465  0.918751  0.920569  1
  Cd  Cd17  1  0.919112  0.919112  0.921274  1
  Cd  Cd18  1  0.918751  0.242465  0.920569  1
  Ag  Ag19  1  0.916411  0.916411  0.250111  1
  Ir  Ir20  1  0.357210  0.357210  0.925788  1
  Ir  Ir21  1  0.357210  0.925854  0.357221  1
  Ir  Ir22  1  0.925854  0.357210  0.357221  1
  Rh  Rh23  1  0.358129  0.358129  0.358327  1
