# generated using pymatgen
data_Ce2Pr3Ru2
_symmetry_space_group_name_H-M   'P 1'
_cell_length_a   9.16422996
_cell_length_b   9.16422997
_cell_length_c   7.15672907
_cell_angle_alpha   85.77411835
_cell_angle_beta   85.77411968
_cell_angle_gamma   41.82059428
_symmetry_Int_Tables_number   1
_chemical_formula_structural   Ce2Pr3Ru2
_chemical_formula_sum   'Ce4 Pr6 Ru4'
_cell_volume   399.52771624
_cell_formula_units_Z   2
loop_
 _symmetry_equiv_pos_site_id
 _symmetry_equiv_pos_as_xyz
  1  'x, y, z'
loop_
 _atom_site_type_symbol
 _atom_site_label
 _atom_site_symmetry_multiplicity
 _atom_site_fract_x
 _atom_site_fract_y
 _atom_site_fract_z
 _atom_site_occupancy
  Ce  Ce0  1  0.007650  0.809689  0.902355  1
  Ce  Ce1  1  0.190311  0.992350  0.597645  1
  Ce  Ce2  1  0.992350  0.190311  0.097645  1
  Ce  Ce3  1  0.809689  0.007650  0.402355  1
  Pr  Pr4  1  0.352920  0.215561  0.823218  1
  Pr  Pr5  1  0.784439  0.647080  0.676782  1
  Pr  Pr6  1  0.647080  0.784439  0.176782  1
  Pr  Pr7  1  0.215561  0.352920  0.323218  1
  Pr  Pr8  1  0.579795  0.420205  0.750000  1
  Pr  Pr9  1  0.420205  0.579795  0.250000  1
  Ru  Ru10  1  0.140040  0.644859  0.598515  1
  Ru  Ru11  1  0.355141  0.859960  0.901485  1
  Ru  Ru12  1  0.859960  0.355141  0.401485  1
  Ru  Ru13  1  0.644859  0.140040  0.098515  1
