# generated using pymatgen
data_Dy3YHf3AlPt4
_symmetry_space_group_name_H-M   'P 1'
_cell_length_a   4.57572000
_cell_length_b   7.09084944
_cell_length_c   8.15450100
_cell_angle_alpha   87.04394475
_cell_angle_beta   90.00000000
_cell_angle_gamma   90.00000000
_symmetry_Int_Tables_number   1
_chemical_formula_structural   Dy3YHf3AlPt4
_chemical_formula_sum   'Dy3 Y1 Hf3 Al1 Pt4'
_cell_volume   264.22677876
_cell_formula_units_Z   1
loop_
 _symmetry_equiv_pos_site_id
 _symmetry_equiv_pos_as_xyz
  1  'x, y, z'
loop_
 _atom_site_type_symbol
 _atom_site_label
 _atom_site_symmetry_multiplicity
 _atom_site_fract_x
 _atom_site_fract_y
 _atom_site_fract_z
 _atom_site_occupancy
  Dy  Dy0  1  0.750000  0.517139  0.814986  1
  Dy  Dy1  1  0.750000  0.039376  0.671245  1
  Dy  Dy2  1  0.250000  0.988146  0.337326  1
  Y  Y3  1  0.250000  0.472487  0.187218  1
  Hf  Hf4  1  0.250000  0.855984  0.923679  1
  Hf  Hf5  1  0.750000  0.137451  0.070539  1
  Hf  Hf6  1  0.750000  0.640479  0.435552  1
  Al  Al7  1  0.250000  0.358494  0.572166  1
  Pt  Pt8  1  0.250000  0.725657  0.609978  1
  Pt  Pt9  1  0.750000  0.270000  0.381583  1
  Pt  Pt10  1  0.750000  0.765658  0.102006  1
  Pt  Pt11  1  0.250000  0.229130  0.893724  1
