# generated using pymatgen
data_Nb12AlSi3(OsN)4
_symmetry_space_group_name_H-M   'P 1'
_cell_length_a   6.99352165
_cell_length_b   6.99352165
_cell_length_c   6.99352165
_cell_angle_alpha   89.96519215
_cell_angle_beta   89.96519215
_cell_angle_gamma   89.96519215
_symmetry_Int_Tables_number   1
_chemical_formula_structural   Nb12AlSi3(OsN)4
_chemical_formula_sum   'Nb12 Al1 Si3 Os4 N4'
_cell_volume   342.04837362
_cell_formula_units_Z   1
loop_
 _symmetry_equiv_pos_site_id
 _symmetry_equiv_pos_as_xyz
  1  'x, y, z'
loop_
 _atom_site_type_symbol
 _atom_site_label
 _atom_site_symmetry_multiplicity
 _atom_site_fract_x
 _atom_site_fract_y
 _atom_site_fract_z
 _atom_site_occupancy
  Nb  Nb0  1  0.796237  0.954591  0.374961  1
  Nb  Nb1  1  0.702523  0.045381  0.875513  1
  Nb  Nb2  1  0.203762  0.454729  0.123902  1
  Nb  Nb3  1  0.296660  0.545061  0.624765  1
  Nb  Nb4  1  0.954591  0.374961  0.796237  1
  Nb  Nb5  1  0.045381  0.875513  0.702523  1
  Nb  Nb6  1  0.454729  0.123902  0.203762  1
  Nb  Nb7  1  0.545061  0.624765  0.296660  1
  Nb  Nb8  1  0.374961  0.796237  0.954591  1
  Nb  Nb9  1  0.875513  0.702523  0.045381  1
  Nb  Nb10  1  0.123902  0.203762  0.454729  1
  Nb  Nb11  1  0.624765  0.296660  0.545061  1
  Al  Al12  1  0.070093  0.070093  0.070093  1
  Si  Si13  1  0.570273  0.430422  0.929667  1
  Si  Si14  1  0.430422  0.929667  0.570273  1
  Si  Si15  1  0.929667  0.570273  0.430422  1
  Os  Os16  1  0.177161  0.821211  0.329034  1
  Os  Os17  1  0.329034  0.177161  0.821211  1
  Os  Os18  1  0.821211  0.329034  0.177161  1
  Os  Os19  1  0.675080  0.675080  0.675080  1
  N  N20  1  0.874089  0.124674  0.625425  1
  N  N21  1  0.625425  0.874089  0.124674  1
  N  N22  1  0.124674  0.625425  0.874089  1
  N  N23  1  0.374786  0.374786  0.374786  1
