# generated using pymatgen
data_SnHg2(PtS2)3
_symmetry_space_group_name_H-M   'P 1'
_cell_length_a   7.25913900
_cell_length_b   7.25913821
_cell_length_c   5.26199300
_cell_angle_alpha   90.00000000
_cell_angle_beta   90.00000000
_cell_angle_gamma   120.00001729
_symmetry_Int_Tables_number   1
_chemical_formula_structural   SnHg2(PtS2)3
_chemical_formula_sum   'Sn1 Hg2 Pt3 S6'
_cell_volume   240.13253160
_cell_formula_units_Z   1
loop_
 _symmetry_equiv_pos_site_id
 _symmetry_equiv_pos_as_xyz
  1  'x, y, z'
loop_
 _atom_site_type_symbol
 _atom_site_label
 _atom_site_symmetry_multiplicity
 _atom_site_fract_x
 _atom_site_fract_y
 _atom_site_fract_z
 _atom_site_occupancy
  Sn  Sn0  1  0.000000  0.000000  0.000000  1
  Hg  Hg1  1  0.333333  0.666667  0.636225  1
  Hg  Hg2  1  0.666667  0.333333  0.363775  1
  Pt  Pt3  1  0.500000  0.500000  0.000000  1
  Pt  Pt4  1  0.000000  0.500000  0.000000  1
  Pt  Pt5  1  0.500000  0.000000  0.000000  1
  S  S6  1  0.817699  0.635397  0.761581  1
  S  S7  1  0.817699  0.182301  0.761581  1
  S  S8  1  0.364603  0.182301  0.761581  1
  S  S9  1  0.182301  0.364603  0.238419  1
  S  S10  1  0.182301  0.817699  0.238419  1
  S  S11  1  0.635397  0.817699  0.238419  1
