# generated using pymatgen
data_YHoFe7
_symmetry_space_group_name_H-M   'P 1'
_cell_length_a   5.06693208
_cell_length_b   5.06693288
_cell_length_c   12.34187523
_cell_angle_alpha   78.15446173
_cell_angle_beta   78.15445880
_cell_angle_gamma   60.00000038
_symmetry_Int_Tables_number   1
_chemical_formula_structural   YHoFe7
_chemical_formula_sum   'Y2 Ho2 Fe14'
_cell_volume   266.59123413
_cell_formula_units_Z   2
loop_
 _symmetry_equiv_pos_site_id
 _symmetry_equiv_pos_as_xyz
  1  'x, y, z'
loop_
 _atom_site_type_symbol
 _atom_site_label
 _atom_site_symmetry_multiplicity
 _atom_site_fract_x
 _atom_site_fract_y
 _atom_site_fract_z
 _atom_site_occupancy
  Y  Y0  1  0.947854  0.947854  0.156436  1
  Y  Y1  1  0.052146  0.052146  0.843564  1
  Ho  Ho2  1  0.850536  0.850536  0.448392  1
  Ho  Ho3  1  0.149464  0.149464  0.551608  1
  Fe  Fe4  1  0.500000  0.500000  0.500000  1
  Fe  Fe5  1  0.721432  0.721432  0.835705  1
  Fe  Fe6  1  0.278568  0.278568  0.164295  1
  Fe  Fe7  1  0.612420  0.612420  0.162740  1
  Fe  Fe8  1  0.387580  0.387580  0.837260  1
  Fe  Fe9  1  0.000000  0.500000  0.000000  1
  Fe  Fe10  1  0.500000  0.000000  0.000000  1
  Fe  Fe11  1  0.500000  0.500000  0.000000  1
  Fe  Fe12  1  0.390419  0.390419  0.328244  1
  Fe  Fe13  1  0.890920  0.390419  0.328244  1
  Fe  Fe14  1  0.390419  0.890920  0.328244  1
  Fe  Fe15  1  0.609581  0.609581  0.671756  1
  Fe  Fe16  1  0.109080  0.609581  0.671756  1
  Fe  Fe17  1  0.609581  0.109080  0.671756  1
