# generated using pymatgen
data_Nd8Tm12Si15Ge
_symmetry_space_group_name_H-M   'P 1'
_cell_length_a   7.71436037
_cell_length_b   7.71863254
_cell_length_c   14.19677748
_cell_angle_alpha   89.91145328
_cell_angle_beta   90.02107211
_cell_angle_gamma   90.02826808
_symmetry_Int_Tables_number   1
_chemical_formula_structural   Nd8Tm12Si15Ge
_chemical_formula_sum   'Nd8 Tm12 Si15 Ge1'
_cell_volume   845.33619143
_cell_formula_units_Z   1
loop_
 _symmetry_equiv_pos_site_id
 _symmetry_equiv_pos_as_xyz
  1  'x, y, z'
loop_
 _atom_site_type_symbol
 _atom_site_label
 _atom_site_symmetry_multiplicity
 _atom_site_fract_x
 _atom_site_fract_y
 _atom_site_fract_z
 _atom_site_occupancy
  Nd  Nd0  1  0.643710  0.992762  0.458832  1
  Nd  Nd1  1  0.357395  0.007081  0.959335  1
  Nd  Nd2  1  0.992084  0.641648  0.540604  1
  Nd  Nd3  1  0.492862  0.857153  0.209269  1
  Nd  Nd4  1  0.508502  0.144200  0.710248  1
  Nd  Nd5  1  0.857334  0.492831  0.790820  1
  Nd  Nd6  1  0.142543  0.506814  0.290502  1
  Nd  Nd7  1  0.007061  0.357208  0.040704  1
  Tm  Tm8  1  0.493211  0.359629  0.124158  1
  Tm  Tm9  1  0.991350  0.141674  0.626476  1
  Tm  Tm10  1  0.859716  0.006904  0.874216  1
  Tm  Tm11  1  0.140322  0.992988  0.373592  1
  Tm  Tm12  1  0.507341  0.639389  0.624146  1
  Tm  Tm13  1  0.359811  0.493155  0.875873  1
  Tm  Tm14  1  0.640985  0.506409  0.375724  1
  Tm  Tm15  1  0.006798  0.859792  0.125761  1
  Tm  Tm16  1  0.318150  0.320458  0.499489  1
  Tm  Tm17  1  0.181277  0.817489  0.751164  1
  Tm  Tm18  1  0.818209  0.181811  0.249881  1
  Tm  Tm19  1  0.681723  0.681825  0.000017  1
  Si  Si20  1  0.710649  0.062206  0.061761  1
  Si  Si21  1  0.938092  0.289214  0.438164  1
  Si  Si22  1  0.437962  0.210158  0.311850  1
  Si  Si23  1  0.561984  0.789417  0.811660  1
  Si  Si24  1  0.210603  0.437848  0.688102  1
  Si  Si25  1  0.789269  0.562143  0.188146  1
  Si  Si26  1  0.062036  0.710531  0.938419  1
  Si  Si27  1  0.795637  0.849034  0.687779  1
  Si  Si28  1  0.204101  0.150961  0.187679  1
  Si  Si29  1  0.849278  0.795851  0.312118  1
  Si  Si30  1  0.349678  0.701018  0.435860  1
  Si  Si31  1  0.650840  0.295722  0.937793  1
  Si  Si32  1  0.703700  0.348829  0.562182  1
  Si  Si33  1  0.295840  0.650914  0.062177  1
  Si  Si34  1  0.151021  0.204053  0.812198  1
  Ge  Ge35  1  0.288925  0.940882  0.563297  1
