# generated using pymatgen
data_DyY(HgPb)3
_symmetry_space_group_name_H-M   'P 1'
_cell_length_a   4.75379200
_cell_length_b   4.84379300
_cell_length_c   9.21440600
_cell_angle_alpha   90.00000000
_cell_angle_beta   90.00000000
_cell_angle_gamma   90.00000000
_symmetry_Int_Tables_number   1
_chemical_formula_structural   DyY(HgPb)3
_chemical_formula_sum   'Dy1 Y1 Hg3 Pb3'
_cell_volume   212.17445469
_cell_formula_units_Z   1
loop_
 _symmetry_equiv_pos_site_id
 _symmetry_equiv_pos_as_xyz
  1  'x, y, z'
loop_
 _atom_site_type_symbol
 _atom_site_label
 _atom_site_symmetry_multiplicity
 _atom_site_fract_x
 _atom_site_fract_y
 _atom_site_fract_z
 _atom_site_occupancy
  Dy  Dy0  1  0.000000  0.000000  0.252710  1
  Y  Y1  1  0.000000  0.000000  0.747290  1
  Hg  Hg2  1  0.500000  0.500000  0.259027  1
  Hg  Hg3  1  0.500000  0.500000  0.740973  1
  Hg  Hg4  1  0.000000  0.500000  0.500000  1
  Pb  Pb5  1  0.000000  0.500000  0.000000  1
  Pb  Pb6  1  0.500000  0.000000  0.500000  1
  Pb  Pb7  1  0.500000  0.000000  0.000000  1
