# generated using pymatgen
data_Sn3Pt(SeO3)8
_symmetry_space_group_name_H-M   'P 1'
_cell_length_a   8.29659648
_cell_length_b   8.29659648
_cell_length_c   8.29659648
_cell_angle_alpha   90.14047028
_cell_angle_beta   89.85952972
_cell_angle_gamma   89.85952972
_symmetry_Int_Tables_number   1
_chemical_formula_structural   Sn3Pt(SeO3)8
_chemical_formula_sum   'Sn3 Pt1 Se8 O24'
_cell_volume   571.07872608
_cell_formula_units_Z   1
loop_
 _symmetry_equiv_pos_site_id
 _symmetry_equiv_pos_as_xyz
  1  'x, y, z'
loop_
 _atom_site_type_symbol
 _atom_site_label
 _atom_site_symmetry_multiplicity
 _atom_site_fract_x
 _atom_site_fract_y
 _atom_site_fract_z
 _atom_site_occupancy
  Sn  Sn0  1  0.500000  0.000000  0.500000  1
  Sn  Sn1  1  0.000000  0.000000  0.000000  1
  Sn  Sn2  1  0.000000  0.500000  0.500000  1
  Pt  Pt3  1  0.500000  0.500000  0.000000  1
  Se  Se4  1  0.832501  0.167499  0.667499  1
  Se  Se5  1  0.167499  0.832501  0.332501  1
  Se  Se6  1  0.662228  0.663354  0.679847  1
  Se  Se7  1  0.179847  0.662228  0.836646  1
  Se  Se8  1  0.336646  0.179847  0.837772  1
  Se  Se9  1  0.820153  0.337772  0.163354  1
  Se  Se10  1  0.663354  0.820153  0.162228  1
  Se  Se11  1  0.337772  0.336646  0.320153  1
  O  O12  1  0.245563  0.467449  0.455648  1
  O  O13  1  0.955648  0.245563  0.032551  1
  O  O14  1  0.031017  0.745258  0.465023  1
  O  O15  1  0.475959  0.257599  0.977407  1
  O  O16  1  0.254742  0.965023  0.468983  1
  O  O17  1  0.522593  0.524041  0.757599  1
  O  O18  1  0.965023  0.031017  0.754742  1
  O  O19  1  0.524041  0.742401  0.022593  1
  O  O20  1  0.532551  0.955648  0.254437  1
  O  O21  1  0.467449  0.044352  0.745563  1
  O  O22  1  0.754668  0.954704  0.031024  1
  O  O23  1  0.257599  0.522593  0.975959  1
  O  O24  1  0.045296  0.531024  0.745332  1
  O  O25  1  0.034977  0.968983  0.245258  1
  O  O26  1  0.245332  0.045296  0.968976  1
  O  O27  1  0.477407  0.475959  0.242401  1
  O  O28  1  0.754437  0.532551  0.544352  1
  O  O29  1  0.954704  0.468976  0.254668  1
  O  O30  1  0.044352  0.754437  0.967449  1
  O  O31  1  0.468976  0.245332  0.454704  1
  O  O32  1  0.531024  0.754668  0.545296  1
  O  O33  1  0.968983  0.254742  0.534977  1
  O  O34  1  0.745258  0.034977  0.531017  1
  O  O35  1  0.742401  0.477407  0.024041  1
