# generated using pymatgen
data_Tb2BePd5Rh
_symmetry_space_group_name_H-M   'P 1'
_cell_length_a   5.97833575
_cell_length_b   5.94054027
_cell_length_c   5.97833572
_cell_angle_alpha   60.20890828
_cell_angle_beta   59.58219037
_cell_angle_gamma   60.20891115
_symmetry_Int_Tables_number   1
_chemical_formula_structural   Tb2BePd5Rh
_chemical_formula_sum   'Tb2 Be1 Pd5 Rh1'
_cell_volume   150.11949087
_cell_formula_units_Z   1
loop_
 _symmetry_equiv_pos_site_id
 _symmetry_equiv_pos_as_xyz
  1  'x, y, z'
loop_
 _atom_site_type_symbol
 _atom_site_label
 _atom_site_symmetry_multiplicity
 _atom_site_fract_x
 _atom_site_fract_y
 _atom_site_fract_z
 _atom_site_occupancy
  Tb  Tb0  1  0.250470  0.249532  0.250470  1
  Tb  Tb1  1  0.750469  0.749531  0.750469  1
  Be  Be2  1  0.496447  0.503553  0.496447  1
  Pd  Pd3  1  0.762107  0.237893  0.238579  1
  Pd  Pd4  1  0.762107  0.761421  0.238579  1
  Pd  Pd5  1  0.238579  0.237893  0.762107  1
  Pd  Pd6  1  0.760935  0.239065  0.760935  1
  Pd  Pd7  1  0.238579  0.761421  0.762107  1
  Rh  Rh8  1  0.240308  0.759692  0.240308  1
