# generated using pymatgen
data_Zr4Ag3Au
_symmetry_space_group_name_H-M   'P 1'
_cell_length_a   4.95551700
_cell_length_b   6.63560700
_cell_length_c   4.95447500
_cell_angle_alpha   90.00000000
_cell_angle_beta   90.00000000
_cell_angle_gamma   90.00040671
_symmetry_Int_Tables_number   1
_chemical_formula_structural   Zr4Ag3Au
_chemical_formula_sum   'Zr4 Ag3 Au1'
_cell_volume   162.91732412
_cell_formula_units_Z   1
loop_
 _symmetry_equiv_pos_site_id
 _symmetry_equiv_pos_as_xyz
  1  'x, y, z'
loop_
 _atom_site_type_symbol
 _atom_site_label
 _atom_site_symmetry_multiplicity
 _atom_site_fract_x
 _atom_site_fract_y
 _atom_site_fract_z
 _atom_site_occupancy
  Zr  Zr0  1  0.416669  0.269774  0.000000  1
  Zr  Zr1  1  0.916681  0.979615  0.000000  1
  Zr  Zr2  1  0.916596  0.269776  0.500001  1
  Zr  Zr3  1  0.416610  0.986614  0.500001  1
  Ag  Ag4  1  0.416867  0.740857  0.000000  1
  Ag  Ag5  1  0.416551  0.511158  0.500001  1
  Ag  Ag6  1  0.916674  0.740851  0.500001  1
  Au  Au7  1  0.916684  0.501355  0.000000  1
