# generated using pymatgen
data_YMg3(AlPt)4
_symmetry_space_group_name_H-M   'P 1'
_cell_length_a   4.12247500
_cell_length_b   6.74215029
_cell_length_c   7.75446396
_cell_angle_alpha   92.74334211
_cell_angle_beta   90.00000000
_cell_angle_gamma   90.00000000
_symmetry_Int_Tables_number   1
_chemical_formula_structural   YMg3(AlPt)4
_chemical_formula_sum   'Y1 Mg3 Al4 Pt4'
_cell_volume   215.28324704
_cell_formula_units_Z   1
loop_
 _symmetry_equiv_pos_site_id
 _symmetry_equiv_pos_as_xyz
  1  'x, y, z'
loop_
 _atom_site_type_symbol
 _atom_site_label
 _atom_site_symmetry_multiplicity
 _atom_site_fract_x
 _atom_site_fract_y
 _atom_site_fract_z
 _atom_site_occupancy
  Y  Y0  1  0.750000  0.477763  0.170178  1
  Mg  Mg1  1  0.250000  0.022962  0.665002  1
  Mg  Mg2  1  0.250000  0.537603  0.824837  1
  Mg  Mg3  1  0.750000  0.964307  0.342097  1
  Al  Al4  1  0.250000  0.144201  0.048491  1
  Al  Al5  1  0.250000  0.642132  0.446843  1
  Al  Al6  1  0.750000  0.863233  0.943511  1
  Al  Al7  1  0.750000  0.353177  0.556849  1
  Pt  Pt8  1  0.250000  0.257519  0.372776  1
  Pt  Pt9  1  0.250000  0.790530  0.138088  1
  Pt  Pt10  1  0.750000  0.723517  0.631142  1
  Pt  Pt11  1  0.750000  0.223057  0.860185  1
