# generated using pymatgen
data_YU2(SnIr)3
_symmetry_space_group_name_H-M   'P 1'
_cell_length_a   7.46892534
_cell_length_b   7.50209879
_cell_length_c   4.00307900
_cell_angle_alpha   90.00000000
_cell_angle_beta   90.00000000
_cell_angle_gamma   120.73240698
_symmetry_Int_Tables_number   1
_chemical_formula_structural   YU2(SnIr)3
_chemical_formula_sum   'Y1 U2 Sn3 Ir3'
_cell_volume   192.80263103
_cell_formula_units_Z   1
loop_
 _symmetry_equiv_pos_site_id
 _symmetry_equiv_pos_as_xyz
  1  'x, y, z'
loop_
 _atom_site_type_symbol
 _atom_site_label
 _atom_site_symmetry_multiplicity
 _atom_site_fract_x
 _atom_site_fract_y
 _atom_site_fract_z
 _atom_site_occupancy
  Y  Y0  1  0.406741  0.406437  0.500000  1
  U  U1  1  0.590537  0.001660  0.500000  1
  U  U2  1  0.001906  0.589665  0.500000  1
  Sn  Sn3  1  0.734432  0.734680  0.000000  1
  Sn  Sn4  1  0.255917  0.008880  0.000000  1
  Sn  Sn5  1  0.008895  0.255947  0.000000  1
  Ir  Ir6  1  0.685146  0.331662  0.000000  1
  Ir  Ir7  1  0.328651  0.684025  0.000000  1
  Ir  Ir8  1  0.987777  0.987045  0.500000  1
