# generated using pymatgen
data_Yb6NpNbO12
_symmetry_space_group_name_H-M   'P 1'
_cell_length_a   5.89277211
_cell_length_b   5.57981460
_cell_length_c   9.79430974
_cell_angle_alpha   55.78449820
_cell_angle_beta   90.99415803
_cell_angle_gamma   90.17571648
_symmetry_Int_Tables_number   1
_chemical_formula_structural   Yb6NpNbO12
_chemical_formula_sum   'Yb6 Np1 Nb1 O12'
_cell_volume   266.25734539
_cell_formula_units_Z   1
loop_
 _symmetry_equiv_pos_site_id
 _symmetry_equiv_pos_as_xyz
  1  'x, y, z'
loop_
 _atom_site_type_symbol
 _atom_site_label
 _atom_site_symmetry_multiplicity
 _atom_site_fract_x
 _atom_site_fract_y
 _atom_site_fract_z
 _atom_site_occupancy
  Yb  Yb0  1  0.056829  0.709774  0.781643  1
  Yb  Yb1  1  0.943171  0.290226  0.218357  1
  Yb  Yb2  1  0.569167  0.256028  0.769509  1
  Yb  Yb3  1  0.430833  0.743972  0.230491  1
  Yb  Yb4  1  0.500000  0.500000  0.000000  1
  Yb  Yb5  1  0.000000  0.500000  0.500000  1
  Np  Np6  1  0.500000  0.000000  0.500000  1
  Nb  Nb7  1  0.000000  0.000000  0.000000  1
  O  O8  1  0.436722  0.906706  0.729155  1
  O  O9  1  0.563278  0.093294  0.270845  1
  O  O10  1  0.938688  0.114509  0.766031  1
  O  O11  1  0.061312  0.885491  0.233969  1
  O  O12  1  0.781918  0.739557  0.588616  1
  O  O13  1  0.218082  0.260443  0.411384  1
  O  O14  1  0.288814  0.237766  0.934684  1
  O  O15  1  0.711186  0.762234  0.065316  1
  O  O16  1  0.324611  0.643830  0.567405  1
  O  O17  1  0.675389  0.356170  0.432595  1
  O  O18  1  0.821978  0.346695  0.952566  1
  O  O19  1  0.178022  0.653305  0.047434  1
