# generated using pymatgen
data_Th3Mg2ZnAu3
_symmetry_space_group_name_H-M   'P 1'
_cell_length_a   7.46266800
_cell_length_b   7.54047896
_cell_length_c   4.44821800
_cell_angle_alpha   90.00000000
_cell_angle_beta   90.00000000
_cell_angle_gamma   119.65922121
_symmetry_Int_Tables_number   1
_chemical_formula_structural   Th3Mg2ZnAu3
_chemical_formula_sum   'Th3 Mg2 Zn1 Au3'
_cell_volume   217.51582521
_cell_formula_units_Z   1
loop_
 _symmetry_equiv_pos_site_id
 _symmetry_equiv_pos_as_xyz
  1  'x, y, z'
loop_
 _atom_site_type_symbol
 _atom_site_label
 _atom_site_symmetry_multiplicity
 _atom_site_fract_x
 _atom_site_fract_y
 _atom_site_fract_z
 _atom_site_occupancy
  Th  Th0  1  0.436572  0.000000  0.500000  1
  Th  Th1  1  0.996154  0.412505  0.500000  1
  Th  Th2  1  0.583649  0.587495  0.500000  1
  Mg  Mg3  1  0.000371  0.765615  0.000000  1
  Mg  Mg4  1  0.234756  0.234385  0.000000  1
  Zn  Zn5  1  0.755051  0.000000  0.000000  1
  Au  Au6  1  0.328704  0.664737  0.000000  1
  Au  Au7  1  0.663968  0.335263  0.000000  1
  Au  Au8  1  0.000777  0.000000  0.500000  1
