# generated using pymatgen
data_Zr2ScTi2Pb3
_symmetry_space_group_name_H-M   'P 1'
_cell_length_a   8.45921400
_cell_length_b   8.48513068
_cell_length_c   5.71774700
_cell_angle_alpha   90.00000000
_cell_angle_beta   90.00000000
_cell_angle_gamma   119.89901379
_symmetry_Int_Tables_number   1
_chemical_formula_structural   Zr2ScTi2Pb3
_chemical_formula_sum   'Zr4 Sc2 Ti4 Pb6'
_cell_volume   355.78296839
_cell_formula_units_Z   2
loop_
 _symmetry_equiv_pos_site_id
 _symmetry_equiv_pos_as_xyz
  1  'x, y, z'
loop_
 _atom_site_type_symbol
 _atom_site_label
 _atom_site_symmetry_multiplicity
 _atom_site_fract_x
 _atom_site_fract_y
 _atom_site_fract_z
 _atom_site_occupancy
  Zr  Zr0  1  0.764741  0.000000  0.750000  1
  Zr  Zr1  1  0.241970  0.000000  0.250000  1
  Zr  Zr2  1  0.001177  0.764079  0.750000  1
  Zr  Zr3  1  0.237097  0.235921  0.750000  1
  Sc  Sc4  1  0.761201  0.758954  0.250000  1
  Sc  Sc5  1  0.002248  0.241046  0.250000  1
  Ti  Ti6  1  0.331913  0.668972  0.500007  1
  Ti  Ti7  1  0.662942  0.331028  0.500007  1
  Ti  Ti8  1  0.331913  0.668972  0.999993  1
  Ti  Ti9  1  0.662942  0.331028  0.999993  1
  Pb  Pb10  1  0.600794  0.601554  0.750000  1
  Pb  Pb11  1  0.400439  0.000000  0.750000  1
  Pb  Pb12  1  0.607135  0.000000  0.250000  1
  Pb  Pb13  1  0.999239  0.398446  0.750000  1
  Pb  Pb14  1  0.397361  0.400473  0.250000  1
  Pb  Pb15  1  0.996889  0.599527  0.250000  1
