# generated using pymatgen
data_Tb4Er8InGaNi4
_symmetry_space_group_name_H-M   'P 1'
_cell_length_a   8.31082990
_cell_length_b   8.31413024
_cell_length_c   8.31083013
_cell_angle_alpha   105.79207386
_cell_angle_beta   109.72355002
_cell_angle_gamma   112.96118196
_symmetry_Int_Tables_number   1
_chemical_formula_structural   Tb4Er8InGaNi4
_chemical_formula_sum   'Tb4 Er8 In1 Ga1 Ni4'
_cell_volume   440.42083207
_cell_formula_units_Z   1
loop_
 _symmetry_equiv_pos_site_id
 _symmetry_equiv_pos_as_xyz
  1  'x, y, z'
loop_
 _atom_site_type_symbol
 _atom_site_label
 _atom_site_symmetry_multiplicity
 _atom_site_fract_x
 _atom_site_fract_y
 _atom_site_fract_z
 _atom_site_occupancy
  Tb  Tb0  1  0.606968  0.789136  0.817821  1
  Tb  Tb1  1  0.971314  0.789136  0.182168  1
  Tb  Tb2  1  0.028686  0.210864  0.817832  1
  Tb  Tb3  1  0.393032  0.210864  0.182179  1
  Er  Er4  1  0.697130  0.270482  0.967590  1
  Er  Er5  1  0.302870  0.729518  0.032410  1
  Er  Er6  1  0.697108  0.729518  0.426649  1
  Er  Er7  1  0.302892  0.270482  0.573351  1
  Er  Er8  1  0.809332  0.133845  0.324514  1
  Er  Er9  1  0.809287  0.484701  0.675413  1
  Er  Er10  1  0.190668  0.866155  0.675486  1
  Er  Er11  1  0.190713  0.515299  0.324587  1
  In  In12  1  0.500000  0.000000  0.500000  1
  Ga  Ga13  1  0.500000  0.500000  0.000000  1
  Ni  Ni14  1  0.852958  0.500000  0.352958  1
  Ni  Ni15  1  0.147042  0.500000  0.647042  1
  Ni  Ni16  1  0.999571  0.124573  0.125003  1
  Ni  Ni17  1  0.000429  0.875427  0.874997  1
