# generated using pymatgen
data_Zr5GaBiPb2
_symmetry_space_group_name_H-M   'P 1'
_cell_length_a   8.86406561
_cell_length_b   8.85480468
_cell_length_c   5.97800800
_cell_angle_alpha   90.00000000
_cell_angle_beta   90.00000000
_cell_angle_gamma   119.96544183
_symmetry_Int_Tables_number   1
_chemical_formula_structural   Zr5GaBiPb2
_chemical_formula_sum   'Zr10 Ga2 Bi2 Pb4'
_cell_volume   406.49031382
_cell_formula_units_Z   2
loop_
 _symmetry_equiv_pos_site_id
 _symmetry_equiv_pos_as_xyz
  1  'x, y, z'
loop_
 _atom_site_type_symbol
 _atom_site_label
 _atom_site_symmetry_multiplicity
 _atom_site_fract_x
 _atom_site_fract_y
 _atom_site_fract_z
 _atom_site_occupancy
  Zr  Zr0  1  0.666785  0.333471  0.000513  1
  Zr  Zr1  1  0.333215  0.666687  0.000513  1
  Zr  Zr2  1  0.333215  0.666687  0.499487  1
  Zr  Zr3  1  0.666785  0.333471  0.499487  1
  Zr  Zr4  1  0.736803  0.736342  0.750000  1
  Zr  Zr5  1  0.263197  0.999539  0.750000  1
  Zr  Zr6  1  0.000000  0.263208  0.750000  1
  Zr  Zr7  1  0.263724  0.263114  0.250000  1
  Zr  Zr8  1  0.736276  0.999389  0.250000  1
  Zr  Zr9  1  0.000000  0.736280  0.250000  1
  Ga  Ga10  1  0.000000  0.999715  0.000762  1
  Ga  Ga11  1  0.000000  0.999715  0.499238  1
  Bi  Bi12  1  0.389868  0.389874  0.750000  1
  Bi  Bi13  1  0.610132  0.000006  0.750000  1
  Pb  Pb14  1  0.000000  0.611751  0.750000  1
  Pb  Pb15  1  0.612289  0.612039  0.250000  1
  Pb  Pb16  1  0.387711  0.999751  0.250000  1
  Pb  Pb17  1  0.000000  0.388961  0.250000  1
