# generated using pymatgen
data_Ho4CdPt4Au
_symmetry_space_group_name_H-M   'P 1'
_cell_length_a   7.64598500
_cell_length_b   7.64598500
_cell_length_c   3.68767300
_cell_angle_alpha   90.00000000
_cell_angle_beta   90.00000000
_cell_angle_gamma   90.00000000
_symmetry_Int_Tables_number   1
_chemical_formula_structural   Ho4CdPt4Au
_chemical_formula_sum   'Ho4 Cd1 Pt4 Au1'
_cell_volume   215.58537068
_cell_formula_units_Z   1
loop_
 _symmetry_equiv_pos_site_id
 _symmetry_equiv_pos_as_xyz
  1  'x, y, z'
loop_
 _atom_site_type_symbol
 _atom_site_label
 _atom_site_symmetry_multiplicity
 _atom_site_fract_x
 _atom_site_fract_y
 _atom_site_fract_z
 _atom_site_occupancy
  Ho  Ho0  1  0.689232  0.150706  0.500000  1
  Ho  Ho1  1  0.310768  0.849294  0.500000  1
  Ho  Ho2  1  0.150706  0.310768  0.500000  1
  Ho  Ho3  1  0.849294  0.689232  0.500000  1
  Cd  Cd4  1  0.500000  0.500000  0.000000  1
  Pt  Pt5  1  0.143601  0.617747  0.000000  1
  Pt  Pt6  1  0.856399  0.382253  0.000000  1
  Pt  Pt7  1  0.617747  0.856399  0.000000  1
  Pt  Pt8  1  0.382253  0.143601  0.000000  1
  Au  Au9  1  0.000000  0.000000  0.000000  1
