# generated using pymatgen
data_Rb8Ho6SiBr20
_symmetry_space_group_name_H-M   'P 1'
_cell_length_a   12.39974957
_cell_length_b   12.39975057
_cell_length_c   12.39974900
_cell_angle_alpha   60.00000152
_cell_angle_beta   59.99999884
_cell_angle_gamma   59.99999882
_symmetry_Int_Tables_number   1
_chemical_formula_structural   Rb8Ho6SiBr20
_chemical_formula_sum   'Rb8 Ho6 Si1 Br20'
_cell_volume   1348.10511543
_cell_formula_units_Z   1
loop_
 _symmetry_equiv_pos_site_id
 _symmetry_equiv_pos_as_xyz
  1  'x, y, z'
loop_
 _atom_site_type_symbol
 _atom_site_label
 _atom_site_symmetry_multiplicity
 _atom_site_fract_x
 _atom_site_fract_y
 _atom_site_fract_z
 _atom_site_occupancy
  Rb  Rb0  1  0.358959  0.358959  0.358959  1
  Rb  Rb1  1  0.641041  0.641041  0.641041  1
  Rb  Rb2  1  0.358959  0.358959  0.923122  1
  Rb  Rb3  1  0.358959  0.923122  0.358959  1
  Rb  Rb4  1  0.641041  0.641041  0.076878  1
  Rb  Rb5  1  0.641041  0.076878  0.641041  1
  Rb  Rb6  1  0.923122  0.358959  0.358959  1
  Rb  Rb7  1  0.076878  0.641041  0.641041  1
  Ho  Ho8  1  0.843244  0.156756  0.156756  1
  Ho  Ho9  1  0.156756  0.843244  0.843244  1
  Ho  Ho10  1  0.156756  0.843244  0.156756  1
  Ho  Ho11  1  0.843244  0.156756  0.843244  1
  Ho  Ho12  1  0.156756  0.156756  0.843244  1
  Ho  Ho13  1  0.843244  0.843244  0.156756  1
  Si  Si14  1  0.000000  0.000000  0.000000  1
  Br  Br15  1  0.327860  0.000000  0.000000  1
  Br  Br16  1  0.672140  0.000000  0.000000  1
  Br  Br17  1  0.000000  0.327860  0.672140  1
  Br  Br18  1  0.000000  0.672140  0.327860  1
  Br  Br19  1  0.000000  0.327860  0.000000  1
  Br  Br20  1  0.672140  0.000000  0.327860  1
  Br  Br21  1  0.000000  0.672140  0.000000  1
  Br  Br22  1  0.327860  0.000000  0.672140  1
  Br  Br23  1  0.000000  0.000000  0.327860  1
  Br  Br24  1  0.000000  0.000000  0.672140  1
  Br  Br25  1  0.672140  0.327860  0.000000  1
  Br  Br26  1  0.327860  0.672140  0.000000  1
  Br  Br27  1  0.680003  0.319997  0.319997  1
  Br  Br28  1  0.319997  0.680003  0.680003  1
  Br  Br29  1  0.319997  0.680003  0.319997  1
  Br  Br30  1  0.680003  0.319997  0.680003  1
  Br  Br31  1  0.319997  0.319997  0.680003  1
  Br  Br32  1  0.680003  0.680003  0.319997  1
  Br  Br33  1  0.250000  0.250000  0.250000  1
  Br  Br34  1  0.750000  0.750000  0.750000  1
