# generated using pymatgen
data_CaTb3Ho4(B6Os)4
_symmetry_space_group_name_H-M   'P 1'
_cell_length_a   3.65114500
_cell_length_b   9.14852364
_cell_length_c   11.54175859
_cell_angle_alpha   89.89777109
_cell_angle_beta   90.00000000
_cell_angle_gamma   90.00000000
_symmetry_Int_Tables_number   1
_chemical_formula_structural   CaTb3Ho4(B6Os)4
_chemical_formula_sum   'Ca1 Tb3 Ho4 B24 Os4'
_cell_volume   385.52397435
_cell_formula_units_Z   1
loop_
 _symmetry_equiv_pos_site_id
 _symmetry_equiv_pos_as_xyz
  1  'x, y, z'
loop_
 _atom_site_type_symbol
 _atom_site_label
 _atom_site_symmetry_multiplicity
 _atom_site_fract_x
 _atom_site_fract_y
 _atom_site_fract_z
 _atom_site_occupancy
  Ca  Ca0  1  0.000000  0.322364  0.413635  1
  Tb  Tb1  1  0.000000  0.676111  0.585321  1
  Tb  Tb2  1  0.000000  0.822510  0.086752  1
  Tb  Tb3  1  0.000000  0.178032  0.914258  1
  Ho  Ho4  1  0.000000  0.944189  0.371765  1
  Ho  Ho5  1  0.000000  0.057594  0.627465  1
  Ho  Ho6  1  0.000000  0.443309  0.128794  1
  Ho  Ho7  1  0.000000  0.555833  0.872672  1
  B  B8  1  0.500000  0.554215  0.432359  1
  B  B9  1  0.500000  0.446055  0.567732  1
  B  B10  1  0.500000  0.053484  0.067010  1
  B  B11  1  0.500000  0.945785  0.932227  1
  B  B12  1  0.500000  0.748299  0.418887  1
  B  B13  1  0.500000  0.252133  0.581282  1
  B  B14  1  0.500000  0.247791  0.080829  1
  B  B15  1  0.500000  0.751606  0.919281  1
  B  B16  1  0.500000  0.791450  0.266607  1
  B  B17  1  0.500000  0.209554  0.733634  1
  B  B18  1  0.500000  0.290170  0.233115  1
  B  B19  1  0.500000  0.709299  0.766727  1
  B  B20  1  0.500000  0.631863  0.186137  1
  B  B21  1  0.500000  0.368584  0.814818  1
  B  B22  1  0.500000  0.131174  0.313643  1
  B  B23  1  0.500000  0.868589  0.685516  1
  B  B24  1  0.500000  0.983624  0.212397  1
  B  B25  1  0.500000  0.016341  0.786768  1
  B  B26  1  0.500000  0.483943  0.287212  1
  B  B27  1  0.500000  0.516161  0.713158  1
  B  B28  1  0.500000  0.607212  0.029882  1
  B  B29  1  0.500000  0.392959  0.970680  1
  B  B30  1  0.500000  0.104190  0.471007  1
  B  B31  1  0.500000  0.894828  0.529138  1
  Os  Os32  1  0.000000  0.639799  0.320453  1
  Os  Os33  1  0.000000  0.362074  0.680400  1
  Os  Os34  1  0.000000  0.136583  0.177518  1
  Os  Os35  1  0.000000  0.862293  0.820922  1
