# generated using pymatgen
data_Y3TlIn2CuPd2
_symmetry_space_group_name_H-M   'P 1'
_cell_length_a   7.65876283
_cell_length_b   7.65876460
_cell_length_c   3.90236100
_cell_angle_alpha   90.00000000
_cell_angle_beta   90.00000000
_cell_angle_gamma   119.79857127
_symmetry_Int_Tables_number   1
_chemical_formula_structural   Y3TlIn2CuPd2
_chemical_formula_sum   'Y3 Tl1 In2 Cu1 Pd2'
_cell_volume   198.63388779
_cell_formula_units_Z   1
loop_
 _symmetry_equiv_pos_site_id
 _symmetry_equiv_pos_as_xyz
  1  'x, y, z'
loop_
 _atom_site_type_symbol
 _atom_site_label
 _atom_site_symmetry_multiplicity
 _atom_site_fract_x
 _atom_site_fract_y
 _atom_site_fract_z
 _atom_site_occupancy
  Y  Y0  1  0.406585  0.406585  0.500000  1
  Y  Y1  1  0.592884  0.000514  0.500000  1
  Y  Y2  1  0.000514  0.592884  0.500000  1
  Tl  Tl3  1  0.745664  0.745664  0.000000  1
  In  In4  1  0.253163  0.001404  0.000000  1
  In  In5  1  0.001404  0.253163  0.000000  1
  Cu  Cu6  1  0.006608  0.006608  0.500000  1
  Pd  Pd7  1  0.665972  0.327206  0.000000  1
  Pd  Pd8  1  0.327206  0.665972  0.000000  1
