# generated using pymatgen
data_Tb2Sm2Cd3Au10
_symmetry_space_group_name_H-M   'P 1'
_cell_length_a   8.64411600
_cell_length_b   8.64411541
_cell_length_c   10.32327300
_cell_angle_alpha   90.00000000
_cell_angle_beta   90.00000000
_cell_angle_gamma   107.95649841
_symmetry_Int_Tables_number   1
_chemical_formula_structural   Tb2Sm2Cd3Au10
_chemical_formula_sum   'Tb4 Sm4 Cd6 Au20'
_cell_volume   733.79015447
_cell_formula_units_Z   2
loop_
 _symmetry_equiv_pos_site_id
 _symmetry_equiv_pos_as_xyz
  1  'x, y, z'
loop_
 _atom_site_type_symbol
 _atom_site_label
 _atom_site_symmetry_multiplicity
 _atom_site_fract_x
 _atom_site_fract_y
 _atom_site_fract_z
 _atom_site_occupancy
  Tb  Tb0  1  0.699514  0.300486  0.000000  1
  Tb  Tb1  1  0.300486  0.699514  0.000000  1
  Tb  Tb2  1  0.800486  0.199514  0.500000  1
  Tb  Tb3  1  0.199514  0.800486  0.500000  1
  Sm  Sm4  1  0.304114  0.304114  0.204983  1
  Sm  Sm5  1  0.695886  0.695886  0.795017  1
  Sm  Sm6  1  0.195886  0.195886  0.704983  1
  Sm  Sm7  1  0.804114  0.804114  0.295017  1
  Cd  Cd8  1  0.020381  0.520381  0.250000  1
  Cd  Cd9  1  0.979619  0.479619  0.750000  1
  Cd  Cd10  1  0.479619  0.979619  0.750000  1
  Cd  Cd11  1  0.520381  0.020381  0.250000  1
  Cd  Cd12  1  0.000000  0.000000  0.000000  1
  Cd  Cd13  1  0.500000  0.500000  0.500000  1
  Au  Au14  1  0.098596  0.098596  0.406050  1
  Au  Au15  1  0.901404  0.901404  0.593950  1
  Au  Au16  1  0.401404  0.401404  0.906050  1
  Au  Au17  1  0.598596  0.598596  0.093950  1
  Au  Au18  1  0.880911  0.166287  0.211206  1
  Au  Au19  1  0.119089  0.833713  0.788794  1
  Au  Au20  1  0.619089  0.333713  0.711206  1
  Au  Au21  1  0.666287  0.380911  0.288794  1
  Au  Au22  1  0.380911  0.666287  0.288794  1
  Au  Au23  1  0.333713  0.619089  0.711206  1
  Au  Au24  1  0.833713  0.119089  0.788794  1
  Au  Au25  1  0.166287  0.880911  0.211206  1
  Au  Au26  1  0.932025  0.649009  0.012572  1
  Au  Au27  1  0.067975  0.350991  0.987428  1
  Au  Au28  1  0.567975  0.850991  0.512572  1
  Au  Au29  1  0.149009  0.432025  0.487428  1
  Au  Au30  1  0.432025  0.149009  0.487428  1
  Au  Au31  1  0.850991  0.567975  0.512572  1
  Au  Au32  1  0.350991  0.067975  0.987428  1
  Au  Au33  1  0.649009  0.932025  0.012572  1
