# generated using pymatgen
data_Hf2Zr4Al16Cu4Os3
_symmetry_space_group_name_H-M   'P 1'
_cell_length_a   8.70287737
_cell_length_b   8.61629149
_cell_length_c   8.72989389
_cell_angle_alpha   60.22310417
_cell_angle_beta   59.24146707
_cell_angle_gamma   60.53542515
_symmetry_Int_Tables_number   1
_chemical_formula_structural   Hf2Zr4Al16Cu4Os3
_chemical_formula_sum   'Hf2 Zr4 Al16 Cu4 Os3'
_cell_volume   462.76155390
_cell_formula_units_Z   1
loop_
 _symmetry_equiv_pos_site_id
 _symmetry_equiv_pos_as_xyz
  1  'x, y, z'
loop_
 _atom_site_type_symbol
 _atom_site_label
 _atom_site_symmetry_multiplicity
 _atom_site_fract_x
 _atom_site_fract_y
 _atom_site_fract_z
 _atom_site_occupancy
  Hf  Hf0  1  0.190771  0.809229  0.809229  1
  Hf  Hf1  1  0.809229  0.190771  0.190771  1
  Zr  Zr2  1  0.797543  0.202457  0.797543  1
  Zr  Zr3  1  0.811233  0.811233  0.188767  1
  Zr  Zr4  1  0.202457  0.797543  0.202457  1
  Zr  Zr5  1  0.188767  0.188767  0.811233  1
  Al  Al6  1  0.833981  0.838080  0.833368  1
  Al  Al7  1  0.838080  0.833981  0.494570  1
  Al  Al8  1  0.494570  0.833368  0.838080  1
  Al  Al9  1  0.833368  0.494570  0.833981  1
  Al  Al10  1  0.166019  0.161920  0.166632  1
  Al  Al11  1  0.161920  0.166019  0.505430  1
  Al  Al12  1  0.166632  0.505430  0.166019  1
  Al  Al13  1  0.505430  0.166632  0.161920  1
  Al  Al14  1  0.614658  0.627751  0.614781  1
  Al  Al15  1  0.627751  0.614658  0.142810  1
  Al  Al16  1  0.142810  0.614781  0.627751  1
  Al  Al17  1  0.614781  0.142810  0.614658  1
  Al  Al18  1  0.385342  0.372249  0.385219  1
  Al  Al19  1  0.372249  0.385342  0.857190  1
  Al  Al20  1  0.385219  0.857190  0.385342  1
  Al  Al21  1  0.857190  0.385219  0.372249  1
  Cu  Cu22  1  0.000000  0.500000  0.500000  1
  Cu  Cu23  1  0.500000  0.000000  0.000000  1
  Cu  Cu24  1  0.500000  0.500000  0.000000  1
  Cu  Cu25  1  0.000000  0.000000  0.500000  1
  Os  Os26  1  0.500000  0.000000  0.500000  1
  Os  Os27  1  0.000000  0.500000  0.000000  1
  Os  Os28  1  0.500000  0.500000  0.500000  1
