# generated using pymatgen
data_CaDy3Al18OsPd5
_symmetry_space_group_name_H-M   'P 1'
_cell_length_a   7.64433310
_cell_length_b   7.63978144
_cell_length_c   9.49383800
_cell_angle_alpha   90.06340009
_cell_angle_beta   90.09388973
_cell_angle_gamma   119.66058904
_symmetry_Int_Tables_number   1
_chemical_formula_structural   CaDy3Al18OsPd5
_chemical_formula_sum   'Ca1 Dy3 Al18 Os1 Pd5'
_cell_volume   481.79972973
_cell_formula_units_Z   1
loop_
 _symmetry_equiv_pos_site_id
 _symmetry_equiv_pos_as_xyz
  1  'x, y, z'
loop_
 _atom_site_type_symbol
 _atom_site_label
 _atom_site_symmetry_multiplicity
 _atom_site_fract_x
 _atom_site_fract_y
 _atom_site_fract_z
 _atom_site_occupancy
  Ca  Ca0  1  0.994770  0.670221  0.248845  1
  Dy  Dy1  1  0.004858  0.330961  0.750884  1
  Dy  Dy2  1  0.670214  0.996191  0.248855  1
  Dy  Dy3  1  0.329884  0.003785  0.751246  1
  Al  Al4  1  0.129032  0.132997  0.249127  1
  Al  Al5  1  0.870185  0.871751  0.750770  1
  Al  Al6  1  0.995806  0.334932  0.074897  1
  Al  Al7  1  0.995075  0.659452  0.925299  1
  Al  Al8  1  0.998834  0.665966  0.578139  1
  Al  Al9  1  0.333866  0.000800  0.422375  1
  Al  Al10  1  0.000804  0.334719  0.423814  1
  Al  Al11  1  0.665273  0.999583  0.577603  1
  Al  Al12  1  0.665933  0.003130  0.924043  1
  Al  Al13  1  0.339703  0.003941  0.074819  1
  Al  Al14  1  0.333483  0.333842  0.560272  1
  Al  Al15  1  0.665087  0.666188  0.442177  1
  Al  Al16  1  0.668256  0.662026  0.052224  1
  Al  Al17  1  0.336775  0.331476  0.945976  1
  Al  Al18  1  0.341571  0.547822  0.249056  1
  Al  Al19  1  0.660469  0.452100  0.753207  1
  Al  Al20  1  0.546824  0.337421  0.246084  1
  Al  Al21  1  0.454494  0.662402  0.750972  1
  Os  Os22  1  0.670734  0.325706  0.998668  1
  Pd  Pd23  1  0.328326  0.671533  0.998909  1
  Pd  Pd24  1  0.327827  0.672149  0.500975  1
  Pd  Pd25  1  0.670972  0.327411  0.500901  1
  Pd  Pd26  1  0.000883  0.000591  0.999108  1
  Pd  Pd27  1  0.000065  0.000907  0.500756  1
