# generated using pymatgen
data_Dy6Y6Fe2I17
_symmetry_space_group_name_H-M   'P 1'
_cell_length_a   9.72140000
_cell_length_b   11.68871406
_cell_length_c   11.69526254
_cell_angle_alpha   93.51778692
_cell_angle_beta   104.72545035
_cell_angle_gamma   114.04538568
_symmetry_Int_Tables_number   1
_chemical_formula_structural   Dy6Y6Fe2I17
_chemical_formula_sum   'Dy6 Y6 Fe2 I17'
_cell_volume   1153.11153642
_cell_formula_units_Z   1
loop_
 _symmetry_equiv_pos_site_id
 _symmetry_equiv_pos_as_xyz
  1  'x, y, z'
loop_
 _atom_site_type_symbol
 _atom_site_label
 _atom_site_symmetry_multiplicity
 _atom_site_fract_x
 _atom_site_fract_y
 _atom_site_fract_z
 _atom_site_occupancy
  Dy  Dy0  1  0.343195  0.758164  0.719728  1
  Dy  Dy1  1  0.948184  0.498327  0.680775  1
  Dy  Dy2  1  0.745462  0.022299  0.111094  1
  Dy  Dy3  1  0.139556  0.286344  0.153854  1
  Dy  Dy4  1  0.781167  0.328095  0.017462  1
  Dy  Dy5  1  0.859457  0.713146  0.845639  1
  Y  Y6  1  0.053107  0.503717  0.320044  1
  Y  Y7  1  0.991585  0.809021  0.587924  1
  Y  Y8  1  0.655377  0.241291  0.280451  1
  Y  Y9  1  0.007983  0.190746  0.411961  1
  Y  Y10  1  0.219538  0.670844  0.983623  1
  Y  Y11  1  0.255269  0.978535  0.889061  1
  Fe  Fe12  1  0.103961  0.737700  0.785718  1
  Fe  Fe13  1  0.895897  0.261923  0.213843  1
  I  I14  1  0.783128  0.528247  0.417168  1
  I  I15  1  0.644005  0.419215  0.762021  1
  I  I16  1  0.843546  0.895071  0.326931  1
  I  I17  1  0.328254  0.213772  0.368323  1
  I  I18  1  0.156315  0.105112  0.672816  1
  I  I19  1  0.586263  0.052783  0.842471  1
  I  I20  1  0.757870  0.187993  0.538738  1
  I  I21  1  0.552044  0.710972  0.954273  1
  I  I22  1  0.356665  0.580884  0.237992  1
  I  I23  1  0.216751  0.471480  0.582534  1
  I  I24  1  0.056207  0.367054  0.896613  1
  I  I25  1  0.447771  0.289169  0.045484  1
  I  I26  1  0.999985  0.999993  0.000086  1
  I  I27  1  0.242412  0.811910  0.460944  1
  I  I28  1  0.413947  0.946993  0.157598  1
  I  I29  1  0.671944  0.786429  0.631667  1
  I  I30  1  0.943155  0.632769  0.103162  1
