# generated using pymatgen
data_Dy10Si5Ge
_symmetry_space_group_name_H-M   'P 1'
_cell_length_a   8.46830300
_cell_length_b   8.46702457
_cell_length_c   6.38406800
_cell_angle_alpha   90.00000000
_cell_angle_beta   90.00000000
_cell_angle_gamma   120.00499870
_symmetry_Int_Tables_number   1
_chemical_formula_structural   Dy10Si5Ge
_chemical_formula_sum   'Dy10 Si5 Ge1'
_cell_volume   396.39983713
_cell_formula_units_Z   1
loop_
 _symmetry_equiv_pos_site_id
 _symmetry_equiv_pos_as_xyz
  1  'x, y, z'
loop_
 _atom_site_type_symbol
 _atom_site_label
 _atom_site_symmetry_multiplicity
 _atom_site_fract_x
 _atom_site_fract_y
 _atom_site_fract_z
 _atom_site_occupancy
  Dy  Dy0  1  0.998525  0.755320  0.750000  1
  Dy  Dy1  1  0.000521  0.243955  0.250000  1
  Dy  Dy2  1  0.756566  0.756045  0.250000  1
  Dy  Dy3  1  0.756445  0.000000  0.750000  1
  Dy  Dy4  1  0.243204  0.244680  0.750000  1
  Dy  Dy5  1  0.243296  0.000000  0.250000  1
  Dy  Dy6  1  0.667286  0.333789  0.000703  1
  Dy  Dy7  1  0.333496  0.666211  0.499297  1
  Dy  Dy8  1  0.333496  0.666211  0.000703  1
  Dy  Dy9  1  0.667286  0.333789  0.499297  1
  Si  Si10  1  0.393960  0.393605  0.250000  1
  Si  Si11  1  0.000355  0.606395  0.250000  1
  Si  Si12  1  0.000095  0.393404  0.750000  1
  Si  Si13  1  0.606691  0.606596  0.750000  1
  Si  Si14  1  0.607159  0.000000  0.250000  1
  Ge  Ge15  1  0.391621  0.000000  0.750000  1
