# generated using pymatgen
data_Y4Lu4IrPt3
_symmetry_space_group_name_H-M   'P 1'
_cell_length_a   4.68593600
_cell_length_b   7.12984422
_cell_length_c   8.68342259
_cell_angle_alpha   89.56877106
_cell_angle_beta   90.00000000
_cell_angle_gamma   90.00000000
_symmetry_Int_Tables_number   1
_chemical_formula_structural   Y4Lu4IrPt3
_chemical_formula_sum   'Y4 Lu4 Ir1 Pt3'
_cell_volume   290.10487734
_cell_formula_units_Z   1
loop_
 _symmetry_equiv_pos_site_id
 _symmetry_equiv_pos_as_xyz
  1  'x, y, z'
loop_
 _atom_site_type_symbol
 _atom_site_label
 _atom_site_symmetry_multiplicity
 _atom_site_fract_x
 _atom_site_fract_y
 _atom_site_fract_z
 _atom_site_occupancy
  Y  Y0  1  0.250000  0.014217  0.666859  1
  Y  Y1  1  0.250000  0.510353  0.827957  1
  Y  Y2  1  0.750000  0.993966  0.332604  1
  Y  Y3  1  0.750000  0.484918  0.172472  1
  Lu  Lu4  1  0.250000  0.140247  0.079145  1
  Lu  Lu5  1  0.250000  0.643004  0.421802  1
  Lu  Lu6  1  0.750000  0.857672  0.923532  1
  Lu  Lu7  1  0.750000  0.357576  0.573420  1
  Ir  Ir8  1  0.250000  0.250264  0.405321  1
  Pt  Pt9  1  0.250000  0.745693  0.093648  1
  Pt  Pt10  1  0.750000  0.750677  0.598231  1
  Pt  Pt11  1  0.750000  0.251412  0.905006  1
