# generated using pymatgen
data_Ho9LuZn3Bi2Au
_symmetry_space_group_name_H-M   'P 1'
_cell_length_a   8.62984497
_cell_length_b   8.62984583
_cell_length_c   8.63575784
_cell_angle_alpha   123.98571946
_cell_angle_beta   123.98351088
_cell_angle_gamma   83.18254197
_symmetry_Int_Tables_number   1
_chemical_formula_structural   Ho9LuZn3Bi2Au
_chemical_formula_sum   'Ho9 Lu1 Zn3 Bi2 Au1'
_cell_volume   424.27470375
_cell_formula_units_Z   1
loop_
 _symmetry_equiv_pos_site_id
 _symmetry_equiv_pos_as_xyz
  1  'x, y, z'
loop_
 _atom_site_type_symbol
 _atom_site_label
 _atom_site_symmetry_multiplicity
 _atom_site_fract_x
 _atom_site_fract_y
 _atom_site_fract_z
 _atom_site_occupancy
  Ho  Ho0  1  0.500371  0.500230  0.000601  1
  Ho  Ho1  1  0.009112  0.511598  0.805161  1
  Ho  Ho2  1  0.705004  0.205437  0.194821  1
  Ho  Ho3  1  0.512503  0.705969  0.501105  1
  Ho  Ho4  1  0.205083  0.010716  0.499055  1
  Ho  Ho5  1  0.989384  0.489816  0.194821  1
  Ho  Ho6  1  0.293563  0.796048  0.805161  1
  Ho  Ho7  1  0.488339  0.293972  0.499055  1
  Ho  Ho8  1  0.795136  0.988602  0.501105  1
  Lu  Lu9  1  0.999663  0.999362  0.999024  1
  Zn  Zn10  1  0.639415  0.140220  0.779634  1
  Zn  Zn11  1  0.358636  0.861528  0.220167  1
  Zn  Zn12  1  0.140287  0.358622  0.498908  1
  Bi  Bi13  1  0.749909  0.751899  0.000008  1
  Bi  Bi14  1  0.248109  0.250100  0.000008  1
  Au  Au15  1  0.865485  0.635882  0.501367  1
