# generated using pymatgen
data_Nd4Al12Ga6Ir5Pt
_symmetry_space_group_name_H-M   'P 1'
_cell_length_a   7.60494692
_cell_length_b   7.60491684
_cell_length_c   9.70024368
_cell_angle_alpha   90.02139907
_cell_angle_beta   90.02165668
_cell_angle_gamma   119.61031337
_symmetry_Int_Tables_number   1
_chemical_formula_structural   Nd4Al12Ga6Ir5Pt
_chemical_formula_sum   'Nd4 Al12 Ga6 Ir5 Pt1'
_cell_volume   487.74835653
_cell_formula_units_Z   1
loop_
 _symmetry_equiv_pos_site_id
 _symmetry_equiv_pos_as_xyz
  1  'x, y, z'
loop_
 _atom_site_type_symbol
 _atom_site_label
 _atom_site_symmetry_multiplicity
 _atom_site_fract_x
 _atom_site_fract_y
 _atom_site_fract_z
 _atom_site_occupancy
  Nd  Nd0  1  0.995835  0.668541  0.250309  1
  Nd  Nd1  1  0.003407  0.330658  0.749761  1
  Nd  Nd2  1  0.669333  0.996571  0.250242  1
  Nd  Nd3  1  0.331442  0.004143  0.749694  1
  Al  Al4  1  0.005928  0.334345  0.073489  1
  Al  Al5  1  0.000684  0.669121  0.926917  1
  Al  Al6  1  0.997909  0.665388  0.571211  1
  Al  Al7  1  0.334616  0.002105  0.428816  1
  Al  Al8  1  0.002288  0.334278  0.428431  1
  Al  Al9  1  0.665725  0.997724  0.571596  1
  Al  Al10  1  0.665659  0.994086  0.926481  1
  Al  Al11  1  0.330882  0.999327  0.073054  1
  Al  Al12  1  0.334093  0.334162  0.551051  1
  Al  Al13  1  0.665832  0.665905  0.448976  1
  Al  Al14  1  0.665032  0.667887  0.053211  1
  Al  Al15  1  0.332109  0.334966  0.946760  1
  Ga  Ga16  1  0.129225  0.128357  0.250298  1
  Ga  Ga17  1  0.871646  0.870779  0.749703  1
  Ga  Ga18  1  0.340702  0.546783  0.250297  1
  Ga  Ga19  1  0.659655  0.456105  0.747085  1
  Ga  Ga20  1  0.543883  0.340330  0.252914  1
  Ga  Ga21  1  0.453206  0.659293  0.749705  1
  Ir  Ir22  1  0.329339  0.670681  0.000007  1
  Ir  Ir23  1  0.329333  0.670685  0.499994  1
  Ir  Ir24  1  0.670944  0.329070  0.499992  1
  Ir  Ir25  1  0.999950  0.000041  0.000004  1
  Ir  Ir26  1  0.000115  0.999876  0.499997  1
  Pt  Pt27  1  0.671226  0.328790  0.000007  1
