# generated using pymatgen
data_Dy6Al24Fe4RuPt3
_symmetry_space_group_name_H-M   'P 1'
_cell_length_a   8.78282615
_cell_length_b   8.75759877
_cell_length_c   9.42980972
_cell_angle_alpha   89.98549740
_cell_angle_beta   90.04880089
_cell_angle_gamma   119.80772299
_symmetry_Int_Tables_number   1
_chemical_formula_structural   Dy6Al24Fe4RuPt3
_chemical_formula_sum   'Dy6 Al24 Fe4 Ru1 Pt3'
_cell_volume   629.34809133
_cell_formula_units_Z   1
loop_
 _symmetry_equiv_pos_site_id
 _symmetry_equiv_pos_as_xyz
  1  'x, y, z'
loop_
 _atom_site_type_symbol
 _atom_site_label
 _atom_site_symmetry_multiplicity
 _atom_site_fract_x
 _atom_site_fract_y
 _atom_site_fract_z
 _atom_site_occupancy
  Dy  Dy0  1  0.191945  0.806027  0.249667  1
  Dy  Dy1  1  0.190482  0.386440  0.247386  1
  Dy  Dy2  1  0.614869  0.809125  0.250695  1
  Dy  Dy3  1  0.808055  0.193973  0.750333  1
  Dy  Dy4  1  0.809518  0.613560  0.752614  1
  Dy  Dy5  1  0.385131  0.190875  0.749305  1
  Al  Al6  1  0.564733  0.435641  0.250374  1
  Al  Al7  1  0.561165  0.121922  0.241832  1
  Al  Al8  1  0.880251  0.440184  0.254697  1
  Al  Al9  1  0.435267  0.564359  0.749626  1
  Al  Al10  1  0.438835  0.878078  0.758168  1
  Al  Al11  1  0.119749  0.559816  0.745303  1
  Al  Al12  1  0.316872  0.158468  0.421818  1
  Al  Al13  1  0.846455  0.167244  0.422517  1
  Al  Al14  1  0.847350  0.680181  0.423829  1
  Al  Al15  1  0.683128  0.841532  0.578182  1
  Al  Al16  1  0.153545  0.832756  0.577483  1
  Al  Al17  1  0.152650  0.319819  0.576171  1
  Al  Al18  1  0.680132  0.847553  0.925313  1
  Al  Al19  1  0.163192  0.840659  0.923677  1
  Al  Al20  1  0.155332  0.319869  0.923266  1
  Al  Al21  1  0.319868  0.152447  0.074687  1
  Al  Al22  1  0.836808  0.159341  0.076323  1
  Al  Al23  1  0.844668  0.680131  0.076734  1
  Al  Al24  1  0.679424  0.339645  0.522632  1
  Al  Al25  1  0.320576  0.660355  0.477368  1
  Al  Al26  1  0.334083  0.676391  0.022364  1
  Al  Al27  1  0.665917  0.323609  0.977636  1
  Al  Al28  1  0.997739  0.000322  0.249665  1
  Al  Al29  1  0.002261  0.999678  0.750335  1
  Fe  Fe30  1  0.000000  0.000000  0.500000  1
  Fe  Fe31  1  0.000000  0.000000  0.000000  1
  Fe  Fe32  1  0.000000  0.500000  0.500000  1
  Fe  Fe33  1  0.500000  0.000000  0.000000  1
  Ru  Ru34  1  0.000000  0.500000  0.000000  1
  Pt  Pt35  1  0.500000  0.500000  0.500000  1
  Pt  Pt36  1  0.500000  0.000000  0.500000  1
  Pt  Pt37  1  0.500000  0.500000  0.000000  1
