# generated using pymatgen
data_Rb2CaHgBi2
_symmetry_space_group_name_H-M   'P 1'
_cell_length_a   5.15518500
_cell_length_b   5.15518500
_cell_length_c   9.01202400
_cell_angle_alpha   90.00000000
_cell_angle_beta   90.00000000
_cell_angle_gamma   90.00000000
_symmetry_Int_Tables_number   1
_chemical_formula_structural   Rb2CaHgBi2
_chemical_formula_sum   'Rb2 Ca1 Hg1 Bi2'
_cell_volume   239.50294047
_cell_formula_units_Z   1
loop_
 _symmetry_equiv_pos_site_id
 _symmetry_equiv_pos_as_xyz
  1  'x, y, z'
loop_
 _atom_site_type_symbol
 _atom_site_label
 _atom_site_symmetry_multiplicity
 _atom_site_fract_x
 _atom_site_fract_y
 _atom_site_fract_z
 _atom_site_occupancy
  Rb  Rb0  1  0.000000  0.500000  0.350023  1
  Rb  Rb1  1  0.500000  0.000000  0.649977  1
  Ca  Ca2  1  0.000000  0.000000  0.000000  1
  Hg  Hg3  1  0.500000  0.500000  0.000000  1
  Bi  Bi4  1  0.500000  0.000000  0.207631  1
  Bi  Bi5  1  0.000000  0.500000  0.792369  1
