# generated using pymatgen
data_LiU2GeBr12
_symmetry_space_group_name_H-M   'P 1'
_cell_length_a   7.18281915
_cell_length_b   7.18281926
_cell_length_c   13.94788600
_cell_angle_alpha   84.25000592
_cell_angle_beta   84.25000583
_cell_angle_gamma   119.52702509
_symmetry_Int_Tables_number   1
_chemical_formula_structural   LiU2GeBr12
_chemical_formula_sum   'Li1 U2 Ge1 Br12'
_cell_volume   613.63334033
_cell_formula_units_Z   1
loop_
 _symmetry_equiv_pos_site_id
 _symmetry_equiv_pos_as_xyz
  1  'x, y, z'
loop_
 _atom_site_type_symbol
 _atom_site_label
 _atom_site_symmetry_multiplicity
 _atom_site_fract_x
 _atom_site_fract_y
 _atom_site_fract_z
 _atom_site_occupancy
  Li  Li0  1  0.084830  0.915170  0.250000  1
  U  U1  1  0.419335  0.580665  0.250000  1
  U  U2  1  0.581870  0.418130  0.750000  1
  Ge  Ge3  1  0.917810  0.082190  0.750000  1
  Br  Br4  1  0.295054  0.445216  0.636132  1
  Br  Br5  1  0.445171  0.304302  0.138167  1
  Br  Br6  1  0.205898  0.063414  0.865592  1
  Br  Br7  1  0.075948  0.221196  0.362448  1
  Br  Br8  1  0.163315  0.644473  0.136838  1
  Br  Br9  1  0.645537  0.156167  0.633710  1
  Br  Br10  1  0.355527  0.836685  0.363162  1
  Br  Br11  1  0.843833  0.354463  0.866290  1
  Br  Br12  1  0.778804  0.924052  0.137552  1
  Br  Br13  1  0.936586  0.794102  0.634408  1
  Br  Br14  1  0.554784  0.704946  0.863868  1
  Br  Br15  1  0.695698  0.554829  0.361833  1
