# generated using pymatgen
data_YErTh2(ReB6)2
_symmetry_space_group_name_H-M   'P 1'
_cell_length_a   3.76586200
_cell_length_b   9.26329136
_cell_length_c   11.69262446
_cell_angle_alpha   90.03204824
_cell_angle_beta   90.00000000
_cell_angle_gamma   90.00000000
_symmetry_Int_Tables_number   1
_chemical_formula_structural   YErTh2(ReB6)2
_chemical_formula_sum   'Y2 Er2 Th4 Re4 B24'
_cell_volume   407.88868587
_cell_formula_units_Z   2
loop_
 _symmetry_equiv_pos_site_id
 _symmetry_equiv_pos_as_xyz
  1  'x, y, z'
loop_
 _atom_site_type_symbol
 _atom_site_label
 _atom_site_symmetry_multiplicity
 _atom_site_fract_x
 _atom_site_fract_y
 _atom_site_fract_z
 _atom_site_occupancy
  Y  Y0  1  0.000000  0.944919  0.372626  1
  Y  Y1  1  0.000000  0.055081  0.627374  1
  Er  Er2  1  0.000000  0.444987  0.127208  1
  Er  Er3  1  0.000000  0.555013  0.872792  1
  Th  Th4  1  0.000000  0.322903  0.414184  1
  Th  Th5  1  0.000000  0.677097  0.585816  1
  Th  Th6  1  0.000000  0.822310  0.085521  1
  Th  Th7  1  0.000000  0.177690  0.914479  1
  Re  Re8  1  0.000000  0.638660  0.319469  1
  Re  Re9  1  0.000000  0.361340  0.680531  1
  Re  Re10  1  0.000000  0.140106  0.179815  1
  Re  Re11  1  0.000000  0.859894  0.820185  1
  B  B12  1  0.500000  0.556373  0.429499  1
  B  B13  1  0.500000  0.443627  0.570501  1
  B  B14  1  0.500000  0.056546  0.070348  1
  B  B15  1  0.500000  0.943454  0.929652  1
  B  B16  1  0.500000  0.749267  0.416854  1
  B  B17  1  0.500000  0.250733  0.583146  1
  B  B18  1  0.500000  0.250193  0.083144  1
  B  B19  1  0.500000  0.749807  0.916856  1
  B  B20  1  0.500000  0.790740  0.266267  1
  B  B21  1  0.500000  0.209260  0.733733  1
  B  B22  1  0.500000  0.291634  0.233352  1
  B  B23  1  0.500000  0.708366  0.766648  1
  B  B24  1  0.500000  0.630513  0.185828  1
  B  B25  1  0.500000  0.369487  0.814172  1
  B  B26  1  0.500000  0.131391  0.313665  1
  B  B27  1  0.500000  0.868609  0.686335  1
  B  B28  1  0.500000  0.985687  0.213776  1
  B  B29  1  0.500000  0.014313  0.786224  1
  B  B30  1  0.500000  0.485261  0.285583  1
  B  B31  1  0.500000  0.514739  0.714417  1
  B  B32  1  0.500000  0.602388  0.028021  1
  B  B33  1  0.500000  0.397612  0.971979  1
  B  B34  1  0.500000  0.103650  0.471665  1
  B  B35  1  0.500000  0.896350  0.528335  1
