# generated using pymatgen
data_Tb2Ho3CoBi2
_symmetry_space_group_name_H-M   'P 1'
_cell_length_a   8.01374700
_cell_length_b   8.90270100
_cell_length_c   12.39882500
_cell_angle_alpha   90.00000000
_cell_angle_beta   90.00000000
_cell_angle_gamma   90.00000000
_symmetry_Int_Tables_number   1
_chemical_formula_structural   Tb2Ho3CoBi2
_chemical_formula_sum   'Tb8 Ho12 Co4 Bi8'
_cell_volume   884.58168935
_cell_formula_units_Z   4
loop_
 _symmetry_equiv_pos_site_id
 _symmetry_equiv_pos_as_xyz
  1  'x, y, z'
loop_
 _atom_site_type_symbol
 _atom_site_label
 _atom_site_symmetry_multiplicity
 _atom_site_fract_x
 _atom_site_fract_y
 _atom_site_fract_z
 _atom_site_occupancy
  Tb  Tb0  1  0.346184  0.750000  0.699811  1
  Tb  Tb1  1  0.653816  0.250000  0.300189  1
  Tb  Tb2  1  0.846184  0.250000  0.800189  1
  Tb  Tb3  1  0.153816  0.750000  0.199811  1
  Tb  Tb4  1  0.884634  0.750000  0.810637  1
  Tb  Tb5  1  0.115366  0.250000  0.189363  1
  Tb  Tb6  1  0.384634  0.250000  0.689363  1
  Tb  Tb7  1  0.615366  0.750000  0.310637  1
  Ho  Ho8  1  0.675786  0.538164  0.562772  1
  Ho  Ho9  1  0.324214  0.461836  0.437228  1
  Ho  Ho10  1  0.175786  0.461836  0.937228  1
  Ho  Ho11  1  0.324214  0.038164  0.437228  1
  Ho  Ho12  1  0.824214  0.538164  0.062772  1
  Ho  Ho13  1  0.675786  0.961836  0.562772  1
  Ho  Ho14  1  0.824214  0.961836  0.062772  1
  Ho  Ho15  1  0.175786  0.038164  0.937228  1
  Ho  Ho16  1  0.052582  0.750000  0.497882  1
  Ho  Ho17  1  0.947418  0.250000  0.502118  1
  Ho  Ho18  1  0.552582  0.250000  0.002118  1
  Ho  Ho19  1  0.447418  0.750000  0.997882  1
  Co  Co20  1  0.066880  0.750000  0.991612  1
  Co  Co21  1  0.933120  0.250000  0.008388  1
  Co  Co22  1  0.566880  0.250000  0.508388  1
  Co  Co23  1  0.433120  0.750000  0.491612  1
  Bi  Bi24  1  0.571496  0.509772  0.827343  1
  Bi  Bi25  1  0.428504  0.490228  0.172657  1
  Bi  Bi26  1  0.071496  0.490228  0.672657  1
  Bi  Bi27  1  0.428504  0.009772  0.172657  1
  Bi  Bi28  1  0.928504  0.509772  0.327343  1
  Bi  Bi29  1  0.571496  0.990228  0.827343  1
  Bi  Bi30  1  0.928504  0.990228  0.327343  1
  Bi  Bi31  1  0.071496  0.009772  0.672657  1
