# generated using pymatgen
data_Zr2Co10Si7Os2
_symmetry_space_group_name_H-M   'P 1'
_cell_length_a   9.03485279
_cell_length_b   9.10160596
_cell_length_c   3.66985900
_cell_angle_alpha   90.00000000
_cell_angle_beta   90.00000000
_cell_angle_gamma   120.02690337
_symmetry_Int_Tables_number   1
_chemical_formula_structural   Zr2Co10Si7Os2
_chemical_formula_sum   'Zr2 Co10 Si7 Os2'
_cell_volume   261.27708427
_cell_formula_units_Z   1
loop_
 _symmetry_equiv_pos_site_id
 _symmetry_equiv_pos_as_xyz
  1  'x, y, z'
loop_
 _atom_site_type_symbol
 _atom_site_label
 _atom_site_symmetry_multiplicity
 _atom_site_fract_x
 _atom_site_fract_y
 _atom_site_fract_z
 _atom_site_occupancy
  Zr  Zr0  1  0.998286  0.000989  0.000000  1
  Zr  Zr1  1  0.331786  0.666687  0.500000  1
  Co  Co2  1  0.290655  0.391554  0.000000  1
  Co  Co3  1  0.102914  0.710448  0.000000  1
  Co  Co4  1  0.382353  0.175253  0.000000  1
  Co  Co5  1  0.794112  0.618715  0.000000  1
  Co  Co6  1  0.819860  0.204120  0.000000  1
  Co  Co7  1  0.234936  0.952265  0.500000  1
  Co  Co8  1  0.048006  0.280505  0.500000  1
  Co  Co9  1  0.720790  0.770552  0.500000  1
  Co  Co10  1  0.561875  0.100275  0.500000  1
  Co  Co11  1  0.609209  0.898322  0.000000  1
  Si  Si12  1  0.663617  0.328238  0.000000  1
  Si  Si13  1  0.074676  0.447470  0.000000  1
  Si  Si14  1  0.257190  0.216533  0.500000  1
  Si  Si15  1  0.780881  0.040729  0.500000  1
  Si  Si16  1  0.963442  0.747548  0.500000  1
  Si  Si17  1  0.550127  0.628384  0.000000  1
  Si  Si18  1  0.377617  0.927756  0.000000  1
  Os  Os19  1  0.885673  0.455347  0.500000  1
  Os  Os20  1  0.551993  0.438314  0.500000  1
