# generated using pymatgen
data_Lu3Sc3MnSb2
_symmetry_space_group_name_H-M   'P 1'
_cell_length_a   7.74584300
_cell_length_b   7.74584291
_cell_length_c   4.14254800
_cell_angle_alpha   90.00000000
_cell_angle_beta   90.00000000
_cell_angle_gamma   119.99999610
_symmetry_Int_Tables_number   1
_chemical_formula_structural   Lu3Sc3MnSb2
_chemical_formula_sum   'Lu3 Sc3 Mn1 Sb2'
_cell_volume   215.24623977
_cell_formula_units_Z   1
loop_
 _symmetry_equiv_pos_site_id
 _symmetry_equiv_pos_as_xyz
  1  'x, y, z'
loop_
 _atom_site_type_symbol
 _atom_site_label
 _atom_site_symmetry_multiplicity
 _atom_site_fract_x
 _atom_site_fract_y
 _atom_site_fract_z
 _atom_site_occupancy
  Lu  Lu0  1  0.608312  0.000000  0.000000  1
  Lu  Lu1  1  0.000000  0.608312  0.000000  1
  Lu  Lu2  1  0.391688  0.391688  0.000000  1
  Sc  Sc3  1  0.229083  0.000000  0.500000  1
  Sc  Sc4  1  0.000000  0.229083  0.500000  1
  Sc  Sc5  1  0.770917  0.770917  0.500000  1
  Mn  Mn6  1  0.000000  0.000000  0.000000  1
  Sb  Sb7  1  0.333333  0.666667  0.500000  1
  Sb  Sb8  1  0.666667  0.333333  0.500000  1
