# generated using pymatgen
data_LaCeZr2(NiP)4
_symmetry_space_group_name_H-M   'P 1'
_cell_length_a   3.90650300
_cell_length_b   3.90650202
_cell_length_c   15.11508700
_cell_angle_alpha   90.00000000
_cell_angle_beta   90.00000000
_cell_angle_gamma   119.99999979
_symmetry_Int_Tables_number   1
_chemical_formula_structural   LaCeZr2(NiP)4
_chemical_formula_sum   'La1 Ce1 Zr2 Ni4 P4'
_cell_volume   199.76412609
_cell_formula_units_Z   1
loop_
 _symmetry_equiv_pos_site_id
 _symmetry_equiv_pos_as_xyz
  1  'x, y, z'
loop_
 _atom_site_type_symbol
 _atom_site_label
 _atom_site_symmetry_multiplicity
 _atom_site_fract_x
 _atom_site_fract_y
 _atom_site_fract_z
 _atom_site_occupancy
  La  La0  1  0.000000  0.000000  0.500000  1
  Ce  Ce1  1  0.000000  0.000000  0.000000  1
  Zr  Zr2  1  0.000000  0.000000  0.249056  1
  Zr  Zr3  1  0.000000  0.000000  0.750944  1
  Ni  Ni4  1  0.333333  0.666667  0.343051  1
  Ni  Ni5  1  0.666667  0.333333  0.656949  1
  Ni  Ni6  1  0.666667  0.333333  0.850602  1
  Ni  Ni7  1  0.333333  0.666667  0.149398  1
  P  P8  1  0.333333  0.666667  0.874684  1
  P  P9  1  0.666667  0.333333  0.125316  1
  P  P10  1  0.666667  0.333333  0.367233  1
  P  P11  1  0.333333  0.666667  0.632767  1
