# generated using pymatgen
data_RbGaI4
_symmetry_space_group_name_H-M   'P 1'
_cell_length_a   14.87684015
_cell_length_b   14.87684022
_cell_length_c   14.87683850
_cell_angle_alpha   115.18775932
_cell_angle_beta   115.18775849
_cell_angle_gamma   115.18775430
_symmetry_Int_Tables_number   1
_chemical_formula_structural   RbGaI4
_chemical_formula_sum   'Rb6 Ga6 I24'
_cell_volume   1810.78936680
_cell_formula_units_Z   6
loop_
 _symmetry_equiv_pos_site_id
 _symmetry_equiv_pos_as_xyz
  1  'x, y, z'
loop_
 _atom_site_type_symbol
 _atom_site_label
 _atom_site_symmetry_multiplicity
 _atom_site_fract_x
 _atom_site_fract_y
 _atom_site_fract_z
 _atom_site_occupancy
  Rb  Rb0  1  0.882965  0.693924  0.098132  1
  Rb  Rb1  1  0.098132  0.882965  0.693924  1
  Rb  Rb2  1  0.693924  0.098132  0.882965  1
  Rb  Rb3  1  0.193924  0.382965  0.598132  1
  Rb  Rb4  1  0.598132  0.193924  0.382965  1
  Rb  Rb5  1  0.382965  0.598132  0.193924  1
  Ga  Ga6  1  0.871428  0.083347  0.687111  1
  Ga  Ga7  1  0.687111  0.871428  0.083347  1
  Ga  Ga8  1  0.083347  0.687111  0.871428  1
  Ga  Ga9  1  0.583347  0.371428  0.187111  1
  Ga  Ga10  1  0.187111  0.583347  0.371428  1
  Ga  Ga11  1  0.371428  0.187111  0.583347  1
  I  I12  1  0.965354  0.122104  0.905512  1
  I  I13  1  0.905512  0.965354  0.122104  1
  I  I14  1  0.122104  0.905512  0.965354  1
  I  I15  1  0.622104  0.465354  0.405512  1
  I  I16  1  0.405512  0.622104  0.465354  1
  I  I17  1  0.465354  0.405512  0.622104  1
  I  I18  1  0.076708  0.324634  0.784260  1
  I  I19  1  0.784260  0.076708  0.324634  1
  I  I20  1  0.324634  0.784260  0.076708  1
  I  I21  1  0.824634  0.576708  0.284260  1
  I  I22  1  0.284260  0.824634  0.576708  1
  I  I23  1  0.576708  0.284260  0.824634  1
  I  I24  1  0.637558  0.022299  0.562762  1
  I  I25  1  0.562762  0.637558  0.022299  1
  I  I26  1  0.022299  0.562762  0.637558  1
  I  I27  1  0.522299  0.137558  0.062762  1
  I  I28  1  0.062762  0.522299  0.137558  1
  I  I29  1  0.137558  0.062762  0.522299  1
  I  I30  1  0.803806  0.864054  0.491841  1
  I  I31  1  0.491841  0.803806  0.864054  1
  I  I32  1  0.864054  0.491841  0.803806  1
  I  I33  1  0.364054  0.303806  0.991841  1
  I  I34  1  0.991841  0.364054  0.303806  1
  I  I35  1  0.303806  0.991841  0.364054  1
