# generated using pymatgen
data_Tb2Fe9P7W3
_symmetry_space_group_name_H-M   'P 1'
_cell_length_a   9.14799900
_cell_length_b   9.14800002
_cell_length_c   3.71253400
_cell_angle_alpha   90.00000000
_cell_angle_beta   90.00000000
_cell_angle_gamma   119.99999268
_symmetry_Int_Tables_number   1
_chemical_formula_structural   Tb2Fe9P7W3
_chemical_formula_sum   'Tb2 Fe9 P7 W3'
_cell_volume   269.06262135
_cell_formula_units_Z   1
loop_
 _symmetry_equiv_pos_site_id
 _symmetry_equiv_pos_as_xyz
  1  'x, y, z'
loop_
 _atom_site_type_symbol
 _atom_site_label
 _atom_site_symmetry_multiplicity
 _atom_site_fract_x
 _atom_site_fract_y
 _atom_site_fract_z
 _atom_site_occupancy
  Tb  Tb0  1  0.666667  0.333333  0.000000  1
  Tb  Tb1  1  0.333333  0.666667  0.500000  1
  Fe  Fe2  1  0.052776  0.625321  0.000000  1
  Fe  Fe3  1  0.572545  0.947224  0.000000  1
  Fe  Fe4  1  0.374679  0.427455  0.000000  1
  Fe  Fe5  1  0.275189  0.117673  0.000000  1
  Fe  Fe6  1  0.842482  0.724811  0.000000  1
  Fe  Fe7  1  0.882327  0.157518  0.000000  1
  Fe  Fe8  1  0.437715  0.047761  0.500000  1
  Fe  Fe9  1  0.610047  0.562285  0.500000  1
  Fe  Fe10  1  0.952239  0.389953  0.500000  1
  P  P11  1  0.302549  0.889135  0.000000  1
  P  P12  1  0.586587  0.697451  0.000000  1
  P  P13  1  0.110865  0.413413  0.000000  1
  P  P14  1  0.410304  0.285501  0.500000  1
  P  P15  1  0.875198  0.589696  0.500000  1
  P  P16  1  0.714499  0.124802  0.500000  1
  P  P17  1  0.000000  0.000000  0.000000  1
  W  W18  1  0.101477  0.879740  0.500000  1
  W  W19  1  0.778262  0.898523  0.500000  1
  W  W20  1  0.120260  0.221738  0.500000  1
