# generated using pymatgen
data_Er2Tm8ZnBi5
_symmetry_space_group_name_H-M   'P 1'
_cell_length_a   8.08831100
_cell_length_b   9.34734300
_cell_length_c   11.85090800
_cell_angle_alpha   90.00000000
_cell_angle_beta   90.00000000
_cell_angle_gamma   90.00000000
_symmetry_Int_Tables_number   1
_chemical_formula_structural   Er2Tm8ZnBi5
_chemical_formula_sum   'Er4 Tm16 Zn2 Bi10'
_cell_volume   895.97862254
_cell_formula_units_Z   2
loop_
 _symmetry_equiv_pos_site_id
 _symmetry_equiv_pos_as_xyz
  1  'x, y, z'
loop_
 _atom_site_type_symbol
 _atom_site_label
 _atom_site_symmetry_multiplicity
 _atom_site_fract_x
 _atom_site_fract_y
 _atom_site_fract_z
 _atom_site_occupancy
  Er  Er0  1  0.311519  0.250000  0.217639  1
  Er  Er1  1  0.811519  0.250000  0.282361  1
  Er  Er2  1  0.677773  0.750000  0.787007  1
  Er  Er3  1  0.177773  0.750000  0.712993  1
  Tm  Tm4  1  0.353832  0.750000  0.205231  1
  Tm  Tm5  1  0.853832  0.750000  0.294769  1
  Tm  Tm6  1  0.652947  0.250000  0.782985  1
  Tm  Tm7  1  0.152947  0.250000  0.717015  1
  Tm  Tm8  1  0.683747  0.572008  0.056051  1
  Tm  Tm9  1  0.183747  0.927992  0.443949  1
  Tm  Tm10  1  0.309027  0.048228  0.941446  1
  Tm  Tm11  1  0.809027  0.451772  0.558554  1
  Tm  Tm12  1  0.309027  0.451772  0.941446  1
  Tm  Tm13  1  0.809027  0.048228  0.558554  1
  Tm  Tm14  1  0.683747  0.927992  0.056051  1
  Tm  Tm15  1  0.183747  0.572008  0.443949  1
  Tm  Tm16  1  0.480920  0.250000  0.490470  1
  Tm  Tm17  1  0.980920  0.250000  0.009530  1
  Tm  Tm18  1  0.535138  0.750000  0.509816  1
  Tm  Tm19  1  0.035138  0.750000  0.990184  1
  Zn  Zn20  1  0.407730  0.750000  0.959206  1
  Zn  Zn21  1  0.907730  0.750000  0.540794  1
  Bi  Bi22  1  0.596095  0.250000  0.042356  1
  Bi  Bi23  1  0.096095  0.250000  0.457644  1
  Bi  Bi24  1  0.561203  0.996577  0.324607  1
  Bi  Bi25  1  0.061203  0.503423  0.175393  1
  Bi  Bi26  1  0.438047  0.497955  0.677383  1
  Bi  Bi27  1  0.938047  0.002045  0.822617  1
  Bi  Bi28  1  0.438047  0.002045  0.677383  1
  Bi  Bi29  1  0.938047  0.497955  0.822617  1
  Bi  Bi30  1  0.561203  0.503423  0.324607  1
  Bi  Bi31  1  0.061203  0.996577  0.175393  1
