# generated using pymatgen
data_Cs4Mn3Sn5O16
_symmetry_space_group_name_H-M   'P 1'
_cell_length_a   5.53448997
_cell_length_b   6.40940882
_cell_length_c   14.62274900
_cell_angle_alpha   89.98643011
_cell_angle_beta   89.87593560
_cell_angle_gamma   89.97430588
_symmetry_Int_Tables_number   1
_chemical_formula_structural   Cs4Mn3Sn5O16
_chemical_formula_sum   'Cs4 Mn3 Sn5 O16'
_cell_volume   518.70869786
_cell_formula_units_Z   1
loop_
 _symmetry_equiv_pos_site_id
 _symmetry_equiv_pos_as_xyz
  1  'x, y, z'
loop_
 _atom_site_type_symbol
 _atom_site_label
 _atom_site_symmetry_multiplicity
 _atom_site_fract_x
 _atom_site_fract_y
 _atom_site_fract_z
 _atom_site_occupancy
  Cs  Cs0  1  0.381830  0.995042  0.002288  1
  Cs  Cs1  1  0.618326  0.504931  0.497698  1
  Cs  Cs2  1  0.067686  0.000996  0.499626  1
  Cs  Cs3  1  0.932399  0.499057  0.000411  1
  Mn  Mn4  1  0.500120  0.250048  0.249725  1
  Mn  Mn5  1  0.499380  0.749333  0.749764  1
  Mn  Mn6  1  0.499418  0.750522  0.250040  1
  Sn  Sn7  1  0.998063  0.999965  0.246445  1
  Sn  Sn8  1  0.998339  0.995446  0.754211  1
  Sn  Sn9  1  0.002019  0.500086  0.253621  1
  Sn  Sn10  1  0.001538  0.504525  0.745851  1
  Sn  Sn11  1  0.500005  0.249844  0.750060  1
  O  O12  1  0.856993  0.247534  0.328594  1
  O  O13  1  0.853462  0.753423  0.671711  1
  O  O14  1  0.142653  0.747792  0.171347  1
  O  O15  1  0.165256  0.252737  0.826692  1
  O  O16  1  0.143211  0.252409  0.171456  1
  O  O17  1  0.146670  0.746526  0.828305  1
  O  O18  1  0.857533  0.752371  0.328714  1
  O  O19  1  0.834898  0.247339  0.673340  1
  O  O20  1  0.654448  0.998378  0.183410  1
  O  O21  1  0.672519  0.013528  0.825188  1
  O  O22  1  0.345648  0.501667  0.316547  1
  O  O23  1  0.327515  0.486273  0.674853  1
  O  O24  1  0.343207  0.001365  0.313105  1
  O  O25  1  0.322774  0.011808  0.679458  1
  O  O26  1  0.656851  0.498927  0.186935  1
  O  O27  1  0.677241  0.488129  0.820602  1
