# generated using pymatgen
data_Ca4Cu3As4Pd
_symmetry_space_group_name_H-M   'P 1'
_cell_length_a   8.14271100
_cell_length_b   4.17534400
_cell_length_c   7.31267600
_cell_angle_alpha   90.00000000
_cell_angle_beta   89.99881906
_cell_angle_gamma   90.00000000
_symmetry_Int_Tables_number   1
_chemical_formula_structural   Ca4Cu3As4Pd
_chemical_formula_sum   'Ca4 Cu3 As4 Pd1'
_cell_volume   248.62088895
_cell_formula_units_Z   1
loop_
 _symmetry_equiv_pos_site_id
 _symmetry_equiv_pos_as_xyz
  1  'x, y, z'
loop_
 _atom_site_type_symbol
 _atom_site_label
 _atom_site_symmetry_multiplicity
 _atom_site_fract_x
 _atom_site_fract_y
 _atom_site_fract_z
 _atom_site_occupancy
  Ca  Ca0  1  0.998154  0.250001  0.246267  1
  Ca  Ca1  1  0.501328  0.250001  0.249210  1
  Ca  Ca2  1  0.497865  0.749999  0.751080  1
  Ca  Ca3  1  0.002350  0.749999  0.753893  1
  Cu  Cu4  1  0.248602  0.749999  0.414660  1
  Cu  Cu5  1  0.751531  0.250001  0.582791  1
  Cu  Cu6  1  0.251219  0.250001  0.914860  1
  As  As7  1  0.250578  0.749999  0.083328  1
  As  As8  1  0.751170  0.749999  0.427188  1
  As  As9  1  0.249427  0.250001  0.582549  1
  As  As10  1  0.749262  0.250001  0.906853  1
  Pd  Pd11  1  0.748511  0.749999  0.087321  1
