# generated using pymatgen
data_PrEr3Si10(RuPt2)2
_symmetry_space_group_name_H-M   'P 1'
_cell_length_a   8.16706870
_cell_length_b   8.17748107
_cell_length_c   8.17747943
_cell_angle_alpha   137.65711819
_cell_angle_beta   104.34404385
_cell_angle_gamma   90.77130955
_symmetry_Int_Tables_number   1
_chemical_formula_structural   PrEr3Si10(RuPt2)2
_chemical_formula_sum   'Pr1 Er3 Si10 Ru2 Pt4'
_cell_volume   339.83997663
_cell_formula_units_Z   1
loop_
 _symmetry_equiv_pos_site_id
 _symmetry_equiv_pos_as_xyz
  1  'x, y, z'
loop_
 _atom_site_type_symbol
 _atom_site_label
 _atom_site_symmetry_multiplicity
 _atom_site_fract_x
 _atom_site_fract_y
 _atom_site_fract_z
 _atom_site_occupancy
  Pr  Pr0  1  0.603317  0.870474  0.732844  1
  Er  Er1  1  0.861749  0.629363  0.232386  1
  Er  Er2  1  0.137824  0.370507  0.767317  1
  Er  Er3  1  0.396158  0.129017  0.267141  1
  Si  Si4  1  0.499678  0.751167  0.250113  1
  Si  Si5  1  0.499678  0.249564  0.748510  1
  Si  Si6  1  0.221137  0.971704  0.748845  1
  Si  Si7  1  0.777899  0.526985  0.750450  1
  Si  Si8  1  0.777899  0.027450  0.250914  1
  Si  Si9  1  0.221137  0.472292  0.249433  1
  Si  Si10  1  0.048319  0.897185  0.151134  1
  Si  Si11  1  0.955571  0.105779  0.849792  1
  Si  Si12  1  0.746951  0.397621  0.349329  1
  Si  Si13  1  0.253061  0.601440  0.651621  1
  Ru  Ru14  1  0.001206  0.750607  0.751035  1
  Ru  Ru15  1  0.001206  0.250171  0.250599  1
  Pt  Pt16  1  0.245710  0.860248  0.385464  1
  Pt  Pt17  1  0.754728  0.141120  0.613606  1
  Pt  Pt18  1  0.472038  0.360263  0.111775  1
  Pt  Pt19  1  0.524735  0.637042  0.887693  1
