# generated using pymatgen
data_Ho16In6RuAu
_symmetry_space_group_name_H-M   'P 1'
_cell_length_a   10.47225500
_cell_length_b   10.47225537
_cell_length_c   6.95176000
_cell_angle_alpha   90.00000000
_cell_angle_beta   90.00000000
_cell_angle_gamma   120.00000200
_symmetry_Int_Tables_number   1
_chemical_formula_structural   Ho16In6RuAu
_chemical_formula_sum   'Ho16 In6 Ru1 Au1'
_cell_volume   660.24607175
_cell_formula_units_Z   1
loop_
 _symmetry_equiv_pos_site_id
 _symmetry_equiv_pos_as_xyz
  1  'x, y, z'
loop_
 _atom_site_type_symbol
 _atom_site_label
 _atom_site_symmetry_multiplicity
 _atom_site_fract_x
 _atom_site_fract_y
 _atom_site_fract_z
 _atom_site_occupancy
  Ho  Ho0  1  0.525758  0.051515  0.511016  1
  Ho  Ho1  1  0.948485  0.474242  0.511016  1
  Ho  Ho2  1  0.525758  0.474242  0.511016  1
  Ho  Ho3  1  0.466393  0.932787  0.007930  1
  Ho  Ho4  1  0.067213  0.533607  0.007930  1
  Ho  Ho5  1  0.466393  0.533607  0.007930  1
  Ho  Ho6  1  0.176582  0.353164  0.717552  1
  Ho  Ho7  1  0.646836  0.823418  0.717552  1
  Ho  Ho8  1  0.176582  0.823418  0.717552  1
  Ho  Ho9  1  0.826820  0.653641  0.214540  1
  Ho  Ho10  1  0.346359  0.173180  0.214540  1
  Ho  Ho11  1  0.826820  0.173180  0.214540  1
  Ho  Ho12  1  0.666667  0.333333  0.870336  1
  Ho  Ho13  1  0.333333  0.666667  0.386887  1
  Ho  Ho14  1  0.000000  0.000000  0.489811  1
  Ho  Ho15  1  0.000000  0.000000  0.991932  1
  In  In16  1  0.836751  0.673502  0.748462  1
  In  In17  1  0.326498  0.163249  0.748462  1
  In  In18  1  0.836751  0.163249  0.748462  1
  In  In19  1  0.162554  0.325107  0.252195  1
  In  In20  1  0.674893  0.837446  0.252195  1
  In  In21  1  0.162554  0.837446  0.252195  1
  Ru  Ru22  1  0.333333  0.666667  0.783902  1
  Au  Au23  1  0.666667  0.333333  0.280088  1
