# generated using pymatgen
data_TbYb(Sn2Ru)2
_symmetry_space_group_name_H-M   'P 1'
_cell_length_a   5.84205786
_cell_length_b   5.84205774
_cell_length_c   7.58335000
_cell_angle_alpha   90.00000000
_cell_angle_beta   90.00000000
_cell_angle_gamma   136.49005580
_symmetry_Int_Tables_number   1
_chemical_formula_structural   TbYb(Sn2Ru)2
_chemical_formula_sum   'Tb1 Yb1 Sn4 Ru2'
_cell_volume   178.19044748
_cell_formula_units_Z   1
loop_
 _symmetry_equiv_pos_site_id
 _symmetry_equiv_pos_as_xyz
  1  'x, y, z'
loop_
 _atom_site_type_symbol
 _atom_site_label
 _atom_site_symmetry_multiplicity
 _atom_site_fract_x
 _atom_site_fract_y
 _atom_site_fract_z
 _atom_site_occupancy
  Tb  Tb0  1  0.069522  0.930477  0.750001  1
  Yb  Yb1  1  0.931724  0.068275  0.250001  1
  Sn  Sn2  1  0.643130  0.356869  0.045069  1
  Sn  Sn3  1  0.643130  0.356869  0.454931  1
  Sn  Sn4  1  0.357314  0.642685  0.544932  1
  Sn  Sn5  1  0.357314  0.642685  0.955068  1
  Ru  Ru6  1  0.210229  0.789771  0.250001  1
  Ru  Ru7  1  0.787635  0.212365  0.750001  1
