# generated using pymatgen
data_Tb17Sc3(SiBi2)4
_symmetry_space_group_name_H-M   'P 1'
_cell_length_a   12.01387596
_cell_length_b   9.16128300
_cell_length_c   8.00481905
_cell_angle_alpha   90.00000000
_cell_angle_beta   89.81878222
_cell_angle_gamma   90.00000000
_symmetry_Int_Tables_number   1
_chemical_formula_structural   Tb17Sc3(SiBi2)4
_chemical_formula_sum   'Tb17 Sc3 Si4 Bi8'
_cell_volume   881.02613098
_cell_formula_units_Z   1
loop_
 _symmetry_equiv_pos_site_id
 _symmetry_equiv_pos_as_xyz
  1  'x, y, z'
loop_
 _atom_site_type_symbol
 _atom_site_label
 _atom_site_symmetry_multiplicity
 _atom_site_fract_x
 _atom_site_fract_y
 _atom_site_fract_z
 _atom_site_occupancy
  Tb  Tb0  1  0.062376  0.551795  0.816486  1
  Tb  Tb1  1  0.564764  0.946052  0.681305  1
  Tb  Tb2  1  0.937454  0.051471  0.183609  1
  Tb  Tb3  1  0.434815  0.450086  0.318204  1
  Tb  Tb4  1  0.937454  0.448529  0.183609  1
  Tb  Tb5  1  0.434815  0.049914  0.318204  1
  Tb  Tb6  1  0.062376  0.948205  0.816486  1
  Tb  Tb7  1  0.564764  0.553948  0.681305  1
  Tb  Tb8  1  0.499202  0.250000  0.958382  1
  Tb  Tb9  1  0.211699  0.750000  0.168739  1
  Tb  Tb10  1  0.714519  0.750000  0.334959  1
  Tb  Tb11  1  0.788998  0.250000  0.833543  1
  Tb  Tb12  1  0.284263  0.250000  0.667212  1
  Tb  Tb13  1  0.292838  0.750000  0.633279  1
  Tb  Tb14  1  0.795023  0.750000  0.863979  1
  Tb  Tb15  1  0.707428  0.250000  0.364792  1
  Tb  Tb16  1  0.205258  0.250000  0.136244  1
  Sc  Sc17  1  0.000953  0.750000  0.456415  1
  Sc  Sc18  1  0.501045  0.750000  0.043334  1
  Sc  Sc19  1  0.999071  0.250000  0.543177  1
  Si  Si20  1  0.479107  0.750000  0.408502  1
  Si  Si21  1  0.978487  0.750000  0.091964  1
  Si  Si22  1  0.520464  0.250000  0.584187  1
  Si  Si23  1  0.022392  0.250000  0.907443  1
  Bi  Bi24  1  0.329222  0.515838  0.932214  1
  Bi  Bi25  1  0.833384  0.988403  0.567330  1
  Bi  Bi26  1  0.671152  0.007225  0.069666  1
  Bi  Bi27  1  0.166459  0.488567  0.433109  1
  Bi  Bi28  1  0.671152  0.492775  0.069666  1
  Bi  Bi29  1  0.166459  0.011433  0.433109  1
  Bi  Bi30  1  0.329222  0.984162  0.932214  1
  Bi  Bi31  1  0.833384  0.511597  0.567330  1
