# generated using pymatgen
data_Pr9NdSi5Pt
_symmetry_space_group_name_H-M   'P 1'
_cell_length_a   7.74483985
_cell_length_b   7.74484071
_cell_length_c   9.10336148
_cell_angle_alpha   115.17494150
_cell_angle_beta   115.17494063
_cell_angle_gamma   90.00000429
_symmetry_Int_Tables_number   1
_chemical_formula_structural   Pr9NdSi5Pt
_chemical_formula_sum   'Pr9 Nd1 Si5 Pt1'
_cell_volume   436.18458238
_cell_formula_units_Z   1
loop_
 _symmetry_equiv_pos_site_id
 _symmetry_equiv_pos_as_xyz
  1  'x, y, z'
loop_
 _atom_site_type_symbol
 _atom_site_label
 _atom_site_symmetry_multiplicity
 _atom_site_fract_x
 _atom_site_fract_y
 _atom_site_fract_z
 _atom_site_occupancy
  Pr  Pr0  1  0.027238  0.027238  0.054477  1
  Pr  Pr1  1  0.953863  0.809753  0.286055  1
  Pr  Pr2  1  0.332193  0.476301  0.286055  1
  Pr  Pr3  1  0.809753  0.332193  0.286055  1
  Pr  Pr4  1  0.476301  0.953863  0.286055  1
  Pr  Pr5  1  0.023848  0.167894  0.713911  1
  Pr  Pr6  1  0.690063  0.546017  0.713911  1
  Pr  Pr7  1  0.167894  0.690063  0.713911  1
  Pr  Pr8  1  0.546017  0.023848  0.713911  1
  Nd  Nd9  1  0.472950  0.472950  0.945899  1
  Si  Si10  1  0.250224  0.250224  0.500447  1
  Si  Si11  1  0.614229  0.885196  0.999853  1
  Si  Si12  1  0.385624  0.114657  0.999853  1
  Si  Si13  1  0.885196  0.385624  0.999853  1
  Si  Si14  1  0.114657  0.614229  0.999853  1
  Pt  Pt15  1  0.749950  0.749950  0.499901  1
