# generated using pymatgen
data_KNdTaH9
_symmetry_space_group_name_H-M   'P 1'
_cell_length_a   8.93004400
_cell_length_b   8.93004267
_cell_length_c   5.32782800
_cell_angle_alpha   90.00000000
_cell_angle_beta   90.00000000
_cell_angle_gamma   119.99999753
_symmetry_Int_Tables_number   1
_chemical_formula_structural   KNdTaH9
_chemical_formula_sum   'K3 Nd3 Ta3 H27'
_cell_volume   367.94929161
_cell_formula_units_Z   3
loop_
 _symmetry_equiv_pos_site_id
 _symmetry_equiv_pos_as_xyz
  1  'x, y, z'
loop_
 _atom_site_type_symbol
 _atom_site_label
 _atom_site_symmetry_multiplicity
 _atom_site_fract_x
 _atom_site_fract_y
 _atom_site_fract_z
 _atom_site_occupancy
  K  K0  1  0.000000  0.602598  0.000000  1
  K  K1  1  0.397402  0.397402  0.000000  1
  K  K2  1  0.602598  0.000000  0.000000  1
  Nd  Nd3  1  0.000000  0.273206  0.500000  1
  Nd  Nd4  1  0.726794  0.726794  0.500000  1
  Nd  Nd5  1  0.273206  0.000000  0.500000  1
  Ta  Ta6  1  0.666667  0.333333  0.500000  1
  Ta  Ta7  1  0.333333  0.666667  0.500000  1
  Ta  Ta8  1  0.000000  0.000000  0.000000  1
  H  H9  1  0.817583  0.330970  0.742252  1
  H  H10  1  0.669030  0.486611  0.742252  1
  H  H11  1  0.513389  0.182417  0.742252  1
  H  H12  1  0.182417  0.513389  0.257748  1
  H  H13  1  0.513389  0.182417  0.257748  1
  H  H14  1  0.817583  0.330970  0.257748  1
  H  H15  1  0.669030  0.486611  0.257748  1
  H  H16  1  0.330970  0.817583  0.742252  1
  H  H17  1  0.486611  0.669030  0.742252  1
  H  H18  1  0.207609  0.000000  0.000000  1
  H  H19  1  0.792391  0.792391  0.000000  1
  H  H20  1  0.000000  0.207609  0.000000  1
  H  H21  1  0.856625  0.000000  0.258155  1
  H  H22  1  0.143375  0.143375  0.741845  1
  H  H23  1  0.000000  0.856625  0.741845  1
  H  H24  1  0.000000  0.856625  0.258155  1
  H  H25  1  0.143375  0.143375  0.258155  1
  H  H26  1  0.856625  0.000000  0.741845  1
  H  H27  1  0.136519  0.683659  0.500000  1
  H  H28  1  0.547140  0.863481  0.500000  1
  H  H29  1  0.316341  0.452860  0.500000  1
  H  H30  1  0.452860  0.316341  0.500000  1
  H  H31  1  0.863481  0.547140  0.500000  1
  H  H32  1  0.683659  0.136519  0.500000  1
  H  H33  1  0.182417  0.513389  0.742252  1
  H  H34  1  0.330970  0.817583  0.257748  1
  H  H35  1  0.486611  0.669030  0.257748  1
