# generated using pymatgen
data_DyZnInRh2
_symmetry_space_group_name_H-M   'P 1'
_cell_length_a   5.38727827
_cell_length_b   5.38727788
_cell_length_c   5.38727800
_cell_angle_alpha   136.57326433
_cell_angle_beta   114.56817092
_cell_angle_gamma   81.83468637
_symmetry_Int_Tables_number   1
_chemical_formula_structural   DyZnInRh2
_chemical_formula_sum   'Dy1 Zn1 In1 Rh2'
_cell_volume   94.49865218
_cell_formula_units_Z   1
loop_
 _symmetry_equiv_pos_site_id
 _symmetry_equiv_pos_as_xyz
  1  'x, y, z'
loop_
 _atom_site_type_symbol
 _atom_site_label
 _atom_site_symmetry_multiplicity
 _atom_site_fract_x
 _atom_site_fract_y
 _atom_site_fract_z
 _atom_site_occupancy
  Dy  Dy0  1  0.302394  0.802395  0.500001  1
  Zn  Zn1  1  0.981405  0.981405  0.000000  1
  In  In2  1  0.704082  0.204082  0.500000  1
  Rh  Rh3  1  0.741418  0.506059  0.235358  1
  Rh  Rh4  1  0.270700  0.506061  0.764642  1
