# generated using pymatgen
data_YHoFeCoI
_symmetry_space_group_name_H-M   'P 1'
_cell_length_a   3.96472100
_cell_length_b   3.96472066
_cell_length_c   17.10434400
_cell_angle_alpha   90.00000000
_cell_angle_beta   90.00000000
_cell_angle_gamma   119.99999450
_symmetry_Int_Tables_number   1
_chemical_formula_structural   YHoFeCoI
_chemical_formula_sum   'Y2 Ho2 Fe2 Co2 I2'
_cell_volume   232.84252655
_cell_formula_units_Z   2
loop_
 _symmetry_equiv_pos_site_id
 _symmetry_equiv_pos_as_xyz
  1  'x, y, z'
loop_
 _atom_site_type_symbol
 _atom_site_label
 _atom_site_symmetry_multiplicity
 _atom_site_fract_x
 _atom_site_fract_y
 _atom_site_fract_z
 _atom_site_occupancy
  Y  Y0  1  0.000000  0.000000  0.103025  1
  Y  Y1  1  0.000000  0.000000  0.896975  1
  Ho  Ho2  1  0.000000  0.000000  0.603313  1
  Ho  Ho3  1  0.000000  0.000000  0.396687  1
  Fe  Fe4  1  0.333333  0.666667  0.505289  1
  Fe  Fe5  1  0.666667  0.333333  0.494711  1
  Co  Co6  1  0.666667  0.333333  0.001940  1
  Co  Co7  1  0.333333  0.666667  0.998060  1
  I  I8  1  0.333333  0.666667  0.247651  1
  I  I9  1  0.666667  0.333333  0.752349  1
