# generated using pymatgen
data_Lu20Co4Bi7Pb
_symmetry_space_group_name_H-M   'P 1'
_cell_length_a   7.84932056
_cell_length_b   8.83526143
_cell_length_c   12.22433300
_cell_angle_alpha   89.93960612
_cell_angle_beta   90.06817695
_cell_angle_gamma   89.98047451
_symmetry_Int_Tables_number   1
_chemical_formula_structural   Lu20Co4Bi7Pb
_chemical_formula_sum   'Lu20 Co4 Bi7 Pb1'
_cell_volume   847.76614165
_cell_formula_units_Z   1
loop_
 _symmetry_equiv_pos_site_id
 _symmetry_equiv_pos_as_xyz
  1  'x, y, z'
loop_
 _atom_site_type_symbol
 _atom_site_label
 _atom_site_symmetry_multiplicity
 _atom_site_fract_x
 _atom_site_fract_y
 _atom_site_fract_z
 _atom_site_occupancy
  Lu  Lu0  1  0.349740  0.747719  0.700371  1
  Lu  Lu1  1  0.651709  0.249540  0.300553  1
  Lu  Lu2  1  0.845275  0.251571  0.799362  1
  Lu  Lu3  1  0.152543  0.749688  0.199118  1
  Lu  Lu4  1  0.883924  0.748140  0.814340  1
  Lu  Lu5  1  0.112218  0.250530  0.185811  1
  Lu  Lu6  1  0.390894  0.252208  0.686572  1
  Lu  Lu7  1  0.611953  0.749896  0.314618  1
  Lu  Lu8  1  0.672013  0.538095  0.565657  1
  Lu  Lu9  1  0.327768  0.462790  0.436714  1
  Lu  Lu10  1  0.174562  0.463581  0.936511  1
  Lu  Lu11  1  0.327373  0.038058  0.437191  1
  Lu  Lu12  1  0.826886  0.538260  0.062263  1
  Lu  Lu13  1  0.673291  0.960829  0.563081  1
  Lu  Lu14  1  0.826885  0.962027  0.063153  1
  Lu  Lu15  1  0.172104  0.037824  0.936578  1
  Lu  Lu16  1  0.059048  0.750340  0.497485  1
  Lu  Lu17  1  0.941714  0.249541  0.502660  1
  Lu  Lu18  1  0.557713  0.252138  0.001496  1
  Lu  Lu19  1  0.443717  0.747817  0.995807  1
  Co  Co20  1  0.065406  0.750809  0.992713  1
  Co  Co21  1  0.933749  0.250158  0.007190  1
  Co  Co22  1  0.567202  0.249943  0.507205  1
  Co  Co23  1  0.432531  0.750323  0.492342  1
  Bi  Bi24  1  0.430293  0.490744  0.173316  1
  Bi  Bi25  1  0.070180  0.490637  0.672129  1
  Bi  Bi26  1  0.430014  0.008964  0.171660  1
  Bi  Bi27  1  0.930348  0.509002  0.328001  1
  Bi  Bi28  1  0.569059  0.991551  0.827710  1
  Bi  Bi29  1  0.930983  0.990993  0.327215  1
  Bi  Bi30  1  0.069252  0.008661  0.673114  1
  Pb  Pb31  1  0.569650  0.507626  0.828068  1
