# generated using pymatgen
data_CaU3(PO5)4
_symmetry_space_group_name_H-M   'P 1'
_cell_length_a   5.50313399
_cell_length_b   8.77022452
_cell_length_c   9.33740193
_cell_angle_alpha   100.61314696
_cell_angle_beta   104.34519353
_cell_angle_gamma   96.81829956
_symmetry_Int_Tables_number   1
_chemical_formula_structural   CaU3(PO5)4
_chemical_formula_sum   'Ca1 U3 P4 O20'
_cell_volume   422.69740097
_cell_formula_units_Z   1
loop_
 _symmetry_equiv_pos_site_id
 _symmetry_equiv_pos_as_xyz
  1  'x, y, z'
loop_
 _atom_site_type_symbol
 _atom_site_label
 _atom_site_symmetry_multiplicity
 _atom_site_fract_x
 _atom_site_fract_y
 _atom_site_fract_z
 _atom_site_occupancy
  Ca  Ca0  1  0.344618  0.283622  0.038639  1
  U  U1  1  0.640139  0.704577  0.955027  1
  U  U2  1  0.336377  0.800131  0.550089  1
  U  U3  1  0.658330  0.203245  0.444669  1
  P  P4  1  0.086618  0.522427  0.770597  1
  P  P5  1  0.913265  0.487322  0.239821  1
  P  P6  1  0.277346  0.923348  0.178349  1
  P  P7  1  0.742764  0.072940  0.820419  1
  O  O8  1  0.027420  0.103415  0.874871  1
  O  O9  1  0.991140  0.855327  0.100400  1
  O  O10  1  0.968160  0.385205  0.638093  1
  O  O11  1  0.026960  0.626248  0.375465  1
  O  O12  1  0.711592  0.372014  0.274298  1
  O  O13  1  0.251543  0.662166  0.737880  1
  O  O14  1  0.423844  0.822624  0.078751  1
  O  O15  1  0.602578  0.176849  0.904846  1
  O  O16  1  0.421446  0.301932  0.502042  1
  O  O17  1  0.571057  0.679764  0.524111  1
  O  O18  1  0.867274  0.587396  0.833858  1
  O  O19  1  0.100253  0.415688  0.168770  1
  O  O20  1  0.292079  0.487673  0.902672  1
  O  O21  1  0.738616  0.567142  0.110070  1
  O  O22  1  0.887177  0.101808  0.380242  1
  O  O23  1  0.106706  0.917576  0.588712  1
  O  O24  1  0.368357  0.905467  0.341998  1
  O  O25  1  0.640917  0.049191  0.643030  1
  O  O26  1  0.353918  0.097594  0.186234  1
  O  O27  1  0.649505  0.887309  0.836048  1
