# generated using pymatgen
data_Tm8CdIn(HgAu4)2
_symmetry_space_group_name_H-M   'P 1'
_cell_length_a   7.92329100
_cell_length_b   7.92329100
_cell_length_c   7.32040600
_cell_angle_alpha   90.00000000
_cell_angle_beta   90.00000000
_cell_angle_gamma   90.00000000
_symmetry_Int_Tables_number   1
_chemical_formula_structural   Tm8CdIn(HgAu4)2
_chemical_formula_sum   'Tm8 Cd1 In1 Hg2 Au8'
_cell_volume   459.56440287
_cell_formula_units_Z   1
loop_
 _symmetry_equiv_pos_site_id
 _symmetry_equiv_pos_as_xyz
  1  'x, y, z'
loop_
 _atom_site_type_symbol
 _atom_site_label
 _atom_site_symmetry_multiplicity
 _atom_site_fract_x
 _atom_site_fract_y
 _atom_site_fract_z
 _atom_site_occupancy
  Tm  Tm0  1  0.836591  0.155660  0.500048  1
  Tm  Tm1  1  0.163409  0.844340  0.500048  1
  Tm  Tm2  1  0.344340  0.336591  0.999952  1
  Tm  Tm3  1  0.655660  0.663409  0.999952  1
  Tm  Tm4  1  0.677129  0.687488  0.500155  1
  Tm  Tm5  1  0.322871  0.312512  0.500155  1
  Tm  Tm6  1  0.187488  0.822871  0.999845  1
  Tm  Tm7  1  0.812512  0.177129  0.999845  1
  Cd  Cd8  1  0.000000  0.500000  0.750000  1
  In  In9  1  0.000000  0.500000  0.250000  1
  Hg  Hg10  1  0.500000  0.000000  0.250000  1
  Hg  Hg11  1  0.500000  0.000000  0.750000  1
  Au  Au12  1  0.631904  0.375044  0.272922  1
  Au  Au13  1  0.368096  0.624956  0.272922  1
  Au  Au14  1  0.124394  0.132449  0.772471  1
  Au  Au15  1  0.875606  0.867551  0.772471  1
  Au  Au16  1  0.367551  0.624394  0.727529  1
  Au  Au17  1  0.632449  0.375606  0.727529  1
  Au  Au18  1  0.875044  0.868096  0.227078  1
  Au  Au19  1  0.124956  0.131904  0.227078  1
