# generated using pymatgen
data_Sc12CoCu2Si12Rh
_symmetry_space_group_name_H-M   'P 1'
_cell_length_a   4.03075900
_cell_length_b   10.14740105
_cell_length_c   11.68886870
_cell_angle_alpha   89.76130023
_cell_angle_beta   90.00000000
_cell_angle_gamma   90.00000000
_symmetry_Int_Tables_number   1
_chemical_formula_structural   Sc12CoCu2Si12Rh
_chemical_formula_sum   'Sc12 Co1 Cu2 Si12 Rh1'
_cell_volume   478.09078038
_cell_formula_units_Z   1
loop_
 _symmetry_equiv_pos_site_id
 _symmetry_equiv_pos_as_xyz
  1  'x, y, z'
loop_
 _atom_site_type_symbol
 _atom_site_label
 _atom_site_symmetry_multiplicity
 _atom_site_fract_x
 _atom_site_fract_y
 _atom_site_fract_z
 _atom_site_occupancy
  Sc  Sc0  1  0.250000  0.877062  0.024032  1
  Sc  Sc1  1  0.250000  0.621458  0.523189  1
  Sc  Sc2  1  0.750000  0.123833  0.976699  1
  Sc  Sc3  1  0.750000  0.380492  0.472266  1
  Sc  Sc4  1  0.250000  0.918903  0.599496  1
  Sc  Sc5  1  0.250000  0.580018  0.099477  1
  Sc  Sc6  1  0.750000  0.079539  0.400329  1
  Sc  Sc7  1  0.750000  0.421522  0.902804  1
  Sc  Sc8  1  0.250000  0.659342  0.801733  1
  Sc  Sc9  1  0.250000  0.833763  0.301526  1
  Sc  Sc10  1  0.750000  0.345143  0.200238  1
  Sc  Sc11  1  0.750000  0.161580  0.699012  1
  Co  Co12  1  0.750000  0.610543  0.320551  1
  Cu  Cu13  1  0.250000  0.386944  0.676706  1
  Cu  Cu14  1  0.250000  0.112439  0.179168  1
  Si  Si15  1  0.250000  0.014030  0.824380  1
  Si  Si16  1  0.250000  0.496449  0.323306  1
  Si  Si17  1  0.750000  0.983726  0.177335  1
  Si  Si18  1  0.750000  0.512455  0.676556  1
  Si  Si19  1  0.250000  0.248965  0.843982  1
  Si  Si20  1  0.250000  0.254965  0.342869  1
  Si  Si21  1  0.750000  0.745925  0.162543  1
  Si  Si22  1  0.750000  0.747599  0.657612  1
  Si  Si23  1  0.250000  0.188386  0.540767  1
  Si  Si24  1  0.250000  0.311948  0.042589  1
  Si  Si25  1  0.750000  0.797797  0.453505  1
  Si  Si26  1  0.750000  0.696448  0.957570  1
  Rh  Rh27  1  0.750000  0.888724  0.819764  1
