# generated using pymatgen
data_Ac2ThZnAg2Sn3
_symmetry_space_group_name_H-M   'P 1'
_cell_length_a   4.77590000
_cell_length_b   4.77589887
_cell_length_c   12.89878700
_cell_angle_alpha   90.00000000
_cell_angle_beta   90.00000000
_cell_angle_gamma   119.99999396
_symmetry_Int_Tables_number   1
_chemical_formula_structural   Ac2ThZnAg2Sn3
_chemical_formula_sum   'Ac2 Th1 Zn1 Ag2 Sn3'
_cell_volume   254.79439859
_cell_formula_units_Z   1
loop_
 _symmetry_equiv_pos_site_id
 _symmetry_equiv_pos_as_xyz
  1  'x, y, z'
loop_
 _atom_site_type_symbol
 _atom_site_label
 _atom_site_symmetry_multiplicity
 _atom_site_fract_x
 _atom_site_fract_y
 _atom_site_fract_z
 _atom_site_occupancy
  Ac  Ac0  1  0.666667  0.333333  0.828648  1
  Ac  Ac1  1  0.666667  0.333333  0.170495  1
  Th  Th2  1  0.666667  0.333333  0.496766  1
  Zn  Zn3  1  0.000000  0.000000  0.610480  1
  Ag  Ag4  1  0.333333  0.666667  0.999340  1
  Ag  Ag5  1  0.000000  0.000000  0.378427  1
  Sn  Sn6  1  0.333333  0.666667  0.665464  1
  Sn  Sn7  1  0.333333  0.666667  0.331141  1
  Sn  Sn8  1  0.000000  0.000000  0.997139  1
