# generated using pymatgen
data_Tm2LuAl3NiAu2
_symmetry_space_group_name_H-M   'P 1'
_cell_length_a   7.17613921
_cell_length_b   7.18590228
_cell_length_c   3.93353600
_cell_angle_alpha   90.00000000
_cell_angle_beta   90.00000000
_cell_angle_gamma   120.04500571
_symmetry_Int_Tables_number   1
_chemical_formula_structural   Tm2LuAl3NiAu2
_chemical_formula_sum   'Tm2 Lu1 Al3 Ni1 Au2'
_cell_volume   175.58555654
_cell_formula_units_Z   1
loop_
 _symmetry_equiv_pos_site_id
 _symmetry_equiv_pos_as_xyz
  1  'x, y, z'
loop_
 _atom_site_type_symbol
 _atom_site_label
 _atom_site_symmetry_multiplicity
 _atom_site_fract_x
 _atom_site_fract_y
 _atom_site_fract_z
 _atom_site_occupancy
  Tm  Tm0  1  0.403994  0.403578  0.500000  1
  Tm  Tm1  1  0.596006  0.999584  0.500000  1
  Lu  Lu2  1  0.000000  0.597438  0.500000  1
  Al  Al3  1  0.771564  0.771118  0.000000  1
  Al  Al4  1  0.228436  0.999554  0.000000  1
  Al  Al5  1  0.000000  0.228507  0.000000  1
  Ni  Ni6  1  0.000000  0.000496  0.500000  1
  Au  Au7  1  0.669314  0.334519  0.000000  1
  Au  Au8  1  0.330686  0.665206  0.000000  1
