# generated using pymatgen
data_HfBe9NbRe
_symmetry_space_group_name_H-M   'P 1'
_cell_length_a   7.52905139
_cell_length_b   7.52905288
_cell_length_c   7.52905200
_cell_angle_alpha   34.78524726
_cell_angle_beta   34.78523103
_cell_angle_gamma   34.78523160
_symmetry_Int_Tables_number   1
_chemical_formula_structural   HfBe9NbRe
_chemical_formula_sum   'Hf1 Be9 Nb1 Re1'
_cell_volume   123.98515785
_cell_formula_units_Z   1
loop_
 _symmetry_equiv_pos_site_id
 _symmetry_equiv_pos_as_xyz
  1  'x, y, z'
loop_
 _atom_site_type_symbol
 _atom_site_label
 _atom_site_symmetry_multiplicity
 _atom_site_fract_x
 _atom_site_fract_y
 _atom_site_fract_z
 _atom_site_occupancy
  Hf  Hf0  1  0.998213  0.998213  0.998213  1
  Be  Be1  1  0.415599  0.918827  0.415599  1
  Be  Be2  1  0.415599  0.415599  0.918827  1
  Be  Be3  1  0.918827  0.415599  0.415599  1
  Be  Be4  1  0.586172  0.077117  0.586172  1
  Be  Be5  1  0.586172  0.586172  0.077117  1
  Be  Be6  1  0.077117  0.586172  0.586172  1
  Be  Be7  1  0.666815  0.666815  0.666815  1
  Be  Be8  1  0.334566  0.334566  0.334566  1
  Be  Be9  1  0.500391  0.500391  0.500391  1
  Nb  Nb10  1  0.144104  0.144104  0.144104  1
  Re  Re11  1  0.856425  0.856425  0.856425  1
