# generated using pymatgen
data_TbHo5ScVO12
_symmetry_space_group_name_H-M   'P 1'
_cell_length_a   6.55604022
_cell_length_b   6.55124306
_cell_length_c   6.55403699
_cell_angle_alpha   92.63833942
_cell_angle_beta   92.59395573
_cell_angle_gamma   92.61771868
_symmetry_Int_Tables_number   1
_chemical_formula_structural   TbHo5ScVO12
_chemical_formula_sum   'Tb1 Ho5 Sc1 V1 O12'
_cell_volume   280.58892438
_cell_formula_units_Z   1
loop_
 _symmetry_equiv_pos_site_id
 _symmetry_equiv_pos_as_xyz
  1  'x, y, z'
loop_
 _atom_site_type_symbol
 _atom_site_label
 _atom_site_symmetry_multiplicity
 _atom_site_fract_x
 _atom_site_fract_y
 _atom_site_fract_z
 _atom_site_occupancy
  Tb  Tb0  1  0.743266  0.927454  0.435996  1
  Ho  Ho1  1  0.927742  0.436485  0.743974  1
  Ho  Ho2  1  0.435589  0.743420  0.927592  1
  Ho  Ho3  1  0.256420  0.073045  0.564259  1
  Ho  Ho4  1  0.073129  0.563267  0.256600  1
  Ho  Ho5  1  0.563735  0.257022  0.072038  1
  Sc  Sc6  1  0.000700  0.000324  0.000202  1
  V  V7  1  0.499411  0.499550  0.500249  1
  O  O8  1  0.590313  0.461637  0.802342  1
  O  O9  1  0.459269  0.801019  0.590956  1
  O  O10  1  0.802255  0.587489  0.461516  1
  O  O11  1  0.409836  0.538716  0.197683  1
  O  O12  1  0.536290  0.198996  0.409380  1
  O  O13  1  0.197651  0.409883  0.538451  1
  O  O14  1  0.070943  0.914166  0.307660  1
  O  O15  1  0.914403  0.308189  0.069433  1
  O  O16  1  0.692033  0.931591  0.082858  1
  O  O17  1  0.085387  0.691826  0.931037  1
  O  O18  1  0.933063  0.086928  0.693147  1
  O  O19  1  0.308565  0.068992  0.914628  1
