# generated using pymatgen
data_Tb2DySc3MnBi2
_symmetry_space_group_name_H-M   'P 1'
_cell_length_a   4.28304000
_cell_length_b   7.95963005
_cell_length_c   7.95943300
_cell_angle_alpha   120.00080378
_cell_angle_beta   90.00000000
_cell_angle_gamma   90.00000000
_symmetry_Int_Tables_number   1
_chemical_formula_structural   Tb2DySc3MnBi2
_chemical_formula_sum   'Tb2 Dy1 Sc3 Mn1 Bi2'
_cell_volume   234.99263923
_cell_formula_units_Z   1
loop_
 _symmetry_equiv_pos_site_id
 _symmetry_equiv_pos_as_xyz
  1  'x, y, z'
loop_
 _atom_site_type_symbol
 _atom_site_label
 _atom_site_symmetry_multiplicity
 _atom_site_fract_x
 _atom_site_fract_y
 _atom_site_fract_z
 _atom_site_occupancy
  Tb  Tb0  1  0.000000  0.389887  0.389858  1
  Tb  Tb1  1  0.000000  0.000029  0.610142  1
  Dy  Dy2  1  0.000000  0.610264  0.000000  1
  Sc  Sc3  1  0.500000  0.776411  0.776533  1
  Sc  Sc4  1  0.500000  0.999878  0.223467  1
  Sc  Sc5  1  0.500000  0.223598  0.000000  1
  Mn  Mn6  1  0.000000  0.999832  0.000000  1
  Bi  Bi7  1  0.500000  0.666631  0.333160  1
  Bi  Bi8  1  0.500000  0.333470  0.666840  1
