# generated using pymatgen
data_Rb4LaGdBr10
_symmetry_space_group_name_H-M   'P 1'
_cell_length_a   8.76967303
_cell_length_b   9.34174300
_cell_length_c   14.02791276
_cell_angle_alpha   90.00000000
_cell_angle_beta   90.76016485
_cell_angle_gamma   90.00000000
_symmetry_Int_Tables_number   1
_chemical_formula_structural   Rb4LaGdBr10
_chemical_formula_sum   'Rb8 La2 Gd2 Br20'
_cell_volume   1149.12202465
_cell_formula_units_Z   2
loop_
 _symmetry_equiv_pos_site_id
 _symmetry_equiv_pos_as_xyz
  1  'x, y, z'
loop_
 _atom_site_type_symbol
 _atom_site_label
 _atom_site_symmetry_multiplicity
 _atom_site_fract_x
 _atom_site_fract_y
 _atom_site_fract_z
 _atom_site_occupancy
  Rb  Rb0  1  0.946244  0.004139  0.825346  1
  Rb  Rb1  1  0.053756  0.995861  0.174654  1
  Rb  Rb2  1  0.445152  0.995645  0.670118  1
  Rb  Rb3  1  0.053756  0.504139  0.174654  1
  Rb  Rb4  1  0.554848  0.004355  0.329882  1
  Rb  Rb5  1  0.946244  0.495861  0.825346  1
  Rb  Rb6  1  0.554848  0.495645  0.329882  1
  Rb  Rb7  1  0.445152  0.504355  0.670118  1
  La  La8  1  0.425166  0.250000  0.995189  1
  La  La9  1  0.574834  0.750000  0.004811  1
  Gd  Gd10  1  0.928685  0.750000  0.503167  1
  Gd  Gd11  1  0.071315  0.250000  0.496833  1
  Br  Br12  1  0.117034  0.750000  0.671790  1
  Br  Br13  1  0.882966  0.250000  0.328210  1
  Br  Br14  1  0.623622  0.250000  0.823676  1
  Br  Br15  1  0.376378  0.750000  0.176324  1
  Br  Br16  1  0.841447  0.042777  0.570466  1
  Br  Br17  1  0.158553  0.957223  0.429534  1
  Br  Br18  1  0.334806  0.955628  0.922435  1
  Br  Br19  1  0.158553  0.542777  0.429534  1
  Br  Br20  1  0.665194  0.044372  0.077565  1
  Br  Br21  1  0.841447  0.457223  0.570466  1
  Br  Br22  1  0.665194  0.455628  0.077565  1
  Br  Br23  1  0.334806  0.544372  0.922435  1
  Br  Br24  1  0.596187  0.750000  0.511439  1
  Br  Br25  1  0.403813  0.250000  0.488561  1
  Br  Br26  1  0.082109  0.250000  0.990115  1
  Br  Br27  1  0.917891  0.750000  0.009885  1
  Br  Br28  1  0.658413  0.750000  0.799698  1
  Br  Br29  1  0.341587  0.250000  0.200302  1
  Br  Br30  1  0.156117  0.250000  0.695743  1
  Br  Br31  1  0.843883  0.750000  0.304257  1
