# generated using pymatgen
data_Tb8CoHg2Ir
_symmetry_space_group_name_H-M   'P 1'
_cell_length_a   9.56653486
_cell_length_b   9.56653420
_cell_length_c   9.60235100
_cell_angle_alpha   59.87606960
_cell_angle_beta   59.87607189
_cell_angle_gamma   59.81896517
_symmetry_Int_Tables_number   1
_chemical_formula_structural   Tb8CoHg2Ir
_chemical_formula_sum   'Tb16 Co2 Hg4 Ir2'
_cell_volume   619.38448232
_cell_formula_units_Z   2
loop_
 _symmetry_equiv_pos_site_id
 _symmetry_equiv_pos_as_xyz
  1  'x, y, z'
loop_
 _atom_site_type_symbol
 _atom_site_label
 _atom_site_symmetry_multiplicity
 _atom_site_fract_x
 _atom_site_fract_y
 _atom_site_fract_z
 _atom_site_occupancy
  Tb  Tb0  1  0.351441  0.351441  0.341439  1
  Tb  Tb1  1  0.351441  0.351441  0.955680  1
  Tb  Tb2  1  0.356771  0.949310  0.346959  1
  Tb  Tb3  1  0.949310  0.356771  0.346959  1
  Tb  Tb4  1  0.805229  0.187677  0.191341  1
  Tb  Tb5  1  0.187677  0.805229  0.815754  1
  Tb  Tb6  1  0.187677  0.805229  0.191341  1
  Tb  Tb7  1  0.805229  0.187677  0.815754  1
  Tb  Tb8  1  0.190335  0.190335  0.809665  1
  Tb  Tb9  1  0.810483  0.810483  0.189517  1
  Tb  Tb10  1  0.939442  0.559792  0.563082  1
  Tb  Tb11  1  0.559792  0.939442  0.937684  1
  Tb  Tb12  1  0.559792  0.939442  0.563082  1
  Tb  Tb13  1  0.939442  0.559792  0.937684  1
  Tb  Tb14  1  0.563633  0.563633  0.936367  1
  Tb  Tb15  1  0.940468  0.940468  0.559532  1
  Co  Co16  1  0.142067  0.577768  0.140082  1
  Co  Co17  1  0.577768  0.142067  0.140082  1
  Hg  Hg18  1  0.583664  0.583664  0.585791  1
  Hg  Hg19  1  0.583664  0.583664  0.246881  1
  Hg  Hg20  1  0.583759  0.246363  0.584938  1
  Hg  Hg21  1  0.246363  0.583759  0.584938  1
  Ir  Ir22  1  0.142277  0.142277  0.140921  1
  Ir  Ir23  1  0.142277  0.142277  0.574526  1
