# generated using pymatgen
data_Y4Mn3Co8(P4Ir3)3
_symmetry_space_group_name_H-M   'P 1'
_cell_length_a   3.80973900
_cell_length_b   10.57960123
_cell_length_c   12.29563635
_cell_angle_alpha   89.76131847
_cell_angle_beta   90.00000000
_cell_angle_gamma   90.00000000
_symmetry_Int_Tables_number   1
_chemical_formula_structural   Y4Mn3Co8(P4Ir3)3
_chemical_formula_sum   'Y4 Mn3 Co8 P12 Ir9'
_cell_volume   495.57770939
_cell_formula_units_Z   1
loop_
 _symmetry_equiv_pos_site_id
 _symmetry_equiv_pos_as_xyz
  1  'x, y, z'
loop_
 _atom_site_type_symbol
 _atom_site_label
 _atom_site_symmetry_multiplicity
 _atom_site_fract_x
 _atom_site_fract_y
 _atom_site_fract_z
 _atom_site_occupancy
  Y  Y0  1  0.250000  0.920152  0.211257  1
  Y  Y1  1  0.750000  0.083431  0.787696  1
  Y  Y2  1  0.750000  0.417288  0.289109  1
  Y  Y3  1  0.250000  0.581325  0.709700  1
  Mn  Mn4  1  0.250000  0.792805  0.488331  1
  Mn  Mn5  1  0.750000  0.207419  0.512319  1
  Mn  Mn6  1  0.750000  0.285102  0.014243  1
  Co  Co7  1  0.250000  0.613250  0.194836  1
  Co  Co8  1  0.750000  0.382085  0.805952  1
  Co  Co9  1  0.750000  0.117006  0.306813  1
  Co  Co10  1  0.250000  0.881799  0.695387  1
  Co  Co11  1  0.250000  0.035079  0.435611  1
  Co  Co12  1  0.750000  0.963298  0.565467  1
  Co  Co13  1  0.750000  0.536986  0.063468  1
  Co  Co14  1  0.250000  0.465119  0.934757  1
  P  P15  1  0.250000  0.070137  0.610383  1
  P  P16  1  0.750000  0.929713  0.389942  1
  P  P17  1  0.750000  0.566977  0.887244  1
  P  P18  1  0.250000  0.428213  0.109128  1
  P  P19  1  0.250000  0.225201  0.369216  1
  P  P20  1  0.750000  0.773524  0.631403  1
  P  P21  1  0.750000  0.725726  0.131369  1
  P  P22  1  0.250000  0.275022  0.869944  1
  P  P23  1  0.250000  0.903523  0.879415  1
  P  P24  1  0.750000  0.103065  0.118492  1
  P  P25  1  0.750000  0.400013  0.618553  1
  P  P26  1  0.250000  0.598531  0.380700  1
  Ir  Ir27  1  0.250000  0.716413  0.988888  1
  Ir  Ir28  1  0.250000  0.094749  0.977623  1
  Ir  Ir29  1  0.750000  0.908218  0.023751  1
  Ir  Ir30  1  0.750000  0.595749  0.521613  1
  Ir  Ir31  1  0.250000  0.404426  0.477454  1
  Ir  Ir32  1  0.250000  0.274364  0.678813  1
  Ir  Ir33  1  0.750000  0.725114  0.320272  1
  Ir  Ir34  1  0.750000  0.773488  0.822285  1
  Ir  Ir35  1  0.250000  0.225690  0.178569  1
