# generated using pymatgen
data_Dy12Co4IrPb
_symmetry_space_group_name_H-M   'P 1'
_cell_length_a   8.33067131
_cell_length_b   8.33051942
_cell_length_c   8.33067305
_cell_angle_alpha   111.08203724
_cell_angle_beta   110.42255316
_cell_angle_gamma   106.93979371
_symmetry_Int_Tables_number   1
_chemical_formula_structural   Dy12Co4IrPb
_chemical_formula_sum   'Dy12 Co4 Ir1 Pb1'
_cell_volume   444.38402511
_cell_formula_units_Z   1
loop_
 _symmetry_equiv_pos_site_id
 _symmetry_equiv_pos_as_xyz
  1  'x, y, z'
loop_
 _atom_site_type_symbol
 _atom_site_label
 _atom_site_symmetry_multiplicity
 _atom_site_fract_x
 _atom_site_fract_y
 _atom_site_fract_z
 _atom_site_occupancy
  Dy  Dy0  1  0.409251  0.213403  0.195834  1
  Dy  Dy1  1  0.590749  0.786597  0.804166  1
  Dy  Dy2  1  0.017568  0.213403  0.804151  1
  Dy  Dy3  1  0.982432  0.786597  0.195849  1
  Dy  Dy4  1  0.182211  0.286582  0.468793  1
  Dy  Dy5  1  0.817789  0.713418  0.531207  1
  Dy  Dy6  1  0.182211  0.713418  0.895628  1
  Dy  Dy7  1  0.817789  0.286582  0.104372  1
  Dy  Dy8  1  0.314908  0.622582  0.307675  1
  Dy  Dy9  1  0.685092  0.377418  0.692325  1
  Dy  Dy10  1  0.314897  0.007237  0.692340  1
  Dy  Dy11  1  0.685103  0.992763  0.307660  1
  Co  Co12  1  0.376547  0.000000  0.376547  1
  Co  Co13  1  0.623453  0.000000  0.623453  1
  Co  Co14  1  0.111216  0.611221  0.500005  1
  Co  Co15  1  0.888784  0.388779  0.499995  1
  Ir  Ir16  1  0.000000  0.000000  0.000000  1
  Pb  Pb17  1  0.500000  0.500000  0.000000  1
