# generated using pymatgen
data_Tb3PaIn2(CuNi)2
_symmetry_space_group_name_H-M   'P 1'
_cell_length_a   7.50574686
_cell_length_b   7.58395085
_cell_length_c   3.61588200
_cell_angle_alpha   90.00000000
_cell_angle_beta   90.00000000
_cell_angle_gamma   91.86963526
_symmetry_Int_Tables_number   1
_chemical_formula_structural   Tb3PaIn2(CuNi)2
_chemical_formula_sum   'Tb3 Pa1 In2 Cu2 Ni2'
_cell_volume   205.71805632
_cell_formula_units_Z   1
loop_
 _symmetry_equiv_pos_site_id
 _symmetry_equiv_pos_as_xyz
  1  'x, y, z'
loop_
 _atom_site_type_symbol
 _atom_site_label
 _atom_site_symmetry_multiplicity
 _atom_site_fract_x
 _atom_site_fract_y
 _atom_site_fract_z
 _atom_site_occupancy
  Tb  Tb0  1  0.325718  0.835633  0.500000  1
  Tb  Tb1  1  0.174186  0.317278  0.500000  1
  Tb  Tb2  1  0.825652  0.665430  0.500000  1
  Pa  Pa3  1  0.668044  0.187159  0.500000  1
  In  In4  1  0.492638  0.508346  0.000000  1
  In  In5  1  0.999005  0.997823  0.000000  1
  Cu  Cu6  1  0.117013  0.611493  0.000000  1
  Cu  Cu7  1  0.628202  0.884205  0.000000  1
  Ni  Ni8  1  0.862341  0.360964  0.000000  1
  Ni  Ni9  1  0.407202  0.131669  0.000000  1
