# generated using pymatgen
data_La5Pr11(HgPd)4
_symmetry_space_group_name_H-M   'P 1'
_cell_length_a   10.10783448
_cell_length_b   10.12449826
_cell_length_c   10.12449765
_cell_angle_alpha   59.98623878
_cell_angle_beta   60.05442803
_cell_angle_gamma   60.05442932
_symmetry_Int_Tables_number   1
_chemical_formula_structural   La5Pr11(HgPd)4
_chemical_formula_sum   'La5 Pr11 Hg4 Pd4'
_cell_volume   733.16488528
_cell_formula_units_Z   1
loop_
 _symmetry_equiv_pos_site_id
 _symmetry_equiv_pos_as_xyz
  1  'x, y, z'
loop_
 _atom_site_type_symbol
 _atom_site_label
 _atom_site_symmetry_multiplicity
 _atom_site_fract_x
 _atom_site_fract_y
 _atom_site_fract_z
 _atom_site_occupancy
  La  La0  1  0.352698  0.353640  0.353640  1
  La  La1  1  0.353838  0.353905  0.938417  1
  La  La2  1  0.353838  0.938417  0.353905  1
  La  La3  1  0.940021  0.353640  0.353640  1
  La  La4  1  0.808145  0.191855  0.191855  1
  Pr  Pr5  1  0.192045  0.807955  0.807955  1
  Pr  Pr6  1  0.192703  0.807758  0.191902  1
  Pr  Pr7  1  0.807637  0.191902  0.807758  1
  Pr  Pr8  1  0.192703  0.191902  0.807758  1
  Pr  Pr9  1  0.807637  0.807758  0.191902  1
  Pr  Pr10  1  0.935387  0.564613  0.564613  1
  Pr  Pr11  1  0.564701  0.935299  0.935299  1
  Pr  Pr12  1  0.564460  0.935714  0.564715  1
  Pr  Pr13  1  0.935111  0.564715  0.935714  1
  Pr  Pr14  1  0.564460  0.564715  0.935714  1
  Pr  Pr15  1  0.935111  0.935714  0.564715  1
  Hg  Hg16  1  0.584867  0.584634  0.584634  1
  Hg  Hg17  1  0.584591  0.584977  0.245844  1
  Hg  Hg18  1  0.584591  0.245844  0.584977  1
  Hg  Hg19  1  0.245867  0.584634  0.584634  1
  Pd  Pd20  1  0.143259  0.144576  0.144576  1
  Pd  Pd21  1  0.144370  0.144044  0.567215  1
  Pd  Pd22  1  0.144370  0.567215  0.144044  1
  Pd  Pd23  1  0.567589  0.144576  0.144576  1
