# generated using pymatgen
data_Y4Tm8Co2Ni3Bi
_symmetry_space_group_name_H-M   'P 1'
_cell_length_a   8.28031922
_cell_length_b   8.28013606
_cell_length_c   8.28031849
_cell_angle_alpha   111.09377885
_cell_angle_beta   109.37923921
_cell_angle_gamma   107.95680617
_symmetry_Int_Tables_number   1
_chemical_formula_structural   Y4Tm8Co2Ni3Bi
_chemical_formula_sum   'Y4 Tm8 Co2 Ni3 Bi1'
_cell_volume   436.69467023
_cell_formula_units_Z   1
loop_
 _symmetry_equiv_pos_site_id
 _symmetry_equiv_pos_as_xyz
  1  'x, y, z'
loop_
 _atom_site_type_symbol
 _atom_site_label
 _atom_site_symmetry_multiplicity
 _atom_site_fract_x
 _atom_site_fract_y
 _atom_site_fract_z
 _atom_site_occupancy
  Y  Y0  1  0.816908  0.708957  0.525869  1
  Y  Y1  1  0.183092  0.291043  0.474131  1
  Y  Y2  1  0.183088  0.708957  0.892048  1
  Y  Y3  1  0.816912  0.291043  0.107952  1
  Tm  Tm4  1  0.684622  0.373333  0.688712  1
  Tm  Tm5  1  0.315378  0.626667  0.311288  1
  Tm  Tm6  1  0.684626  0.995912  0.311286  1
  Tm  Tm7  1  0.315374  0.004088  0.688714  1
  Tm  Tm8  1  0.598995  0.792710  0.806290  1
  Tm  Tm9  1  0.401005  0.207290  0.193710  1
  Tm  Tm10  1  0.986421  0.792710  0.193716  1
  Tm  Tm11  1  0.013579  0.207290  0.806284  1
  Co  Co12  1  0.115120  0.615116  0.499996  1
  Co  Co13  1  0.884880  0.384884  0.500004  1
  Ni  Ni14  1  0.631309  0.000000  0.631309  1
  Ni  Ni15  1  0.368691  0.000000  0.368691  1
  Ni  Ni16  1  0.000000  0.000000  0.000000  1
  Bi  Bi17  1  0.500000  0.500000  0.000000  1
