# generated using pymatgen
data_TaInPt6
_symmetry_space_group_name_H-M   'P 1'
_cell_length_a   5.73035603
_cell_length_b   5.73035688
_cell_length_c   3.97611300
_cell_angle_alpha   90.00000000
_cell_angle_beta   90.00000000
_cell_angle_gamma   90.05261289
_symmetry_Int_Tables_number   1
_chemical_formula_structural   TaInPt6
_chemical_formula_sum   'Ta1 In1 Pt6'
_cell_volume   130.56350834
_cell_formula_units_Z   1
loop_
 _symmetry_equiv_pos_site_id
 _symmetry_equiv_pos_as_xyz
  1  'x, y, z'
loop_
 _atom_site_type_symbol
 _atom_site_label
 _atom_site_symmetry_multiplicity
 _atom_site_fract_x
 _atom_site_fract_y
 _atom_site_fract_z
 _atom_site_occupancy
  Ta  Ta0  1  0.000000  0.500000  0.500000  1
  In  In1  1  0.500000  0.000000  0.500000  1
  Pt  Pt2  1  0.758962  0.258962  0.000000  1
  Pt  Pt3  1  0.241038  0.741038  0.000000  1
  Pt  Pt4  1  0.240282  0.259718  0.000000  1
  Pt  Pt5  1  0.759718  0.740282  0.000000  1
  Pt  Pt6  1  0.500000  0.500000  0.500000  1
  Pt  Pt7  1  0.000000  0.000000  0.500000  1
