# generated using pymatgen
data_Pr8HoErPb6
_symmetry_space_group_name_H-M   'P 1'
_cell_length_a   9.39910800
_cell_length_b   9.39906280
_cell_length_c   6.90837000
_cell_angle_alpha   90.00026976
_cell_angle_beta   89.99991586
_cell_angle_gamma   120.00008730
_symmetry_Int_Tables_number   1
_chemical_formula_structural   Pr8HoErPb6
_chemical_formula_sum   'Pr8 Ho1 Er1 Pb6'
_cell_volume   528.53899022
_cell_formula_units_Z   1
loop_
 _symmetry_equiv_pos_site_id
 _symmetry_equiv_pos_as_xyz
  1  'x, y, z'
loop_
 _atom_site_type_symbol
 _atom_site_label
 _atom_site_symmetry_multiplicity
 _atom_site_fract_x
 _atom_site_fract_y
 _atom_site_fract_z
 _atom_site_occupancy
  Pr  Pr0  1  0.333331  0.666668  0.499998  1
  Pr  Pr1  1  0.666669  0.333333  0.499997  1
  Pr  Pr2  1  0.759222  0.759182  0.752308  1
  Pr  Pr3  1  0.240820  0.000035  0.752301  1
  Pr  Pr4  1  0.999959  0.240777  0.752298  1
  Pr  Pr5  1  0.240824  0.240780  0.247700  1
  Pr  Pr6  1  0.759219  0.000037  0.247701  1
  Pr  Pr7  1  0.999969  0.759182  0.247698  1
  Ho  Ho8  1  0.333335  0.666661  0.999986  1
  Er  Er9  1  0.666637  0.333346  0.999999  1
  Pb  Pb10  1  0.396884  0.396717  0.758357  1
  Pb  Pb11  1  0.603285  0.000165  0.758360  1
  Pb  Pb12  1  0.999834  0.603115  0.758356  1
  Pb  Pb13  1  0.603282  0.603116  0.241647  1
  Pb  Pb14  1  0.396892  0.000167  0.241647  1
  Pb  Pb15  1  0.999837  0.396719  0.241646  1
