# generated using pymatgen
data_Gd7Dy2Lu(SiB4)4
_symmetry_space_group_name_H-M   'P 1'
_cell_length_a   7.24745917
_cell_length_b   7.24745917
_cell_length_c   8.16836400
_cell_angle_alpha   89.99813580
_cell_angle_beta   89.99813580
_cell_angle_gamma   89.97511304
_symmetry_Int_Tables_number   1
_chemical_formula_structural   Gd7Dy2Lu(SiB4)4
_chemical_formula_sum   'Gd7 Dy2 Lu1 Si4 B16'
_cell_volume   429.04870574
_cell_formula_units_Z   1
loop_
 _symmetry_equiv_pos_site_id
 _symmetry_equiv_pos_as_xyz
  1  'x, y, z'
loop_
 _atom_site_type_symbol
 _atom_site_label
 _atom_site_symmetry_multiplicity
 _atom_site_fract_x
 _atom_site_fract_y
 _atom_site_fract_z
 _atom_site_occupancy
  Gd  Gd0  1  0.319447  0.819447  0.775547  1
  Gd  Gd1  1  0.319596  0.819596  0.225239  1
  Gd  Gd2  1  0.819187  0.680538  0.225653  1
  Gd  Gd3  1  0.819807  0.680249  0.774732  1
  Gd  Gd4  1  0.680526  0.180526  0.775438  1
  Gd  Gd5  1  0.180249  0.319807  0.774732  1
  Gd  Gd6  1  0.180538  0.319187  0.225653  1
  Dy  Dy7  1  0.999177  0.000787  0.499098  1
  Dy  Dy8  1  0.500787  0.499177  0.499098  1
  Lu  Lu9  1  0.680465  0.180465  0.217475  1
  Si  Si10  1  0.113757  0.613757  0.499187  1
  Si  Si11  1  0.883566  0.383566  0.497390  1
  Si  Si12  1  0.386737  0.115853  0.497046  1
  Si  Si13  1  0.615853  0.886737  0.497046  1
  B  B14  1  0.172059  0.039538  0.001207  1
  B  B15  1  0.827086  0.961457  0.000836  1
  B  B16  1  0.959869  0.173018  0.000625  1
  B  B17  1  0.328105  0.539014  0.001058  1
  B  B18  1  0.039014  0.828105  0.001058  1
  B  B19  1  0.673018  0.459869  0.000625  1
  B  B20  1  0.539538  0.672059  0.001207  1
  B  B21  1  0.461457  0.327086  0.000836  1
  B  B22  1  0.090099  0.590099  0.000745  1
  B  B23  1  0.909997  0.409997  0.000316  1
  B  B24  1  0.410570  0.089752  0.002120  1
  B  B25  1  0.589752  0.910570  0.002120  1
  B  B26  1  0.998254  0.001200  0.161058  1
  B  B27  1  0.000004  0.000289  0.840898  1
  B  B28  1  0.500289  0.500004  0.840898  1
  B  B29  1  0.501200  0.498254  0.161058  1
