# generated using pymatgen
data_Pr7Y(InSi2)4
_symmetry_space_group_name_H-M   'P 1'
_cell_length_a   4.38131900
_cell_length_b   7.58382043
_cell_length_c   14.75989600
_cell_angle_alpha   90.21101169
_cell_angle_beta   90.00000000
_cell_angle_gamma   90.00000000
_symmetry_Int_Tables_number   1
_chemical_formula_structural   Pr7Y(InSi2)4
_chemical_formula_sum   'Pr7 Y1 In4 Si8'
_cell_volume   490.42575388
_cell_formula_units_Z   1
loop_
 _symmetry_equiv_pos_site_id
 _symmetry_equiv_pos_as_xyz
  1  'x, y, z'
loop_
 _atom_site_type_symbol
 _atom_site_label
 _atom_site_symmetry_multiplicity
 _atom_site_fract_x
 _atom_site_fract_y
 _atom_site_fract_z
 _atom_site_occupancy
  Pr  Pr0  1  0.500000  0.750586  0.033666  1
  Pr  Pr1  1  0.500000  0.244243  0.962529  1
  Pr  Pr2  1  0.500000  0.254395  0.465818  1
  Pr  Pr3  1  0.500000  0.750045  0.537605  1
  Pr  Pr4  1  0.500000  0.614616  0.283716  1
  Pr  Pr5  1  0.500000  0.386429  0.717811  1
  Pr  Pr6  1  0.500000  0.115256  0.215588  1
  Y  Y7  1  0.500000  0.887100  0.784133  1
  In  In8  1  0.000000  0.938663  0.377709  1
  In  In9  1  0.000000  0.059436  0.624508  1
  In  In10  1  0.000000  0.438578  0.121946  1
  In  In11  1  0.000000  0.563691  0.876658  1
  Si  Si12  1  0.000000  0.554582  0.424758  1
  Si  Si13  1  0.000000  0.451105  0.578344  1
  Si  Si14  1  0.000000  0.051412  0.074089  1
  Si  Si15  1  0.000000  0.940333  0.920466  1
  Si  Si16  1  0.000000  0.820040  0.183336  1
  Si  Si17  1  0.000000  0.172252  0.812735  1
  Si  Si18  1  0.000000  0.320166  0.316507  1
  Si  Si19  1  0.000000  0.687068  0.688077  1
