# generated using pymatgen
data_GePt(SeF6)4
_symmetry_space_group_name_H-M   'P 1'
_cell_length_a   6.16003600
_cell_length_b   7.85002153
_cell_length_c   9.87883088
_cell_angle_alpha   90.12406768
_cell_angle_beta   90.00000000
_cell_angle_gamma   90.00000000
_symmetry_Int_Tables_number   1
_chemical_formula_structural   GePt(SeF6)4
_chemical_formula_sum   'Ge1 Pt1 Se4 F24'
_cell_volume   477.70372802
_cell_formula_units_Z   1
loop_
 _symmetry_equiv_pos_site_id
 _symmetry_equiv_pos_as_xyz
  1  'x, y, z'
loop_
 _atom_site_type_symbol
 _atom_site_label
 _atom_site_symmetry_multiplicity
 _atom_site_fract_x
 _atom_site_fract_y
 _atom_site_fract_z
 _atom_site_occupancy
  Ge  Ge0  1  0.500000  0.000000  0.500000  1
  Pt  Pt1  1  0.000000  0.500000  0.000000  1
  Se  Se2  1  0.500000  0.582557  0.242920  1
  Se  Se3  1  0.500000  0.417443  0.757080  1
  Se  Se4  1  0.000000  0.079327  0.262698  1
  Se  Se5  1  0.000000  0.920673  0.737302  1
  F  F6  1  0.225438  0.360345  0.909833  1
  F  F7  1  0.225438  0.639655  0.090167  1
  F  F8  1  0.288444  0.874251  0.586008  1
  F  F9  1  0.288444  0.125749  0.413992  1
  F  F10  1  0.774562  0.639655  0.090167  1
  F  F11  1  0.774562  0.360345  0.909833  1
  F  F12  1  0.796817  0.971811  0.851933  1
  F  F13  1  0.796817  0.028189  0.148067  1
  F  F14  1  0.703724  0.472772  0.643759  1
  F  F15  1  0.703724  0.527228  0.356241  1
  F  F16  1  0.203183  0.028189  0.148067  1
  F  F17  1  0.203183  0.971811  0.851933  1
  F  F18  1  0.296276  0.527228  0.356241  1
  F  F19  1  0.296276  0.472772  0.643759  1
  F  F20  1  0.000000  0.653836  0.841489  1
  F  F21  1  0.000000  0.346164  0.158511  1
  F  F22  1  0.500000  0.151730  0.641480  1
  F  F23  1  0.500000  0.848270  0.358520  1
  F  F24  1  0.500000  0.618782  0.830544  1
  F  F25  1  0.500000  0.381218  0.169456  1
  F  F26  1  0.000000  0.124785  0.669603  1
  F  F27  1  0.000000  0.875215  0.330397  1
  F  F28  1  0.711556  0.874251  0.586008  1
  F  F29  1  0.711556  0.125749  0.413992  1
