# generated using pymatgen
data_Y2Ni14(GeH)3
_symmetry_space_group_name_H-M   'P 1'
_cell_length_a   6.34225409
_cell_length_b   6.34225331
_cell_length_c   6.34225560
_cell_angle_alpha   83.37543656
_cell_angle_beta   83.37544035
_cell_angle_gamma   83.37542042
_symmetry_Int_Tables_number   1
_chemical_formula_structural   Y2Ni14(GeH)3
_chemical_formula_sum   'Y2 Ni14 Ge3 H3'
_cell_volume   250.36679967
_cell_formula_units_Z   1
loop_
 _symmetry_equiv_pos_site_id
 _symmetry_equiv_pos_as_xyz
  1  'x, y, z'
loop_
 _atom_site_type_symbol
 _atom_site_label
 _atom_site_symmetry_multiplicity
 _atom_site_fract_x
 _atom_site_fract_y
 _atom_site_fract_z
 _atom_site_occupancy
  Y  Y0  1  0.650202  0.650202  0.650202  1
  Y  Y1  1  0.349798  0.349798  0.349798  1
  Ni  Ni2  1  0.293515  0.706485  0.000000  1
  Ni  Ni3  1  0.706485  0.000000  0.293515  1
  Ni  Ni4  1  0.000000  0.293515  0.706485  1
  Ni  Ni5  1  0.293515  0.000000  0.706485  1
  Ni  Ni6  1  0.000000  0.706485  0.293515  1
  Ni  Ni7  1  0.706485  0.293515  0.000000  1
  Ni  Ni8  1  0.345186  0.345186  0.856086  1
  Ni  Ni9  1  0.345186  0.856086  0.345186  1
  Ni  Ni10  1  0.856086  0.345186  0.345186  1
  Ni  Ni11  1  0.654814  0.654814  0.143914  1
  Ni  Ni12  1  0.654814  0.143914  0.654814  1
  Ni  Ni13  1  0.143914  0.654814  0.654814  1
  Ni  Ni14  1  0.901519  0.901519  0.901519  1
  Ni  Ni15  1  0.098481  0.098481  0.098481  1
  Ge  Ge16  1  0.000000  0.000000  0.500000  1
  Ge  Ge17  1  0.000000  0.500000  0.000000  1
  Ge  Ge18  1  0.500000  0.000000  0.000000  1
  H  H19  1  0.500000  0.500000  0.000000  1
  H  H20  1  0.500000  0.000000  0.500000  1
  H  H21  1  0.000000  0.500000  0.500000  1
