# generated using pymatgen
data_Y5Ho12Er3Sn16
_symmetry_space_group_name_H-M   'P 1'
_cell_length_a   8.02896792
_cell_length_b   8.14814393
_cell_length_c   15.42163074
_cell_angle_alpha   90.01281743
_cell_angle_beta   89.91115997
_cell_angle_gamma   89.94783853
_symmetry_Int_Tables_number   1
_chemical_formula_structural   Y5Ho12Er3Sn16
_chemical_formula_sum   'Y5 Ho12 Er3 Sn16'
_cell_volume   1008.89972008
_cell_formula_units_Z   1
loop_
 _symmetry_equiv_pos_site_id
 _symmetry_equiv_pos_as_xyz
  1  'x, y, z'
loop_
 _atom_site_type_symbol
 _atom_site_label
 _atom_site_symmetry_multiplicity
 _atom_site_fract_x
 _atom_site_fract_y
 _atom_site_fract_z
 _atom_site_occupancy
  Y  Y0  1  0.979663  0.821054  0.096630  1
  Y  Y1  1  0.479342  0.678132  0.096381  1
  Y  Y2  1  0.978802  0.821448  0.403430  1
  Y  Y3  1  0.521080  0.321646  0.596698  1
  Y  Y4  1  0.019976  0.178739  0.903595  1
  Ho  Ho5  1  0.366483  0.837504  0.876950  1
  Ho  Ho6  1  0.867294  0.662023  0.622393  1
  Ho  Ho7  1  0.632133  0.162102  0.377425  1
  Ho  Ho8  1  0.132973  0.337815  0.122835  1
  Ho  Ho9  1  0.632405  0.162717  0.122941  1
  Ho  Ho10  1  0.131692  0.337636  0.377755  1
  Ho  Ho11  1  0.368538  0.837739  0.622595  1
  Ho  Ho12  1  0.867400  0.662330  0.877157  1
  Ho  Ho13  1  0.521807  0.321443  0.902749  1
  Ho  Ho14  1  0.022024  0.178680  0.597188  1
  Ho  Ho15  1  0.477802  0.678415  0.402884  1
  Ho  Ho16  1  0.198934  0.503927  0.749746  1
  Er  Er17  1  0.698868  0.996381  0.749933  1
  Er  Er18  1  0.801093  0.495965  0.250133  1
  Er  Er19  1  0.301150  0.003817  0.250335  1
  Sn  Sn20  1  0.294609  0.038472  0.041513  1
  Sn  Sn21  1  0.792103  0.462944  0.458179  1
  Sn  Sn22  1  0.707943  0.963562  0.541998  1
  Sn  Sn23  1  0.207158  0.536943  0.958196  1
  Sn  Sn24  1  0.704720  0.961942  0.958347  1
  Sn  Sn25  1  0.206448  0.538418  0.541315  1
  Sn  Sn26  1  0.293236  0.038071  0.458774  1
  Sn  Sn27  1  0.794026  0.460972  0.041052  1
  Sn  Sn28  1  0.565382  0.618044  0.749945  1
  Sn  Sn29  1  0.064510  0.881783  0.749437  1
  Sn  Sn30  1  0.434960  0.381372  0.250595  1
  Sn  Sn31  1  0.935175  0.118622  0.250162  1
  Sn  Sn32  1  0.331687  0.149040  0.750424  1
  Sn  Sn33  1  0.831984  0.350904  0.749676  1
  Sn  Sn34  1  0.667620  0.850790  0.250315  1
  Sn  Sn35  1  0.168982  0.648611  0.250322  1
