# generated using pymatgen
data_Tb2Yb7Pr11Pb16
_symmetry_space_group_name_H-M   'P 1'
_cell_length_a   8.19674168
_cell_length_b   8.66371899
_cell_length_c   16.27185900
_cell_angle_alpha   90.12856267
_cell_angle_beta   89.91661545
_cell_angle_gamma   90.01188602
_symmetry_Int_Tables_number   1
_chemical_formula_structural   Tb2Yb7Pr11Pb16
_chemical_formula_sum   'Tb2 Yb7 Pr11 Pb16'
_cell_volume   1155.52997567
_cell_formula_units_Z   1
loop_
 _symmetry_equiv_pos_site_id
 _symmetry_equiv_pos_as_xyz
  1  'x, y, z'
loop_
 _atom_site_type_symbol
 _atom_site_label
 _atom_site_symmetry_multiplicity
 _atom_site_fract_x
 _atom_site_fract_y
 _atom_site_fract_z
 _atom_site_occupancy
  Tb  Tb0  1  0.668402  0.165186  0.624404  1
  Tb  Tb1  1  0.167846  0.334311  0.875046  1
  Yb  Yb2  1  0.333478  0.834585  0.122298  1
  Yb  Yb3  1  0.831108  0.664545  0.377630  1
  Yb  Yb4  1  0.335091  0.833298  0.376848  1
  Yb  Yb5  1  0.835397  0.502582  0.749711  1
  Yb  Yb6  1  0.335443  0.998214  0.750125  1
  Yb  Yb7  1  0.163882  0.502357  0.251080  1
  Yb  Yb8  1  0.662809  0.997777  0.251519  1
  Pr  Pr9  1  0.837050  0.670970  0.124636  1
  Pr  Pr10  1  0.664071  0.168298  0.875533  1
  Pr  Pr11  1  0.164678  0.331814  0.623686  1
  Pr  Pr12  1  0.503492  0.684702  0.594439  1
  Pr  Pr13  1  0.005420  0.815644  0.904327  1
  Pr  Pr14  1  0.493594  0.312603  0.094603  1
  Pr  Pr15  1  0.994840  0.186395  0.404438  1
  Pr  Pr16  1  0.494718  0.314403  0.406194  1
  Pr  Pr17  1  0.998088  0.183665  0.094693  1
  Pr  Pr18  1  0.504011  0.683891  0.904801  1
  Pr  Pr19  1  0.003839  0.816027  0.595374  1
  Pb  Pb20  1  0.681754  0.962123  0.460309  1
  Pb  Pb21  1  0.183191  0.537300  0.039172  1
  Pb  Pb22  1  0.315773  0.040171  0.959002  1
  Pb  Pb23  1  0.816277  0.460373  0.540767  1
  Pb  Pb24  1  0.326381  0.036962  0.540430  1
  Pb  Pb25  1  0.824772  0.461254  0.959761  1
  Pb  Pb26  1  0.680447  0.962100  0.039902  1
  Pb  Pb27  1  0.178427  0.540108  0.458502  1
  Pb  Pb28  1  0.471691  0.388439  0.749499  1
  Pb  Pb29  1  0.971773  0.111671  0.749873  1
  Pb  Pb30  1  0.529274  0.607190  0.249433  1
  Pb  Pb31  1  0.031705  0.891829  0.252006  1
  Pb  Pb32  1  0.701155  0.852742  0.749864  1
  Pb  Pb33  1  0.202054  0.646845  0.750501  1
  Pb  Pb34  1  0.294818  0.146663  0.250290  1
  Pb  Pb35  1  0.793254  0.352964  0.249301  1
