# generated using pymatgen
data_Th4BBr6
_symmetry_space_group_name_H-M   'P 1'
_cell_length_a   3.93804900
_cell_length_b   14.00791800
_cell_length_c   14.21218600
_cell_angle_alpha   90.00000000
_cell_angle_beta   90.00000000
_cell_angle_gamma   90.00000000
_symmetry_Int_Tables_number   1
_chemical_formula_structural   Th4BBr6
_chemical_formula_sum   'Th8 B2 Br12'
_cell_volume   783.99914499
_cell_formula_units_Z   2
loop_
 _symmetry_equiv_pos_site_id
 _symmetry_equiv_pos_as_xyz
  1  'x, y, z'
loop_
 _atom_site_type_symbol
 _atom_site_label
 _atom_site_symmetry_multiplicity
 _atom_site_fract_x
 _atom_site_fract_y
 _atom_site_fract_z
 _atom_site_occupancy
  Th  Th0  1  0.000000  0.100401  0.080290  1
  Th  Th1  1  0.000000  0.899599  0.919710  1
  Th  Th2  1  0.000000  0.600401  0.419710  1
  Th  Th3  1  0.000000  0.399599  0.580290  1
  Th  Th4  1  0.500000  0.120338  0.858693  1
  Th  Th5  1  0.500000  0.879662  0.141307  1
  Th  Th6  1  0.500000  0.620338  0.641307  1
  Th  Th7  1  0.500000  0.379662  0.358693  1
  B  B8  1  0.500000  0.000000  0.000000  1
  B  B9  1  0.500000  0.500000  0.500000  1
  Br  Br10  1  0.500000  0.262754  0.686038  1
  Br  Br11  1  0.500000  0.737246  0.313962  1
  Br  Br12  1  0.500000  0.762754  0.813962  1
  Br  Br13  1  0.500000  0.237246  0.186038  1
  Br  Br14  1  0.000000  0.263265  0.938083  1
  Br  Br15  1  0.000000  0.736735  0.061917  1
  Br  Br16  1  0.000000  0.488219  0.237108  1
  Br  Br17  1  0.000000  0.511781  0.762892  1
  Br  Br18  1  0.000000  0.988219  0.262892  1
  Br  Br19  1  0.000000  0.011781  0.737108  1
  Br  Br20  1  0.000000  0.236735  0.438083  1
  Br  Br21  1  0.000000  0.763265  0.561917  1
