# generated using pymatgen
data_SrNd6SeBr12
_symmetry_space_group_name_H-M   'P 1'
_cell_length_a   9.38370572
_cell_length_b   9.38654577
_cell_length_c   9.38559480
_cell_angle_alpha   106.08554161
_cell_angle_beta   106.02412653
_cell_angle_gamma   106.04637246
_symmetry_Int_Tables_number   1
_chemical_formula_structural   SrNd6SeBr12
_chemical_formula_sum   'Sr1 Nd6 Se1 Br12'
_cell_volume   705.52145148
_cell_formula_units_Z   1
loop_
 _symmetry_equiv_pos_site_id
 _symmetry_equiv_pos_as_xyz
  1  'x, y, z'
loop_
 _atom_site_type_symbol
 _atom_site_label
 _atom_site_symmetry_multiplicity
 _atom_site_fract_x
 _atom_site_fract_y
 _atom_site_fract_z
 _atom_site_occupancy
  Sr  Sr0  1  0.500000  0.500000  0.500000  1
  Nd  Nd1  1  0.101679  0.317238  0.020167  1
  Nd  Nd2  1  0.317192  0.020093  0.101712  1
  Nd  Nd3  1  0.020124  0.101909  0.317211  1
  Nd  Nd4  1  0.979875  0.898091  0.682789  1
  Nd  Nd5  1  0.682808  0.979906  0.898287  1
  Nd  Nd6  1  0.898321  0.682762  0.979833  1
  Se  Se7  1  0.000000  0.000000  0.000000  1
  Br  Br8  1  0.228060  0.678668  0.074093  1
  Br  Br9  1  0.451169  0.365991  0.143342  1
  Br  Br10  1  0.678593  0.073996  0.227823  1
  Br  Br11  1  0.925848  0.772187  0.321419  1
  Br  Br12  1  0.143437  0.451603  0.366115  1
  Br  Br13  1  0.365933  0.143660  0.451328  1
  Br  Br14  1  0.634067  0.856340  0.548672  1
  Br  Br15  1  0.856562  0.548397  0.633885  1
  Br  Br16  1  0.074153  0.227814  0.678582  1
  Br  Br17  1  0.321408  0.926005  0.772177  1
  Br  Br18  1  0.548830  0.634008  0.856658  1
  Br  Br19  1  0.771940  0.321333  0.925907  1
