# generated using pymatgen
data_Sm8Lu12Si13Rh3
_symmetry_space_group_name_H-M   'P 1'
_cell_length_a   7.22437370
_cell_length_b   7.81488648
_cell_length_c   14.47375100
_cell_angle_alpha   90.00000000
_cell_angle_beta   90.00000000
_cell_angle_gamma   90.11942133
_symmetry_Int_Tables_number   1
_chemical_formula_structural   Sm8Lu12Si13Rh3
_chemical_formula_sum   'Sm8 Lu12 Si13 Rh3'
_cell_volume   817.15234294
_cell_formula_units_Z   1
loop_
 _symmetry_equiv_pos_site_id
 _symmetry_equiv_pos_as_xyz
  1  'x, y, z'
loop_
 _atom_site_type_symbol
 _atom_site_label
 _atom_site_symmetry_multiplicity
 _atom_site_fract_x
 _atom_site_fract_y
 _atom_site_fract_z
 _atom_site_occupancy
  Sm  Sm0  1  0.007357  0.179744  0.094061  1
  Sm  Sm1  1  0.991354  0.822394  0.909586  1
  Sm  Sm2  1  0.489476  0.680015  0.907309  1
  Sm  Sm3  1  0.991354  0.822394  0.590414  1
  Sm  Sm4  1  0.508708  0.320997  0.094816  1
  Sm  Sm5  1  0.007357  0.179744  0.405939  1
  Sm  Sm6  1  0.508708  0.320997  0.405184  1
  Sm  Sm7  1  0.489476  0.680015  0.592691  1
  Lu  Lu8  1  0.157675  0.517845  0.750000  1
  Lu  Lu9  1  0.828225  0.494676  0.250000  1
  Lu  Lu10  1  0.327686  0.008024  0.250000  1
  Lu  Lu11  1  0.672241  0.987809  0.750000  1
  Lu  Lu12  1  0.315581  0.173838  0.627764  1
  Lu  Lu13  1  0.681897  0.831146  0.371836  1
  Lu  Lu14  1  0.182532  0.670499  0.370985  1
  Lu  Lu15  1  0.681897  0.831146  0.128164  1
  Lu  Lu16  1  0.832278  0.318250  0.626841  1
  Lu  Lu17  1  0.315581  0.173838  0.872236  1
  Lu  Lu18  1  0.832278  0.318250  0.873159  1
  Lu  Lu19  1  0.182532  0.670499  0.129015  1
  Si  Si20  1  0.529356  0.394053  0.750000  1
  Si  Si21  1  0.281132  0.867039  0.750000  1
  Si  Si22  1  0.721520  0.133049  0.250000  1
  Si  Si23  1  0.220042  0.370038  0.250000  1
  Si  Si24  1  0.773402  0.621457  0.750000  1
  Si  Si25  1  0.156340  0.469915  0.538549  1
  Si  Si26  1  0.845439  0.532114  0.463415  1
  Si  Si27  1  0.343959  0.970018  0.462516  1
  Si  Si28  1  0.845439  0.532114  0.036585  1
  Si  Si29  1  0.649488  0.033734  0.539531  1
  Si  Si30  1  0.156340  0.469915  0.961451  1
  Si  Si31  1  0.649488  0.033734  0.960469  1
  Si  Si32  1  0.343959  0.970018  0.037484  1
  Rh  Rh33  1  0.026934  0.099288  0.750000  1
  Rh  Rh34  1  0.975101  0.896933  0.250000  1
  Rh  Rh35  1  0.477868  0.604463  0.250000  1
