# generated using pymatgen
data_Th3Zn3CoAu2
_symmetry_space_group_name_H-M   'P 1'
_cell_length_a   7.50279100
_cell_length_b   7.50279023
_cell_length_c   3.95618300
_cell_angle_alpha   90.00000000
_cell_angle_beta   90.00000000
_cell_angle_gamma   119.99999137
_symmetry_Int_Tables_number   1
_chemical_formula_structural   Th3Zn3CoAu2
_chemical_formula_sum   'Th3 Zn3 Co1 Au2'
_cell_volume   192.86467717
_cell_formula_units_Z   1
loop_
 _symmetry_equiv_pos_site_id
 _symmetry_equiv_pos_as_xyz
  1  'x, y, z'
loop_
 _atom_site_type_symbol
 _atom_site_label
 _atom_site_symmetry_multiplicity
 _atom_site_fract_x
 _atom_site_fract_y
 _atom_site_fract_z
 _atom_site_occupancy
  Th  Th0  1  0.596029  0.023658  0.000000  1
  Th  Th1  1  0.976342  0.572371  0.000000  1
  Th  Th2  1  0.427629  0.403971  0.000000  1
  Zn  Zn3  1  0.256800  0.007644  0.500000  1
  Zn  Zn4  1  0.992356  0.249156  0.500000  1
  Zn  Zn5  1  0.750844  0.743200  0.500000  1
  Co  Co6  1  0.666667  0.333333  0.500000  1
  Au  Au7  1  0.333333  0.666667  0.500000  1
  Au  Au8  1  0.000000  0.000000  0.000000  1
