# generated using pymatgen
data_LaY7(CdPt)2
_symmetry_space_group_name_H-M   'P 1'
_cell_length_a   9.78645498
_cell_length_b   9.78645536
_cell_length_c   9.77993000
_cell_angle_alpha   60.02224081
_cell_angle_beta   60.02224128
_cell_angle_gamma   60.13897170
_symmetry_Int_Tables_number   1
_chemical_formula_structural   LaY7(CdPt)2
_chemical_formula_sum   'La2 Y14 Cd4 Pt4'
_cell_volume   663.24173897
_cell_formula_units_Z   2
loop_
 _symmetry_equiv_pos_site_id
 _symmetry_equiv_pos_as_xyz
  1  'x, y, z'
loop_
 _atom_site_type_symbol
 _atom_site_label
 _atom_site_symmetry_multiplicity
 _atom_site_fract_x
 _atom_site_fract_y
 _atom_site_fract_z
 _atom_site_occupancy
  La  La0  1  0.351815  0.351815  0.353304  1
  La  La1  1  0.351810  0.351810  0.943067  1
  Y  Y2  1  0.354197  0.939617  0.353093  1
  Y  Y3  1  0.939617  0.354197  0.353093  1
  Y  Y4  1  0.812438  0.188944  0.188513  1
  Y  Y5  1  0.188945  0.812437  0.810106  1
  Y  Y6  1  0.188944  0.812438  0.188513  1
  Y  Y7  1  0.812437  0.188945  0.810106  1
  Y  Y8  1  0.187525  0.187525  0.812477  1
  Y  Y9  1  0.810012  0.810012  0.189987  1
  Y  Y10  1  0.935421  0.565085  0.565892  1
  Y  Y11  1  0.565085  0.935422  0.933605  1
  Y  Y12  1  0.565085  0.935421  0.565892  1
  Y  Y13  1  0.935422  0.565085  0.933605  1
  Y  Y14  1  0.566215  0.566215  0.933786  1
  Y  Y15  1  0.936096  0.936096  0.563900  1
  Cd  Cd16  1  0.584465  0.584465  0.578034  1
  Cd  Cd17  1  0.584467  0.584467  0.253034  1
  Cd  Cd18  1  0.586667  0.250500  0.581416  1
  Cd  Cd19  1  0.250500  0.586667  0.581416  1
  Pt  Pt20  1  0.140103  0.140103  0.148473  1
  Pt  Pt21  1  0.140102  0.140102  0.571324  1
  Pt  Pt22  1  0.137287  0.575346  0.143683  1
  Pt  Pt23  1  0.575346  0.137287  0.143683  1
