# generated using pymatgen
data_Lu5(ZnTe)2
_symmetry_space_group_name_H-M   'P 1'
_cell_length_a   8.52620427
_cell_length_b   8.52620531
_cell_length_c   7.73579600
_cell_angle_alpha   90.00000000
_cell_angle_beta   90.00000000
_cell_angle_gamma   125.98886691
_symmetry_Int_Tables_number   1
_chemical_formula_structural   Lu5(ZnTe)2
_chemical_formula_sum   'Lu10 Zn4 Te4'
_cell_volume   455.02522260
_cell_formula_units_Z   2
loop_
 _symmetry_equiv_pos_site_id
 _symmetry_equiv_pos_as_xyz
  1  'x, y, z'
loop_
 _atom_site_type_symbol
 _atom_site_label
 _atom_site_symmetry_multiplicity
 _atom_site_fract_x
 _atom_site_fract_y
 _atom_site_fract_z
 _atom_site_occupancy
  Lu  Lu0  1  0.000000  0.000000  0.000000  1
  Lu  Lu1  1  0.500000  0.500000  0.500000  1
  Lu  Lu2  1  0.787094  0.539116  0.163188  1
  Lu  Lu3  1  0.460884  0.212906  0.836812  1
  Lu  Lu4  1  0.960884  0.712906  0.663188  1
  Lu  Lu5  1  0.287094  0.039116  0.336812  1
  Lu  Lu6  1  0.212906  0.460884  0.836812  1
  Lu  Lu7  1  0.539116  0.787094  0.163188  1
  Lu  Lu8  1  0.039116  0.287094  0.336812  1
  Lu  Lu9  1  0.712906  0.960884  0.663188  1
  Zn  Zn10  1  0.870035  0.870035  0.372165  1
  Zn  Zn11  1  0.129965  0.129965  0.627835  1
  Zn  Zn12  1  0.629965  0.629965  0.872165  1
  Zn  Zn13  1  0.370035  0.370035  0.127835  1
  Te  Te14  1  0.206185  0.793815  0.000000  1
  Te  Te15  1  0.706185  0.293815  0.500000  1
  Te  Te16  1  0.793815  0.206185  0.000000  1
  Te  Te17  1  0.293815  0.706185  0.500000  1
