# generated using pymatgen
data_Nd6NpO12
_symmetry_space_group_name_H-M   'P 1'
_cell_length_a   6.81193160
_cell_length_b   6.81193067
_cell_length_c   6.81193204
_cell_angle_alpha   98.71030941
_cell_angle_beta   98.71031078
_cell_angle_gamma   98.71033295
_symmetry_Int_Tables_number   1
_chemical_formula_structural   Nd6NpO12
_chemical_formula_sum   'Nd6 Np1 O12'
_cell_volume   303.88283999
_cell_formula_units_Z   1
loop_
 _symmetry_equiv_pos_site_id
 _symmetry_equiv_pos_as_xyz
  1  'x, y, z'
loop_
 _atom_site_type_symbol
 _atom_site_label
 _atom_site_symmetry_multiplicity
 _atom_site_fract_x
 _atom_site_fract_y
 _atom_site_fract_z
 _atom_site_occupancy
  Nd  Nd0  1  0.314386  0.610176  0.145496  1
  Nd  Nd1  1  0.610176  0.145496  0.314386  1
  Nd  Nd2  1  0.389824  0.854504  0.685614  1
  Nd  Nd3  1  0.685614  0.389824  0.854504  1
  Nd  Nd4  1  0.854504  0.685614  0.389824  1
  Nd  Nd5  1  0.145496  0.314386  0.610176  1
  Np  Np6  1  0.000000  0.000000  0.000000  1
  O  O7  1  0.436712  0.177545  0.591108  1
  O  O8  1  0.929708  0.701100  0.042762  1
  O  O9  1  0.177545  0.591108  0.436712  1
  O  O10  1  0.822455  0.408892  0.563288  1
  O  O11  1  0.563288  0.822455  0.408892  1
  O  O12  1  0.591108  0.436712  0.177545  1
  O  O13  1  0.408892  0.563288  0.822455  1
  O  O14  1  0.957238  0.070292  0.298900  1
  O  O15  1  0.042762  0.929708  0.701100  1
  O  O16  1  0.701100  0.042762  0.929708  1
  O  O17  1  0.070292  0.298900  0.957238  1
  O  O18  1  0.298900  0.957238  0.070292  1
