# generated using pymatgen
data_Tm6InCoSi
_symmetry_space_group_name_H-M   'P 1'
_cell_length_a   8.34213552
_cell_length_b   8.34213519
_cell_length_c   8.34213609
_cell_angle_alpha   113.31790604
_cell_angle_beta   111.03658172
_cell_angle_gamma   104.19386322
_symmetry_Int_Tables_number   1
_chemical_formula_structural   Tm6InCoSi
_chemical_formula_sum   'Tm12 In2 Co2 Si2'
_cell_volume   443.89633709
_cell_formula_units_Z   2
loop_
 _symmetry_equiv_pos_site_id
 _symmetry_equiv_pos_as_xyz
  1  'x, y, z'
loop_
 _atom_site_type_symbol
 _atom_site_label
 _atom_site_symmetry_multiplicity
 _atom_site_fract_x
 _atom_site_fract_y
 _atom_site_fract_z
 _atom_site_occupancy
  Tm  Tm0  1  0.444497  0.241970  0.202527  1
  Tm  Tm1  1  0.555503  0.758030  0.797473  1
  Tm  Tm2  1  0.039442  0.241970  0.797473  1
  Tm  Tm3  1  0.960558  0.758030  0.202527  1
  Tm  Tm4  1  0.187020  0.288663  0.475683  1
  Tm  Tm5  1  0.812980  0.711337  0.524317  1
  Tm  Tm6  1  0.187020  0.711337  0.898357  1
  Tm  Tm7  1  0.812980  0.288663  0.101643  1
  Tm  Tm8  1  0.305947  0.616233  0.310286  1
  Tm  Tm9  1  0.694053  0.383767  0.689714  1
  Tm  Tm10  1  0.305947  0.995661  0.689714  1
  Tm  Tm11  1  0.694053  0.004339  0.310286  1
  In  In12  1  0.500000  0.500000  0.000000  1
  In  In13  1  0.000000  0.000000  0.000000  1
  Co  Co14  1  0.108728  0.608728  0.500000  1
  Co  Co15  1  0.891272  0.391272  0.500000  1
  Si  Si16  1  0.360231  0.000000  0.360231  1
  Si  Si17  1  0.639769  0.000000  0.639769  1
