# generated using pymatgen
data_TbTm6Pa(ReB6)4
_symmetry_space_group_name_H-M   'P 1'
_cell_length_a   3.66620300
_cell_length_b   9.12041439
_cell_length_c   11.48950901
_cell_angle_alpha   90.14014043
_cell_angle_beta   90.00000000
_cell_angle_gamma   90.00000000
_symmetry_Int_Tables_number   1
_chemical_formula_structural   TbTm6Pa(ReB6)4
_chemical_formula_sum   'Tb1 Tm6 Pa1 Re4 B24'
_cell_volume   384.17690261
_cell_formula_units_Z   1
loop_
 _symmetry_equiv_pos_site_id
 _symmetry_equiv_pos_as_xyz
  1  'x, y, z'
loop_
 _atom_site_type_symbol
 _atom_site_label
 _atom_site_symmetry_multiplicity
 _atom_site_fract_x
 _atom_site_fract_y
 _atom_site_fract_z
 _atom_site_occupancy
  Tb  Tb0  1  0.000000  0.679493  0.586883  1
  Tm  Tm1  1  0.000000  0.823035  0.085208  1
  Tm  Tm2  1  0.000000  0.176189  0.913774  1
  Tm  Tm3  1  0.000000  0.942464  0.371107  1
  Tm  Tm4  1  0.000000  0.055448  0.629808  1
  Tm  Tm5  1  0.000000  0.443295  0.126927  1
  Tm  Tm6  1  0.000000  0.557229  0.870870  1
  Pa  Pa7  1  0.000000  0.322734  0.413865  1
  Re  Re8  1  0.000000  0.636027  0.320736  1
  Re  Re9  1  0.000000  0.361453  0.677320  1
  Re  Re10  1  0.000000  0.140595  0.181342  1
  Re  Re11  1  0.000000  0.862316  0.821835  1
  B  B12  1  0.500000  0.552710  0.431549  1
  B  B13  1  0.500000  0.445299  0.567211  1
  B  B14  1  0.500000  0.053648  0.067098  1
  B  B15  1  0.500000  0.947484  0.934331  1
  B  B16  1  0.500000  0.749664  0.417742  1
  B  B17  1  0.500000  0.249822  0.581367  1
  B  B18  1  0.500000  0.249132  0.080042  1
  B  B19  1  0.500000  0.750825  0.919872  1
  B  B20  1  0.500000  0.792111  0.264857  1
  B  B21  1  0.500000  0.207595  0.735472  1
  B  B22  1  0.500000  0.291917  0.234073  1
  B  B23  1  0.500000  0.708349  0.766478  1
  B  B24  1  0.500000  0.630980  0.183772  1
  B  B25  1  0.500000  0.369575  0.814996  1
  B  B26  1  0.500000  0.131046  0.314884  1
  B  B27  1  0.500000  0.869971  0.686397  1
  B  B28  1  0.500000  0.981703  0.211932  1
  B  B29  1  0.500000  0.018794  0.788752  1
  B  B30  1  0.500000  0.482272  0.286504  1
  B  B31  1  0.500000  0.517821  0.713615  1
  B  B32  1  0.500000  0.601515  0.027714  1
  B  B33  1  0.500000  0.398435  0.971028  1
  B  B34  1  0.500000  0.102099  0.471775  1
  B  B35  1  0.500000  0.896957  0.528862  1
