# generated using pymatgen
data_TaP(OF3)2
_symmetry_space_group_name_H-M   'P 1'
_cell_length_a   5.79146427
_cell_length_b   7.71591332
_cell_length_c   7.80003463
_cell_angle_alpha   88.26592265
_cell_angle_beta   76.24132436
_cell_angle_gamma   83.70928959
_symmetry_Int_Tables_number   1
_chemical_formula_structural   TaP(OF3)2
_chemical_formula_sum   'Ta2 P2 O4 F12'
_cell_volume   336.51260512
_cell_formula_units_Z   2
loop_
 _symmetry_equiv_pos_site_id
 _symmetry_equiv_pos_as_xyz
  1  'x, y, z'
loop_
 _atom_site_type_symbol
 _atom_site_label
 _atom_site_symmetry_multiplicity
 _atom_site_fract_x
 _atom_site_fract_y
 _atom_site_fract_z
 _atom_site_occupancy
  Ta  Ta0  1  0.581645  0.233047  0.751256  1
  Ta  Ta1  1  0.418355  0.766953  0.248744  1
  P  P2  1  0.229674  0.191627  0.165873  1
  P  P3  1  0.770326  0.808373  0.834127  1
  O  O4  1  0.578049  0.741730  0.978673  1
  O  O5  1  0.772335  0.002683  0.814218  1
  O  O6  1  0.421951  0.258270  0.021327  1
  O  O7  1  0.227665  0.997317  0.185782  1
  F  F8  1  0.400024  0.435901  0.702323  1
  F  F9  1  0.244134  0.270862  0.342092  1
  F  F10  1  0.017255  0.728666  0.855938  1
  F  F11  1  0.732849  0.190525  0.513669  1
  F  F12  1  0.267151  0.809475  0.486331  1
  F  F13  1  0.599976  0.564099  0.297677  1
  F  F14  1  0.826644  0.349873  0.804980  1
  F  F15  1  0.173356  0.650127  0.195020  1
  F  F16  1  0.335751  0.086584  0.753510  1
  F  F17  1  0.664249  0.913416  0.246490  1
  F  F18  1  0.755866  0.729138  0.657908  1
  F  F19  1  0.982745  0.271334  0.144062  1
