# generated using pymatgen
data_Th2TlH4
_symmetry_space_group_name_H-M   'P 1'
_cell_length_a   6.42559809
_cell_length_b   6.42559859
_cell_length_c   6.42559789
_cell_angle_alpha   105.27569524
_cell_angle_beta   105.27569801
_cell_angle_gamma   118.23390976
_symmetry_Int_Tables_number   1
_chemical_formula_structural   Th2TlH4
_chemical_formula_sum   'Th4 Tl2 H8'
_cell_volume   200.59738384
_cell_formula_units_Z   2
loop_
 _symmetry_equiv_pos_site_id
 _symmetry_equiv_pos_as_xyz
  1  'x, y, z'
loop_
 _atom_site_type_symbol
 _atom_site_label
 _atom_site_symmetry_multiplicity
 _atom_site_fract_x
 _atom_site_fract_y
 _atom_site_fract_z
 _atom_site_occupancy
  Th  Th0  1  0.841290  0.658710  0.500000  1
  Th  Th1  1  0.658710  0.158710  0.817420  1
  Th  Th2  1  0.158710  0.341290  0.500000  1
  Th  Th3  1  0.341290  0.841290  0.182580  1
  Tl  Tl4  1  0.750000  0.750000  0.000000  1
  Tl  Tl5  1  0.250000  0.250000  0.000000  1
  H  H6  1  0.220868  0.979181  0.500000  1
  H  H7  1  0.479181  0.720868  0.500000  1
  H  H8  1  0.720868  0.220868  0.241688  1
  H  H9  1  0.979181  0.479181  0.758312  1
  H  H10  1  0.279132  0.779132  0.758312  1
  H  H11  1  0.520819  0.279132  0.500000  1
  H  H12  1  0.020819  0.520819  0.241688  1
  H  H13  1  0.779132  0.020819  0.500000  1
