# generated using pymatgen
data_Ba5Sr3Si3Pb
_symmetry_space_group_name_H-M   'P 1'
_cell_length_a   5.36211200
_cell_length_b   8.69726988
_cell_length_c   9.97995524
_cell_angle_alpha   88.88098020
_cell_angle_beta   90.00000000
_cell_angle_gamma   90.00000000
_symmetry_Int_Tables_number   1
_chemical_formula_structural   Ba5Sr3Si3Pb
_chemical_formula_sum   'Ba5 Sr3 Si3 Pb1'
_cell_volume   465.33378632
_cell_formula_units_Z   1
loop_
 _symmetry_equiv_pos_site_id
 _symmetry_equiv_pos_as_xyz
  1  'x, y, z'
loop_
 _atom_site_type_symbol
 _atom_site_label
 _atom_site_symmetry_multiplicity
 _atom_site_fract_x
 _atom_site_fract_y
 _atom_site_fract_z
 _atom_site_occupancy
  Ba  Ba0  1  0.250000  0.972981  0.323603  1
  Ba  Ba1  1  0.750000  0.014077  0.684263  1
  Ba  Ba2  1  0.250000  0.471849  0.166058  1
  Ba  Ba3  1  0.750000  0.531362  0.828122  1
  Ba  Ba4  1  0.750000  0.661828  0.418120  1
  Sr  Sr5  1  0.250000  0.359404  0.593044  1
  Sr  Sr6  1  0.750000  0.138502  0.064449  1
  Sr  Sr7  1  0.250000  0.857427  0.924379  1
  Si  Si8  1  0.250000  0.234523  0.899072  1
  Si  Si9  1  0.750000  0.766817  0.091836  1
  Si  Si10  1  0.250000  0.737116  0.615660  1
  Pb  Pb11  1  0.750000  0.254112  0.391394  1
