# generated using pymatgen
data_Nd2MnAl20Ir3
_symmetry_space_group_name_H-M   'P 1'
_cell_length_a   6.87320443
_cell_length_b   6.88196987
_cell_length_c   9.20376764
_cell_angle_alpha   90.21880404
_cell_angle_beta   90.00112382
_cell_angle_gamma   97.04483053
_symmetry_Int_Tables_number   1
_chemical_formula_structural   Nd2MnAl20Ir3
_chemical_formula_sum   'Nd2 Mn1 Al20 Ir3'
_cell_volume   432.05924908
_cell_formula_units_Z   1
loop_
 _symmetry_equiv_pos_site_id
 _symmetry_equiv_pos_as_xyz
  1  'x, y, z'
loop_
 _atom_site_type_symbol
 _atom_site_label
 _atom_site_symmetry_multiplicity
 _atom_site_fract_x
 _atom_site_fract_y
 _atom_site_fract_z
 _atom_site_occupancy
  Nd  Nd0  1  0.871674  0.124632  0.748450  1
  Nd  Nd1  1  0.128326  0.875368  0.251550  1
  Mn  Mn2  1  0.500000  0.000000  0.500000  1
  Al  Al3  1  0.618330  0.372220  0.548541  1
  Al  Al4  1  0.381670  0.627780  0.451459  1
  Al  Al5  1  0.379576  0.621673  0.051694  1
  Al  Al6  1  0.620424  0.378327  0.948306  1
  Al  Al7  1  0.228088  0.218437  0.497339  1
  Al  Al8  1  0.771912  0.781563  0.502661  1
  Al  Al9  1  0.776948  0.777954  0.001634  1
  Al  Al10  1  0.223052  0.222046  0.998366  1
  Al  Al11  1  0.840679  0.160078  0.105012  1
  Al  Al12  1  0.159321  0.839922  0.894988  1
  Al  Al13  1  0.165033  0.844201  0.600950  1
  Al  Al14  1  0.834967  0.155799  0.399050  1
  Al  Al15  1  0.857263  0.592367  0.749225  1
  Al  Al16  1  0.142737  0.407633  0.250775  1
  Al  Al17  1  0.412153  0.139804  0.744841  1
  Al  Al18  1  0.587847  0.860196  0.255159  1
  Al  Al19  1  0.225195  0.481380  0.749568  1
  Al  Al20  1  0.774805  0.518620  0.250432  1
  Al  Al21  1  0.517685  0.778262  0.743792  1
  Al  Al22  1  0.482315  0.221738  0.256208  1
  Ir  Ir23  1  0.000000  0.500000  0.500000  1
  Ir  Ir24  1  0.000000  0.500000  0.000000  1
  Ir  Ir25  1  0.500000  0.000000  0.000000  1
