# generated using pymatgen
data_HoCo5Si4Ni
_symmetry_space_group_name_H-M   'P 1'
_cell_length_a   6.62899083
_cell_length_b   6.62899030
_cell_length_c   3.60771900
_cell_angle_alpha   90.00000000
_cell_angle_beta   90.00000000
_cell_angle_gamma   120.41668244
_symmetry_Int_Tables_number   1
_chemical_formula_structural   HoCo5Si4Ni
_chemical_formula_sum   'Ho1 Co5 Si4 Ni1'
_cell_volume   136.71597966
_cell_formula_units_Z   1
loop_
 _symmetry_equiv_pos_site_id
 _symmetry_equiv_pos_as_xyz
  1  'x, y, z'
loop_
 _atom_site_type_symbol
 _atom_site_label
 _atom_site_symmetry_multiplicity
 _atom_site_fract_x
 _atom_site_fract_y
 _atom_site_fract_z
 _atom_site_occupancy
  Ho  Ho0  1  0.998061  0.001939  0.000000  1
  Co  Co1  1  0.534268  0.465732  0.000000  1
  Co  Co2  1  0.532356  0.066868  0.000000  1
  Co  Co3  1  0.933132  0.467644  0.000000  1
  Co  Co4  1  0.204713  0.408142  0.500000  1
  Co  Co5  1  0.591858  0.795287  0.500000  1
  Si  Si6  1  0.801366  0.198634  0.500000  1
  Si  Si7  1  0.797324  0.600216  0.500000  1
  Si  Si8  1  0.399784  0.202676  0.500000  1
  Si  Si9  1  0.336229  0.663771  0.000000  1
  Ni  Ni10  1  0.204243  0.795757  0.500000  1
