# generated using pymatgen
data_DyHo2Zn3AgGe2
_symmetry_space_group_name_H-M   'P 1'
_cell_length_a   6.94100487
_cell_length_b   6.93398219
_cell_length_c   4.30775600
_cell_angle_alpha   90.00000000
_cell_angle_beta   90.00000000
_cell_angle_gamma   119.96655051
_symmetry_Int_Tables_number   1
_chemical_formula_structural   DyHo2Zn3AgGe2
_chemical_formula_sum   'Dy1 Ho2 Zn3 Ag1 Ge2'
_cell_volume   179.61106276
_cell_formula_units_Z   1
loop_
 _symmetry_equiv_pos_site_id
 _symmetry_equiv_pos_as_xyz
  1  'x, y, z'
loop_
 _atom_site_type_symbol
 _atom_site_label
 _atom_site_symmetry_multiplicity
 _atom_site_fract_x
 _atom_site_fract_y
 _atom_site_fract_z
 _atom_site_occupancy
  Dy  Dy0  1  0.000000  0.576053  0.500000  1
  Ho  Ho1  1  0.424219  0.424060  0.500000  1
  Ho  Ho2  1  0.575781  0.999840  0.500000  1
  Zn  Zn3  1  0.757571  0.757584  0.000000  1
  Zn  Zn4  1  0.242429  0.000013  0.000000  1
  Zn  Zn5  1  0.000000  0.242040  0.000000  1
  Ag  Ag6  1  0.000000  0.001008  0.500000  1
  Ge  Ge7  1  0.665855  0.332630  0.000000  1
  Ge  Ge8  1  0.334145  0.666775  0.000000  1
