# generated using pymatgen
data_Tb3Er2Tm11(In3Co)2
_symmetry_space_group_name_H-M   'P 1'
_cell_length_a   10.26560400
_cell_length_b   10.26560363
_cell_length_c   6.96438500
_cell_angle_alpha   90.00000000
_cell_angle_beta   90.00000000
_cell_angle_gamma   119.99999475
_symmetry_Int_Tables_number   1
_chemical_formula_structural   Tb3Er2Tm11(In3Co)2
_chemical_formula_sum   'Tb3 Er2 Tm11 In6 Co2'
_cell_volume   635.59785784
_cell_formula_units_Z   1
loop_
 _symmetry_equiv_pos_site_id
 _symmetry_equiv_pos_as_xyz
  1  'x, y, z'
loop_
 _atom_site_type_symbol
 _atom_site_label
 _atom_site_symmetry_multiplicity
 _atom_site_fract_x
 _atom_site_fract_y
 _atom_site_fract_z
 _atom_site_occupancy
  Tb  Tb0  1  0.534139  0.068278  0.790892  1
  Tb  Tb1  1  0.931722  0.465861  0.790892  1
  Tb  Tb2  1  0.534139  0.465861  0.790892  1
  Er  Er3  1  0.000000  0.000000  0.779191  1
  Er  Er4  1  0.000000  0.000000  0.279850  1
  Tm  Tm5  1  0.464566  0.929131  0.291559  1
  Tm  Tm6  1  0.070869  0.535434  0.291559  1
  Tm  Tm7  1  0.464566  0.535434  0.291559  1
  Tm  Tm8  1  0.821711  0.643424  0.496982  1
  Tm  Tm9  1  0.356576  0.178289  0.496982  1
  Tm  Tm10  1  0.821711  0.178289  0.496982  1
  Tm  Tm11  1  0.178510  0.357019  0.999778  1
  Tm  Tm12  1  0.642981  0.821490  0.999778  1
  Tm  Tm13  1  0.178510  0.821490  0.999778  1
  Tm  Tm14  1  0.666667  0.333333  0.184290  1
  Tm  Tm15  1  0.333333  0.666667  0.683205  1
  In  In16  1  0.837390  0.674781  0.040166  1
  In  In17  1  0.325219  0.162610  0.040166  1
  In  In18  1  0.837390  0.162610  0.040166  1
  In  In19  1  0.163249  0.326497  0.539176  1
  In  In20  1  0.673503  0.836751  0.539176  1
  In  In21  1  0.163249  0.836751  0.539176  1
  Co  Co22  1  0.666667  0.333333  0.565941  1
  Co  Co23  1  0.333333  0.666667  0.067768  1
