# generated using pymatgen
data_Tb16In4PdRu2Rh
_symmetry_space_group_name_H-M   'P 1'
_cell_length_a   9.71549045
_cell_length_b   9.71618305
_cell_length_c   9.73680300
_cell_angle_alpha   59.92977583
_cell_angle_beta   59.92741091
_cell_angle_gamma   59.88304334
_symmetry_Int_Tables_number   1
_chemical_formula_structural   Tb16In4PdRu2Rh
_chemical_formula_sum   'Tb16 In4 Pd1 Ru2 Rh1'
_cell_volume   648.64594129
_cell_formula_units_Z   1
loop_
 _symmetry_equiv_pos_site_id
 _symmetry_equiv_pos_as_xyz
  1  'x, y, z'
loop_
 _atom_site_type_symbol
 _atom_site_label
 _atom_site_symmetry_multiplicity
 _atom_site_fract_x
 _atom_site_fract_y
 _atom_site_fract_z
 _atom_site_occupancy
  Tb  Tb0  1  0.810719  0.810796  0.189243  1
  Tb  Tb1  1  0.812262  0.183135  0.808981  1
  Tb  Tb2  1  0.195639  0.185669  0.809346  1
  Tb  Tb3  1  0.651071  0.045502  0.651713  1
  Tb  Tb4  1  0.058534  0.059676  0.440895  1
  Tb  Tb5  1  0.435087  0.438609  0.063152  1
  Tb  Tb6  1  0.648977  0.654527  0.648642  1
  Tb  Tb7  1  0.812262  0.183135  0.195622  1
  Tb  Tb8  1  0.187910  0.812082  0.808844  1
  Tb  Tb9  1  0.048563  0.653841  0.648797  1
  Tb  Tb10  1  0.440119  0.062624  0.060915  1
  Tb  Tb11  1  0.440119  0.062624  0.436341  1
  Tb  Tb12  1  0.061729  0.442043  0.061216  1
  Tb  Tb13  1  0.648977  0.654527  0.047853  1
  Tb  Tb14  1  0.187910  0.812082  0.191164  1
  Tb  Tb15  1  0.061729  0.442043  0.435012  1
  In  In16  1  0.418808  0.417921  0.417232  1
  In  In17  1  0.418808  0.417921  0.746040  1
  In  In18  1  0.417914  0.748285  0.416900  1
  In  In19  1  0.746374  0.418230  0.417698  1
  Pd  Pd20  1  0.857097  0.425500  0.858702  1
  Ru  Ru21  1  0.857521  0.856444  0.860147  1
  Ru  Ru22  1  0.857521  0.856444  0.425889  1
  Rh  Rh23  1  0.424354  0.856336  0.859656  1
