# generated using pymatgen
data_AcCo4NiP3
_symmetry_space_group_name_H-M   'P 1'
_cell_length_a   6.10530575
_cell_length_b   6.10530577
_cell_length_c   11.54507300
_cell_angle_alpha   90.00000000
_cell_angle_beta   90.00000000
_cell_angle_gamma   145.17673360
_symmetry_Int_Tables_number   1
_chemical_formula_structural   AcCo4NiP3
_chemical_formula_sum   'Ac2 Co8 Ni2 P6'
_cell_volume   245.74424252
_cell_formula_units_Z   2
loop_
 _symmetry_equiv_pos_site_id
 _symmetry_equiv_pos_as_xyz
  1  'x, y, z'
loop_
 _atom_site_type_symbol
 _atom_site_label
 _atom_site_symmetry_multiplicity
 _atom_site_fract_x
 _atom_site_fract_y
 _atom_site_fract_z
 _atom_site_occupancy
  Ac  Ac0  1  0.336282  0.663718  0.250000  1
  Ac  Ac1  1  0.663718  0.336282  0.750000  1
  Co  Co2  1  0.052046  0.947954  0.141042  1
  Co  Co3  1  0.052046  0.947954  0.358958  1
  Co  Co4  1  0.696678  0.303322  0.434171  1
  Co  Co5  1  0.303322  0.696678  0.565829  1
  Co  Co6  1  0.303322  0.696678  0.934171  1
  Co  Co7  1  0.696678  0.303322  0.065829  1
  Co  Co8  1  0.947954  0.052046  0.641042  1
  Co  Co9  1  0.947954  0.052046  0.858958  1
  Ni  Ni10  1  0.500000  0.500000  0.500000  1
  Ni  Ni11  1  0.500000  0.500000  0.000000  1
  P  P12  1  0.607949  0.392051  0.250000  1
  P  P13  1  0.392051  0.607949  0.750000  1
  P  P14  1  0.120097  0.879903  0.534652  1
  P  P15  1  0.879903  0.120097  0.465348  1
  P  P16  1  0.879903  0.120097  0.034652  1
  P  P17  1  0.120097  0.879903  0.965348  1
