# generated using pymatgen
data_Dy3Al5Pd
_symmetry_space_group_name_H-M   'P 1'
_cell_length_a   6.99625800
_cell_length_b   6.99625923
_cell_length_c   4.39856100
_cell_angle_alpha   90.00000000
_cell_angle_beta   90.00000000
_cell_angle_gamma   120.00000365
_symmetry_Int_Tables_number   1
_chemical_formula_structural   Dy3Al5Pd
_chemical_formula_sum   'Dy3 Al5 Pd1'
_cell_volume   186.45453214
_cell_formula_units_Z   1
loop_
 _symmetry_equiv_pos_site_id
 _symmetry_equiv_pos_as_xyz
  1  'x, y, z'
loop_
 _atom_site_type_symbol
 _atom_site_label
 _atom_site_symmetry_multiplicity
 _atom_site_fract_x
 _atom_site_fract_y
 _atom_site_fract_z
 _atom_site_occupancy
  Dy  Dy0  1  0.585945  0.000000  0.500000  1
  Dy  Dy1  1  0.414055  0.414055  0.500000  1
  Dy  Dy2  1  0.000000  0.585945  0.500000  1
  Al  Al3  1  0.235731  0.000000  0.000000  1
  Al  Al4  1  0.000000  0.235731  0.000000  1
  Al  Al5  1  0.666667  0.333333  0.000000  1
  Al  Al6  1  0.333333  0.666667  0.000000  1
  Al  Al7  1  0.764269  0.764269  0.000000  1
  Pd  Pd8  1  0.000000  0.000000  0.500000  1
