# generated using pymatgen
data_Mg3Be2B4MoRh10
_symmetry_space_group_name_H-M   'P 1'
_cell_length_a   9.23354537
_cell_length_b   2.88320400
_cell_length_c   9.23354537
_cell_angle_alpha   90.00000000
_cell_angle_beta   90.85724073
_cell_angle_gamma   90.00000000
_symmetry_Int_Tables_number   1
_chemical_formula_structural   Mg3Be2B4MoRh10
_chemical_formula_sum   'Mg3 Be2 B4 Mo1 Rh10'
_cell_volume   245.78973192
_cell_formula_units_Z   1
loop_
 _symmetry_equiv_pos_site_id
 _symmetry_equiv_pos_as_xyz
  1  'x, y, z'
loop_
 _atom_site_type_symbol
 _atom_site_label
 _atom_site_symmetry_multiplicity
 _atom_site_fract_x
 _atom_site_fract_y
 _atom_site_fract_z
 _atom_site_occupancy
  Mg  Mg0  1  0.822123  0.000000  0.327174  1
  Mg  Mg1  1  0.172826  0.000000  0.677877  1
  Mg  Mg2  1  0.677706  0.000000  0.822294  1
  Be  Be3  1  0.002030  0.000000  0.999817  1
  Be  Be4  1  0.500183  0.000000  0.497970  1
  B  B5  1  0.634012  0.000000  0.128667  1
  B  B6  1  0.125648  0.000000  0.374353  1
  B  B7  1  0.869944  0.000000  0.630056  1
  B  B8  1  0.371334  0.000000  0.865988  1
  Mo  Mo9  1  0.323903  0.000000  0.176097  1
  Rh  Rh10  1  0.499455  0.500001  0.000545  1
  Rh  Rh11  1  0.794788  0.500001  0.070050  1
  Rh  Rh12  1  0.074306  0.500001  0.207139  1
  Rh  Rh13  1  0.560377  0.500001  0.288374  1
  Rh  Rh14  1  0.292861  0.500001  0.425694  1
  Rh  Rh15  1  0.999555  0.500001  0.500445  1
  Rh  Rh16  1  0.705614  0.500001  0.568242  1
  Rh  Rh17  1  0.429950  0.500001  0.705211  1
  Rh  Rh18  1  0.931757  0.500001  0.794385  1
  Rh  Rh19  1  0.211626  0.500001  0.939622  1
