# generated using pymatgen
data_TbSmNpO6
_symmetry_space_group_name_H-M   'P 1'
_cell_length_a   5.61556600
_cell_length_b   7.91105069
_cell_length_c   11.93309812
_cell_angle_alpha   74.26544139
_cell_angle_beta   90.00000000
_cell_angle_gamma   90.00000000
_symmetry_Int_Tables_number   1
_chemical_formula_structural   TbSmNpO6
_chemical_formula_sum   'Tb4 Sm4 Np4 O24'
_cell_volume   510.26343414
_cell_formula_units_Z   4
loop_
 _symmetry_equiv_pos_site_id
 _symmetry_equiv_pos_as_xyz
  1  'x, y, z'
loop_
 _atom_site_type_symbol
 _atom_site_label
 _atom_site_symmetry_multiplicity
 _atom_site_fract_x
 _atom_site_fract_y
 _atom_site_fract_z
 _atom_site_occupancy
  Tb  Tb0  1  0.187246  0.794327  0.578872  1
  Tb  Tb1  1  0.812754  0.794327  0.078872  1
  Tb  Tb2  1  0.187246  0.205673  0.921128  1
  Tb  Tb3  1  0.812754  0.205673  0.421128  1
  Sm  Sm4  1  0.743966  0.000000  0.750000  1
  Sm  Sm5  1  0.256034  0.000000  0.250000  1
  Sm  Sm6  1  0.694147  0.500000  0.750000  1
  Sm  Sm7  1  0.305853  0.500000  0.250000  1
  Np  Np8  1  0.254006  0.721693  0.886560  1
  Np  Np9  1  0.745994  0.721693  0.386560  1
  Np  Np10  1  0.254006  0.278307  0.613440  1
  Np  Np11  1  0.745994  0.278307  0.113440  1
  O  O12  1  0.046350  0.943015  0.897748  1
  O  O13  1  0.547472  0.847579  0.933171  1
  O  O14  1  0.953650  0.943015  0.397748  1
  O  O15  1  0.446210  0.796840  0.727993  1
  O  O16  1  0.452528  0.847579  0.433171  1
  O  O17  1  0.969057  0.713646  0.767346  1
  O  O18  1  0.553790  0.796840  0.227993  1
  O  O19  1  0.874770  0.630244  0.552560  1
  O  O20  1  0.381996  0.482919  0.885629  1
  O  O21  1  0.030943  0.713646  0.267346  1
  O  O22  1  0.381996  0.517081  0.614371  1
  O  O23  1  0.874770  0.369756  0.947440  1
  O  O24  1  0.125230  0.630244  0.052560  1
  O  O25  1  0.618004  0.482919  0.385629  1
  O  O26  1  0.969057  0.286354  0.732654  1
  O  O27  1  0.618004  0.517081  0.114371  1
  O  O28  1  0.125230  0.369756  0.447440  1
  O  O29  1  0.446210  0.203160  0.772007  1
  O  O30  1  0.030943  0.286354  0.232654  1
  O  O31  1  0.547472  0.152421  0.566829  1
  O  O32  1  0.553790  0.203160  0.272007  1
  O  O33  1  0.046350  0.056985  0.602252  1
  O  O34  1  0.452528  0.152421  0.066829  1
  O  O35  1  0.953650  0.056985  0.102252  1
