# generated using pymatgen
data_DyHo11TlCo4Ni
_symmetry_space_group_name_H-M   'P 1'
_cell_length_a   8.26022638
_cell_length_b   8.26022634
_cell_length_c   8.25755974
_cell_angle_alpha   106.96228960
_cell_angle_beta   110.70729911
_cell_angle_gamma   110.78560194
_symmetry_Int_Tables_number   1
_chemical_formula_structural   DyHo11TlCo4Ni
_chemical_formula_sum   'Dy1 Ho11 Tl1 Co4 Ni1'
_cell_volume   433.03390063
_cell_formula_units_Z   1
loop_
 _symmetry_equiv_pos_site_id
 _symmetry_equiv_pos_as_xyz
  1  'x, y, z'
loop_
 _atom_site_type_symbol
 _atom_site_label
 _atom_site_symmetry_multiplicity
 _atom_site_fract_x
 _atom_site_fract_y
 _atom_site_fract_z
 _atom_site_occupancy
  Dy  Dy0  1  0.804854  0.210478  0.015333  1
  Ho  Ho1  1  0.478543  0.292889  0.185967  1
  Ho  Ho2  1  0.106888  0.293084  0.813684  1
  Ho  Ho3  1  0.893079  0.707423  0.185967  1
  Ho  Ho4  1  0.520601  0.706797  0.813684  1
  Ho  Ho5  1  0.305136  0.619864  0.315055  1
  Ho  Ho6  1  0.304312  0.989742  0.684831  1
  Ho  Ho7  1  0.695091  0.380520  0.684831  1
  Ho  Ho8  1  0.695190  0.009918  0.315055  1
  Ho  Ho9  1  0.195654  0.210375  0.406029  1
  Ho  Ho10  1  0.804726  0.789580  0.594306  1
  Ho  Ho11  1  0.195370  0.789811  0.985181  1
  Tl  Tl12  1  0.000190  0.500288  0.500478  1
  Co  Co13  1  0.500210  0.612397  0.112606  1
  Co  Co14  1  0.499493  0.387289  0.886782  1
  Co  Co15  1  0.378417  0.000120  0.378537  1
  Co  Co16  1  0.621563  0.999871  0.621434  1
  Ni  Ni17  1  0.000682  0.999558  0.000239  1
