# generated using pymatgen
data_K2ZnF5
_symmetry_space_group_name_H-M   'P 1'
_cell_length_a   5.79262800
_cell_length_b   7.45927900
_cell_length_c   11.64279900
_cell_angle_alpha   90.00000000
_cell_angle_beta   90.00000000
_cell_angle_gamma   90.00000000
_symmetry_Int_Tables_number   1
_chemical_formula_structural   K2ZnF5
_chemical_formula_sum   'K8 Zn4 F20'
_cell_volume   503.07170403
_cell_formula_units_Z   4
loop_
 _symmetry_equiv_pos_site_id
 _symmetry_equiv_pos_as_xyz
  1  'x, y, z'
loop_
 _atom_site_type_symbol
 _atom_site_label
 _atom_site_symmetry_multiplicity
 _atom_site_fract_x
 _atom_site_fract_y
 _atom_site_fract_z
 _atom_site_occupancy
  K  K0  1  0.250000  0.487586  0.280313  1
  K  K1  1  0.750000  0.512414  0.719687  1
  K  K2  1  0.250000  0.987586  0.219687  1
  K  K3  1  0.750000  0.012414  0.780313  1
  K  K4  1  0.250000  0.150342  0.579803  1
  K  K5  1  0.750000  0.849658  0.420197  1
  K  K6  1  0.250000  0.650342  0.920197  1
  K  K7  1  0.750000  0.349658  0.079803  1
  Zn  Zn8  1  0.250000  0.665557  0.563388  1
  Zn  Zn9  1  0.750000  0.334443  0.436612  1
  Zn  Zn10  1  0.250000  0.165557  0.936612  1
  Zn  Zn11  1  0.750000  0.834443  0.063388  1
  F  F12  1  0.501842  0.180941  0.378750  1
  F  F13  1  0.001842  0.819059  0.621250  1
  F  F14  1  0.998158  0.680941  0.121250  1
  F  F15  1  0.498158  0.319059  0.878750  1
  F  F16  1  0.498158  0.819059  0.621250  1
  F  F17  1  0.998158  0.180941  0.378750  1
  F  F18  1  0.001842  0.319059  0.878750  1
  F  F19  1  0.501842  0.680941  0.121250  1
  F  F20  1  0.250000  0.787774  0.414728  1
  F  F21  1  0.750000  0.212226  0.585272  1
  F  F22  1  0.250000  0.287774  0.085272  1
  F  F23  1  0.750000  0.712226  0.914728  1
  F  F24  1  0.500000  0.500000  0.500000  1
  F  F25  1  0.000000  0.500000  0.500000  1
  F  F26  1  0.000000  0.000000  0.000000  1
  F  F27  1  0.500000  0.000000  0.000000  1
  F  F28  1  0.750000  0.983706  0.198363  1
  F  F29  1  0.250000  0.016294  0.801637  1
  F  F30  1  0.750000  0.483706  0.301637  1
  F  F31  1  0.250000  0.516294  0.698363  1
