# generated using pymatgen
data_DyY5Al24(Os3Pt)2
_symmetry_space_group_name_H-M   'P 1'
_cell_length_a   8.85723852
_cell_length_b   8.81975123
_cell_length_c   9.57111135
_cell_angle_alpha   89.99818306
_cell_angle_beta   90.18927562
_cell_angle_gamma   119.85955732
_symmetry_Int_Tables_number   1
_chemical_formula_structural   DyY5Al24(Os3Pt)2
_chemical_formula_sum   'Dy1 Y5 Al24 Os6 Pt2'
_cell_volume   648.42153164
_cell_formula_units_Z   1
loop_
 _symmetry_equiv_pos_site_id
 _symmetry_equiv_pos_as_xyz
  1  'x, y, z'
loop_
 _atom_site_type_symbol
 _atom_site_label
 _atom_site_symmetry_multiplicity
 _atom_site_fract_x
 _atom_site_fract_y
 _atom_site_fract_z
 _atom_site_occupancy
  Dy  Dy0  1  0.809699  0.196184  0.747304  1
  Y  Y1  1  0.190361  0.386456  0.252622  1
  Y  Y2  1  0.809645  0.613485  0.747384  1
  Y  Y3  1  0.615449  0.807722  0.252467  1
  Y  Y4  1  0.384595  0.192272  0.747528  1
  Y  Y5  1  0.190350  0.803908  0.252622  1
  Al  Al6  1  0.328595  0.664302  0.026050  1
  Al  Al7  1  0.671409  0.335678  0.973901  1
  Al  Al8  1  0.666538  0.333261  0.522760  1
  Al  Al9  1  0.333467  0.666722  0.477282  1
  Al  Al10  1  0.164604  0.327984  0.575719  1
  Al  Al11  1  0.835359  0.671997  0.424320  1
  Al  Al12  1  0.672793  0.836417  0.575063  1
  Al  Al13  1  0.841424  0.674093  0.077684  1
  Al  Al14  1  0.327228  0.163621  0.424975  1
  Al  Al15  1  0.158528  0.325882  0.922270  1
  Al  Al16  1  0.164632  0.836637  0.575689  1
  Al  Al17  1  0.323549  0.161776  0.078745  1
  Al  Al18  1  0.835366  0.163366  0.424359  1
  Al  Al19  1  0.676475  0.838273  0.921218  1
  Al  Al20  1  0.841421  0.167333  0.077642  1
  Al  Al21  1  0.158569  0.832662  0.922313  1
  Al  Al22  1  0.562048  0.124905  0.251921  1
  Al  Al23  1  0.437982  0.875101  0.748086  1
  Al  Al24  1  0.876184  0.438090  0.248973  1
  Al  Al25  1  0.123813  0.561880  0.751039  1
  Al  Al26  1  0.562054  0.437140  0.251926  1
  Al  Al27  1  0.437939  0.562859  0.748069  1
  Al  Al28  1  0.997927  0.998964  0.250372  1
  Al  Al29  1  0.001997  0.001117  0.749626  1
  Os  Os30  1  0.999964  0.499955  0.999962  1
  Os  Os31  1  0.500049  0.000030  0.500050  1
  Os  Os32  1  0.999945  0.499913  0.500085  1
  Os  Os33  1  0.500001  0.500005  0.499990  1
  Os  Os34  1  0.000005  0.000000  0.000024  1
  Os  Os35  1  0.000010  0.999988  0.499970  1
  Pt  Pt36  1  0.500024  0.000023  0.999984  1
  Pt  Pt37  1  0.500000  0.500002  0.000008  1
