# generated using pymatgen
data_Tb5Ho5(Co2Pd)2
_symmetry_space_group_name_H-M   'P 1'
_cell_length_a   7.32343406
_cell_length_b   7.32343353
_cell_length_c   8.62686537
_cell_angle_alpha   115.83889090
_cell_angle_beta   115.31667296
_cell_angle_gamma   89.01773105
_symmetry_Int_Tables_number   1
_chemical_formula_structural   Tb5Ho5(Co2Pd)2
_chemical_formula_sum   'Tb5 Ho5 Co4 Pd2'
_cell_volume   368.19662004
_cell_formula_units_Z   1
loop_
 _symmetry_equiv_pos_site_id
 _symmetry_equiv_pos_as_xyz
  1  'x, y, z'
loop_
 _atom_site_type_symbol
 _atom_site_label
 _atom_site_symmetry_multiplicity
 _atom_site_fract_x
 _atom_site_fract_y
 _atom_site_fract_z
 _atom_site_occupancy
  Tb  Tb0  1  0.464904  0.306092  0.270996  1
  Tb  Tb1  1  0.968028  0.471390  0.278332  1
  Tb  Tb2  1  0.306942  0.810303  0.278332  1
  Tb  Tb3  1  0.802351  0.967996  0.270347  1
  Tb  Tb4  1  0.197816  0.031920  0.729735  1
  Ho  Ho5  1  0.999323  0.999527  0.998983  1
  Ho  Ho6  1  0.499455  0.499659  0.998983  1
  Ho  Ho7  1  0.695182  0.191860  0.723580  1
  Ho  Ho8  1  0.031721  0.528397  0.723580  1
  Ho  Ho9  1  0.536577  0.695132  0.731710  1
  Co  Co10  1  0.631093  0.130513  0.998875  1
  Co  Co11  1  0.116081  0.381206  0.997287  1
  Co  Co12  1  0.882117  0.618742  0.000858  1
  Co  Co13  1  0.368363  0.867782  0.998875  1
  Pd  Pd14  1  0.251720  0.251436  0.499761  1
  Pd  Pd15  1  0.748325  0.748042  0.499761  1
