# generated using pymatgen
data_Pr2Fe7CoB8
_symmetry_space_group_name_H-M   'P 1'
_cell_length_a   7.10709927
_cell_length_b   7.09207870
_cell_length_c   3.80051712
_cell_angle_alpha   89.95914851
_cell_angle_beta   89.90823948
_cell_angle_gamma   89.81045701
_symmetry_Int_Tables_number   1
_chemical_formula_structural   Pr2Fe7CoB8
_chemical_formula_sum   'Pr2 Fe7 Co1 B8'
_cell_volume   191.56033105
_cell_formula_units_Z   1
loop_
 _symmetry_equiv_pos_site_id
 _symmetry_equiv_pos_as_xyz
  1  'x, y, z'
loop_
 _atom_site_type_symbol
 _atom_site_label
 _atom_site_symmetry_multiplicity
 _atom_site_fract_x
 _atom_site_fract_y
 _atom_site_fract_z
 _atom_site_occupancy
  Pr  Pr0  1  0.999106  0.001141  0.999555  1
  Pr  Pr1  1  0.500315  0.499968  0.499843  1
  Fe  Fe2  1  0.869017  0.611220  0.893821  1
  Fe  Fe3  1  0.889498  0.368653  0.395051  1
  Fe  Fe4  1  0.112616  0.630583  0.394108  1
  Fe  Fe5  1  0.367235  0.112405  0.605891  1
  Fe  Fe6  1  0.632051  0.888284  0.605234  1
  Fe  Fe7  1  0.611432  0.132212  0.105261  1
  Fe  Fe8  1  0.388031  0.868728  0.105522  1
  Co  Co9  1  0.135010  0.388427  0.893658  1
  B  B10  1  0.665717  0.798408  0.104604  1
  B  B11  1  0.335591  0.197649  0.106373  1
  B  B12  1  0.299532  0.834624  0.604991  1
  B  B13  1  0.702217  0.164767  0.604740  1
  B  B14  1  0.834710  0.701735  0.394523  1
  B  B15  1  0.164282  0.296831  0.396065  1
  B  B16  1  0.200122  0.668812  0.894763  1
  B  B17  1  0.793517  0.335551  0.895993  1
