# generated using pymatgen
data_DyYCo8(TcP3)2
_symmetry_space_group_name_H-M   'P 1'
_cell_length_a   3.71105500
_cell_length_b   10.36298701
_cell_length_c   11.81498102
_cell_angle_alpha   90.00605034
_cell_angle_beta   90.00000000
_cell_angle_gamma   90.00000000
_symmetry_Int_Tables_number   1
_chemical_formula_structural   DyYCo8(TcP3)2
_chemical_formula_sum   'Dy2 Y2 Co16 Tc4 P12'
_cell_volume   454.37598597
_cell_formula_units_Z   2
loop_
 _symmetry_equiv_pos_site_id
 _symmetry_equiv_pos_as_xyz
  1  'x, y, z'
loop_
 _atom_site_type_symbol
 _atom_site_label
 _atom_site_symmetry_multiplicity
 _atom_site_fract_x
 _atom_site_fract_y
 _atom_site_fract_z
 _atom_site_occupancy
  Dy  Dy0  1  0.250000  0.915816  0.204587  1
  Dy  Dy1  1  0.750000  0.084184  0.795413  1
  Y  Y2  1  0.750000  0.415842  0.295404  1
  Y  Y3  1  0.250000  0.584158  0.704596  1
  Co  Co4  1  0.250000  0.093226  0.989084  1
  Co  Co5  1  0.750000  0.906774  0.010916  1
  Co  Co6  1  0.750000  0.593251  0.510871  1
  Co  Co7  1  0.250000  0.406749  0.489129  1
  Co  Co8  1  0.250000  0.278027  0.676483  1
  Co  Co9  1  0.750000  0.721973  0.323517  1
  Co  Co10  1  0.750000  0.778062  0.823529  1
  Co  Co11  1  0.250000  0.221938  0.176471  1
  Co  Co12  1  0.250000  0.614444  0.202106  1
  Co  Co13  1  0.750000  0.385556  0.797894  1
  Co  Co14  1  0.750000  0.114374  0.297889  1
  Co  Co15  1  0.250000  0.885626  0.702111  1
  Co  Co16  1  0.250000  0.035930  0.431782  1
  Co  Co17  1  0.750000  0.964070  0.568218  1
  Co  Co18  1  0.750000  0.535941  0.068199  1
  Co  Co19  1  0.250000  0.464059  0.931801  1
  Tc  Tc20  1  0.250000  0.789218  0.489357  1
  Tc  Tc21  1  0.750000  0.210782  0.510643  1
  Tc  Tc22  1  0.750000  0.289239  0.010619  1
  Tc  Tc23  1  0.250000  0.710761  0.989381  1
  P  P24  1  0.250000  0.079314  0.612938  1
  P  P25  1  0.750000  0.920686  0.387062  1
  P  P26  1  0.750000  0.579281  0.887127  1
  P  P27  1  0.250000  0.420719  0.112873  1
  P  P28  1  0.250000  0.229914  0.365650  1
  P  P29  1  0.750000  0.770086  0.634350  1
  P  P30  1  0.750000  0.729952  0.134388  1
  P  P31  1  0.250000  0.270048  0.865612  1
  P  P32  1  0.250000  0.903074  0.891103  1
  P  P33  1  0.750000  0.096926  0.108897  1
  P  P34  1  0.750000  0.403014  0.608877  1
  P  P35  1  0.250000  0.596986  0.391123  1
