# generated using pymatgen
data_Er3TlIn2Ag2Ir
_symmetry_space_group_name_H-M   'P 1'
_cell_length_a   8.00535651
_cell_length_b   8.03041970
_cell_length_c   3.69386000
_cell_angle_alpha   90.00000000
_cell_angle_beta   90.00000000
_cell_angle_gamma   120.26242360
_symmetry_Int_Tables_number   1
_chemical_formula_structural   Er3TlIn2Ag2Ir
_chemical_formula_sum   'Er3 Tl1 In2 Ag2 Ir1'
_cell_volume   205.10463348
_cell_formula_units_Z   1
loop_
 _symmetry_equiv_pos_site_id
 _symmetry_equiv_pos_as_xyz
  1  'x, y, z'
loop_
 _atom_site_type_symbol
 _atom_site_label
 _atom_site_symmetry_multiplicity
 _atom_site_fract_x
 _atom_site_fract_y
 _atom_site_fract_z
 _atom_site_occupancy
  Er  Er0  1  0.583561  0.615779  0.000000  1
  Er  Er1  1  0.383975  0.963339  0.000000  1
  Er  Er2  1  0.035464  0.422067  0.000000  1
  Tl  Tl3  1  0.986380  0.719765  0.500000  1
  In  In4  1  0.278159  0.270385  0.500000  1
  In  In5  1  0.732066  0.011314  0.500000  1
  Ag  Ag6  1  0.000735  0.007465  0.000000  1
  Ag  Ag7  1  0.660397  0.325270  0.500000  1
  Ir  Ir8  1  0.339262  0.664618  0.500000  1
