# generated using pymatgen
data_Pr3(CrC3)2
_symmetry_space_group_name_H-M   'P 1'
_cell_length_a   8.31201900
_cell_length_b   8.31201859
_cell_length_c   5.24839700
_cell_angle_alpha   90.00000000
_cell_angle_beta   90.00000000
_cell_angle_gamma   119.99998970
_symmetry_Int_Tables_number   1
_chemical_formula_structural   Pr3(CrC3)2
_chemical_formula_sum   'Pr6 Cr4 C12'
_cell_volume   314.02945706
_cell_formula_units_Z   2
loop_
 _symmetry_equiv_pos_site_id
 _symmetry_equiv_pos_as_xyz
  1  'x, y, z'
loop_
 _atom_site_type_symbol
 _atom_site_label
 _atom_site_symmetry_multiplicity
 _atom_site_fract_x
 _atom_site_fract_y
 _atom_site_fract_z
 _atom_site_occupancy
  Pr  Pr0  1  0.612782  0.687621  0.750000  1
  Pr  Pr1  1  0.925161  0.612782  0.250000  1
  Pr  Pr2  1  0.687621  0.074839  0.250000  1
  Pr  Pr3  1  0.312379  0.925161  0.750000  1
  Pr  Pr4  1  0.074839  0.387218  0.750000  1
  Pr  Pr5  1  0.387218  0.312379  0.250000  1
  Cr  Cr6  1  0.000000  0.000000  0.500000  1
  Cr  Cr7  1  0.000000  0.000000  0.000000  1
  Cr  Cr8  1  0.666667  0.333333  0.750000  1
  Cr  Cr9  1  0.333333  0.666667  0.250000  1
  C  C10  1  0.954413  0.773095  0.750000  1
  C  C11  1  0.181317  0.954413  0.250000  1
  C  C12  1  0.773095  0.818683  0.250000  1
  C  C13  1  0.226905  0.181317  0.750000  1
  C  C14  1  0.818683  0.045587  0.750000  1
  C  C15  1  0.045587  0.226905  0.250000  1
  C  C16  1  0.858280  0.581315  0.750000  1
  C  C17  1  0.276963  0.858280  0.250000  1
  C  C18  1  0.581315  0.723037  0.250000  1
  C  C19  1  0.418685  0.276963  0.750000  1
  C  C20  1  0.141720  0.418685  0.250000  1
  C  C21  1  0.723037  0.141720  0.750000  1
