# generated using pymatgen
data_Er2B8IrW
_symmetry_space_group_name_H-M   'P 1'
_cell_length_a   3.58309700
_cell_length_b   5.98652247
_cell_length_c   11.59232304
_cell_angle_alpha   89.65311227
_cell_angle_beta   90.00000000
_cell_angle_gamma   90.00000000
_symmetry_Int_Tables_number   1
_chemical_formula_structural   Er2B8IrW
_chemical_formula_sum   'Er4 B16 Ir2 W2'
_cell_volume   248.65414177
_cell_formula_units_Z   2
loop_
 _symmetry_equiv_pos_site_id
 _symmetry_equiv_pos_as_xyz
  1  'x, y, z'
loop_
 _atom_site_type_symbol
 _atom_site_label
 _atom_site_symmetry_multiplicity
 _atom_site_fract_x
 _atom_site_fract_y
 _atom_site_fract_z
 _atom_site_occupancy
  Er  Er0  1  0.000000  0.627279  0.349880  1
  Er  Er1  1  0.000000  0.372721  0.650120  1
  Er  Er2  1  0.000000  0.128785  0.148377  1
  Er  Er3  1  0.000000  0.871215  0.851623  1
  B  B4  1  0.500000  0.788927  0.186213  1
  B  B5  1  0.500000  0.211073  0.813787  1
  B  B6  1  0.500000  0.290791  0.311543  1
  B  B7  1  0.500000  0.709209  0.688457  1
  B  B8  1  0.500000  0.864601  0.030628  1
  B  B9  1  0.500000  0.135399  0.969372  1
  B  B10  1  0.500000  0.367743  0.467614  1
  B  B11  1  0.500000  0.632257  0.532386  1
  B  B12  1  0.500000  0.884939  0.453150  1
  B  B13  1  0.500000  0.115061  0.546850  1
  B  B14  1  0.500000  0.386638  0.047100  1
  B  B15  1  0.500000  0.613362  0.952900  1
  B  B16  1  0.500000  0.975469  0.305500  1
  B  B17  1  0.500000  0.024531  0.694500  1
  B  B18  1  0.500000  0.474485  0.191381  1
  B  B19  1  0.500000  0.525515  0.808619  1
  Ir  Ir20  1  0.000000  0.645167  0.095048  1
  Ir  Ir21  1  0.000000  0.354833  0.904952  1
  W  W22  1  0.000000  0.129736  0.413174  1
  W  W23  1  0.000000  0.870264  0.586826  1
