# generated using pymatgen
data_AlGa7(NiRu)4
_symmetry_space_group_name_H-M   'P 1'
_cell_length_a   5.85852619
_cell_length_b   5.85873919
_cell_length_c   6.11117700
_cell_angle_alpha   90.00176830
_cell_angle_beta   89.99770272
_cell_angle_gamma   90.02902622
_symmetry_Int_Tables_number   1
_chemical_formula_structural   AlGa7(NiRu)4
_chemical_formula_sum   'Al1 Ga7 Ni4 Ru4'
_cell_volume   209.75742703
_cell_formula_units_Z   1
loop_
 _symmetry_equiv_pos_site_id
 _symmetry_equiv_pos_as_xyz
  1  'x, y, z'
loop_
 _atom_site_type_symbol
 _atom_site_label
 _atom_site_symmetry_multiplicity
 _atom_site_fract_x
 _atom_site_fract_y
 _atom_site_fract_z
 _atom_site_occupancy
  Al  Al0  1  0.499915  0.500049  0.750107  1
  Ga  Ga1  1  0.500063  0.000007  0.249899  1
  Ga  Ga2  1  0.500075  0.499946  0.249895  1
  Ga  Ga3  1  0.000063  0.999990  0.250119  1
  Ga  Ga4  1  0.000076  0.500054  0.250119  1
  Ga  Ga5  1  0.999946  0.000012  0.749882  1
  Ga  Ga6  1  0.999933  0.499942  0.749883  1
  Ga  Ga7  1  0.499933  0.999994  0.750100  1
  Ni  Ni8  1  0.250080  0.749823  0.999918  1
  Ni  Ni9  1  0.749732  0.250172  0.500081  1
  Ni  Ni10  1  0.250266  0.749827  0.500362  1
  Ni  Ni11  1  0.749923  0.250172  0.999637  1
  Ru  Ru12  1  0.250027  0.250146  0.999744  1
  Ru  Ru13  1  0.749971  0.749855  0.999762  1
  Ru  Ru14  1  0.250259  0.250143  0.500230  1
  Ru  Ru15  1  0.749743  0.749858  0.500262  1
