# generated using pymatgen
data_Li5P12Ir16Ru3
_symmetry_space_group_name_H-M   'P 1'
_cell_length_a   12.47142600
_cell_length_b   12.47142450
_cell_length_c   3.95295500
_cell_angle_alpha   90.00000000
_cell_angle_beta   90.00000000
_cell_angle_gamma   120.00000399
_symmetry_Int_Tables_number   1
_chemical_formula_structural   Li5P12Ir16Ru3
_chemical_formula_sum   'Li5 P12 Ir16 Ru3'
_cell_volume   532.45714667
_cell_formula_units_Z   1
loop_
 _symmetry_equiv_pos_site_id
 _symmetry_equiv_pos_as_xyz
  1  'x, y, z'
loop_
 _atom_site_type_symbol
 _atom_site_label
 _atom_site_symmetry_multiplicity
 _atom_site_fract_x
 _atom_site_fract_y
 _atom_site_fract_z
 _atom_site_occupancy
  Li  Li0  1  0.666667  0.333333  0.000000  1
  Li  Li1  1  0.333333  0.666667  0.000000  1
  Li  Li2  1  0.839256  0.839256  0.500000  1
  Li  Li3  1  0.160744  0.000000  0.500000  1
  Li  Li4  1  0.000000  0.160744  0.500000  1
  P  P5  1  0.687626  0.171726  0.500000  1
  P  P6  1  0.828274  0.515900  0.500000  1
  P  P7  1  0.484100  0.312374  0.500000  1
  P  P8  1  0.171726  0.687626  0.500000  1
  P  P9  1  0.515900  0.828274  0.500000  1
  P  P10  1  0.312374  0.484100  0.500000  1
  P  P11  1  0.642073  0.642073  0.000000  1
  P  P12  1  0.357927  0.000000  0.000000  1
  P  P13  1  0.000000  0.357927  0.000000  1
  P  P14  1  0.180012  0.180012  0.000000  1
  P  P15  1  0.819988  0.000000  0.000000  1
  P  P16  1  0.000000  0.819988  0.000000  1
  Ir  Ir17  1  0.804957  0.182122  0.000000  1
  Ir  Ir18  1  0.817878  0.622835  0.000000  1
  Ir  Ir19  1  0.377165  0.195043  0.000000  1
  Ir  Ir20  1  0.182122  0.804957  0.000000  1
  Ir  Ir21  1  0.622835  0.817878  0.000000  1
  Ir  Ir22  1  0.195043  0.377165  0.000000  1
  Ir  Ir23  1  0.457706  0.457706  0.000000  1
  Ir  Ir24  1  0.542294  0.000000  0.000000  1
  Ir  Ir25  1  0.000000  0.542294  0.000000  1
  Ir  Ir26  1  0.869500  0.359306  0.500000  1
  Ir  Ir27  1  0.640694  0.510195  0.500000  1
  Ir  Ir28  1  0.489805  0.130500  0.500000  1
  Ir  Ir29  1  0.359306  0.869500  0.500000  1
  Ir  Ir30  1  0.510195  0.640694  0.500000  1
  Ir  Ir31  1  0.130500  0.489805  0.500000  1
  Ir  Ir32  1  0.000000  0.000000  0.000000  1
  Ru  Ru33  1  0.289559  0.289559  0.500000  1
  Ru  Ru34  1  0.710441  0.000000  0.500000  1
  Ru  Ru35  1  0.000000  0.710441  0.500000  1
