# generated using pymatgen
data_Nd2Al16IrPt8
_symmetry_space_group_name_H-M   'P 1'
_cell_length_a   11.16248686
_cell_length_b   11.16248691
_cell_length_c   11.16248665
_cell_angle_alpha   158.41197999
_cell_angle_beta   115.69910188
_cell_angle_gamma   68.68480121
_symmetry_Int_Tables_number   1
_chemical_formula_structural   Nd2Al16IrPt8
_chemical_formula_sum   'Nd2 Al16 Ir1 Pt8'
_cell_volume   457.79681655
_cell_formula_units_Z   1
loop_
 _symmetry_equiv_pos_site_id
 _symmetry_equiv_pos_as_xyz
  1  'x, y, z'
loop_
 _atom_site_type_symbol
 _atom_site_label
 _atom_site_symmetry_multiplicity
 _atom_site_fract_x
 _atom_site_fract_y
 _atom_site_fract_z
 _atom_site_occupancy
  Nd  Nd0  1  0.228889  0.229007  0.999882  1
  Nd  Nd1  1  0.770875  0.770993  0.999882  1
  Al  Al2  1  0.274048  0.391876  0.882172  1
  Al  Al3  1  0.092941  0.921829  0.171112  1
  Al  Al4  1  0.510002  0.203801  0.306202  1
  Al  Al5  1  0.249281  0.078171  0.171112  1
  Al  Al6  1  0.912642  0.415098  0.497544  1
  Al  Al7  1  0.723776  0.603982  0.119794  1
  Al  Al8  1  0.897827  0.205189  0.692637  1
  Al  Al9  1  0.487449  0.794811  0.692637  1
  Al  Al10  1  0.387870  0.000000  0.387870  1
  Al  Al11  1  0.621007  0.000000  0.621007  1
  Al  Al12  1  0.490296  0.608124  0.882172  1
  Al  Al13  1  0.102401  0.796199  0.306202  1
  Al  Al14  1  0.903316  0.079750  0.823566  1
  Al  Al15  1  0.743817  0.920250  0.823566  1
  Al  Al16  1  0.515812  0.396018  0.119794  1
  Al  Al17  1  0.082447  0.584902  0.497544  1
  Ir  Ir18  1  0.759566  0.500000  0.259566  1
  Pt  Pt19  1  0.026131  0.341064  0.685068  1
  Pt  Pt20  1  0.626215  0.125170  0.501045  1
  Pt  Pt21  1  0.253758  0.500000  0.753758  1
  Pt  Pt22  1  0.375874  0.874830  0.501045  1
  Pt  Pt23  1  0.995197  0.000000  0.995197  1
  Pt  Pt24  1  0.651467  0.339188  0.312279  1
  Pt  Pt25  1  0.344004  0.658936  0.685068  1
  Pt  Pt26  1  0.973091  0.660812  0.312279  1
