# generated using pymatgen
data_NdBeNi4P3
_symmetry_space_group_name_H-M   'P 1'
_cell_length_a   6.05440037
_cell_length_b   6.05440076
_cell_length_c   11.27172700
_cell_angle_alpha   90.00000000
_cell_angle_beta   90.00000000
_cell_angle_gamma   144.87716498
_symmetry_Int_Tables_number   1
_chemical_formula_structural   NdBeNi4P3
_chemical_formula_sum   'Nd2 Be2 Ni8 P6'
_cell_volume   237.71180380
_cell_formula_units_Z   2
loop_
 _symmetry_equiv_pos_site_id
 _symmetry_equiv_pos_as_xyz
  1  'x, y, z'
loop_
 _atom_site_type_symbol
 _atom_site_label
 _atom_site_symmetry_multiplicity
 _atom_site_fract_x
 _atom_site_fract_y
 _atom_site_fract_z
 _atom_site_occupancy
  Nd  Nd0  1  0.328992  0.671008  0.250000  1
  Nd  Nd1  1  0.671008  0.328992  0.750000  1
  Be  Be2  1  0.500000  0.500000  0.500000  1
  Be  Be3  1  0.500000  0.500000  0.000000  1
  Ni  Ni4  1  0.044438  0.955562  0.141517  1
  Ni  Ni5  1  0.044438  0.955562  0.358483  1
  Ni  Ni6  1  0.685851  0.314149  0.437671  1
  Ni  Ni7  1  0.314149  0.685851  0.562329  1
  Ni  Ni8  1  0.314149  0.685851  0.937671  1
  Ni  Ni9  1  0.685851  0.314149  0.062329  1
  Ni  Ni10  1  0.955562  0.044438  0.641517  1
  Ni  Ni11  1  0.955562  0.044438  0.858483  1
  P  P12  1  0.609037  0.390963  0.250000  1
  P  P13  1  0.390963  0.609037  0.750000  1
  P  P14  1  0.123354  0.876646  0.542512  1
  P  P15  1  0.876646  0.123354  0.457488  1
  P  P16  1  0.876646  0.123354  0.042512  1
  P  P17  1  0.123354  0.876646  0.957488  1
