# generated using pymatgen
data_Nb4CrFe5Os2
_symmetry_space_group_name_H-M   'P 1'
_cell_length_a   4.90085800
_cell_length_b   4.83404674
_cell_length_c   8.13474100
_cell_angle_alpha   90.00000000
_cell_angle_beta   90.00000000
_cell_angle_gamma   120.45825722
_symmetry_Int_Tables_number   1
_chemical_formula_structural   Nb4CrFe5Os2
_chemical_formula_sum   'Nb4 Cr1 Fe5 Os2'
_cell_volume   166.12435389
_cell_formula_units_Z   1
loop_
 _symmetry_equiv_pos_site_id
 _symmetry_equiv_pos_as_xyz
  1  'x, y, z'
loop_
 _atom_site_type_symbol
 _atom_site_label
 _atom_site_symmetry_multiplicity
 _atom_site_fract_x
 _atom_site_fract_y
 _atom_site_fract_z
 _atom_site_occupancy
  Nb  Nb0  1  0.666583  0.333165  0.065963  1
  Nb  Nb1  1  0.666583  0.333165  0.434037  1
  Nb  Nb2  1  0.332908  0.665817  0.568179  1
  Nb  Nb3  1  0.332908  0.665817  0.931821  1
  Cr  Cr4  1  0.179447  0.358895  0.249999  1
  Fe  Fe5  1  0.171506  0.821015  0.249999  1
  Fe  Fe6  1  0.649509  0.821015  0.249999  1
  Fe  Fe7  1  0.347426  0.174201  0.750000  1
  Fe  Fe8  1  0.826774  0.174201  0.750000  1
  Fe  Fe9  1  0.827536  0.655073  0.750000  1
  Os  Os10  1  0.999409  0.998818  0.002214  1
  Os  Os11  1  0.999409  0.998818  0.497786  1
