# generated using pymatgen
data_Er3TmGa18Ir5Rh
_symmetry_space_group_name_H-M   'P 1'
_cell_length_a   7.56875640
_cell_length_b   7.56947094
_cell_length_c   9.47379923
_cell_angle_alpha   89.96896047
_cell_angle_beta   89.97145974
_cell_angle_gamma   119.90892463
_symmetry_Int_Tables_number   1
_chemical_formula_structural   Er3TmGa18Ir5Rh
_chemical_formula_sum   'Er3 Tm1 Ga18 Ir5 Rh1'
_cell_volume   470.48140644
_cell_formula_units_Z   1
loop_
 _symmetry_equiv_pos_site_id
 _symmetry_equiv_pos_as_xyz
  1  'x, y, z'
loop_
 _atom_site_type_symbol
 _atom_site_label
 _atom_site_symmetry_multiplicity
 _atom_site_fract_x
 _atom_site_fract_y
 _atom_site_fract_z
 _atom_site_occupancy
  Er  Er0  1  0.997250  0.667919  0.249358  1
  Er  Er1  1  0.002832  0.332109  0.750641  1
  Er  Er2  1  0.667940  0.997245  0.249364  1
  Tm  Tm3  1  0.332049  0.002840  0.750634  1
  Ga  Ga4  1  0.125198  0.125166  0.250565  1
  Ga  Ga5  1  0.874958  0.874866  0.749436  1
  Ga  Ga6  1  0.999405  0.334011  0.080401  1
  Ga  Ga7  1  0.000773  0.666138  0.919520  1
  Ga  Ga8  1  0.000647  0.666658  0.580479  1
  Ga  Ga9  1  0.333478  0.999498  0.419769  1
  Ga  Ga10  1  0.999540  0.333507  0.419602  1
  Ga  Ga11  1  0.666249  0.000460  0.580479  1
  Ga  Ga12  1  0.665744  0.000566  0.919518  1
  Ga  Ga13  1  0.333987  0.999384  0.080230  1
  Ga  Ga14  1  0.332111  0.331891  0.565081  1
  Ga  Ga15  1  0.667931  0.667942  0.435141  1
  Ga  Ga16  1  0.667422  0.667460  0.064915  1
  Ga  Ga17  1  0.332602  0.332373  0.934858  1
  Ga  Ga18  1  0.338641  0.547118  0.249885  1
  Ga  Ga19  1  0.661268  0.452772  0.750113  1
  Ga  Ga20  1  0.547060  0.338572  0.249884  1
  Ga  Ga21  1  0.452959  0.661565  0.750122  1
  Ir  Ir22  1  0.671835  0.328110  0.999943  1
  Ir  Ir23  1  0.328059  0.671813  0.999928  1
  Ir  Ir24  1  0.328008  0.671885  0.500074  1
  Ir  Ir25  1  0.671886  0.328034  0.500054  1
  Ir  Ir26  1  0.000071  0.000050  0.999911  1
  Rh  Rh27  1  0.000097  0.000050  0.500095  1
