# generated using pymatgen
data_Ho4TaMoOs6
_symmetry_space_group_name_H-M   'P 1'
_cell_length_a   5.26375117
_cell_length_b   5.26375023
_cell_length_c   9.00006700
_cell_angle_alpha   90.00000000
_cell_angle_beta   90.00000000
_cell_angle_gamma   116.09138632
_symmetry_Int_Tables_number   1
_chemical_formula_structural   Ho4TaMoOs6
_chemical_formula_sum   'Ho4 Ta1 Mo1 Os6'
_cell_volume   223.95358469
_cell_formula_units_Z   1
loop_
 _symmetry_equiv_pos_site_id
 _symmetry_equiv_pos_as_xyz
  1  'x, y, z'
loop_
 _atom_site_type_symbol
 _atom_site_label
 _atom_site_symmetry_multiplicity
 _atom_site_fract_x
 _atom_site_fract_y
 _atom_site_fract_z
 _atom_site_occupancy
  Ho  Ho0  1  0.329357  0.670643  0.437490  1
  Ho  Ho1  1  0.669181  0.330819  0.566646  1
  Ho  Ho2  1  0.669181  0.330819  0.933354  1
  Ho  Ho3  1  0.329357  0.670643  0.062510  1
  Ta  Ta4  1  0.840992  0.159008  0.250000  1
  Mo  Mo5  1  0.162643  0.837357  0.750000  1
  Os  Os6  1  0.002023  0.997977  0.503286  1
  Os  Os7  1  0.002023  0.997977  0.996714  1
  Os  Os8  1  0.822510  0.649163  0.250000  1
  Os  Os9  1  0.350837  0.177490  0.250000  1
  Os  Os10  1  0.173664  0.351767  0.750000  1
  Os  Os11  1  0.648233  0.826336  0.750000  1
