# generated using pymatgen
data_Sc4Tc5Ru3W4
_symmetry_space_group_name_H-M   'P 1'
_cell_length_a   6.32508748
_cell_length_b   4.46364000
_cell_length_c   8.93648749
_cell_angle_alpha   90.00000000
_cell_angle_beta   90.10138817
_cell_angle_gamma   90.00000000
_symmetry_Int_Tables_number   1
_chemical_formula_structural   Sc4Tc5Ru3W4
_chemical_formula_sum   'Sc4 Tc5 Ru3 W4'
_cell_volume   252.30268314
_cell_formula_units_Z   1
loop_
 _symmetry_equiv_pos_site_id
 _symmetry_equiv_pos_as_xyz
  1  'x, y, z'
loop_
 _atom_site_type_symbol
 _atom_site_label
 _atom_site_symmetry_multiplicity
 _atom_site_fract_x
 _atom_site_fract_y
 _atom_site_fract_z
 _atom_site_occupancy
  Sc  Sc0  1  0.248180  0.250001  0.125159  1
  Sc  Sc1  1  0.753093  0.749999  0.374767  1
  Sc  Sc2  1  0.248092  0.250001  0.624812  1
  Sc  Sc3  1  0.750990  0.749999  0.875299  1
  Tc  Tc4  1  0.499862  0.250001  0.372909  1
  Tc  Tc5  1  0.498962  0.749999  0.624503  1
  Tc  Tc6  1  0.001231  0.749999  0.623624  1
  Tc  Tc7  1  0.500629  0.250001  0.877023  1
  Tc  Tc8  1  0.999128  0.250001  0.877170  1
  Ru  Ru9  1  0.998873  0.749999  0.126714  1
  Ru  Ru10  1  0.501039  0.749999  0.125472  1
  Ru  Ru11  1  0.000078  0.250001  0.372894  1
  W  W12  1  0.747085  0.250001  0.122045  1
  W  W13  1  0.256023  0.749999  0.379968  1
  W  W14  1  0.747186  0.250001  0.627450  1
  W  W15  1  0.249549  0.749999  0.870191  1
