# generated using pymatgen
data_U2Al20ReRh3
_symmetry_space_group_name_H-M   'P 1'
_cell_length_a   6.84921398
_cell_length_b   6.87646408
_cell_length_c   9.15511372
_cell_angle_alpha   89.82138786
_cell_angle_beta   89.11961568
_cell_angle_gamma   97.69555337
_symmetry_Int_Tables_number   1
_chemical_formula_structural   U2Al20ReRh3
_chemical_formula_sum   'U2 Al20 Re1 Rh3'
_cell_volume   427.25121907
_cell_formula_units_Z   1
loop_
 _symmetry_equiv_pos_site_id
 _symmetry_equiv_pos_as_xyz
  1  'x, y, z'
loop_
 _atom_site_type_symbol
 _atom_site_label
 _atom_site_symmetry_multiplicity
 _atom_site_fract_x
 _atom_site_fract_y
 _atom_site_fract_z
 _atom_site_occupancy
  U  U0  1  0.869108  0.115220  0.753212  1
  U  U1  1  0.130892  0.884780  0.246788  1
  Al  Al2  1  0.780300  0.778356  0.000629  1
  Al  Al3  1  0.778855  0.778002  0.500204  1
  Al  Al4  1  0.219700  0.221644  0.999371  1
  Al  Al5  1  0.221145  0.221998  0.499796  1
  Al  Al6  1  0.622359  0.376067  0.951131  1
  Al  Al7  1  0.377641  0.623933  0.048869  1
  Al  Al8  1  0.622256  0.377119  0.551311  1
  Al  Al9  1  0.377744  0.622881  0.448689  1
  Al  Al10  1  0.846366  0.155284  0.398359  1
  Al  Al11  1  0.153634  0.844716  0.601641  1
  Al  Al12  1  0.845616  0.155233  0.102486  1
  Al  Al13  1  0.154384  0.844767  0.897514  1
  Al  Al14  1  0.406338  0.141386  0.749317  1
  Al  Al15  1  0.143356  0.409853  0.249312  1
  Al  Al16  1  0.593662  0.858614  0.250683  1
  Al  Al17  1  0.856644  0.590147  0.750688  1
  Al  Al18  1  0.517498  0.775974  0.752277  1
  Al  Al19  1  0.779206  0.521824  0.251272  1
  Al  Al20  1  0.482502  0.224026  0.247723  1
  Al  Al21  1  0.220794  0.478176  0.748728  1
  Re  Re22  1  0.500000  0.000000  0.000000  1
  Rh  Rh23  1  0.000000  0.500000  0.000000  1
  Rh  Rh24  1  0.500000  0.000000  0.500000  1
  Rh  Rh25  1  0.000000  0.500000  0.500000  1
