# generated using pymatgen
data_PuUB6Mo
_symmetry_space_group_name_H-M   'P 1'
_cell_length_a   3.68273400
_cell_length_b   9.33756400
_cell_length_c   11.41182600
_cell_angle_alpha   90.00000000
_cell_angle_beta   90.00000000
_cell_angle_gamma   90.00000000
_symmetry_Int_Tables_number   1
_chemical_formula_structural   PuUB6Mo
_chemical_formula_sum   'Pu4 U4 B24 Mo4'
_cell_volume   392.42718409
_cell_formula_units_Z   4
loop_
 _symmetry_equiv_pos_site_id
 _symmetry_equiv_pos_as_xyz
  1  'x, y, z'
loop_
 _atom_site_type_symbol
 _atom_site_label
 _atom_site_symmetry_multiplicity
 _atom_site_fract_x
 _atom_site_fract_y
 _atom_site_fract_z
 _atom_site_occupancy
  Pu  Pu0  1  0.000000  0.336184  0.406716  1
  Pu  Pu1  1  0.000000  0.663816  0.593284  1
  Pu  Pu2  1  0.000000  0.836184  0.093284  1
  Pu  Pu3  1  0.000000  0.163816  0.906716  1
  U  U4  1  0.000000  0.955978  0.394505  1
  U  U5  1  0.000000  0.044022  0.605495  1
  U  U6  1  0.000000  0.455978  0.105495  1
  U  U7  1  0.000000  0.544022  0.894505  1
  B  B8  1  0.500000  0.551369  0.432590  1
  B  B9  1  0.500000  0.448631  0.567410  1
  B  B10  1  0.500000  0.051369  0.067410  1
  B  B11  1  0.500000  0.948631  0.932590  1
  B  B12  1  0.500000  0.744140  0.424098  1
  B  B13  1  0.500000  0.255860  0.575902  1
  B  B14  1  0.500000  0.244140  0.075902  1
  B  B15  1  0.500000  0.755860  0.924098  1
  B  B16  1  0.500000  0.803787  0.273720  1
  B  B17  1  0.500000  0.196213  0.726280  1
  B  B18  1  0.500000  0.303787  0.226280  1
  B  B19  1  0.500000  0.696213  0.773720  1
  B  B20  1  0.500000  0.643826  0.187335  1
  B  B21  1  0.500000  0.356174  0.812665  1
  B  B22  1  0.500000  0.143826  0.312665  1
  B  B23  1  0.500000  0.856174  0.687335  1
  B  B24  1  0.500000  0.987130  0.219426  1
  B  B25  1  0.500000  0.012870  0.780574  1
  B  B26  1  0.500000  0.487130  0.280574  1
  B  B27  1  0.500000  0.512870  0.719426  1
  B  B28  1  0.500000  0.640681  0.039106  1
  B  B29  1  0.500000  0.359319  0.960894  1
  B  B30  1  0.500000  0.140681  0.460894  1
  B  B31  1  0.500000  0.859319  0.539106  1
  Mo  Mo32  1  0.000000  0.645920  0.319271  1
  Mo  Mo33  1  0.000000  0.354080  0.680729  1
  Mo  Mo34  1  0.000000  0.145920  0.180729  1
  Mo  Mo35  1  0.000000  0.854080  0.819271  1
