# generated using pymatgen
data_Nd19ErSi15Rh
_symmetry_space_group_name_H-M   'P 1'
_cell_length_a   7.76840818
_cell_length_b   7.90577337
_cell_length_c   15.08289837
_cell_angle_alpha   89.69056282
_cell_angle_beta   89.56353693
_cell_angle_gamma   89.95784104
_symmetry_Int_Tables_number   1
_chemical_formula_structural   Nd19ErSi15Rh
_chemical_formula_sum   'Nd19 Er1 Si15 Rh1'
_cell_volume   926.27973364
_cell_formula_units_Z   1
loop_
 _symmetry_equiv_pos_site_id
 _symmetry_equiv_pos_as_xyz
  1  'x, y, z'
loop_
 _atom_site_type_symbol
 _atom_site_label
 _atom_site_symmetry_multiplicity
 _atom_site_fract_x
 _atom_site_fract_y
 _atom_site_fract_z
 _atom_site_occupancy
  Nd  Nd0  1  0.812645  0.332530  0.614997  1
  Nd  Nd1  1  0.456666  0.686187  0.897734  1
  Nd  Nd2  1  0.957939  0.814483  0.897750  1
  Nd  Nd3  1  0.185374  0.682459  0.120638  1
  Nd  Nd4  1  0.691487  0.818702  0.121000  1
  Nd  Nd5  1  0.307405  0.178657  0.877768  1
  Nd  Nd6  1  0.187148  0.678291  0.380300  1
  Nd  Nd7  1  0.043145  0.188224  0.103315  1
  Nd  Nd8  1  0.312387  0.180418  0.622228  1
  Nd  Nd9  1  0.857952  0.490936  0.260282  1
  Nd  Nd10  1  0.364418  0.007003  0.253440  1
  Nd  Nd11  1  0.535835  0.315259  0.398066  1
  Nd  Nd12  1  0.810639  0.317758  0.878031  1
  Nd  Nd13  1  0.964431  0.814626  0.599703  1
  Nd  Nd14  1  0.459369  0.686854  0.603151  1
  Nd  Nd15  1  0.041516  0.185719  0.399739  1
  Nd  Nd16  1  0.693007  0.812812  0.384298  1
  Nd  Nd17  1  0.638937  0.993667  0.748060  1
  Nd  Nd18  1  0.544045  0.311994  0.102844  1
  Er  Er19  1  0.136982  0.510967  0.747994  1
  Si  Si20  1  0.479094  0.602581  0.246184  1
  Si  Si21  1  0.251680  0.378301  0.247478  1
  Si  Si22  1  0.513168  0.402816  0.751038  1
  Si  Si23  1  0.631348  0.025542  0.958372  1
  Si  Si24  1  0.016363  0.104179  0.748549  1
  Si  Si25  1  0.751588  0.620796  0.750072  1
  Si  Si26  1  0.751029  0.120077  0.248685  1
  Si  Si27  1  0.364999  0.970104  0.461318  1
  Si  Si28  1  0.981875  0.901298  0.248767  1
  Si  Si29  1  0.365182  0.974603  0.041276  1
  Si  Si30  1  0.635057  0.025322  0.542177  1
  Si  Si31  1  0.133760  0.475653  0.956271  1
  Si  Si32  1  0.145280  0.476208  0.543953  1
  Si  Si33  1  0.866487  0.525532  0.038966  1
  Si  Si34  1  0.244761  0.872094  0.750628  1
  Rh  Rh35  1  0.867000  0.517350  0.454929  1
