# generated using pymatgen
data_HoPaTcB6
_symmetry_space_group_name_H-M   'P 1'
_cell_length_a   3.71570200
_cell_length_b   9.15619100
_cell_length_c   11.50171700
_cell_angle_alpha   90.00000000
_cell_angle_beta   90.00000000
_cell_angle_gamma   90.00000000
_symmetry_Int_Tables_number   1
_chemical_formula_structural   HoPaTcB6
_chemical_formula_sum   'Ho4 Pa4 Tc4 B24'
_cell_volume   391.30770315
_cell_formula_units_Z   4
loop_
 _symmetry_equiv_pos_site_id
 _symmetry_equiv_pos_as_xyz
  1  'x, y, z'
loop_
 _atom_site_type_symbol
 _atom_site_label
 _atom_site_symmetry_multiplicity
 _atom_site_fract_x
 _atom_site_fract_y
 _atom_site_fract_z
 _atom_site_occupancy
  Ho  Ho0  1  0.000000  0.944682  0.374207  1
  Ho  Ho1  1  0.000000  0.055318  0.625793  1
  Ho  Ho2  1  0.000000  0.444682  0.125793  1
  Ho  Ho3  1  0.000000  0.555318  0.874207  1
  Pa  Pa4  1  0.000000  0.323586  0.413150  1
  Pa  Pa5  1  0.000000  0.676414  0.586850  1
  Pa  Pa6  1  0.000000  0.823586  0.086850  1
  Pa  Pa7  1  0.000000  0.176414  0.913150  1
  Tc  Tc8  1  0.000000  0.638600  0.321596  1
  Tc  Tc9  1  0.000000  0.361400  0.678404  1
  Tc  Tc10  1  0.000000  0.138600  0.178404  1
  Tc  Tc11  1  0.000000  0.861400  0.821596  1
  B  B12  1  0.500000  0.552483  0.433299  1
  B  B13  1  0.500000  0.447517  0.566701  1
  B  B14  1  0.500000  0.052483  0.066701  1
  B  B15  1  0.500000  0.947517  0.933299  1
  B  B16  1  0.500000  0.747869  0.420205  1
  B  B17  1  0.500000  0.252131  0.579795  1
  B  B18  1  0.500000  0.247869  0.079795  1
  B  B19  1  0.500000  0.752131  0.920205  1
  B  B20  1  0.500000  0.793107  0.266025  1
  B  B21  1  0.500000  0.206893  0.733975  1
  B  B22  1  0.500000  0.293107  0.233975  1
  B  B23  1  0.500000  0.706893  0.766025  1
  B  B24  1  0.500000  0.633301  0.185229  1
  B  B25  1  0.500000  0.366699  0.814771  1
  B  B26  1  0.500000  0.133301  0.314771  1
  B  B27  1  0.500000  0.866699  0.685229  1
  B  B28  1  0.500000  0.982573  0.213520  1
  B  B29  1  0.500000  0.017427  0.786480  1
  B  B30  1  0.500000  0.482573  0.286480  1
  B  B31  1  0.500000  0.517427  0.713520  1
  B  B32  1  0.500000  0.612678  0.031085  1
  B  B33  1  0.500000  0.387322  0.968915  1
  B  B34  1  0.500000  0.112678  0.468915  1
  B  B35  1  0.500000  0.887322  0.531085  1
