# generated using pymatgen
data_Eu4Nb3AlO14
_symmetry_space_group_name_H-M   'P 1'
_cell_length_a   7.52105227
_cell_length_b   7.58902498
_cell_length_c   7.58902400
_cell_angle_alpha   60.00000426
_cell_angle_beta   59.70058790
_cell_angle_gamma   59.70058130
_symmetry_Int_Tables_number   1
_chemical_formula_structural   Eu4Nb3AlO14
_chemical_formula_sum   'Eu4 Nb3 Al1 O14'
_cell_volume   304.89841320
_cell_formula_units_Z   1
loop_
 _symmetry_equiv_pos_site_id
 _symmetry_equiv_pos_as_xyz
  1  'x, y, z'
loop_
 _atom_site_type_symbol
 _atom_site_label
 _atom_site_symmetry_multiplicity
 _atom_site_fract_x
 _atom_site_fract_y
 _atom_site_fract_z
 _atom_site_occupancy
  Eu  Eu0  1  0.625000  0.125000  0.125000  1
  Eu  Eu1  1  0.125000  0.625000  0.125000  1
  Eu  Eu2  1  0.125000  0.125000  0.625000  1
  Eu  Eu3  1  0.125000  0.125000  0.125000  1
  Nb  Nb4  1  0.625000  0.125000  0.625000  1
  Nb  Nb5  1  0.625000  0.625000  0.125000  1
  Nb  Nb6  1  0.625000  0.625000  0.625000  1
  Al  Al7  1  0.125000  0.625000  0.625000  1
  O  O8  1  0.247568  0.250811  0.250811  1
  O  O9  1  0.002432  0.999189  0.999189  1
  O  O10  1  0.701056  0.694327  0.302309  1
  O  O11  1  0.309148  0.312913  0.688970  1
  O  O12  1  0.701056  0.302309  0.694327  1
  O  O13  1  0.309148  0.688970  0.312913  1
  O  O14  1  0.309148  0.688970  0.688970  1
  O  O15  1  0.701056  0.302309  0.302309  1
  O  O16  1  0.548944  0.555673  0.947691  1
  O  O17  1  0.940852  0.937087  0.561030  1
  O  O18  1  0.548944  0.947691  0.555673  1
  O  O19  1  0.940852  0.561030  0.937087  1
  O  O20  1  0.940852  0.561030  0.561030  1
  O  O21  1  0.548944  0.947691  0.947691  1
