# generated using pymatgen
data_IrPd2F18
_symmetry_space_group_name_H-M   'P 1'
_cell_length_a   5.16053703
_cell_length_b   8.41700190
_cell_length_c   8.47335543
_cell_angle_alpha   61.95498741
_cell_angle_beta   84.69630577
_cell_angle_gamma   84.89068450
_symmetry_Int_Tables_number   1
_chemical_formula_structural   IrPd2F18
_chemical_formula_sum   'Ir1 Pd2 F18'
_cell_volume   323.00735265
_cell_formula_units_Z   1
loop_
 _symmetry_equiv_pos_site_id
 _symmetry_equiv_pos_as_xyz
  1  'x, y, z'
loop_
 _atom_site_type_symbol
 _atom_site_label
 _atom_site_symmetry_multiplicity
 _atom_site_fract_x
 _atom_site_fract_y
 _atom_site_fract_z
 _atom_site_occupancy
  Ir  Ir0  1  0.999903  0.000777  0.999703  1
  Pd  Pd1  1  0.561401  0.335321  0.335481  1
  Pd  Pd2  1  0.438750  0.663833  0.664814  1
  F  F3  1  0.871166  0.774554  0.073516  1
  F  F4  1  0.683295  0.075911  0.076565  1
  F  F5  1  0.742684  0.416103  0.108156  1
  F  F6  1  0.126495  0.920744  0.225806  1
  F  F7  1  0.380229  0.563475  0.254825  1
  F  F8  1  0.296533  0.252480  0.255883  1
  F  F9  1  0.826797  0.417931  0.414876  1
  F  F10  1  0.743649  0.107350  0.416012  1
  F  F11  1  0.619291  0.745516  0.437114  1
  F  F12  1  0.381060  0.254498  0.563054  1
  F  F13  1  0.256092  0.891574  0.584995  1
  F  F14  1  0.173512  0.581553  0.584755  1
  F  F15  1  0.703219  0.746416  0.744991  1
  F  F16  1  0.620339  0.435701  0.744850  1
  F  F17  1  0.873320  0.081044  0.773600  1
  F  F18  1  0.257237  0.582296  0.892181  1
  F  F19  1  0.316396  0.925726  0.922914  1
  F  F20  1  0.128635  0.227195  0.925915  1
