# generated using pymatgen
data_Yb3LuSc6(Si5Ir2)4
_symmetry_space_group_name_H-M   'P 1'
_cell_length_a   12.51877009
_cell_length_b   12.51877023
_cell_length_c   4.14625800
_cell_angle_alpha   90.00000000
_cell_angle_beta   90.00000000
_cell_angle_gamma   90.05931063
_symmetry_Int_Tables_number   1
_chemical_formula_structural   Yb3LuSc6(Si5Ir2)4
_chemical_formula_sum   'Yb3 Lu1 Sc6 Si20 Ir8'
_cell_volume   649.79957322
_cell_formula_units_Z   1
loop_
 _symmetry_equiv_pos_site_id
 _symmetry_equiv_pos_as_xyz
  1  'x, y, z'
loop_
 _atom_site_type_symbol
 _atom_site_label
 _atom_site_symmetry_multiplicity
 _atom_site_fract_x
 _atom_site_fract_y
 _atom_site_fract_z
 _atom_site_occupancy
  Yb  Yb0  1  0.116226  0.615931  0.500000  1
  Yb  Yb1  1  0.884069  0.383774  0.500000  1
  Yb  Yb2  1  0.614983  0.885017  0.500000  1
  Lu  Lu3  1  0.383619  0.116381  0.500000  1
  Sc  Sc4  1  0.672948  0.172454  0.500000  1
  Sc  Sc5  1  0.327546  0.827052  0.500000  1
  Sc  Sc6  1  0.174014  0.325986  0.500000  1
  Sc  Sc7  1  0.827401  0.672599  0.500000  1
  Sc  Sc8  1  0.000330  0.999919  0.000000  1
  Sc  Sc9  1  0.500081  0.499670  0.000000  1
  Si  Si10  1  0.567001  0.067575  0.000000  1
  Si  Si11  1  0.432425  0.932999  0.000000  1
  Si  Si12  1  0.068332  0.431668  0.000000  1
  Si  Si13  1  0.932155  0.567845  0.000000  1
  Si  Si14  1  0.200826  0.165669  0.000000  1
  Si  Si15  1  0.799263  0.834646  0.000000  1
  Si  Si16  1  0.166080  0.800581  0.000000  1
  Si  Si17  1  0.699419  0.333920  0.000000  1
  Si  Si18  1  0.834096  0.200569  0.000000  1
  Si  Si19  1  0.299431  0.665904  0.000000  1
  Si  Si20  1  0.665354  0.700737  0.000000  1
  Si  Si21  1  0.334331  0.299174  0.000000  1
  Si  Si22  1  0.006689  0.149769  0.500000  1
  Si  Si23  1  0.992996  0.849892  0.500000  1
  Si  Si24  1  0.151211  0.992094  0.500000  1
  Si  Si25  1  0.507906  0.348789  0.500000  1
  Si  Si26  1  0.849278  0.008262  0.500000  1
  Si  Si27  1  0.491738  0.650722  0.500000  1
  Si  Si28  1  0.650108  0.507004  0.500000  1
  Si  Si29  1  0.350231  0.493311  0.500000  1
  Ir  Ir30  1  0.021870  0.242716  0.000000  1
  Ir  Ir31  1  0.978655  0.757099  0.000000  1
  Ir  Ir32  1  0.245338  0.980944  0.000000  1
  Ir  Ir33  1  0.519056  0.254662  0.000000  1
  Ir  Ir34  1  0.755942  0.021131  0.000000  1
  Ir  Ir35  1  0.478869  0.744058  0.000000  1
  Ir  Ir36  1  0.742901  0.521345  0.000000  1
  Ir  Ir37  1  0.257284  0.478130  0.000000  1
