# generated using pymatgen
data_Ta8MnNiTe8
_symmetry_space_group_name_H-M   'P 1'
_cell_length_a   4.83003100
_cell_length_b   10.93556400
_cell_length_c   19.11750900
_cell_angle_alpha   90.00000000
_cell_angle_beta   90.00000000
_cell_angle_gamma   90.00000000
_symmetry_Int_Tables_number   1
_chemical_formula_structural   Ta8MnNiTe8
_chemical_formula_sum   'Ta16 Mn2 Ni2 Te16'
_cell_volume   1009.76987049
_cell_formula_units_Z   2
loop_
 _symmetry_equiv_pos_site_id
 _symmetry_equiv_pos_as_xyz
  1  'x, y, z'
loop_
 _atom_site_type_symbol
 _atom_site_label
 _atom_site_symmetry_multiplicity
 _atom_site_fract_x
 _atom_site_fract_y
 _atom_site_fract_z
 _atom_site_occupancy
  Ta  Ta0  1  0.501729  0.563732  0.384483  1
  Ta  Ta1  1  0.501729  0.436268  0.615517  1
  Ta  Ta2  1  0.498271  0.063732  0.115517  1
  Ta  Ta3  1  0.498271  0.936268  0.884483  1
  Ta  Ta4  1  0.502154  0.702340  0.536294  1
  Ta  Ta5  1  0.502154  0.297660  0.463706  1
  Ta  Ta6  1  0.497846  0.202340  0.963706  1
  Ta  Ta7  1  0.497846  0.797660  0.036294  1
  Ta  Ta8  1  0.997767  0.687882  0.443800  1
  Ta  Ta9  1  0.997767  0.312118  0.556200  1
  Ta  Ta10  1  0.002233  0.187882  0.056200  1
  Ta  Ta11  1  0.002233  0.812118  0.943800  1
  Ta  Ta12  1  0.998189  0.401840  0.392582  1
  Ta  Ta13  1  0.998189  0.598160  0.607418  1
  Ta  Ta14  1  0.001811  0.901840  0.107418  1
  Ta  Ta15  1  0.001811  0.098160  0.892582  1
  Mn  Mn16  1  0.250369  0.500000  0.500000  1
  Mn  Mn17  1  0.749631  0.000000  0.000000  1
  Ni  Ni18  1  0.750515  0.500000  0.500000  1
  Ni  Ni19  1  0.249485  0.000000  0.000000  1
  Te  Te20  1  0.999368  0.848509  0.562415  1
  Te  Te21  1  0.999368  0.151491  0.437585  1
  Te  Te22  1  0.000632  0.348509  0.937585  1
  Te  Te23  1  0.000632  0.651491  0.062415  1
  Te  Te24  1  0.501420  0.331096  0.315303  1
  Te  Te25  1  0.501420  0.668904  0.684697  1
  Te  Te26  1  0.498580  0.831096  0.184697  1
  Te  Te27  1  0.498580  0.168904  0.815303  1
  Te  Te28  1  0.500360  0.824312  0.403613  1
  Te  Te29  1  0.500360  0.175688  0.596387  1
  Te  Te30  1  0.499640  0.324312  0.096387  1
  Te  Te31  1  0.499640  0.675688  0.903613  1
  Te  Te32  1  0.998404  0.609004  0.300764  1
  Te  Te33  1  0.998404  0.390996  0.699236  1
  Te  Te34  1  0.001596  0.109004  0.199236  1
  Te  Te35  1  0.001596  0.890996  0.800764  1
