# generated using pymatgen
data_Y3TlIn3NiRh
_symmetry_space_group_name_H-M   'P 1'
_cell_length_a   7.93987800
_cell_length_b   7.93987759
_cell_length_c   3.71439600
_cell_angle_alpha   90.00000000
_cell_angle_beta   90.00000000
_cell_angle_gamma   120.00000283
_symmetry_Int_Tables_number   1
_chemical_formula_structural   Y3TlIn3NiRh
_chemical_formula_sum   'Y3 Tl1 In3 Ni1 Rh1'
_cell_volume   202.78996420
_cell_formula_units_Z   1
loop_
 _symmetry_equiv_pos_site_id
 _symmetry_equiv_pos_as_xyz
  1  'x, y, z'
loop_
 _atom_site_type_symbol
 _atom_site_label
 _atom_site_symmetry_multiplicity
 _atom_site_fract_x
 _atom_site_fract_y
 _atom_site_fract_z
 _atom_site_occupancy
  Y  Y0  1  0.032037  0.615297  0.500000  1
  Y  Y1  1  0.583260  0.967963  0.500000  1
  Y  Y2  1  0.384703  0.416740  0.500000  1
  Tl  Tl3  1  0.666667  0.333333  0.000000  1
  In  In4  1  0.002297  0.249558  0.000000  1
  In  In5  1  0.247261  0.997703  0.000000  1
  In  In6  1  0.750442  0.752739  0.000000  1
  Ni  Ni7  1  0.000000  0.000000  0.500000  1
  Rh  Rh8  1  0.333333  0.666667  0.000000  1
