# generated using pymatgen
data_CeHoSi2IrRh3
_symmetry_space_group_name_H-M   'P 1'
_cell_length_a   9.14831185
_cell_length_b   9.14831085
_cell_length_c   4.08499800
_cell_angle_alpha   90.00000000
_cell_angle_beta   90.00000000
_cell_angle_gamma   154.91065047
_symmetry_Int_Tables_number   1
_chemical_formula_structural   CeHoSi2IrRh3
_chemical_formula_sum   'Ce1 Ho1 Si2 Ir1 Rh3'
_cell_volume   144.96775547
_cell_formula_units_Z   1
loop_
 _symmetry_equiv_pos_site_id
 _symmetry_equiv_pos_as_xyz
  1  'x, y, z'
loop_
 _atom_site_type_symbol
 _atom_site_label
 _atom_site_symmetry_multiplicity
 _atom_site_fract_x
 _atom_site_fract_y
 _atom_site_fract_z
 _atom_site_occupancy
  Ce  Ce0  1  0.904618  0.095382  0.250000  1
  Ho  Ho1  1  0.101073  0.898927  0.750000  1
  Si  Si2  1  0.320753  0.679247  0.750000  1
  Si  Si3  1  0.676537  0.323463  0.250000  1
  Ir  Ir4  1  0.453413  0.546587  0.750000  1
  Rh  Rh5  1  0.546485  0.453515  0.250000  1
  Rh  Rh6  1  0.249023  0.750977  0.250000  1
  Rh  Rh7  1  0.748097  0.251903  0.750000  1
