# generated using pymatgen
data_Dy6Zr5Al11Os7
_symmetry_space_group_name_H-M   'P 1'
_cell_length_a   9.21804057
_cell_length_b   9.21803950
_cell_length_c   9.19417368
_cell_angle_alpha   59.91409524
_cell_angle_beta   59.91409039
_cell_angle_gamma   60.00000547
_symmetry_Int_Tables_number   1
_chemical_formula_structural   Dy6Zr5Al11Os7
_chemical_formula_sum   'Dy6 Zr5 Al11 Os7'
_cell_volume   551.70860230
_cell_formula_units_Z   1
loop_
 _symmetry_equiv_pos_site_id
 _symmetry_equiv_pos_as_xyz
  1  'x, y, z'
loop_
 _atom_site_type_symbol
 _atom_site_label
 _atom_site_symmetry_multiplicity
 _atom_site_fract_x
 _atom_site_fract_y
 _atom_site_fract_z
 _atom_site_occupancy
  Dy  Dy0  1  0.703303  0.703303  0.297616  1
  Dy  Dy1  1  0.295778  0.703303  0.297616  1
  Dy  Dy2  1  0.703303  0.295778  0.297616  1
  Dy  Dy3  1  0.296748  0.296748  0.712648  1
  Dy  Dy4  1  0.693856  0.296748  0.712648  1
  Dy  Dy5  1  0.296748  0.693856  0.712648  1
  Zr  Zr6  1  0.880821  0.880821  0.357537  1
  Zr  Zr7  1  0.876714  0.363337  0.883235  1
  Zr  Zr8  1  0.363337  0.876714  0.883235  1
  Zr  Zr9  1  0.876714  0.876714  0.883235  1
  Zr  Zr10  1  0.124768  0.124768  0.625696  1
  Al  Al11  1  0.119617  0.640346  0.120420  1
  Al  Al12  1  0.640346  0.119617  0.120420  1
  Al  Al13  1  0.119617  0.119617  0.120420  1
  Al  Al14  1  0.666594  0.666594  0.000218  1
  Al  Al15  1  0.668822  0.995243  0.667114  1
  Al  Al16  1  0.995243  0.668822  0.667114  1
  Al  Al17  1  0.668822  0.668822  0.667114  1
  Al  Al18  1  0.328110  0.328110  0.015667  1
  Al  Al19  1  0.336108  0.003885  0.323899  1
  Al  Al20  1  0.003885  0.336108  0.323899  1
  Al  Al21  1  0.336108  0.336108  0.323899  1
  Os  Os22  1  0.002680  0.002680  0.991960  1
  Os  Os23  1  0.000520  0.000520  0.499643  1
  Os  Os24  1  0.499317  0.000520  0.499643  1
  Os  Os25  1  0.000520  0.499317  0.499643  1
  Os  Os26  1  0.499263  0.499263  0.998399  1
  Os  Os27  1  0.003076  0.499263  0.998399  1
  Os  Os28  1  0.499263  0.003076  0.998399  1
