# generated using pymatgen
data_Ho4GeBr6
_symmetry_space_group_name_H-M   'P 1'
_cell_length_a   4.05660300
_cell_length_b   13.16816100
_cell_length_c   13.98304800
_cell_angle_alpha   90.00000000
_cell_angle_beta   90.00000000
_cell_angle_gamma   90.00000000
_symmetry_Int_Tables_number   1
_chemical_formula_structural   Ho4GeBr6
_chemical_formula_sum   'Ho8 Ge2 Br12'
_cell_volume   746.94647788
_cell_formula_units_Z   2
loop_
 _symmetry_equiv_pos_site_id
 _symmetry_equiv_pos_as_xyz
  1  'x, y, z'
loop_
 _atom_site_type_symbol
 _atom_site_label
 _atom_site_symmetry_multiplicity
 _atom_site_fract_x
 _atom_site_fract_y
 _atom_site_fract_z
 _atom_site_occupancy
  Ho  Ho0  1  0.500000  0.118613  0.340300  1
  Ho  Ho1  1  0.500000  0.881387  0.659700  1
  Ho  Ho2  1  0.500000  0.618613  0.159700  1
  Ho  Ho3  1  0.500000  0.381387  0.840300  1
  Ho  Ho4  1  0.000000  0.118347  0.578534  1
  Ho  Ho5  1  0.000000  0.881653  0.421466  1
  Ho  Ho6  1  0.000000  0.618347  0.921466  1
  Ho  Ho7  1  0.000000  0.381653  0.078534  1
  Ge  Ge8  1  0.500000  0.000000  0.500000  1
  Ge  Ge9  1  0.500000  0.500000  0.000000  1
  Br  Br10  1  0.500000  0.243823  0.162575  1
  Br  Br11  1  0.500000  0.756177  0.837425  1
  Br  Br12  1  0.500000  0.743823  0.337425  1
  Br  Br13  1  0.500000  0.256177  0.662575  1
  Br  Br14  1  0.000000  0.255409  0.411322  1
  Br  Br15  1  0.000000  0.744591  0.588678  1
  Br  Br16  1  0.000000  0.755409  0.088678  1
  Br  Br17  1  0.000000  0.244591  0.911322  1
  Br  Br18  1  0.000000  0.001720  0.243071  1
  Br  Br19  1  0.000000  0.998280  0.756929  1
  Br  Br20  1  0.000000  0.501720  0.256929  1
  Br  Br21  1  0.000000  0.498280  0.743071  1
