# generated using pymatgen
data_Er2Ga8CuPd3
_symmetry_space_group_name_H-M   'P 1'
_cell_length_a   7.54831503
_cell_length_b   7.54499804
_cell_length_c   9.47042700
_cell_angle_alpha   90.00000000
_cell_angle_beta   90.00000000
_cell_angle_gamma   117.98942362
_symmetry_Int_Tables_number   1
_chemical_formula_structural   Er2Ga8CuPd3
_chemical_formula_sum   'Er4 Ga16 Cu2 Pd6'
_cell_volume   476.27331895
_cell_formula_units_Z   2
loop_
 _symmetry_equiv_pos_site_id
 _symmetry_equiv_pos_as_xyz
  1  'x, y, z'
loop_
 _atom_site_type_symbol
 _atom_site_label
 _atom_site_symmetry_multiplicity
 _atom_site_fract_x
 _atom_site_fract_y
 _atom_site_fract_z
 _atom_site_occupancy
  Er  Er0  1  0.996358  0.677753  0.250000  1
  Er  Er1  1  0.003642  0.322247  0.750000  1
  Er  Er2  1  0.677774  0.996294  0.250000  1
  Er  Er3  1  0.322226  0.003706  0.750000  1
  Ga  Ga4  1  0.005733  0.332396  0.088705  1
  Ga  Ga5  1  0.994267  0.667604  0.911295  1
  Ga  Ga6  1  0.994267  0.667604  0.588705  1
  Ga  Ga7  1  0.332423  0.005742  0.411300  1
  Ga  Ga8  1  0.005733  0.332396  0.411295  1
  Ga  Ga9  1  0.667577  0.994258  0.588700  1
  Ga  Ga10  1  0.667577  0.994258  0.911300  1
  Ga  Ga11  1  0.332423  0.005742  0.088700  1
  Ga  Ga12  1  0.329202  0.329221  0.560171  1
  Ga  Ga13  1  0.670798  0.670779  0.439829  1
  Ga  Ga14  1  0.670798  0.670779  0.060171  1
  Ga  Ga15  1  0.329202  0.329221  0.939829  1
  Ga  Ga16  1  0.343733  0.546317  0.250000  1
  Ga  Ga17  1  0.656267  0.453683  0.750000  1
  Ga  Ga18  1  0.546331  0.343720  0.250000  1
  Ga  Ga19  1  0.453669  0.656280  0.750000  1
  Cu  Cu20  1  0.151125  0.150884  0.250000  1
  Cu  Cu21  1  0.848875  0.849116  0.750000  1
  Pd  Pd22  1  0.675061  0.324863  0.000028  1
  Pd  Pd23  1  0.324939  0.675137  0.999972  1
  Pd  Pd24  1  0.324939  0.675137  0.500028  1
  Pd  Pd25  1  0.675061  0.324863  0.499972  1
  Pd  Pd26  1  0.000000  0.000000  0.000000  1
  Pd  Pd27  1  0.000000  0.000000  0.500000  1
