# generated using pymatgen
data_Dy2ErTm7(CoSb2)2
_symmetry_space_group_name_H-M   'P 1'
_cell_length_a   7.79320900
_cell_length_b   8.73670800
_cell_length_c   12.07323200
_cell_angle_alpha   90.00000000
_cell_angle_beta   90.00000000
_cell_angle_gamma   90.00000000
_symmetry_Int_Tables_number   1
_chemical_formula_structural   Dy2ErTm7(CoSb2)2
_chemical_formula_sum   'Dy4 Er2 Tm14 Co4 Sb8'
_cell_volume   822.03004355
_cell_formula_units_Z   2
loop_
 _symmetry_equiv_pos_site_id
 _symmetry_equiv_pos_as_xyz
  1  'x, y, z'
loop_
 _atom_site_type_symbol
 _atom_site_label
 _atom_site_symmetry_multiplicity
 _atom_site_fract_x
 _atom_site_fract_y
 _atom_site_fract_z
 _atom_site_occupancy
  Dy  Dy0  1  0.622025  0.750000  0.307114  1
  Dy  Dy1  1  0.877975  0.750000  0.807114  1
  Dy  Dy2  1  0.378095  0.250000  0.692904  1
  Dy  Dy3  1  0.121905  0.250000  0.192904  1
  Er  Er4  1  0.155351  0.750000  0.203889  1
  Er  Er5  1  0.344649  0.750000  0.703889  1
  Tm  Tm6  1  0.844636  0.250000  0.796383  1
  Tm  Tm7  1  0.655364  0.250000  0.296383  1
  Tm  Tm8  1  0.450508  0.750000  0.997991  1
  Tm  Tm9  1  0.049492  0.750000  0.497991  1
  Tm  Tm10  1  0.549937  0.250000  0.002011  1
  Tm  Tm11  1  0.950063  0.250000  0.502011  1
  Tm  Tm12  1  0.822871  0.536128  0.065293  1
  Tm  Tm13  1  0.677129  0.963872  0.565293  1
  Tm  Tm14  1  0.176947  0.036503  0.934587  1
  Tm  Tm15  1  0.323053  0.463497  0.434587  1
  Tm  Tm16  1  0.176947  0.463497  0.934587  1
  Tm  Tm17  1  0.323053  0.036503  0.434587  1
  Tm  Tm18  1  0.822871  0.963872  0.065293  1
  Tm  Tm19  1  0.677129  0.536128  0.565293  1
  Co  Co20  1  0.433054  0.750000  0.491188  1
  Co  Co21  1  0.066946  0.750000  0.991188  1
  Co  Co22  1  0.566965  0.250000  0.508604  1
  Co  Co23  1  0.933035  0.250000  0.008604  1
  Sb  Sb24  1  0.929748  0.508378  0.328276  1
  Sb  Sb25  1  0.570252  0.991622  0.828276  1
  Sb  Sb26  1  0.069695  0.008865  0.671801  1
  Sb  Sb27  1  0.430305  0.491135  0.171801  1
  Sb  Sb28  1  0.069695  0.491135  0.671801  1
  Sb  Sb29  1  0.430305  0.008865  0.171801  1
  Sb  Sb30  1  0.929748  0.991622  0.328276  1
  Sb  Sb31  1  0.570252  0.508378  0.828276  1
