# generated using pymatgen
data_Zr6Ta4Al12Ir4Ru3
_symmetry_space_group_name_H-M   'P 1'
_cell_length_a   8.85437999
_cell_length_b   8.84016759
_cell_length_c   8.84570534
_cell_angle_alpha   60.07142967
_cell_angle_beta   59.96755442
_cell_angle_gamma   59.94679873
_symmetry_Int_Tables_number   1
_chemical_formula_structural   Zr6Ta4Al12Ir4Ru3
_chemical_formula_sum   'Zr6 Ta4 Al12 Ir4 Ru3'
_cell_volume   489.54010495
_cell_formula_units_Z   1
loop_
 _symmetry_equiv_pos_site_id
 _symmetry_equiv_pos_as_xyz
  1  'x, y, z'
loop_
 _atom_site_type_symbol
 _atom_site_label
 _atom_site_symmetry_multiplicity
 _atom_site_fract_x
 _atom_site_fract_y
 _atom_site_fract_z
 _atom_site_occupancy
  Zr  Zr0  1  0.695159  0.695211  0.304988  1
  Zr  Zr1  1  0.304641  0.695211  0.304988  1
  Zr  Zr2  1  0.683952  0.315406  0.316689  1
  Zr  Zr3  1  0.305706  0.305212  0.694174  1
  Zr  Zr4  1  0.694907  0.305212  0.694174  1
  Zr  Zr5  1  0.315532  0.684873  0.684063  1
  Ta  Ta6  1  0.877841  0.882565  0.361755  1
  Ta  Ta7  1  0.879427  0.361148  0.879999  1
  Ta  Ta8  1  0.361406  0.880683  0.876491  1
  Ta  Ta9  1  0.881421  0.880683  0.876491  1
  Al  Al10  1  0.122464  0.119161  0.635908  1
  Al  Al11  1  0.121266  0.636802  0.120664  1
  Al  Al12  1  0.636436  0.120005  0.123692  1
  Al  Al13  1  0.119865  0.120005  0.123692  1
  Al  Al14  1  0.658821  0.660749  0.021609  1
  Al  Al15  1  0.660695  0.018025  0.660586  1
  Al  Al16  1  0.020075  0.660970  0.658456  1
  Al  Al17  1  0.660498  0.660970  0.658456  1
  Al  Al18  1  0.337808  0.336320  0.988065  1
  Al  Al19  1  0.336306  0.990218  0.337170  1
  Al  Al20  1  0.989096  0.335673  0.338331  1
  Al  Al21  1  0.336902  0.335673  0.338331  1
  Ir  Ir22  1  0.996795  0.502588  0.503822  1
  Ir  Ir23  1  0.503444  0.502737  0.996636  1
  Ir  Ir24  1  0.997184  0.502737  0.996636  1
  Ir  Ir25  1  0.503204  0.997281  0.996311  1
  Ru  Ru26  1  0.999997  0.000813  0.999193  1
  Ru  Ru27  1  0.995975  0.996534  0.504314  1
  Ru  Ru28  1  0.503176  0.996534  0.504314  1
