# generated using pymatgen
data_Yb2ErTmB16
_symmetry_space_group_name_H-M   'P 1'
_cell_length_a   7.08854636
_cell_length_b   7.09634736
_cell_length_c   4.01436800
_cell_angle_alpha   90.00000000
_cell_angle_beta   90.00000000
_cell_angle_gamma   90.07090431
_symmetry_Int_Tables_number   1
_chemical_formula_structural   Yb2ErTmB16
_chemical_formula_sum   'Yb2 Er1 Tm1 B16'
_cell_volume   201.93374468
_cell_formula_units_Z   1
loop_
 _symmetry_equiv_pos_site_id
 _symmetry_equiv_pos_as_xyz
  1  'x, y, z'
loop_
 _atom_site_type_symbol
 _atom_site_label
 _atom_site_symmetry_multiplicity
 _atom_site_fract_x
 _atom_site_fract_y
 _atom_site_fract_z
 _atom_site_occupancy
  Yb  Yb0  1  0.183370  0.683291  0.000000  1
  Yb  Yb1  1  0.683308  0.816735  0.000000  1
  Er  Er2  1  0.817506  0.317368  0.000000  1
  Tm  Tm3  1  0.317528  0.182660  0.000000  1
  B  B4  1  0.324068  0.460951  0.500000  1
  B  B5  1  0.676374  0.536635  0.500000  1
  B  B6  1  0.537340  0.323175  0.500000  1
  B  B7  1  0.461920  0.675148  0.500000  1
  B  B8  1  0.999821  0.999249  0.202991  1
  B  B9  1  0.499426  0.500654  0.797005  1
  B  B10  1  0.999821  0.999249  0.797009  1
  B  B11  1  0.499426  0.500654  0.202995  1
  B  B12  1  0.585935  0.086756  0.500000  1
  B  B13  1  0.086166  0.413359  0.500000  1
  B  B14  1  0.913629  0.585932  0.500000  1
  B  B15  1  0.413434  0.914224  0.500000  1
  B  B16  1  0.037936  0.176735  0.500000  1
  B  B17  1  0.176645  0.963571  0.500000  1
  B  B18  1  0.824254  0.038814  0.500000  1
  B  B19  1  0.962092  0.824839  0.500000  1
