# generated using pymatgen
data_V12Ga6FeNiN4
_symmetry_space_group_name_H-M   'P 1'
_cell_length_a   6.55620502
_cell_length_b   6.54304239
_cell_length_c   6.55566508
_cell_angle_alpha   90.07852187
_cell_angle_beta   89.95286171
_cell_angle_gamma   90.27077591
_symmetry_Int_Tables_number   1
_chemical_formula_structural   V12Ga6FeNiN4
_chemical_formula_sum   'V12 Ga6 Fe1 Ni1 N4'
_cell_volume   281.21832416
_cell_formula_units_Z   1
loop_
 _symmetry_equiv_pos_site_id
 _symmetry_equiv_pos_as_xyz
  1  'x, y, z'
loop_
 _atom_site_type_symbol
 _atom_site_label
 _atom_site_symmetry_multiplicity
 _atom_site_fract_x
 _atom_site_fract_y
 _atom_site_fract_z
 _atom_site_occupancy
  V  V0  1  0.792972  0.959941  0.373062  1
  V  V1  1  0.703645  0.040425  0.874268  1
  V  V2  1  0.211809  0.456676  0.121158  1
  V  V3  1  0.290015  0.536293  0.629444  1
  V  V4  1  0.964912  0.373416  0.788922  1
  V  V5  1  0.045281  0.881208  0.711887  1
  V  V6  1  0.456985  0.124838  0.204829  1
  V  V7  1  0.538109  0.625025  0.291480  1
  V  V8  1  0.374726  0.796101  0.960443  1
  V  V9  1  0.873802  0.708464  0.041811  1
  V  V10  1  0.127466  0.209217  0.464628  1
  V  V11  1  0.619651  0.287314  0.544697  1
  Ga  Ga12  1  0.820876  0.320614  0.179881  1
  Ga  Ga13  1  0.680230  0.679597  0.677685  1
  Ga  Ga14  1  0.560091  0.422761  0.926934  1
  Ga  Ga15  1  0.418848  0.931858  0.566532  1
  Ga  Ga16  1  0.943140  0.580538  0.425934  1
  Ga  Ga17  1  0.079294  0.065296  0.072031  1
  Fe  Fe18  1  0.320243  0.173116  0.820545  1
  Ni  Ni19  1  0.182143  0.823836  0.318411  1
  N  N20  1  0.874000  0.123731  0.625423  1
  N  N21  1  0.623007  0.876580  0.126181  1
  N  N22  1  0.126046  0.627973  0.877898  1
  N  N23  1  0.372707  0.375182  0.375913  1
