# generated using pymatgen
data_RbLiCrF6
_symmetry_space_group_name_H-M   'P 1'
_cell_length_a   10.77285100
_cell_length_b   5.67911498
_cell_length_c   8.96668113
_cell_angle_alpha   89.50924520
_cell_angle_beta   90.00000000
_cell_angle_gamma   90.00000000
_symmetry_Int_Tables_number   1
_chemical_formula_structural   RbLiCrF6
_chemical_formula_sum   'Rb4 Li4 Cr4 F24'
_cell_volume   548.56375489
_cell_formula_units_Z   4
loop_
 _symmetry_equiv_pos_site_id
 _symmetry_equiv_pos_as_xyz
  1  'x, y, z'
loop_
 _atom_site_type_symbol
 _atom_site_label
 _atom_site_symmetry_multiplicity
 _atom_site_fract_x
 _atom_site_fract_y
 _atom_site_fract_z
 _atom_site_occupancy
  Rb  Rb0  1  0.690319  0.300210  0.996936  1
  Rb  Rb1  1  0.190319  0.699790  0.503064  1
  Rb  Rb2  1  0.309681  0.699790  0.003064  1
  Rb  Rb3  1  0.809681  0.300210  0.496936  1
  Li  Li4  1  0.593283  0.759428  0.678652  1
  Li  Li5  1  0.093283  0.240572  0.821348  1
  Li  Li6  1  0.406717  0.240572  0.321348  1
  Li  Li7  1  0.906717  0.759428  0.178652  1
  Cr  Cr8  1  0.911695  0.765485  0.768883  1
  Cr  Cr9  1  0.411695  0.234515  0.731117  1
  Cr  Cr10  1  0.088305  0.234515  0.231117  1
  Cr  Cr11  1  0.588305  0.765485  0.268883  1
  F  F12  1  0.750519  0.629804  0.743021  1
  F  F13  1  0.250519  0.370196  0.756979  1
  F  F14  1  0.249481  0.370196  0.256979  1
  F  F15  1  0.749481  0.629804  0.243021  1
  F  F16  1  0.903996  0.687112  0.969522  1
  F  F17  1  0.403996  0.312888  0.530478  1
  F  F18  1  0.096004  0.312888  0.030478  1
  F  F19  1  0.596004  0.687112  0.469522  1
  F  F20  1  0.070690  0.908569  0.793337  1
  F  F21  1  0.570690  0.091431  0.706663  1
  F  F22  1  0.929310  0.091431  0.206663  1
  F  F23  1  0.429310  0.908569  0.293337  1
  F  F24  1  0.916897  0.821625  0.567649  1
  F  F25  1  0.416897  0.178375  0.932351  1
  F  F26  1  0.083103  0.178375  0.432351  1
  F  F27  1  0.583103  0.821625  0.067649  1
  F  F28  1  0.841916  0.051831  0.801684  1
  F  F29  1  0.341916  0.948169  0.698316  1
  F  F30  1  0.158084  0.948169  0.198316  1
  F  F31  1  0.658084  0.051831  0.301684  1
  F  F32  1  0.986856  0.474751  0.730499  1
  F  F33  1  0.486856  0.525249  0.769501  1
  F  F34  1  0.013144  0.525249  0.269501  1
  F  F35  1  0.513144  0.474751  0.230499  1
