# generated using pymatgen
data_Dy13Er7(Bi2Ru)4
_symmetry_space_group_name_H-M   'P 1'
_cell_length_a   7.95709308
_cell_length_b   9.00267715
_cell_length_c   12.44977014
_cell_angle_alpha   89.98482430
_cell_angle_beta   90.00791452
_cell_angle_gamma   90.01425077
_symmetry_Int_Tables_number   1
_chemical_formula_structural   Dy13Er7(Bi2Ru)4
_chemical_formula_sum   'Dy13 Er7 Bi8 Ru4'
_cell_volume   891.84096005
_cell_formula_units_Z   1
loop_
 _symmetry_equiv_pos_site_id
 _symmetry_equiv_pos_as_xyz
  1  'x, y, z'
loop_
 _atom_site_type_symbol
 _atom_site_label
 _atom_site_symmetry_multiplicity
 _atom_site_fract_x
 _atom_site_fract_y
 _atom_site_fract_z
 _atom_site_occupancy
  Dy  Dy0  1  0.842566  0.750150  0.793221  1
  Dy  Dy1  1  0.157195  0.249966  0.206753  1
  Dy  Dy2  1  0.342822  0.249939  0.706580  1
  Dy  Dy3  1  0.657214  0.750027  0.293324  1
  Dy  Dy4  1  0.375839  0.750045  0.691430  1
  Dy  Dy5  1  0.624149  0.249972  0.308539  1
  Dy  Dy6  1  0.875575  0.249870  0.808402  1
  Dy  Dy7  1  0.124064  0.750235  0.191692  1
  Dy  Dy8  1  0.946282  0.750027  0.504383  1
  Dy  Dy9  1  0.053585  0.249999  0.495584  1
  Dy  Dy10  1  0.446595  0.249778  0.995680  1
  Dy  Dy11  1  0.553920  0.750146  0.004407  1
  Dy  Dy12  1  0.175356  0.541506  0.935859  1
  Er  Er13  1  0.674275  0.041604  0.564003  1
  Er  Er14  1  0.325776  0.958357  0.435983  1
  Er  Er15  1  0.174361  0.958415  0.935963  1
  Er  Er16  1  0.325789  0.541654  0.436006  1
  Er  Er17  1  0.825781  0.041644  0.063996  1
  Er  Er18  1  0.674259  0.458406  0.563981  1
  Er  Er19  1  0.825273  0.458237  0.064179  1
  Bi  Bi20  1  0.569134  0.493225  0.827185  1
  Bi  Bi21  1  0.431161  0.506702  0.172698  1
  Bi  Bi22  1  0.068653  0.506716  0.672526  1
  Bi  Bi23  1  0.431246  0.993330  0.172688  1
  Bi  Bi24  1  0.931237  0.493274  0.327368  1
  Bi  Bi25  1  0.568704  0.006719  0.827337  1
  Bi  Bi26  1  0.931222  0.006743  0.327387  1
  Bi  Bi27  1  0.068768  0.993289  0.672631  1
  Ru  Ru28  1  0.572597  0.749991  0.510719  1
  Ru  Ru29  1  0.427434  0.250009  0.489313  1
  Ru  Ru30  1  0.072339  0.249665  0.989336  1
  Ru  Ru31  1  0.926828  0.750360  0.010844  1
