# generated using pymatgen
data_K4MnHgSe4
_symmetry_space_group_name_H-M   'P 1'
_cell_length_a   8.30438343
_cell_length_b   8.30438300
_cell_length_c   8.30438342
_cell_angle_alpha   132.36335367
_cell_angle_beta   128.47821466
_cell_angle_gamma   72.77967475
_symmetry_Int_Tables_number   1
_chemical_formula_structural   K4MnHgSe4
_chemical_formula_sum   'K4 Mn1 Hg1 Se4'
_cell_volume   323.66128765
_cell_formula_units_Z   1
loop_
 _symmetry_equiv_pos_site_id
 _symmetry_equiv_pos_as_xyz
  1  'x, y, z'
loop_
 _atom_site_type_symbol
 _atom_site_label
 _atom_site_symmetry_multiplicity
 _atom_site_fract_x
 _atom_site_fract_y
 _atom_site_fract_z
 _atom_site_occupancy
  K  K0  1  0.477651  0.145865  0.334191  1
  K  K1  1  0.522349  0.856541  0.668215  1
  K  K2  1  0.188326  0.354135  0.831785  1
  K  K3  1  0.811674  0.643459  0.165809  1
  Mn  Mn4  1  0.000000  0.750000  0.750000  1
  Hg  Hg5  1  0.000000  0.250000  0.250000  1
  Se  Se6  1  0.094272  0.872931  0.183658  1
  Se  Se7  1  0.905728  0.089386  0.778659  1
  Se  Se8  1  0.310726  0.627069  0.721341  1
  Se  Se9  1  0.689274  0.410614  0.316342  1
