# generated using pymatgen
data_Ho7Sn23(IrOs)3
_symmetry_space_group_name_H-M   'P 1'
_cell_length_a   9.84089200
_cell_length_b   9.84089196
_cell_length_c   10.13950600
_cell_angle_alpha   90.00000000
_cell_angle_beta   90.00000000
_cell_angle_gamma   119.99999341
_symmetry_Int_Tables_number   1
_chemical_formula_structural   Ho7Sn23(IrOs)3
_chemical_formula_sum   'Ho7 Sn23 Ir3 Os3'
_cell_volume   850.38655778
_cell_formula_units_Z   1
loop_
 _symmetry_equiv_pos_site_id
 _symmetry_equiv_pos_as_xyz
  1  'x, y, z'
loop_
 _atom_site_type_symbol
 _atom_site_label
 _atom_site_symmetry_multiplicity
 _atom_site_fract_x
 _atom_site_fract_y
 _atom_site_fract_z
 _atom_site_occupancy
  Ho  Ho0  1  0.000000  0.000000  0.006448  1
  Ho  Ho1  1  0.516867  0.483133  0.694390  1
  Ho  Ho2  1  0.516867  0.033733  0.694390  1
  Ho  Ho3  1  0.966267  0.483133  0.694390  1
  Ho  Ho4  1  0.031193  0.515597  0.304649  1
  Ho  Ho5  1  0.484403  0.968807  0.304649  1
  Ho  Ho6  1  0.484403  0.515597  0.304649  1
  Sn  Sn7  1  0.666667  0.333333  0.175867  1
  Sn  Sn8  1  0.666667  0.333333  0.871697  1
  Sn  Sn9  1  0.333333  0.666667  0.126462  1
  Sn  Sn10  1  0.351801  0.350687  0.000704  1
  Sn  Sn11  1  0.998887  0.648199  0.000704  1
  Sn  Sn12  1  0.649313  0.001113  0.000704  1
  Sn  Sn13  1  0.649313  0.648199  0.000704  1
  Sn  Sn14  1  0.333333  0.666667  0.825957  1
  Sn  Sn15  1  0.440681  0.220341  0.460292  1
  Sn  Sn16  1  0.220280  0.779720  0.538343  1
  Sn  Sn17  1  0.220280  0.440560  0.538343  1
  Sn  Sn18  1  0.559440  0.779720  0.538343  1
  Sn  Sn19  1  0.117600  0.882400  0.276596  1
  Sn  Sn20  1  0.779659  0.559319  0.460292  1
  Sn  Sn21  1  0.779659  0.220341  0.460292  1
  Sn  Sn22  1  0.351801  0.001113  0.000704  1
  Sn  Sn23  1  0.117600  0.235201  0.276596  1
  Sn  Sn24  1  0.764799  0.882400  0.276596  1
  Sn  Sn25  1  0.236758  0.118379  0.720664  1
  Sn  Sn26  1  0.881621  0.763242  0.720664  1
  Sn  Sn27  1  0.881621  0.118379  0.720664  1
  Sn  Sn28  1  0.000000  0.000000  0.502049  1
  Sn  Sn29  1  0.998887  0.350687  0.000704  1
  Ir  Ir30  1  0.170614  0.829386  0.800486  1
  Ir  Ir31  1  0.170614  0.341228  0.800486  1
  Ir  Ir32  1  0.658772  0.829386  0.800486  1
  Os  Os33  1  0.338353  0.169177  0.200345  1
  Os  Os34  1  0.830823  0.661647  0.200345  1
  Os  Os35  1  0.830823  0.169177  0.200345  1
