# generated using pymatgen
data_YbLu3ReRu7
_symmetry_space_group_name_H-M   'P 1'
_cell_length_a   5.17861216
_cell_length_b   5.35599165
_cell_length_c   8.88296872
_cell_angle_alpha   90.00972991
_cell_angle_beta   89.90587494
_cell_angle_gamma   121.21845818
_symmetry_Int_Tables_number   1
_chemical_formula_structural   YbLu3ReRu7
_chemical_formula_sum   'Yb1 Lu3 Re1 Ru7'
_cell_volume   210.70605822
_cell_formula_units_Z   1
loop_
 _symmetry_equiv_pos_site_id
 _symmetry_equiv_pos_as_xyz
  1  'x, y, z'
loop_
 _atom_site_type_symbol
 _atom_site_label
 _atom_site_symmetry_multiplicity
 _atom_site_fract_x
 _atom_site_fract_y
 _atom_site_fract_z
 _atom_site_occupancy
  Yb  Yb0  1  0.671913  0.335595  0.565853  1
  Lu  Lu1  1  0.342761  0.671476  0.437011  1
  Lu  Lu2  1  0.341727  0.670971  0.065891  1
  Lu  Lu3  1  0.669683  0.334373  0.929292  1
  Re  Re4  1  0.321316  0.160930  0.250121  1
  Ru  Ru5  1  0.022203  0.010093  0.500455  1
  Ru  Ru6  1  0.023151  0.010806  0.999984  1
  Ru  Ru7  1  0.166715  0.334864  0.751366  1
  Ru  Ru8  1  0.163709  0.833379  0.751127  1
  Ru  Ru9  1  0.643566  0.821917  0.752541  1
  Ru  Ru10  1  0.816349  0.647064  0.248222  1
  Ru  Ru11  1  0.816909  0.168534  0.248137  1
