# generated using pymatgen
data_PrSm3Al18(Pt2Rh)2
_symmetry_space_group_name_H-M   'P 1'
_cell_length_a   7.67029600
_cell_length_b   7.67049773
_cell_length_c   9.58998000
_cell_angle_alpha   90.00000000
_cell_angle_beta   90.00000000
_cell_angle_gamma   119.60181294
_symmetry_Int_Tables_number   1
_chemical_formula_structural   PrSm3Al18(Pt2Rh)2
_chemical_formula_sum   'Pr1 Sm3 Al18 Pt4 Rh2'
_cell_volume   490.58313968
_cell_formula_units_Z   1
loop_
 _symmetry_equiv_pos_site_id
 _symmetry_equiv_pos_as_xyz
  1  'x, y, z'
loop_
 _atom_site_type_symbol
 _atom_site_label
 _atom_site_symmetry_multiplicity
 _atom_site_fract_x
 _atom_site_fract_y
 _atom_site_fract_z
 _atom_site_occupancy
  Pr  Pr0  1  0.993299  0.665589  0.750000  1
  Sm  Sm1  1  0.006080  0.333583  0.250000  1
  Sm  Sm2  1  0.666305  0.994067  0.750000  1
  Sm  Sm3  1  0.333877  0.005906  0.250000  1
  Al  Al4  1  0.125747  0.126936  0.750000  1
  Al  Al5  1  0.874819  0.875280  0.250000  1
  Al  Al6  1  0.000384  0.328799  0.572695  1
  Al  Al7  1  0.999555  0.669971  0.424780  1
  Al  Al8  1  0.999555  0.669971  0.075220  1
  Al  Al9  1  0.331383  0.001767  0.927150  1
  Al  Al10  1  0.000384  0.328799  0.927305  1
  Al  Al11  1  0.670106  0.999747  0.074029  1
  Al  Al12  1  0.670106  0.999747  0.425971  1
  Al  Al13  1  0.331383  0.001767  0.572850  1
  Al  Al14  1  0.329886  0.329948  0.053574  1
  Al  Al15  1  0.668887  0.670084  0.948145  1
  Al  Al16  1  0.668887  0.670084  0.551855  1
  Al  Al17  1  0.329886  0.329948  0.446426  1
  Al  Al18  1  0.341115  0.544806  0.750000  1
  Al  Al19  1  0.659979  0.455227  0.250000  1
  Al  Al20  1  0.542975  0.338277  0.750000  1
  Al  Al21  1  0.455562  0.660438  0.250000  1
  Pt  Pt22  1  0.671020  0.327866  0.499446  1
  Pt  Pt23  1  0.328874  0.671561  0.499546  1
  Pt  Pt24  1  0.328874  0.671561  0.000454  1
  Pt  Pt25  1  0.671020  0.327866  0.000554  1
  Rh  Rh26  1  0.000026  0.000203  0.499662  1
  Rh  Rh27  1  0.000026  0.000203  0.000338  1
