# generated using pymatgen
data_Ca11Pr8HoSi16
_symmetry_space_group_name_H-M   'P 1'
_cell_length_a   7.52527901
_cell_length_b   7.97888423
_cell_length_c   15.22024745
_cell_angle_alpha   89.97249935
_cell_angle_beta   90.00400354
_cell_angle_gamma   90.00206389
_symmetry_Int_Tables_number   1
_chemical_formula_structural   Ca11Pr8HoSi16
_chemical_formula_sum   'Ca11 Pr8 Ho1 Si16'
_cell_volume   913.87423208
_cell_formula_units_Z   1
loop_
 _symmetry_equiv_pos_site_id
 _symmetry_equiv_pos_as_xyz
  1  'x, y, z'
loop_
 _atom_site_type_symbol
 _atom_site_label
 _atom_site_symmetry_multiplicity
 _atom_site_fract_x
 _atom_site_fract_y
 _atom_site_fract_z
 _atom_site_occupancy
  Ca  Ca0  1  0.646560  0.999058  0.249906  1
  Ca  Ca1  1  0.145790  0.500612  0.249901  1
  Ca  Ca2  1  0.855435  0.496240  0.750987  1
  Ca  Ca3  1  0.351064  0.003231  0.750478  1
  Ca  Ca4  1  0.680207  0.818485  0.877671  1
  Ca  Ca5  1  0.180400  0.682990  0.621055  1
  Ca  Ca6  1  0.819915  0.317827  0.122148  1
  Ca  Ca7  1  0.319500  0.180744  0.379336  1
  Ca  Ca8  1  0.319767  0.181976  0.122377  1
  Ca  Ca9  1  0.819313  0.318624  0.378549  1
  Ca  Ca10  1  0.181484  0.681427  0.877700  1
  Pr  Pr11  1  0.972385  0.813244  0.098654  1
  Pr  Pr12  1  0.471648  0.686160  0.400748  1
  Pr  Pr13  1  0.526609  0.314566  0.901956  1
  Pr  Pr14  1  0.026925  0.186838  0.597326  1
  Pr  Pr15  1  0.026992  0.185681  0.901213  1
  Pr  Pr16  1  0.527759  0.314399  0.599073  1
  Pr  Pr17  1  0.472403  0.686630  0.098954  1
  Pr  Pr18  1  0.971753  0.813006  0.400765  1
  Ho  Ho19  1  0.679161  0.816649  0.623584  1
  Si  Si20  1  0.756200  0.626660  0.250471  1
  Si  Si21  1  0.256667  0.873763  0.250606  1
  Si  Si22  1  0.740633  0.121791  0.746676  1
  Si  Si23  1  0.246128  0.376418  0.749329  1
  Si  Si24  1  0.030222  0.089616  0.250374  1
  Si  Si25  1  0.530033  0.409677  0.250876  1
  Si  Si26  1  0.473901  0.594585  0.746450  1
  Si  Si27  1  0.965600  0.906213  0.745286  1
  Si  Si28  1  0.857290  0.526501  0.962213  1
  Si  Si29  1  0.363986  0.970943  0.540165  1
  Si  Si30  1  0.642980  0.027104  0.036955  1
  Si  Si31  1  0.140198  0.473106  0.463530  1
  Si  Si32  1  0.143685  0.472831  0.036851  1
  Si  Si33  1  0.648894  0.024308  0.466916  1
  Si  Si34  1  0.356576  0.973734  0.962377  1
  Si  Si35  1  0.851937  0.534361  0.538544  1
