# generated using pymatgen
data_Ho5Ni18Ir
_symmetry_space_group_name_H-M   'P 1'
_cell_length_a   4.88812008
_cell_length_b   4.88812081
_cell_length_c   16.52282201
_cell_angle_alpha   81.49358109
_cell_angle_beta   81.49357856
_cell_angle_gamma   59.99999933
_symmetry_Int_Tables_number   1
_chemical_formula_structural   Ho5Ni18Ir
_chemical_formula_sum   'Ho5 Ni18 Ir1'
_cell_volume   336.87546400
_cell_formula_units_Z   1
loop_
 _symmetry_equiv_pos_site_id
 _symmetry_equiv_pos_as_xyz
  1  'x, y, z'
loop_
 _atom_site_type_symbol
 _atom_site_label
 _atom_site_symmetry_multiplicity
 _atom_site_fract_x
 _atom_site_fract_y
 _atom_site_fract_z
 _atom_site_occupancy
  Ho  Ho0  1  0.000000  0.000000  0.000000  1
  Ho  Ho1  1  0.922242  0.922242  0.233275  1
  Ho  Ho2  1  0.077758  0.077758  0.766725  1
  Ho  Ho3  1  0.848801  0.848801  0.453596  1
  Ho  Ho4  1  0.151199  0.151199  0.546404  1
  Ni  Ni5  1  0.748173  0.748174  0.755481  1
  Ni  Ni6  1  0.251826  0.251826  0.244520  1
  Ni  Ni7  1  0.666663  0.666663  0.000012  1
  Ni  Ni8  1  0.333337  0.333337  0.999988  1
  Ni  Ni9  1  0.585320  0.585320  0.244043  1
  Ni  Ni10  1  0.414680  0.414680  0.755957  1
  Ni  Ni11  1  0.377105  0.377105  0.366049  1
  Ni  Ni12  1  0.879740  0.377105  0.366049  1
  Ni  Ni13  1  0.377105  0.879740  0.366049  1
  Ni  Ni14  1  0.622895  0.622895  0.633951  1
  Ni  Ni15  1  0.120260  0.622895  0.633951  1
  Ni  Ni16  1  0.622895  0.120260  0.633951  1
  Ni  Ni17  1  0.459464  0.459464  0.121194  1
  Ni  Ni18  1  0.959880  0.459464  0.121194  1
  Ni  Ni19  1  0.459464  0.959880  0.121194  1
  Ni  Ni20  1  0.540536  0.540536  0.878806  1
  Ni  Ni21  1  0.040120  0.540536  0.878806  1
  Ni  Ni22  1  0.540536  0.040120  0.878806  1
  Ir  Ir23  1  0.500000  0.500000  0.500000  1
