# generated using pymatgen
data_Ce2YHo(ReN3)4
_symmetry_space_group_name_H-M   'P 1'
_cell_length_a   5.45129810
_cell_length_b   5.65666110
_cell_length_c   7.74953000
_cell_angle_alpha   90.00000000
_cell_angle_beta   90.00000000
_cell_angle_gamma   89.97800566
_symmetry_Int_Tables_number   1
_chemical_formula_structural   Ce2YHo(ReN3)4
_chemical_formula_sum   'Ce2 Y1 Ho1 Re4 N12'
_cell_volume   238.96562038
_cell_formula_units_Z   1
loop_
 _symmetry_equiv_pos_site_id
 _symmetry_equiv_pos_as_xyz
  1  'x, y, z'
loop_
 _atom_site_type_symbol
 _atom_site_label
 _atom_site_symmetry_multiplicity
 _atom_site_fract_x
 _atom_site_fract_y
 _atom_site_fract_z
 _atom_site_occupancy
  Ce  Ce0  1  0.473201  0.451909  0.250000  1
  Ce  Ce1  1  0.026471  0.951752  0.250000  1
  Y  Y2  1  0.004591  0.064850  0.750000  1
  Ho  Ho3  1  0.494900  0.566360  0.750000  1
  Re  Re4  1  0.512625  0.005977  0.502583  1
  Re  Re5  1  0.987450  0.505967  0.997392  1
  Re  Re6  1  0.987450  0.505967  0.502608  1
  Re  Re7  1  0.512625  0.005977  0.997417  1
  N  N8  1  0.699257  0.295183  0.542221  1
  N  N9  1  0.302153  0.696638  0.042578  1
  N  N10  1  0.197855  0.196676  0.042841  1
  N  N11  1  0.417969  0.975275  0.750000  1
  N  N12  1  0.930240  0.511660  0.250000  1
  N  N13  1  0.302153  0.696638  0.457422  1
  N  N14  1  0.799170  0.793736  0.958847  1
  N  N15  1  0.699257  0.295183  0.957779  1
  N  N16  1  0.799170  0.793736  0.541153  1
  N  N17  1  0.085255  0.477383  0.750000  1
  N  N18  1  0.197855  0.196676  0.457159  1
  N  N19  1  0.570351  0.012459  0.250000  1
