# generated using pymatgen
data_Li2Tb5Y3(SiB4)4
_symmetry_space_group_name_H-M   'P 1'
_cell_length_a   7.16890501
_cell_length_b   7.16890501
_cell_length_c   7.88602501
_cell_angle_alpha   90.00395839
_cell_angle_beta   90.00395839
_cell_angle_gamma   89.99446928
_symmetry_Int_Tables_number   1
_chemical_formula_structural   Li2Tb5Y3(SiB4)4
_chemical_formula_sum   'Li2 Tb5 Y3 Si4 B16'
_cell_volume   405.28804944
_cell_formula_units_Z   1
loop_
 _symmetry_equiv_pos_site_id
 _symmetry_equiv_pos_as_xyz
  1  'x, y, z'
loop_
 _atom_site_type_symbol
 _atom_site_label
 _atom_site_symmetry_multiplicity
 _atom_site_fract_x
 _atom_site_fract_y
 _atom_site_fract_z
 _atom_site_occupancy
  Li  Li0  1  0.000078  0.999957  0.499924  1
  Li  Li1  1  0.499957  0.500078  0.499924  1
  Tb  Tb2  1  0.816510  0.683526  0.236026  1
  Tb  Tb3  1  0.816531  0.683451  0.764009  1
  Tb  Tb4  1  0.683406  0.183406  0.764058  1
  Tb  Tb5  1  0.183451  0.316531  0.764009  1
  Tb  Tb6  1  0.183526  0.316510  0.236026  1
  Y  Y7  1  0.683360  0.183360  0.235825  1
  Y  Y8  1  0.316638  0.816638  0.764220  1
  Y  Y9  1  0.316626  0.816626  0.235811  1
  Si  Si10  1  0.114841  0.614841  0.499904  1
  Si  Si11  1  0.885416  0.385416  0.499768  1
  Si  Si12  1  0.385354  0.114372  0.499813  1
  Si  Si13  1  0.614372  0.885354  0.499813  1
  B  B14  1  0.174011  0.039907  0.000098  1
  B  B15  1  0.826064  0.960037  0.000068  1
  B  B16  1  0.960123  0.173966  0.000077  1
  B  B17  1  0.325934  0.539949  0.000083  1
  B  B18  1  0.039949  0.825934  0.000083  1
  B  B19  1  0.673966  0.460123  0.000077  1
  B  B20  1  0.539907  0.674011  0.000098  1
  B  B21  1  0.460037  0.326064  0.000068  1
  B  B22  1  0.089019  0.589019  0.999998  1
  B  B23  1  0.910927  0.410927  0.999882  1
  B  B24  1  0.410849  0.089113  0.999986  1
  B  B25  1  0.589113  0.910849  0.999986  1
  B  B26  1  0.000040  0.999951  0.160137  1
  B  B27  1  0.000079  0.999964  0.840047  1
  B  B28  1  0.499964  0.500079  0.840047  1
  B  B29  1  0.499951  0.500040  0.160137  1
