# generated using pymatgen
data_Tb18Lu2Bi3Pb13
_symmetry_space_group_name_H-M   'P 1'
_cell_length_a   8.29928852
_cell_length_b   8.32668602
_cell_length_c   15.68209200
_cell_angle_alpha   90.08114057
_cell_angle_beta   89.75076882
_cell_angle_gamma   90.11152112
_symmetry_Int_Tables_number   1
_chemical_formula_structural   Tb18Lu2Bi3Pb13
_chemical_formula_sum   'Tb18 Lu2 Bi3 Pb13'
_cell_volume   1083.70652237
_cell_formula_units_Z   1
loop_
 _symmetry_equiv_pos_site_id
 _symmetry_equiv_pos_as_xyz
  1  'x, y, z'
loop_
 _atom_site_type_symbol
 _atom_site_label
 _atom_site_symmetry_multiplicity
 _atom_site_fract_x
 _atom_site_fract_y
 _atom_site_fract_z
 _atom_site_occupancy
  Tb  Tb0  1  0.384193  0.838904  0.879952  1
  Tb  Tb1  1  0.887782  0.659004  0.620134  1
  Tb  Tb2  1  0.613593  0.157480  0.378561  1
  Tb  Tb3  1  0.116251  0.342620  0.120889  1
  Tb  Tb4  1  0.620059  0.158602  0.120524  1
  Tb  Tb5  1  0.117739  0.339826  0.379551  1
  Tb  Tb6  1  0.382455  0.840486  0.619216  1
  Tb  Tb7  1  0.882382  0.659062  0.879817  1
  Tb  Tb8  1  0.550190  0.333590  0.895088  1
  Tb  Tb9  1  0.058028  0.168625  0.607435  1
  Tb  Tb10  1  0.442121  0.668219  0.392017  1
  Tb  Tb11  1  0.948677  0.826045  0.104810  1
  Tb  Tb12  1  0.455304  0.668137  0.103683  1
  Tb  Tb13  1  0.955764  0.831349  0.394374  1
  Tb  Tb14  1  0.543468  0.330458  0.604861  1
  Tb  Tb15  1  0.041454  0.175468  0.896413  1
  Tb  Tb16  1  0.215964  0.501660  0.750660  1
  Tb  Tb17  1  0.716130  0.999418  0.753368  1
  Lu  Lu18  1  0.783150  0.498164  0.247270  1
  Lu  Lu19  1  0.283479  0.000864  0.251501  1
  Bi  Bi20  1  0.273304  0.023510  0.046873  1
  Bi  Bi21  1  0.770096  0.479289  0.452684  1
  Bi  Bi22  1  0.730374  0.979452  0.545942  1
  Pb  Pb23  1  0.225433  0.526459  0.956272  1
  Pb  Pb24  1  0.724425  0.971481  0.956635  1
  Pb  Pb25  1  0.224957  0.526202  0.543969  1
  Pb  Pb26  1  0.275779  0.026019  0.454621  1
  Pb  Pb27  1  0.777861  0.470954  0.044792  1
  Pb  Pb28  1  0.579052  0.630472  0.747853  1
  Pb  Pb29  1  0.079087  0.870890  0.750601  1
  Pb  Pb30  1  0.422669  0.368762  0.249382  1
  Pb  Pb31  1  0.922492  0.129671  0.250756  1
  Pb  Pb32  1  0.357928  0.150272  0.751304  1
  Pb  Pb33  1  0.856535  0.350336  0.748461  1
  Pb  Pb34  1  0.641424  0.847242  0.250405  1
  Pb  Pb35  1  0.140403  0.651008  0.249328  1
