# generated using pymatgen
data_Sr4LaY(BiO6)2
_symmetry_space_group_name_H-M   'P 1'
_cell_length_a   5.98506150
_cell_length_b   6.16257643
_cell_length_c   8.58122794
_cell_angle_alpha   90.31471864
_cell_angle_beta   90.21071041
_cell_angle_gamma   90.07399276
_symmetry_Int_Tables_number   1
_chemical_formula_structural   Sr4LaY(BiO6)2
_chemical_formula_sum   'Sr4 La1 Y1 Bi2 O12'
_cell_volume   316.49766601
_cell_formula_units_Z   1
loop_
 _symmetry_equiv_pos_site_id
 _symmetry_equiv_pos_as_xyz
  1  'x, y, z'
loop_
 _atom_site_type_symbol
 _atom_site_label
 _atom_site_symmetry_multiplicity
 _atom_site_fract_x
 _atom_site_fract_y
 _atom_site_fract_z
 _atom_site_occupancy
  Sr  Sr0  1  0.487167  0.046282  0.255492  1
  Sr  Sr1  1  0.013618  0.550328  0.257034  1
  Sr  Sr2  1  0.986384  0.449673  0.742968  1
  Sr  Sr3  1  0.512833  0.953719  0.744506  1
  La  La4  1  0.500000  0.500001  0.000001  1
  Y  Y5  1  0.000000  0.000000  0.500000  1
  Bi  Bi6  1  0.000002  0.000000  0.000000  1
  Bi  Bi7  1  0.499999  0.500000  0.500000  1
  O  O8  1  0.288374  0.811867  0.053040  1
  O  O9  1  0.182841  0.287065  0.058427  1
  O  O10  1  0.899604  0.958858  0.243411  1
  O  O11  1  0.602661  0.457954  0.265454  1
  O  O12  1  0.302786  0.785763  0.444683  1
  O  O13  1  0.211848  0.299196  0.450199  1
  O  O14  1  0.788153  0.700804  0.549800  1
  O  O15  1  0.697214  0.214235  0.555317  1
  O  O16  1  0.397340  0.542046  0.734546  1
  O  O17  1  0.100396  0.041142  0.756589  1
  O  O18  1  0.817160  0.712934  0.941573  1
  O  O19  1  0.711626  0.188132  0.946961  1
