# generated using pymatgen
data_Pa3Bi(SbRh)3
_symmetry_space_group_name_H-M   'P 1'
_cell_length_a   8.40444538
_cell_length_b   8.38967929
_cell_length_c   8.38968027
_cell_angle_alpha   109.38767618
_cell_angle_beta   109.46736748
_cell_angle_gamma   109.48732349
_symmetry_Int_Tables_number   1
_chemical_formula_structural   Pa3Bi(SbRh)3
_chemical_formula_sum   'Pa6 Bi2 Sb6 Rh6'
_cell_volume   455.78412962
_cell_formula_units_Z   2
loop_
 _symmetry_equiv_pos_site_id
 _symmetry_equiv_pos_as_xyz
  1  'x, y, z'
loop_
 _atom_site_type_symbol
 _atom_site_label
 _atom_site_symmetry_multiplicity
 _atom_site_fract_x
 _atom_site_fract_y
 _atom_site_fract_z
 _atom_site_occupancy
  Pa  Pa0  1  0.625191  0.376417  0.744885  1
  Pa  Pa1  1  0.874809  0.119694  0.251225  1
  Pa  Pa2  1  0.380199  0.750893  0.627845  1
  Pa  Pa3  1  0.119801  0.247646  0.870695  1
  Pa  Pa4  1  0.750000  0.631708  0.381708  1
  Pa  Pa5  1  0.250000  0.874850  0.124850  1
  Bi  Bi6  1  0.999344  0.499880  0.177042  1
  Bi  Bi7  1  0.500656  0.177698  0.000536  1
  Sb  Sb8  1  0.828908  0.826590  0.828976  1
  Sb  Sb9  1  0.671092  0.000068  0.497682  1
  Sb  Sb10  1  0.497676  0.670027  0.997768  1
  Sb  Sb11  1  0.326132  0.326723  0.325952  1
  Sb  Sb12  1  0.002324  0.500092  0.672351  1
  Sb  Sb13  1  0.173868  0.999820  0.500591  1
  Rh  Rh14  1  0.116942  0.869019  0.742676  1
  Rh  Rh15  1  0.383058  0.625735  0.252078  1
  Rh  Rh16  1  0.874532  0.759047  0.127932  1
  Rh  Rh17  1  0.625468  0.253400  0.384514  1
  Rh  Rh18  1  0.750000  0.116975  0.866975  1
  Rh  Rh19  1  0.250000  0.373717  0.623717  1
