# generated using pymatgen
data_PrNd11Co3PtBr12
_symmetry_space_group_name_H-M   'P 1'
_cell_length_a   10.40917841
_cell_length_b   10.40917811
_cell_length_c   10.41845631
_cell_angle_alpha   109.77270166
_cell_angle_beta   109.77269028
_cell_angle_gamma   109.61285164
_symmetry_Int_Tables_number   1
_chemical_formula_structural   PrNd11Co3PtBr12
_chemical_formula_sum   'Pr1 Nd11 Co3 Pt1 Br12'
_cell_volume   860.90970645
_cell_formula_units_Z   1
loop_
 _symmetry_equiv_pos_site_id
 _symmetry_equiv_pos_as_xyz
  1  'x, y, z'
loop_
 _atom_site_type_symbol
 _atom_site_label
 _atom_site_symmetry_multiplicity
 _atom_site_fract_x
 _atom_site_fract_y
 _atom_site_fract_z
 _atom_site_occupancy
  Pr  Pr0  1  0.231324  0.268676  0.750000  1
  Nd  Nd1  1  0.467071  0.490743  0.227360  1
  Nd  Nd2  1  0.750303  0.230907  0.269445  1
  Nd  Nd3  1  0.749362  0.017779  0.481546  1
  Nd  Nd4  1  0.227065  0.467095  0.490311  1
  Nd  Nd5  1  0.269093  0.749697  0.230555  1
  Nd  Nd6  1  0.032905  0.272935  0.009689  1
  Nd  Nd7  1  0.009257  0.032929  0.272640  1
  Nd  Nd8  1  0.482221  0.750638  0.018454  1
  Nd  Nd9  1  0.490624  0.226840  0.466676  1
  Nd  Nd10  1  0.017811  0.482189  0.750000  1
  Nd  Nd11  1  0.273160  0.009376  0.033324  1
  Co  Co12  1  0.500882  0.999118  0.250000  1
  Co  Co13  1  0.998293  0.249911  0.499999  1
  Co  Co14  1  0.250089  0.501707  0.000001  1
  Pt  Pt15  1  0.250010  0.249990  0.250000  1
  Br  Br16  1  0.249994  0.756951  0.743073  1
  Br  Br17  1  0.510532  0.506742  0.755759  1
  Br  Br18  1  0.990406  0.744304  0.994309  1
  Br  Br19  1  0.743049  0.250006  0.756927  1
  Br  Br20  1  0.993258  0.989468  0.744241  1
  Br  Br21  1  0.250013  0.994783  0.503820  1
  Br  Br22  1  0.755696  0.509594  0.505691  1
  Br  Br23  1  0.505217  0.249987  0.996180  1
  Br  Br24  1  0.756942  0.743058  0.250000  1
  Br  Br25  1  0.744307  0.994328  0.990410  1
  Br  Br26  1  0.995445  0.504555  0.250000  1
  Br  Br27  1  0.505672  0.755693  0.509590  1
