# generated using pymatgen
data_In2As(PdPt)4
_symmetry_space_group_name_H-M   'P 1'
_cell_length_a   4.06024800
_cell_length_b   4.06024800
_cell_length_c   11.15182800
_cell_angle_alpha   90.00000000
_cell_angle_beta   90.00000000
_cell_angle_gamma   90.00000000
_symmetry_Int_Tables_number   1
_chemical_formula_structural   In2As(PdPt)4
_chemical_formula_sum   'In2 As1 Pd4 Pt4'
_cell_volume   183.84472981
_cell_formula_units_Z   1
loop_
 _symmetry_equiv_pos_site_id
 _symmetry_equiv_pos_as_xyz
  1  'x, y, z'
loop_
 _atom_site_type_symbol
 _atom_site_label
 _atom_site_symmetry_multiplicity
 _atom_site_fract_x
 _atom_site_fract_y
 _atom_site_fract_z
 _atom_site_occupancy
  In  In0  1  0.500000  0.500000  0.815981  1
  In  In1  1  0.500000  0.500000  0.184019  1
  As  As2  1  0.000000  0.000000  0.500000  1
  Pd  Pd3  1  0.500000  0.000000  0.634669  1
  Pd  Pd4  1  0.000000  0.500000  0.634669  1
  Pd  Pd5  1  0.500000  0.000000  0.365331  1
  Pd  Pd6  1  0.000000  0.500000  0.365331  1
  Pt  Pt7  1  0.500000  0.000000  0.000000  1
  Pt  Pt8  1  0.000000  0.500000  0.000000  1
  Pt  Pt9  1  0.000000  0.000000  0.820470  1
  Pt  Pt10  1  0.000000  0.000000  0.179530  1
