# generated using pymatgen
data_La2NdGeSe2
_symmetry_space_group_name_H-M   'P 1'
_cell_length_a   7.51700337
_cell_length_b   7.51700227
_cell_length_c   7.51700334
_cell_angle_alpha   146.49404857
_cell_angle_beta   132.06959614
_cell_angle_gamma   59.74421250
_symmetry_Int_Tables_number   1
_chemical_formula_structural   La2NdGeSe2
_chemical_formula_sum   'La2 Nd1 Ge1 Se2'
_cell_volume   172.49111307
_cell_formula_units_Z   1
loop_
 _symmetry_equiv_pos_site_id
 _symmetry_equiv_pos_as_xyz
  1  'x, y, z'
loop_
 _atom_site_type_symbol
 _atom_site_label
 _atom_site_symmetry_multiplicity
 _atom_site_fract_x
 _atom_site_fract_y
 _atom_site_fract_z
 _atom_site_occupancy
  La  La0  1  0.338794  0.338794  0.000000  1
  La  La1  1  0.000425  0.000425  0.000000  1
  Nd  Nd2  1  0.660432  0.660432  0.000000  1
  Ge  Ge3  1  0.501968  0.001968  0.500000  1
  Se  Se4  1  0.167484  0.667484  0.500000  1
  Se  Se5  1  0.830897  0.330897  0.500000  1
