# generated using pymatgen
data_Er2Co5Ni5As6
_symmetry_space_group_name_H-M   'P 1'
_cell_length_a   3.79008900
_cell_length_b   10.65001300
_cell_length_c   12.19714800
_cell_angle_alpha   90.00000000
_cell_angle_beta   90.00000000
_cell_angle_gamma   90.00000000
_symmetry_Int_Tables_number   1
_chemical_formula_structural   Er2Co5Ni5As6
_chemical_formula_sum   'Er4 Co10 Ni10 As12'
_cell_volume   492.33174533
_cell_formula_units_Z   2
loop_
 _symmetry_equiv_pos_site_id
 _symmetry_equiv_pos_as_xyz
  1  'x, y, z'
loop_
 _atom_site_type_symbol
 _atom_site_label
 _atom_site_symmetry_multiplicity
 _atom_site_fract_x
 _atom_site_fract_y
 _atom_site_fract_z
 _atom_site_occupancy
  Er  Er0  1  0.250000  0.581174  0.703824  1
  Er  Er1  1  0.250000  0.918826  0.203824  1
  Er  Er2  1  0.750000  0.420017  0.297138  1
  Er  Er3  1  0.750000  0.079983  0.797138  1
  Co  Co4  1  0.750000  0.782930  0.821482  1
  Co  Co5  1  0.750000  0.717070  0.321482  1
  Co  Co6  1  0.250000  0.881660  0.695963  1
  Co  Co7  1  0.250000  0.618340  0.195963  1
  Co  Co8  1  0.750000  0.117465  0.303517  1
  Co  Co9  1  0.750000  0.382535  0.803517  1
  Co  Co10  1  0.250000  0.469210  0.932575  1
  Co  Co11  1  0.250000  0.030790  0.432575  1
  Co  Co12  1  0.750000  0.530283  0.068236  1
  Co  Co13  1  0.750000  0.969717  0.568236  1
  Ni  Ni14  1  0.250000  0.708252  0.990116  1
  Ni  Ni15  1  0.250000  0.791748  0.490116  1
  Ni  Ni16  1  0.750000  0.289162  0.008964  1
  Ni  Ni17  1  0.750000  0.210838  0.508964  1
  Ni  Ni18  1  0.250000  0.410135  0.485814  1
  Ni  Ni19  1  0.250000  0.089865  0.985814  1
  Ni  Ni20  1  0.750000  0.591946  0.513605  1
  Ni  Ni21  1  0.750000  0.908054  0.013605  1
  Ni  Ni22  1  0.250000  0.216287  0.178649  1
  Ni  Ni23  1  0.250000  0.283713  0.678649  1
  As  As24  1  0.250000  0.418078  0.115252  1
  As  As25  1  0.250000  0.081922  0.615252  1
  As  As26  1  0.750000  0.583608  0.885040  1
  As  As27  1  0.750000  0.916392  0.385040  1
  As  As28  1  0.250000  0.269039  0.870191  1
  As  As29  1  0.250000  0.230961  0.370191  1
  As  As30  1  0.750000  0.731072  0.131481  1
  As  As31  1  0.750000  0.768928  0.631481  1
  As  As32  1  0.250000  0.605081  0.387067  1
  As  As33  1  0.250000  0.894919  0.887067  1
  As  As34  1  0.750000  0.399488  0.611087  1
  As  As35  1  0.750000  0.100512  0.111087  1
