# generated using pymatgen
data_Y3Er6ScCd3Ru
_symmetry_space_group_name_H-M   'P 1'
_cell_length_a   9.51125000
_cell_length_b   9.51080589
_cell_length_c   9.71164500
_cell_angle_alpha   90.00000000
_cell_angle_beta   90.00000000
_cell_angle_gamma   119.99889771
_symmetry_Int_Tables_number   1
_chemical_formula_structural   Y3Er6ScCd3Ru
_chemical_formula_sum   'Y6 Er12 Sc2 Cd6 Ru2'
_cell_volume   760.82218774
_cell_formula_units_Z   2
loop_
 _symmetry_equiv_pos_site_id
 _symmetry_equiv_pos_as_xyz
  1  'x, y, z'
loop_
 _atom_site_type_symbol
 _atom_site_label
 _atom_site_symmetry_multiplicity
 _atom_site_fract_x
 _atom_site_fract_y
 _atom_site_fract_z
 _atom_site_occupancy
  Y  Y0  1  0.540574  0.459426  0.250000  1
  Y  Y1  1  0.540567  0.081145  0.250000  1
  Y  Y2  1  0.918832  0.459417  0.250000  1
  Y  Y3  1  0.459426  0.540574  0.750000  1
  Y  Y4  1  0.459433  0.918855  0.750000  1
  Y  Y5  1  0.081168  0.540583  0.750000  1
  Er  Er6  1  0.208635  0.791381  0.440825  1
  Er  Er7  1  0.208634  0.417259  0.440834  1
  Er  Er8  1  0.582747  0.791366  0.440847  1
  Er  Er9  1  0.791365  0.208619  0.559175  1
  Er  Er10  1  0.791366  0.582741  0.559166  1
  Er  Er11  1  0.417253  0.208634  0.559153  1
  Er  Er12  1  0.791365  0.208619  0.940825  1
  Er  Er13  1  0.791366  0.582741  0.940834  1
  Er  Er14  1  0.417253  0.208634  0.940847  1
  Er  Er15  1  0.208635  0.791381  0.059175  1
  Er  Er16  1  0.208634  0.417259  0.059166  1
  Er  Er17  1  0.582747  0.791366  0.059153  1
  Sc  Sc18  1  0.000000  0.000000  0.500000  1
  Sc  Sc19  1  0.000000  0.000000  0.000000  1
  Cd  Cd20  1  0.888496  0.111545  0.250000  1
  Cd  Cd21  1  0.888498  0.776950  0.250000  1
  Cd  Cd22  1  0.223033  0.111513  0.250000  1
  Cd  Cd23  1  0.111504  0.888455  0.750000  1
  Cd  Cd24  1  0.111502  0.223050  0.750000  1
  Cd  Cd25  1  0.776967  0.888487  0.750000  1
  Ru  Ru26  1  0.333343  0.666667  0.250000  1
  Ru  Ru27  1  0.666657  0.333333  0.750000  1
