# generated using pymatgen
data_Dy4Ta5NbSi8
_symmetry_space_group_name_H-M   'P 1'
_cell_length_a   7.05205410
_cell_length_b   7.05205398
_cell_length_c   13.02203472
_cell_angle_alpha   89.97083258
_cell_angle_beta   90.02916694
_cell_angle_gamma   89.99312569
_symmetry_Int_Tables_number   1
_chemical_formula_structural   Dy4Ta5NbSi8
_chemical_formula_sum   'Dy8 Ta10 Nb2 Si16'
_cell_volume   647.60470614
_cell_formula_units_Z   2
loop_
 _symmetry_equiv_pos_site_id
 _symmetry_equiv_pos_as_xyz
  1  'x, y, z'
loop_
 _atom_site_type_symbol
 _atom_site_label
 _atom_site_symmetry_multiplicity
 _atom_site_fract_x
 _atom_site_fract_y
 _atom_site_fract_z
 _atom_site_occupancy
  Dy  Dy0  1  0.997701  0.658282  0.032065  1
  Dy  Dy1  1  0.002386  0.341720  0.531990  1
  Dy  Dy2  1  0.658282  0.997701  0.967935  1
  Dy  Dy3  1  0.158385  0.502406  0.782110  1
  Dy  Dy4  1  0.842081  0.497752  0.281858  1
  Dy  Dy5  1  0.502406  0.158385  0.217890  1
  Dy  Dy6  1  0.497752  0.842081  0.718142  1
  Dy  Dy7  1  0.341720  0.002386  0.468010  1
  Ta  Ta8  1  0.346445  0.507514  0.376290  1
  Ta  Ta9  1  0.846475  0.992655  0.374155  1
  Ta  Ta10  1  0.007284  0.153209  0.126018  1
  Ta  Ta11  1  0.992655  0.846475  0.625845  1
  Ta  Ta12  1  0.507514  0.346445  0.623710  1
  Ta  Ta13  1  0.153209  0.007284  0.873982  1
  Ta  Ta14  1  0.671619  0.671619  0.500000  1
  Ta  Ta15  1  0.829101  0.170818  0.749655  1
  Ta  Ta16  1  0.170818  0.829101  0.250345  1
  Ta  Ta17  1  0.327638  0.327638  0.000000  1
  Nb  Nb18  1  0.492910  0.653043  0.124182  1
  Nb  Nb19  1  0.653043  0.492910  0.875818  1
  Si  Si20  1  0.045459  0.706046  0.436112  1
  Si  Si21  1  0.954288  0.293503  0.936086  1
  Si  Si22  1  0.706046  0.045459  0.563888  1
  Si  Si23  1  0.206421  0.454575  0.186232  1
  Si  Si24  1  0.794319  0.545285  0.686088  1
  Si  Si25  1  0.454575  0.206421  0.813768  1
  Si  Si26  1  0.545285  0.794319  0.313912  1
  Si  Si27  1  0.293503  0.954288  0.063914  1
  Si  Si28  1  0.796887  0.866420  0.182047  1
  Si  Si29  1  0.296550  0.633683  0.568222  1
  Si  Si30  1  0.703546  0.365912  0.067596  1
  Si  Si31  1  0.633683  0.296550  0.431778  1
  Si  Si32  1  0.365912  0.703546  0.932404  1
  Si  Si33  1  0.133691  0.203992  0.317935  1
  Si  Si34  1  0.203992  0.133691  0.682065  1
  Si  Si35  1  0.866420  0.796887  0.817953  1
