# generated using pymatgen
data_Li2LaThBi4
_symmetry_space_group_name_H-M   'P 1'
_cell_length_a   4.54444500
_cell_length_b   4.54444500
_cell_length_c   10.97839300
_cell_angle_alpha   90.00000000
_cell_angle_beta   90.00000000
_cell_angle_gamma   90.00000000
_symmetry_Int_Tables_number   1
_chemical_formula_structural   Li2LaThBi4
_chemical_formula_sum   'Li2 La1 Th1 Bi4'
_cell_volume   226.72555660
_cell_formula_units_Z   1
loop_
 _symmetry_equiv_pos_site_id
 _symmetry_equiv_pos_as_xyz
  1  'x, y, z'
loop_
 _atom_site_type_symbol
 _atom_site_label
 _atom_site_symmetry_multiplicity
 _atom_site_fract_x
 _atom_site_fract_y
 _atom_site_fract_z
 _atom_site_occupancy
  Li  Li0  1  0.000000  0.000000  0.999515  1
  Li  Li1  1  0.500000  0.500000  0.999515  1
  La  La2  1  0.500000  0.000000  0.735557  1
  Th  Th3  1  0.000000  0.500000  0.264676  1
  Bi  Bi4  1  0.000000  0.500000  0.840180  1
  Bi  Bi5  1  0.500000  0.000000  0.169919  1
  Bi  Bi6  1  0.000000  0.000000  0.495319  1
  Bi  Bi7  1  0.500000  0.500000  0.495319  1
