# generated using pymatgen
data_Eu2InNiIr
_symmetry_space_group_name_H-M   'P 1'
_cell_length_a   5.82037105
_cell_length_b   5.82037166
_cell_length_c   8.02781785
_cell_angle_alpha   78.24497952
_cell_angle_beta   78.24497788
_cell_angle_gamma   59.72747447
_symmetry_Int_Tables_number   1
_chemical_formula_structural   Eu2InNiIr
_chemical_formula_sum   'Eu4 In2 Ni2 Ir2'
_cell_volume   228.29842111
_cell_formula_units_Z   2
loop_
 _symmetry_equiv_pos_site_id
 _symmetry_equiv_pos_as_xyz
  1  'x, y, z'
loop_
 _atom_site_type_symbol
 _atom_site_label
 _atom_site_symmetry_multiplicity
 _atom_site_fract_x
 _atom_site_fract_y
 _atom_site_fract_z
 _atom_site_occupancy
  Eu  Eu0  1  0.790893  0.497201  0.353492  1
  Eu  Eu1  1  0.502799  0.209107  0.146508  1
  Eu  Eu2  1  0.207741  0.494249  0.645293  1
  Eu  Eu3  1  0.505751  0.792259  0.854707  1
  In  In4  1  0.135959  0.864041  0.250000  1
  In  In5  1  0.872779  0.127221  0.750000  1
  Ni  Ni6  1  0.006308  0.717199  0.004224  1
  Ni  Ni7  1  0.282801  0.993692  0.495776  1
  Ir  Ir8  1  0.999638  0.304669  0.994844  1
  Ir  Ir9  1  0.695331  0.000362  0.505156  1
