# generated using pymatgen
data_Pr2BeRhBr
_symmetry_space_group_name_H-M   'P 1'
_cell_length_a   4.04370900
_cell_length_b   4.04370899
_cell_length_c   17.25547900
_cell_angle_alpha   90.00000000
_cell_angle_beta   90.00000000
_cell_angle_gamma   119.99999188
_symmetry_Int_Tables_number   1
_chemical_formula_structural   Pr2BeRhBr
_chemical_formula_sum   'Pr4 Be2 Rh2 Br2'
_cell_volume   244.35288741
_cell_formula_units_Z   2
loop_
 _symmetry_equiv_pos_site_id
 _symmetry_equiv_pos_as_xyz
  1  'x, y, z'
loop_
 _atom_site_type_symbol
 _atom_site_label
 _atom_site_symmetry_multiplicity
 _atom_site_fract_x
 _atom_site_fract_y
 _atom_site_fract_z
 _atom_site_occupancy
  Pr  Pr0  1  0.000000  0.000000  0.611535  1
  Pr  Pr1  1  0.000000  0.000000  0.389052  1
  Pr  Pr2  1  0.000000  0.000000  0.111535  1
  Pr  Pr3  1  0.000000  0.000000  0.889052  1
  Be  Be4  1  0.666667  0.333333  0.500271  1
  Be  Be5  1  0.333333  0.666667  0.000271  1
  Rh  Rh6  1  0.666667  0.333333  0.999738  1
  Rh  Rh7  1  0.333333  0.666667  0.499738  1
  Br  Br8  1  0.666667  0.333333  0.249403  1
  Br  Br9  1  0.333333  0.666667  0.749403  1
