# generated using pymatgen
data_Zr8Tc(P4Ir5)3
_symmetry_space_group_name_H-M   'P 1'
_cell_length_a   12.84733659
_cell_length_b   12.82762263
_cell_length_c   3.93966400
_cell_angle_alpha   90.00000000
_cell_angle_beta   90.00000000
_cell_angle_gamma   120.58386211
_symmetry_Int_Tables_number   1
_chemical_formula_structural   Zr8Tc(P4Ir5)3
_chemical_formula_sum   'Zr8 Tc1 P12 Ir15'
_cell_volume   558.93819572
_cell_formula_units_Z   1
loop_
 _symmetry_equiv_pos_site_id
 _symmetry_equiv_pos_as_xyz
  1  'x, y, z'
loop_
 _atom_site_type_symbol
 _atom_site_label
 _atom_site_symmetry_multiplicity
 _atom_site_fract_x
 _atom_site_fract_y
 _atom_site_fract_z
 _atom_site_occupancy
  Zr  Zr0  1  0.448719  0.449266  0.000000  1
  Zr  Zr1  1  0.550285  0.998708  0.000000  1
  Zr  Zr2  1  0.995802  0.549418  0.000000  1
  Zr  Zr3  1  0.664379  0.332386  0.000000  1
  Zr  Zr4  1  0.331908  0.661162  0.000000  1
  Zr  Zr5  1  0.818766  0.819515  0.500000  1
  Zr  Zr6  1  0.183339  0.000890  0.500000  1
  Zr  Zr7  1  0.001140  0.184424  0.500000  1
  Tc  Tc8  1  0.196772  0.373953  0.000000  1
  P  P9  1  0.650564  0.651697  0.000000  1
  P  P10  1  0.350494  0.999973  0.000000  1
  P  P11  1  0.007469  0.351415  0.000000  1
  P  P12  1  0.482732  0.312630  0.500000  1
  P  P13  1  0.685700  0.168445  0.500000  1
  P  P14  1  0.829466  0.517965  0.500000  1
  P  P15  1  0.516551  0.829384  0.500000  1
  P  P16  1  0.167720  0.683884  0.500000  1
  P  P17  1  0.828687  0.002983  0.000000  1
  P  P18  1  0.001726  0.828230  0.000000  1
  P  P19  1  0.308954  0.479244  0.500000  1
  P  P20  1  0.173478  0.179108  0.000000  1
  Ir  Ir21  1  0.177970  0.810527  0.000000  1
  Ir  Ir22  1  0.821403  0.634608  0.000000  1
  Ir  Ir23  1  0.813092  0.180716  0.000000  1
  Ir  Ir24  1  0.371698  0.189639  0.000000  1
  Ir  Ir25  1  0.129648  0.489431  0.500000  1
  Ir  Ir26  1  0.355043  0.857962  0.500000  1
  Ir  Ir27  1  0.505967  0.644327  0.500000  1
  Ir  Ir28  1  0.644660  0.505820  0.500000  1
  Ir  Ir29  1  0.856131  0.356441  0.500000  1
  Ir  Ir30  1  0.493826  0.136670  0.500000  1
  Ir  Ir31  1  0.000667  0.000514  0.000000  1
  Ir  Ir32  1  0.723390  0.000944  0.500000  1
  Ir  Ir33  1  0.000065  0.723212  0.500000  1
  Ir  Ir34  1  0.633480  0.822739  0.000000  1
  Ir  Ir35  1  0.278308  0.271769  0.500000  1
