# generated using pymatgen
data_PrEr4In4AgPt
_symmetry_space_group_name_H-M   'P 1'
_cell_length_a   3.61880900
_cell_length_b   8.24688578
_cell_length_c   18.51512515
_cell_angle_alpha   89.78685645
_cell_angle_beta   90.00000000
_cell_angle_gamma   90.00000000
_symmetry_Int_Tables_number   1
_chemical_formula_structural   PrEr4In4AgPt
_chemical_formula_sum   'Pr2 Er8 In8 Ag2 Pt2'
_cell_volume   552.55980288
_cell_formula_units_Z   2
loop_
 _symmetry_equiv_pos_site_id
 _symmetry_equiv_pos_as_xyz
  1  'x, y, z'
loop_
 _atom_site_type_symbol
 _atom_site_label
 _atom_site_symmetry_multiplicity
 _atom_site_fract_x
 _atom_site_fract_y
 _atom_site_fract_z
 _atom_site_occupancy
  Pr  Pr0  1  0.000000  0.000000  0.000000  1
  Pr  Pr1  1  0.000000  0.500000  0.500000  1
  Er  Er2  1  0.000000  0.125100  0.421543  1
  Er  Er3  1  0.000000  0.874900  0.578457  1
  Er  Er4  1  0.000000  0.376345  0.914696  1
  Er  Er5  1  0.000000  0.623655  0.085304  1
  Er  Er6  1  0.000000  0.254251  0.211732  1
  Er  Er7  1  0.000000  0.745749  0.788268  1
  Er  Er8  1  0.000000  0.282073  0.718801  1
  Er  Er9  1  0.000000  0.717927  0.281199  1
  In  In10  1  0.500000  0.407724  0.346661  1
  In  In11  1  0.500000  0.592276  0.653339  1
  In  In12  1  0.500000  0.079786  0.845943  1
  In  In13  1  0.500000  0.920214  0.154057  1
  In  In14  1  0.500000  0.306592  0.063534  1
  In  In15  1  0.500000  0.693408  0.936466  1
  In  In16  1  0.500000  0.199288  0.570274  1
  In  In17  1  0.500000  0.800712  0.429726  1
  Ag  Ag18  1  0.500000  0.026911  0.302022  1
  Ag  Ag19  1  0.500000  0.973089  0.697978  1
  Pt  Pt20  1  0.500000  0.473835  0.804700  1
  Pt  Pt21  1  0.500000  0.526165  0.195300  1
