# generated using pymatgen
data_Li5(Ni2P3)2
_symmetry_space_group_name_H-M   'P 1'
_cell_length_a   7.75410699
_cell_length_b   7.75410831
_cell_length_c   7.75410808
_cell_angle_alpha   151.89917331
_cell_angle_beta   113.85882742
_cell_angle_gamma   73.34521294
_symmetry_Int_Tables_number   1
_chemical_formula_structural   Li5(Ni2P3)2
_chemical_formula_sum   'Li5 Ni4 P6'
_cell_volume   198.15248278
_cell_formula_units_Z   1
loop_
 _symmetry_equiv_pos_site_id
 _symmetry_equiv_pos_as_xyz
  1  'x, y, z'
loop_
 _atom_site_type_symbol
 _atom_site_label
 _atom_site_symmetry_multiplicity
 _atom_site_fract_x
 _atom_site_fract_y
 _atom_site_fract_z
 _atom_site_occupancy
  Li  Li0  1  0.000000  0.000000  0.000000  1
  Li  Li1  1  0.718911  0.718911  0.000000  1
  Li  Li2  1  0.676909  0.500000  0.176909  1
  Li  Li3  1  0.323091  0.500000  0.823091  1
  Li  Li4  1  0.281089  0.281089  0.000000  1
  Ni  Ni5  1  0.907166  0.172932  0.734235  1
  Ni  Ni6  1  0.561303  0.827068  0.734235  1
  Ni  Ni7  1  0.438697  0.172932  0.265765  1
  Ni  Ni8  1  0.092834  0.827068  0.265765  1
  P  P9  1  0.970855  0.342326  0.628530  1
  P  P10  1  0.713795  0.342326  0.371470  1
  P  P11  1  0.586131  0.086131  0.500000  1
  P  P12  1  0.413869  0.913869  0.500000  1
  P  P13  1  0.286205  0.657674  0.628530  1
  P  P14  1  0.029145  0.657674  0.371470  1
