# generated using pymatgen
data_PrY7Cu3Si12Rh
_symmetry_space_group_name_H-M   'P 1'
_cell_length_a   8.04654900
_cell_length_b   8.04654932
_cell_length_c   8.20468600
_cell_angle_alpha   89.99995728
_cell_angle_beta   90.00004272
_cell_angle_gamma   120.00010146
_symmetry_Int_Tables_number   1
_chemical_formula_structural   PrY7Cu3Si12Rh
_chemical_formula_sum   'Pr1 Y7 Cu3 Si12 Rh1'
_cell_volume   460.05683833
_cell_formula_units_Z   1
loop_
 _symmetry_equiv_pos_site_id
 _symmetry_equiv_pos_as_xyz
  1  'x, y, z'
loop_
 _atom_site_type_symbol
 _atom_site_label
 _atom_site_symmetry_multiplicity
 _atom_site_fract_x
 _atom_site_fract_y
 _atom_site_fract_z
 _atom_site_occupancy
  Pr  Pr0  1  0.000000  0.000000  0.249841  1
  Y  Y1  1  0.000000  0.000000  0.749577  1
  Y  Y2  1  0.999187  0.499593  0.251718  1
  Y  Y3  1  0.500406  0.499594  0.251718  1
  Y  Y4  1  0.500629  0.001257  0.748452  1
  Y  Y5  1  0.500407  0.000813  0.251718  1
  Y  Y6  1  0.500628  0.499372  0.748453  1
  Y  Y7  1  0.998743  0.499371  0.748452  1
  Cu  Cu8  1  0.333332  0.666668  0.999048  1
  Cu  Cu9  1  0.333333  0.666667  0.500451  1
  Cu  Cu10  1  0.666667  0.333333  0.000614  1
  Si  Si11  1  0.169595  0.339190  0.997466  1
  Si  Si12  1  0.660810  0.830405  0.997466  1
  Si  Si13  1  0.168540  0.337079  0.503111  1
  Si  Si14  1  0.339359  0.169679  0.997158  1
  Si  Si15  1  0.169595  0.830405  0.997466  1
  Si  Si16  1  0.662921  0.831460  0.503111  1
  Si  Si17  1  0.830321  0.660641  0.997158  1
  Si  Si18  1  0.337001  0.168500  0.502303  1
  Si  Si19  1  0.168540  0.831460  0.503111  1
  Si  Si20  1  0.831500  0.662999  0.502303  1
  Si  Si21  1  0.830322  0.169678  0.997159  1
  Si  Si22  1  0.831500  0.168500  0.502303  1
  Rh  Rh23  1  0.666667  0.333333  0.499843  1
