# generated using pymatgen
data_TbTmLu2(Al3Ir)6
_symmetry_space_group_name_H-M   'P 1'
_cell_length_a   7.53792440
_cell_length_b   7.53638800
_cell_length_c   9.43477200
_cell_angle_alpha   90.00000000
_cell_angle_beta   90.00000000
_cell_angle_gamma   119.50957270
_symmetry_Int_Tables_number   1
_chemical_formula_structural   TbTmLu2(Al3Ir)6
_chemical_formula_sum   'Tb1 Tm1 Lu2 Al18 Ir6'
_cell_volume   466.44683633
_cell_formula_units_Z   1
loop_
 _symmetry_equiv_pos_site_id
 _symmetry_equiv_pos_as_xyz
  1  'x, y, z'
loop_
 _atom_site_type_symbol
 _atom_site_label
 _atom_site_symmetry_multiplicity
 _atom_site_fract_x
 _atom_site_fract_y
 _atom_site_fract_z
 _atom_site_occupancy
  Tb  Tb0  1  0.671600  0.994755  0.250000  1
  Tm  Tm1  1  0.994829  0.671671  0.250000  1
  Lu  Lu2  1  0.005432  0.328121  0.750000  1
  Lu  Lu3  1  0.328139  0.005474  0.750000  1
  Al  Al4  1  0.129904  0.129458  0.250000  1
  Al  Al5  1  0.871288  0.871286  0.750000  1
  Al  Al6  1  0.001258  0.335873  0.073866  1
  Al  Al7  1  0.999655  0.664665  0.924490  1
  Al  Al8  1  0.999655  0.664665  0.575510  1
  Al  Al9  1  0.334635  0.000653  0.426180  1
  Al  Al10  1  0.001258  0.335873  0.426134  1
  Al  Al11  1  0.664674  0.999675  0.575977  1
  Al  Al12  1  0.664674  0.999675  0.924023  1
  Al  Al13  1  0.334635  0.000653  0.073820  1
  Al  Al14  1  0.332811  0.332786  0.553220  1
  Al  Al15  1  0.667032  0.666440  0.448452  1
  Al  Al16  1  0.667032  0.666440  0.051548  1
  Al  Al17  1  0.332811  0.332786  0.946780  1
  Al  Al18  1  0.339106  0.548361  0.250000  1
  Al  Al19  1  0.660131  0.450310  0.750000  1
  Al  Al20  1  0.549050  0.340243  0.250000  1
  Al  Al21  1  0.450174  0.660097  0.750000  1
  Ir  Ir22  1  0.672381  0.327790  0.999611  1
  Ir  Ir23  1  0.327306  0.672149  0.999617  1
  Ir  Ir24  1  0.327306  0.672149  0.500383  1
  Ir  Ir25  1  0.672381  0.327790  0.500389  1
  Ir  Ir26  1  0.000422  0.000082  0.999603  1
  Ir  Ir27  1  0.000422  0.000082  0.500397  1
