# generated using pymatgen
data_Y2TiCo9Mo2As7
_symmetry_space_group_name_H-M   'P 1'
_cell_length_a   3.81723900
_cell_length_b   9.43729824
_cell_length_c   9.42843484
_cell_angle_alpha   120.27380960
_cell_angle_beta   90.00000000
_cell_angle_gamma   90.00000000
_symmetry_Int_Tables_number   1
_chemical_formula_structural   Y2TiCo9Mo2As7
_chemical_formula_sum   'Y2 Ti1 Co9 Mo2 As7'
_cell_volume   293.33398830
_cell_formula_units_Z   1
loop_
 _symmetry_equiv_pos_site_id
 _symmetry_equiv_pos_as_xyz
  1  'x, y, z'
loop_
 _atom_site_type_symbol
 _atom_site_label
 _atom_site_symmetry_multiplicity
 _atom_site_fract_x
 _atom_site_fract_y
 _atom_site_fract_z
 _atom_site_occupancy
  Y  Y0  1  0.000000  0.665062  0.333516  1
  Y  Y1  1  0.500000  0.334998  0.666521  1
  Ti  Ti2  1  0.500000  0.105389  0.885063  1
  Co  Co3  1  0.000000  0.571785  0.939583  1
  Co  Co4  1  0.000000  0.369187  0.428983  1
  Co  Co5  1  0.000000  0.060501  0.628889  1
  Co  Co6  1  0.000000  0.876101  0.158973  1
  Co  Co7  1  0.000000  0.279458  0.120647  1
  Co  Co8  1  0.000000  0.841736  0.718080  1
  Co  Co9  1  0.500000  0.949238  0.383432  1
  Co  Co10  1  0.500000  0.433164  0.049900  1
  Co  Co11  1  0.500000  0.616912  0.566244  1
  Mo  Mo12  1  0.500000  0.781164  0.904599  1
  Mo  Mo13  1  0.500000  0.117287  0.218972  1
  As  As14  1  0.000000  0.998416  0.999971  1
  As  As15  1  0.500000  0.707531  0.120639  1
  As  As16  1  0.500000  0.409384  0.291249  1
  As  As17  1  0.500000  0.879327  0.585983  1
  As  As18  1  0.000000  0.586338  0.698473  1
  As  As19  1  0.000000  0.113404  0.414650  1
  As  As20  1  0.000000  0.303617  0.885632  1
