# generated using pymatgen
data_Y3HoAl18(PtRh2)2
_symmetry_space_group_name_H-M   'P 1'
_cell_length_a   7.57589625
_cell_length_b   7.57438857
_cell_length_c   9.46122865
_cell_angle_alpha   89.97571432
_cell_angle_beta   89.98170404
_cell_angle_gamma   119.54474618
_symmetry_Int_Tables_number   1
_chemical_formula_structural   Y3HoAl18(PtRh2)2
_chemical_formula_sum   'Y3 Ho1 Al18 Pt2 Rh4'
_cell_volume   472.31716230
_cell_formula_units_Z   1
loop_
 _symmetry_equiv_pos_site_id
 _symmetry_equiv_pos_as_xyz
  1  'x, y, z'
loop_
 _atom_site_type_symbol
 _atom_site_label
 _atom_site_symmetry_multiplicity
 _atom_site_fract_x
 _atom_site_fract_y
 _atom_site_fract_z
 _atom_site_occupancy
  Y  Y0  1  0.005162  0.330089  0.749969  1
  Y  Y1  1  0.670045  0.994979  0.250032  1
  Y  Y2  1  0.329914  0.004981  0.749976  1
  Ho  Ho3  1  0.995124  0.670324  0.250149  1
  Al  Al4  1  0.126848  0.126501  0.251053  1
  Al  Al5  1  0.873184  0.872995  0.748955  1
  Al  Al6  1  0.000875  0.331630  0.078029  1
  Al  Al7  1  0.999022  0.668686  0.922932  1
  Al  Al8  1  0.000295  0.665206  0.573919  1
  Al  Al9  1  0.334605  0.999430  0.425176  1
  Al  Al10  1  0.999656  0.335194  0.425141  1
  Al  Al11  1  0.665182  0.000261  0.574432  1
  Al  Al12  1  0.668709  0.999004  0.922395  1
  Al  Al13  1  0.331045  0.000607  0.078024  1
  Al  Al14  1  0.331950  0.331930  0.549784  1
  Al  Al15  1  0.668289  0.668077  0.449424  1
  Al  Al16  1  0.669631  0.669385  0.055517  1
  Al  Al17  1  0.330561  0.330542  0.945258  1
  Al  Al18  1  0.340026  0.547486  0.253859  1
  Al  Al19  1  0.659631  0.452475  0.746100  1
  Al  Al20  1  0.547994  0.341072  0.253846  1
  Al  Al21  1  0.452472  0.659383  0.746108  1
  Pt  Pt22  1  0.672250  0.327719  0.000199  1
  Pt  Pt23  1  0.327735  0.672283  0.000186  1
  Rh  Rh24  1  0.327663  0.672389  0.499772  1
  Rh  Rh25  1  0.672411  0.327716  0.499751  1
  Rh  Rh26  1  0.999861  0.999837  0.000244  1
  Rh  Rh27  1  0.999857  0.999817  0.499770  1
