# generated using pymatgen
data_Ce4VReOs6
_symmetry_space_group_name_H-M   'P 1'
_cell_length_a   5.14068425
_cell_length_b   5.14068456
_cell_length_c   9.16986100
_cell_angle_alpha   90.00000000
_cell_angle_beta   90.00000000
_cell_angle_gamma   113.74523599
_symmetry_Int_Tables_number   1
_chemical_formula_structural   Ce4VReOs6
_chemical_formula_sum   'Ce4 V1 Re1 Os6'
_cell_volume   221.81424539
_cell_formula_units_Z   1
loop_
 _symmetry_equiv_pos_site_id
 _symmetry_equiv_pos_as_xyz
  1  'x, y, z'
loop_
 _atom_site_type_symbol
 _atom_site_label
 _atom_site_symmetry_multiplicity
 _atom_site_fract_x
 _atom_site_fract_y
 _atom_site_fract_z
 _atom_site_occupancy
  Ce  Ce0  1  0.333374  0.666626  0.435615  1
  Ce  Ce1  1  0.664877  0.335123  0.566342  1
  Ce  Ce2  1  0.664877  0.335123  0.933658  1
  Ce  Ce3  1  0.333374  0.666626  0.064385  1
  V  V4  1  0.166380  0.833620  0.750000  1
  Re  Re5  1  0.835501  0.164499  0.250000  1
  Os  Os6  1  0.999041  0.000959  0.501004  1
  Os  Os7  1  0.999041  0.000959  0.998996  1
  Os  Os8  1  0.834395  0.656466  0.250000  1
  Os  Os9  1  0.343534  0.165605  0.250000  1
  Os  Os10  1  0.167075  0.341469  0.750000  1
  Os  Os11  1  0.658531  0.832925  0.750000  1
