# generated using pymatgen
data_Cs2TbTlBr6
_symmetry_space_group_name_H-M   'P 1'
_cell_length_a   8.27567941
_cell_length_b   8.27567941
_cell_length_c   8.57270500
_cell_angle_alpha   119.27934247
_cell_angle_beta   119.27933454
_cell_angle_gamma   60.04791630
_symmetry_Int_Tables_number   1
_chemical_formula_structural   Cs2TbTlBr6
_chemical_formula_sum   'Cs2 Tb1 Tl1 Br6'
_cell_volume   419.77476769
_cell_formula_units_Z   1
loop_
 _symmetry_equiv_pos_site_id
 _symmetry_equiv_pos_as_xyz
  1  'x, y, z'
loop_
 _atom_site_type_symbol
 _atom_site_label
 _atom_site_symmetry_multiplicity
 _atom_site_fract_x
 _atom_site_fract_y
 _atom_site_fract_z
 _atom_site_occupancy
  Cs  Cs0  1  0.746717  0.746717  0.235063  1
  Cs  Cs1  1  0.253283  0.253283  0.764939  1
  Tb  Tb2  1  0.000000  0.000000  0.000000  1
  Tl  Tl3  1  0.500000  0.500000  0.500001  1
  Br  Br4  1  0.712340  0.188366  0.177519  1
  Br  Br5  1  0.188366  0.712340  0.177519  1
  Br  Br6  1  0.227843  0.227843  0.312589  1
  Br  Br7  1  0.772157  0.772157  0.687411  1
  Br  Br8  1  0.811634  0.287661  0.822480  1
  Br  Br9  1  0.287661  0.811634  0.822480  1
