# generated using pymatgen
data_TmPa(B4Os)2
_symmetry_space_group_name_H-M   'P 1'
_cell_length_a   3.57344100
_cell_length_b   5.96785925
_cell_length_c   11.57065896
_cell_angle_alpha   90.17830037
_cell_angle_beta   90.00000000
_cell_angle_gamma   90.00000000
_symmetry_Int_Tables_number   1
_chemical_formula_structural   TmPa(B4Os)2
_chemical_formula_sum   'Tm2 Pa2 B16 Os4'
_cell_volume   246.75228213
_cell_formula_units_Z   2
loop_
 _symmetry_equiv_pos_site_id
 _symmetry_equiv_pos_as_xyz
  1  'x, y, z'
loop_
 _atom_site_type_symbol
 _atom_site_label
 _atom_site_symmetry_multiplicity
 _atom_site_fract_x
 _atom_site_fract_y
 _atom_site_fract_z
 _atom_site_occupancy
  Tm  Tm0  1  0.500000  0.629432  0.852385  1
  Tm  Tm1  1  0.500000  0.370568  0.147615  1
  Pa  Pa2  1  0.500000  0.129474  0.651284  1
  Pa  Pa3  1  0.500000  0.870526  0.348716  1
  B  B4  1  0.000000  0.474172  0.692925  1
  B  B5  1  0.000000  0.525828  0.307075  1
  B  B6  1  0.000000  0.970999  0.810337  1
  B  B7  1  0.000000  0.029001  0.189663  1
  B  B8  1  0.000000  0.291784  0.814430  1
  B  B9  1  0.000000  0.708216  0.185570  1
  B  B10  1  0.000000  0.791041  0.688291  1
  B  B11  1  0.000000  0.208959  0.311709  1
  B  B12  1  0.000000  0.364250  0.969375  1
  B  B13  1  0.000000  0.635750  0.030625  1
  B  B14  1  0.000000  0.866135  0.532623  1
  B  B15  1  0.000000  0.133865  0.467377  1
  B  B16  1  0.000000  0.387534  0.546755  1
  B  B17  1  0.000000  0.612466  0.453245  1
  B  B18  1  0.000000  0.885525  0.954366  1
  B  B19  1  0.000000  0.114475  0.045634  1
  Os  Os20  1  0.500000  0.141329  0.905078  1
  Os  Os21  1  0.500000  0.858671  0.094922  1
  Os  Os22  1  0.500000  0.641557  0.596229  1
  Os  Os23  1  0.500000  0.358443  0.403771  1
