# generated using pymatgen
data_Nd4Al12GaAu9
_symmetry_space_group_name_H-M   'P 1'
_cell_length_a   11.65436300
_cell_length_b   11.65436152
_cell_length_c   4.18074200
_cell_angle_alpha   90.00000000
_cell_angle_beta   90.00000000
_cell_angle_gamma   120.00000137
_symmetry_Int_Tables_number   1
_chemical_formula_structural   Nd4Al12GaAu9
_chemical_formula_sum   'Nd4 Al12 Ga1 Au9'
_cell_volume   491.76885452
_cell_formula_units_Z   1
loop_
 _symmetry_equiv_pos_site_id
 _symmetry_equiv_pos_as_xyz
  1  'x, y, z'
loop_
 _atom_site_type_symbol
 _atom_site_label
 _atom_site_symmetry_multiplicity
 _atom_site_fract_x
 _atom_site_fract_y
 _atom_site_fract_z
 _atom_site_occupancy
  Nd  Nd0  1  0.206319  0.793681  0.500000  1
  Nd  Nd1  1  0.587363  0.793681  0.500000  1
  Nd  Nd2  1  0.206319  0.412637  0.500000  1
  Nd  Nd3  1  0.666667  0.333333  0.000000  1
  Al  Al4  1  0.948565  0.291818  0.000000  1
  Al  Al5  1  0.708182  0.656746  0.000000  1
  Al  Al6  1  0.948565  0.656746  0.000000  1
  Al  Al7  1  0.343254  0.051435  0.000000  1
  Al  Al8  1  0.166962  0.083481  0.500000  1
  Al  Al9  1  0.916519  0.833038  0.500000  1
  Al  Al10  1  0.708182  0.051435  0.000000  1
  Al  Al11  1  0.532355  0.064710  0.500000  1
  Al  Al12  1  0.916519  0.083481  0.500000  1
  Al  Al13  1  0.343254  0.291818  0.000000  1
  Al  Al14  1  0.532355  0.467645  0.500000  1
  Al  Al15  1  0.935290  0.467645  0.500000  1
  Ga  Ga16  1  0.333333  0.666667  0.000000  1
  Au  Au17  1  0.458054  0.541946  0.000000  1
  Au  Au18  1  0.826615  0.913308  0.000000  1
  Au  Au19  1  0.458054  0.916108  0.000000  1
  Au  Au20  1  0.086692  0.173385  0.000000  1
  Au  Au21  1  0.086692  0.913308  0.000000  1
  Au  Au22  1  0.788888  0.577774  0.500000  1
  Au  Au23  1  0.083892  0.541946  0.000000  1
  Au  Au24  1  0.788888  0.211112  0.500000  1
  Au  Au25  1  0.422226  0.211112  0.500000  1
