# generated using pymatgen
data_Pr6TiCo16ReP12
_symmetry_space_group_name_H-M   'P 1'
_cell_length_a   3.79408000
_cell_length_b   10.77026100
_cell_length_c   12.51441400
_cell_angle_alpha   90.00000000
_cell_angle_beta   90.00000000
_cell_angle_gamma   90.00000000
_symmetry_Int_Tables_number   1
_chemical_formula_structural   Pr6TiCo16ReP12
_chemical_formula_sum   'Pr6 Ti1 Co16 Re1 P12'
_cell_volume   511.37940081
_cell_formula_units_Z   1
loop_
 _symmetry_equiv_pos_site_id
 _symmetry_equiv_pos_as_xyz
  1  'x, y, z'
loop_
 _atom_site_type_symbol
 _atom_site_label
 _atom_site_symmetry_multiplicity
 _atom_site_fract_x
 _atom_site_fract_y
 _atom_site_fract_z
 _atom_site_occupancy
  Pr  Pr0  1  0.000000  0.500000  0.523801  1
  Pr  Pr1  1  0.500000  0.000000  0.476663  1
  Pr  Pr2  1  0.500000  0.818976  0.205628  1
  Pr  Pr3  1  0.500000  0.181024  0.205628  1
  Pr  Pr4  1  0.000000  0.681719  0.795397  1
  Pr  Pr5  1  0.000000  0.318281  0.795397  1
  Ti  Ti6  1  0.500000  0.500000  0.148783  1
  Co  Co7  1  0.500000  0.500000  0.704924  1
  Co  Co8  1  0.000000  0.000000  0.295799  1
  Co  Co9  1  0.000000  0.500000  0.988000  1
  Co  Co10  1  0.500000  0.000000  0.009433  1
  Co  Co11  1  0.500000  0.330167  0.993127  1
  Co  Co12  1  0.500000  0.669833  0.993127  1
  Co  Co13  1  0.000000  0.164916  0.005935  1
  Co  Co14  1  0.000000  0.835084  0.005935  1
  Co  Co15  1  0.500000  0.295291  0.432020  1
  Co  Co16  1  0.500000  0.704709  0.432020  1
  Co  Co17  1  0.000000  0.203374  0.570149  1
  Co  Co18  1  0.000000  0.796626  0.570149  1
  Co  Co19  1  0.500000  0.882629  0.710055  1
  Co  Co20  1  0.500000  0.117371  0.710055  1
  Co  Co21  1  0.000000  0.619313  0.292039  1
  Co  Co22  1  0.000000  0.380687  0.292039  1
  Re  Re23  1  0.000000  0.000000  0.845006  1
  P  P24  1  0.500000  0.500000  0.887876  1
  P  P25  1  0.000000  0.000000  0.113444  1
  P  P26  1  0.500000  0.500000  0.346350  1
  P  P27  1  0.000000  0.000000  0.656857  1
  P  P28  1  0.500000  0.305391  0.614608  1
  P  P29  1  0.500000  0.694609  0.614608  1
  P  P30  1  0.000000  0.194379  0.387073  1
  P  P31  1  0.000000  0.805621  0.387073  1
  P  P32  1  0.500000  0.848926  0.893697  1
  P  P33  1  0.500000  0.151074  0.893697  1
  P  P34  1  0.000000  0.655793  0.101804  1
  P  P35  1  0.000000  0.344207  0.101804  1
