# generated using pymatgen
data_Sm6RhBr10
_symmetry_space_group_name_H-M   'P 1'
_cell_length_a   7.55388374
_cell_length_b   9.38133513
_cell_length_c   9.40906795
_cell_angle_alpha   108.39952605
_cell_angle_beta   97.03210042
_cell_angle_gamma   105.85491957
_symmetry_Int_Tables_number   1
_chemical_formula_structural   Sm6RhBr10
_chemical_formula_sum   'Sm6 Rh1 Br10'
_cell_volume   592.50633414
_cell_formula_units_Z   1
loop_
 _symmetry_equiv_pos_site_id
 _symmetry_equiv_pos_as_xyz
  1  'x, y, z'
loop_
 _atom_site_type_symbol
 _atom_site_label
 _atom_site_symmetry_multiplicity
 _atom_site_fract_x
 _atom_site_fract_y
 _atom_site_fract_z
 _atom_site_occupancy
  Sm  Sm0  1  0.633168  0.860399  0.816402  1
  Sm  Sm1  1  0.366832  0.139601  0.183598  1
  Sm  Sm2  1  0.972400  0.300737  0.095986  1
  Sm  Sm3  1  0.027600  0.699263  0.904014  1
  Sm  Sm4  1  0.126435  0.046757  0.753500  1
  Sm  Sm5  1  0.873565  0.953243  0.246500  1
  Rh  Rh6  1  0.000000  0.000000  0.000000  1
  Br  Br7  1  0.643016  0.542884  0.726879  1
  Br  Br8  1  0.356984  0.457116  0.273121  1
  Br  Br9  1  0.547939  0.176375  0.915746  1
  Br  Br10  1  0.452061  0.823625  0.084254  1
  Br  Br11  1  0.207916  0.740564  0.649597  1
  Br  Br12  1  0.792084  0.259436  0.350403  1
  Br  Br13  1  0.086803  0.369230  0.828297  1
  Br  Br14  1  0.913197  0.630770  0.171703  1
  Br  Br15  1  0.748525  0.916517  0.543528  1
  Br  Br16  1  0.251475  0.083483  0.456472  1
