# generated using pymatgen
data_Sr(Yb4Pd3)2
_symmetry_space_group_name_H-M   'P 1'
_cell_length_a   7.63480043
_cell_length_b   7.60873748
_cell_length_c   7.60228587
_cell_angle_alpha   70.83655327
_cell_angle_beta   71.09478618
_cell_angle_gamma   71.19585260
_symmetry_Int_Tables_number   1
_chemical_formula_structural   Sr(Yb4Pd3)2
_chemical_formula_sum   'Sr1 Yb8 Pd6'
_cell_volume   382.95128450
_cell_formula_units_Z   1
loop_
 _symmetry_equiv_pos_site_id
 _symmetry_equiv_pos_as_xyz
  1  'x, y, z'
loop_
 _atom_site_type_symbol
 _atom_site_label
 _atom_site_symmetry_multiplicity
 _atom_site_fract_x
 _atom_site_fract_y
 _atom_site_fract_z
 _atom_site_occupancy
  Sr  Sr0  1  0.400993  0.162186  0.657468  1
  Yb  Yb1  1  0.999459  0.000038  0.999885  1
  Yb  Yb2  1  0.799011  0.800672  0.800071  1
  Yb  Yb3  1  0.201236  0.199608  0.199340  1
  Yb  Yb4  1  0.327056  0.605535  0.848550  1
  Yb  Yb5  1  0.846779  0.329580  0.603478  1
  Yb  Yb6  1  0.605621  0.839578  0.327740  1
  Yb  Yb7  1  0.673574  0.399395  0.151140  1
  Yb  Yb8  1  0.151862  0.672445  0.395706  1
  Pd  Pd9  1  0.150748  0.949548  0.588298  1
  Pd  Pd10  1  0.595678  0.156925  0.966232  1
  Pd  Pd11  1  0.956397  0.589999  0.161198  1
  Pd  Pd12  1  0.846465  0.042718  0.402492  1
  Pd  Pd13  1  0.412170  0.834154  0.051926  1
  Pd  Pd14  1  0.032950  0.417621  0.846477  1
