# generated using pymatgen
data_Ho2Ta2Sb2O11
_symmetry_space_group_name_H-M   'P 1'
_cell_length_a   6.64943676
_cell_length_b   7.63303162
_cell_length_c   9.63373464
_cell_angle_alpha   101.52014902
_cell_angle_beta   91.27279599
_cell_angle_gamma   90.24912350
_symmetry_Int_Tables_number   1
_chemical_formula_structural   Ho2Ta2Sb2O11
_chemical_formula_sum   'Ho4 Ta4 Sb4 O22'
_cell_volume   478.97580766
_cell_formula_units_Z   2
loop_
 _symmetry_equiv_pos_site_id
 _symmetry_equiv_pos_as_xyz
  1  'x, y, z'
loop_
 _atom_site_type_symbol
 _atom_site_label
 _atom_site_symmetry_multiplicity
 _atom_site_fract_x
 _atom_site_fract_y
 _atom_site_fract_z
 _atom_site_occupancy
  Ho  Ho0  1  0.749513  0.369500  0.481853  1
  Ho  Ho1  1  0.250487  0.630500  0.518147  1
  Ho  Ho2  1  0.763410  0.871406  0.500193  1
  Ho  Ho3  1  0.236590  0.128594  0.499807  1
  Ta  Ta4  1  0.917818  0.701237  0.803835  1
  Ta  Ta5  1  0.082182  0.298763  0.196165  1
  Ta  Ta6  1  0.921125  0.199358  0.800475  1
  Ta  Ta7  1  0.078875  0.800642  0.199525  1
  Sb  Sb8  1  0.411366  0.955407  0.804965  1
  Sb  Sb9  1  0.588634  0.044593  0.195035  1
  Sb  Sb10  1  0.430182  0.452804  0.820866  1
  Sb  Sb11  1  0.569818  0.547196  0.179134  1
  O  O12  1  0.215481  0.738731  0.754299  1
  O  O13  1  0.784519  0.261269  0.245701  1
  O  O14  1  0.636735  0.653356  0.832338  1
  O  O15  1  0.363265  0.346644  0.167662  1
  O  O16  1  0.636748  0.257313  0.825546  1
  O  O17  1  0.363252  0.742687  0.174454  1
  O  O18  1  0.893132  0.154791  0.579784  1
  O  O19  1  0.106868  0.845209  0.420216  1
  O  O20  1  0.215088  0.135886  0.744502  1
  O  O21  1  0.784912  0.864114  0.255498  1
  O  O22  1  0.894872  0.635155  0.586373  1
  O  O23  1  0.105128  0.364845  0.413627  1
  O  O24  1  0.018867  0.551132  0.203584  1
  O  O25  1  0.981133  0.448868  0.796416  1
  O  O26  1  0.997609  0.787584  0.002730  1
  O  O27  1  0.002391  0.212416  0.997270  1
  O  O28  1  0.566110  0.594128  0.390580  1
  O  O29  1  0.433890  0.405872  0.609420  1
  O  O30  1  0.158747  0.058720  0.232965  1
  O  O31  1  0.841253  0.941280  0.767035  1
  O  O32  1  0.537252  0.107671  0.400255  1
  O  O33  1  0.462748  0.892329  0.599745  1
