# generated using pymatgen
data_Nd8Se(SO8)3
_symmetry_space_group_name_H-M   'P 1'
_cell_length_a   8.36506631
_cell_length_b   13.48722100
_cell_length_c   4.30401116
_cell_angle_alpha   90.00000000
_cell_angle_beta   90.03100930
_cell_angle_gamma   90.00000000
_symmetry_Int_Tables_number   1
_chemical_formula_structural   Nd8Se(SO8)3
_chemical_formula_sum   'Nd8 Se1 S3 O24'
_cell_volume   485.58491489
_cell_formula_units_Z   1
loop_
 _symmetry_equiv_pos_site_id
 _symmetry_equiv_pos_as_xyz
  1  'x, y, z'
loop_
 _atom_site_type_symbol
 _atom_site_label
 _atom_site_symmetry_multiplicity
 _atom_site_fract_x
 _atom_site_fract_y
 _atom_site_fract_z
 _atom_site_occupancy
  Nd  Nd0  1  0.624908  0.582842  0.242948  1
  Nd  Nd1  1  0.624908  0.917158  0.242948  1
  Nd  Nd2  1  0.124878  0.581205  0.259247  1
  Nd  Nd3  1  0.124878  0.918795  0.259247  1
  Nd  Nd4  1  0.872189  0.078147  0.743849  1
  Nd  Nd5  1  0.872189  0.421853  0.743849  1
  Nd  Nd6  1  0.377336  0.078098  0.756678  1
  Nd  Nd7  1  0.377336  0.421902  0.756678  1
  Se  Se8  1  0.123885  0.250000  0.198167  1
  S  S9  1  0.623789  0.250000  0.302426  1
  S  S10  1  0.376256  0.750000  0.691076  1
  S  S11  1  0.876437  0.750000  0.808836  1
  O  O12  1  0.730726  0.750000  0.013063  1
  O  O13  1  0.021012  0.750000  0.015491  1
  O  O14  1  0.623763  0.158703  0.109564  1
  O  O15  1  0.623763  0.341298  0.109564  1
  O  O16  1  0.873159  0.001377  0.235573  1
  O  O17  1  0.873159  0.498623  0.235573  1
  O  O18  1  0.376459  0.001345  0.263849  1
  O  O19  1  0.376459  0.498655  0.263849  1
  O  O20  1  0.124258  0.146789  0.411268  1
  O  O21  1  0.124258  0.353212  0.411268  1
  O  O22  1  0.521047  0.750000  0.484562  1
  O  O23  1  0.230800  0.750000  0.486363  1
  O  O24  1  0.769412  0.250000  0.506644  1
  O  O25  1  0.479160  0.250000  0.508500  1
  O  O26  1  0.876097  0.659125  0.615274  1
  O  O27  1  0.876097  0.840875  0.615274  1
  O  O28  1  0.624986  0.505614  0.735599  1
  O  O29  1  0.624986  0.994386  0.735599  1
  O  O30  1  0.125032  0.505694  0.768623  1
  O  O31  1  0.125032  0.994306  0.768623  1
  O  O32  1  0.376542  0.659109  0.884370  1
  O  O33  1  0.376542  0.840891  0.884370  1
  O  O34  1  0.963278  0.250000  0.964755  1
  O  O35  1  0.284982  0.250000  0.966447  1
