# generated using pymatgen
data_Yb6Th2SbPd24
_symmetry_space_group_name_H-M   'P 1'
_cell_length_a   8.40639038
_cell_length_b   8.40639078
_cell_length_c   8.40639100
_cell_angle_alpha   90.06485179
_cell_angle_beta   90.06485179
_cell_angle_gamma   90.06485331
_symmetry_Int_Tables_number   1
_chemical_formula_structural   Yb6Th2SbPd24
_chemical_formula_sum   'Yb6 Th2 Sb1 Pd24'
_cell_volume   594.05667509
_cell_formula_units_Z   1
loop_
 _symmetry_equiv_pos_site_id
 _symmetry_equiv_pos_as_xyz
  1  'x, y, z'
loop_
 _atom_site_type_symbol
 _atom_site_label
 _atom_site_symmetry_multiplicity
 _atom_site_fract_x
 _atom_site_fract_y
 _atom_site_fract_z
 _atom_site_occupancy
  Yb  Yb0  1  0.748415  0.748415  0.253479  1
  Yb  Yb1  1  0.748415  0.253479  0.748415  1
  Yb  Yb2  1  0.251585  0.251585  0.746521  1
  Yb  Yb3  1  0.251585  0.746521  0.251585  1
  Yb  Yb4  1  0.253479  0.748415  0.748415  1
  Yb  Yb5  1  0.746521  0.251585  0.251585  1
  Th  Th6  1  0.258034  0.258034  0.258034  1
  Th  Th7  1  0.741966  0.741966  0.741966  1
  Sb  Sb8  1  0.000000  0.000000  0.000000  1
  Pd  Pd9  1  0.265333  0.500414  0.997114  1
  Pd  Pd10  1  0.734667  0.499586  0.002886  1
  Pd  Pd11  1  0.997114  0.265333  0.500414  1
  Pd  Pd12  1  0.500414  0.265333  0.997114  1
  Pd  Pd13  1  0.002886  0.734667  0.499586  1
  Pd  Pd14  1  0.499586  0.734667  0.002886  1
  Pd  Pd15  1  0.500414  0.997114  0.265333  1
  Pd  Pd16  1  0.265333  0.997114  0.500414  1
  Pd  Pd17  1  0.499586  0.002886  0.734667  1
  Pd  Pd18  1  0.734667  0.002886  0.499586  1
  Pd  Pd19  1  0.997114  0.500414  0.265333  1
  Pd  Pd20  1  0.002886  0.499586  0.734667  1
  Pd  Pd21  1  0.255125  0.502737  0.502737  1
  Pd  Pd22  1  0.744875  0.497263  0.497263  1
  Pd  Pd23  1  0.502737  0.255125  0.502737  1
  Pd  Pd24  1  0.497263  0.744875  0.497263  1
  Pd  Pd25  1  0.502737  0.502737  0.255125  1
  Pd  Pd26  1  0.497263  0.497263  0.744875  1
  Pd  Pd27  1  0.308402  0.998231  0.998231  1
  Pd  Pd28  1  0.691598  0.001769  0.001769  1
  Pd  Pd29  1  0.998231  0.308402  0.998231  1
  Pd  Pd30  1  0.001769  0.691598  0.001769  1
  Pd  Pd31  1  0.998231  0.998231  0.308402  1
  Pd  Pd32  1  0.001769  0.001769  0.691598  1
