# generated using pymatgen
data_Ba2IrOs2O9
_symmetry_space_group_name_H-M   'P 1'
_cell_length_a   8.18837672
_cell_length_b   8.19456545
_cell_length_c   8.18886125
_cell_angle_alpha   109.30156662
_cell_angle_beta   109.35717680
_cell_angle_gamma   109.74889630
_symmetry_Int_Tables_number   1
_chemical_formula_structural   Ba2IrOs2O9
_chemical_formula_sum   'Ba4 Ir2 Os4 O18'
_cell_volume   423.01107119
_cell_formula_units_Z   2
loop_
 _symmetry_equiv_pos_site_id
 _symmetry_equiv_pos_as_xyz
  1  'x, y, z'
loop_
 _atom_site_type_symbol
 _atom_site_label
 _atom_site_symmetry_multiplicity
 _atom_site_fract_x
 _atom_site_fract_y
 _atom_site_fract_z
 _atom_site_occupancy
  Ba  Ba0  1  0.996483  0.996343  0.379904  1
  Ba  Ba1  1  0.000833  0.385438  0.001633  1
  Ba  Ba2  1  0.619070  0.619574  0.615261  1
  Ba  Ba3  1  0.383973  0.002876  0.003179  1
  Ir  Ir4  1  0.501141  0.863430  0.363639  1
  Ir  Ir5  1  0.637657  0.501229  0.138465  1
  Os  Os6  1  0.364075  0.500972  0.864962  1
  Os  Os7  1  0.864941  0.363873  0.498372  1
  Os  Os8  1  0.499474  0.135582  0.636880  1
  Os  Os9  1  0.135108  0.632618  0.498971  1
  O  O10  1  0.337944  0.006690  0.343192  1
  O  O11  1  0.332181  0.338590  0.996107  1
  O  O12  1  0.999626  0.663704  0.663288  1
  O  O13  1  0.657678  0.665267  0.996692  1
  O  O14  1  0.998203  0.333780  0.332975  1
  O  O15  1  0.661114  0.004359  0.668126  1
  O  O16  1  0.371655  0.299737  0.652888  1
  O  O17  1  0.068046  0.348270  0.696096  1
  O  O18  1  0.721649  0.352048  0.653586  1
  O  O19  1  0.346929  0.647357  0.717665  1
  O  O20  1  0.276735  0.929439  0.630047  1
  O  O21  1  0.644593  0.370000  0.306631  1
  O  O22  1  0.302229  0.636714  0.368630  1
  O  O23  1  0.699140  0.068434  0.335976  1
  O  O24  1  0.937891  0.630341  0.275330  1
  O  O25  1  0.672593  0.735047  0.366484  1
  O  O26  1  0.629671  0.270949  0.930973  1
  O  O27  1  0.339369  0.697339  0.064046  1
