# generated using pymatgen
data_Y16Cd4Ni2IrRh
_symmetry_space_group_name_H-M   'P 1'
_cell_length_a   9.62914609
_cell_length_b   9.62914696
_cell_length_c   9.67276062
_cell_angle_alpha   59.94169556
_cell_angle_beta   59.94169567
_cell_angle_gamma   59.75570432
_symmetry_Int_Tables_number   1
_chemical_formula_structural   Y16Cd4Ni2IrRh
_chemical_formula_sum   'Y16 Cd4 Ni2 Ir1 Rh1'
_cell_volume   632.44229684
_cell_formula_units_Z   1
loop_
 _symmetry_equiv_pos_site_id
 _symmetry_equiv_pos_as_xyz
  1  'x, y, z'
loop_
 _atom_site_type_symbol
 _atom_site_label
 _atom_site_symmetry_multiplicity
 _atom_site_fract_x
 _atom_site_fract_y
 _atom_site_fract_z
 _atom_site_occupancy
  Y  Y0  1  0.599320  0.599320  0.594898  1
  Y  Y1  1  0.601976  0.601976  0.201612  1
  Y  Y2  1  0.604181  0.201061  0.599059  1
  Y  Y3  1  0.201061  0.604181  0.599059  1
  Y  Y4  1  0.057425  0.438356  0.440931  1
  Y  Y5  1  0.437545  0.059344  0.062039  1
  Y  Y6  1  0.438356  0.057425  0.440931  1
  Y  Y7  1  0.059344  0.437545  0.062039  1
  Y  Y8  1  0.439102  0.439102  0.060187  1
  Y  Y9  1  0.060664  0.060664  0.438494  1
  Y  Y10  1  0.187288  0.811821  0.816448  1
  Y  Y11  1  0.812305  0.186765  0.185646  1
  Y  Y12  1  0.811821  0.187288  0.816448  1
  Y  Y13  1  0.186765  0.812305  0.185646  1
  Y  Y14  1  0.815730  0.815730  0.185656  1
  Y  Y15  1  0.188458  0.188458  0.812288  1
  Cd  Cd16  1  0.829578  0.829578  0.831910  1
  Cd  Cd17  1  0.830181  0.830181  0.506475  1
  Cd  Cd18  1  0.829931  0.506229  0.831311  1
  Cd  Cd19  1  0.506229  0.829931  0.831311  1
  Ni  Ni20  1  0.392001  0.824879  0.391200  1
  Ni  Ni21  1  0.824879  0.392001  0.391200  1
  Ir  Ir22  1  0.392580  0.392580  0.823110  1
  Rh  Rh23  1  0.393279  0.393279  0.392102  1
