# generated using pymatgen
data_Sm5P4(PtRh4)3
_symmetry_space_group_name_H-M   'P 1'
_cell_length_a   4.15699900
_cell_length_b   4.15699900
_cell_length_c   24.19901000
_cell_angle_alpha   90.00000000
_cell_angle_beta   90.00000000
_cell_angle_gamma   90.00000000
_symmetry_Int_Tables_number   1
_chemical_formula_structural   Sm5P4(PtRh4)3
_chemical_formula_sum   'Sm5 P4 Pt3 Rh12'
_cell_volume   418.17439677
_cell_formula_units_Z   1
loop_
 _symmetry_equiv_pos_site_id
 _symmetry_equiv_pos_as_xyz
  1  'x, y, z'
loop_
 _atom_site_type_symbol
 _atom_site_label
 _atom_site_symmetry_multiplicity
 _atom_site_fract_x
 _atom_site_fract_y
 _atom_site_fract_z
 _atom_site_occupancy
  Sm  Sm0  1  0.000000  0.000000  0.900720  1
  Sm  Sm1  1  0.000000  0.000000  0.099280  1
  Sm  Sm2  1  0.000000  0.000000  0.304253  1
  Sm  Sm3  1  0.000000  0.000000  0.500000  1
  Sm  Sm4  1  0.000000  0.000000  0.695747  1
  P  P5  1  0.500000  0.500000  0.161914  1
  P  P6  1  0.500000  0.500000  0.370924  1
  P  P7  1  0.500000  0.500000  0.629076  1
  P  P8  1  0.500000  0.500000  0.838086  1
  Pt  Pt9  1  0.500000  0.500000  0.500000  1
  Pt  Pt10  1  0.500000  0.000000  0.000000  1
  Pt  Pt11  1  0.000000  0.500000  0.000000  1
  Rh  Rh12  1  0.500000  0.500000  0.928791  1
  Rh  Rh13  1  0.500000  0.500000  0.071209  1
  Rh  Rh14  1  0.500000  0.500000  0.280524  1
  Rh  Rh15  1  0.500000  0.500000  0.719476  1
  Rh  Rh16  1  0.500000  0.000000  0.204853  1
  Rh  Rh17  1  0.500000  0.000000  0.411537  1
  Rh  Rh18  1  0.500000  0.000000  0.588463  1
  Rh  Rh19  1  0.500000  0.000000  0.795147  1
  Rh  Rh20  1  0.000000  0.500000  0.204853  1
  Rh  Rh21  1  0.000000  0.500000  0.411537  1
  Rh  Rh22  1  0.000000  0.500000  0.588463  1
  Rh  Rh23  1  0.000000  0.500000  0.795147  1
