# generated using pymatgen
data_Tb10ZnGaCo10
_symmetry_space_group_name_H-M   'P 1'
_cell_length_a   5.49550949
_cell_length_b   5.49550921
_cell_length_c   20.60730064
_cell_angle_alpha   89.71435895
_cell_angle_beta   90.28563989
_cell_angle_gamma   136.72633054
_symmetry_Int_Tables_number   1
_chemical_formula_structural   Tb10ZnGaCo10
_chemical_formula_sum   'Tb10 Zn1 Ga1 Co10'
_cell_volume   426.60700011
_cell_formula_units_Z   1
loop_
 _symmetry_equiv_pos_site_id
 _symmetry_equiv_pos_as_xyz
  1  'x, y, z'
loop_
 _atom_site_type_symbol
 _atom_site_label
 _atom_site_symmetry_multiplicity
 _atom_site_fract_x
 _atom_site_fract_y
 _atom_site_fract_z
 _atom_site_occupancy
  Tb  Tb0  1  0.289364  0.710636  0.250499  1
  Tb  Tb1  1  0.291482  0.708518  0.065739  1
  Tb  Tb2  1  0.997105  0.002895  0.843099  1
  Tb  Tb3  1  0.710636  0.289364  0.749501  1
  Tb  Tb4  1  0.706736  0.293264  0.565025  1
  Tb  Tb5  1  0.003317  0.996683  0.343894  1
  Tb  Tb6  1  0.996683  0.003317  0.656106  1
  Tb  Tb7  1  0.708518  0.291482  0.934261  1
  Tb  Tb8  1  0.002895  0.997105  0.156901  1
  Tb  Tb9  1  0.293264  0.706736  0.434975  1
  Zn  Zn10  1  0.000000  0.000000  0.500000  1
  Ga  Ga11  1  0.000000  0.000000  0.000000  1
  Co  Co12  1  0.293372  0.706628  0.654511  1
  Co  Co13  1  0.584994  0.415006  0.440142  1
  Co  Co14  1  0.411322  0.588678  0.750240  1
  Co  Co15  1  0.418586  0.581414  0.941681  1
  Co  Co16  1  0.588678  0.411322  0.249760  1
  Co  Co17  1  0.415006  0.584994  0.559858  1
  Co  Co18  1  0.706628  0.293372  0.345489  1
  Co  Co19  1  0.705365  0.294635  0.153892  1
  Co  Co20  1  0.581414  0.418586  0.058319  1
  Co  Co21  1  0.294635  0.705365  0.846108  1
