# generated using pymatgen
data_Li2Cr2NiTeO8
_symmetry_space_group_name_H-M   'P 1'
_cell_length_a   6.00832536
_cell_length_b   10.54382539
_cell_length_c   6.00816994
_cell_angle_alpha   106.35054094
_cell_angle_beta   60.05452146
_cell_angle_gamma   89.77892391
_symmetry_Int_Tables_number   1
_chemical_formula_structural   Li2Cr2NiTeO8
_chemical_formula_sum   'Li4 Cr4 Ni2 Te2 O16'
_cell_volume   311.66284089
_cell_formula_units_Z   2
loop_
 _symmetry_equiv_pos_site_id
 _symmetry_equiv_pos_as_xyz
  1  'x, y, z'
loop_
 _atom_site_type_symbol
 _atom_site_label
 _atom_site_symmetry_multiplicity
 _atom_site_fract_x
 _atom_site_fract_y
 _atom_site_fract_z
 _atom_site_occupancy
  Li  Li0  1  0.931208  0.206477  0.140387  1
  Li  Li1  1  0.433806  0.706497  0.137752  1
  Li  Li2  1  0.566179  0.293514  0.862260  1
  Li  Li3  1  0.068787  0.793516  0.859617  1
  Cr  Cr4  1  0.499949  0.000007  0.499962  1
  Cr  Cr5  1  0.999915  0.499994  0.000141  1
  Cr  Cr6  1  0.000052  0.000037  0.499954  1
  Cr  Cr7  1  0.999928  0.500049  0.500024  1
  Ni  Ni8  1  0.500158  0.999978  0.999850  1
  Ni  Ni9  1  0.500021  0.500020  0.500104  1
  Te  Te10  1  0.747743  0.749964  0.502228  1
  Te  Te11  1  0.252266  0.250017  0.497727  1
  O  O12  1  0.873105  0.400024  0.263991  1
  O  O13  1  0.363902  0.900031  0.273137  1
  O  O14  1  0.636169  0.099971  0.726738  1
  O  O15  1  0.126793  0.599975  0.736184  1
  O  O16  1  0.648521  0.630610  0.720178  1
  O  O17  1  0.140800  0.125085  0.715800  1
  O  O18  1  0.651227  0.630729  0.261216  1
  O  O19  1  0.130494  0.130748  0.281964  1
  O  O20  1  0.090682  0.625084  0.265889  1
  O  O21  1  0.589569  0.130603  0.279123  1
  O  O22  1  0.410460  0.869389  0.720831  1
  O  O23  1  0.909290  0.374886  0.734131  1
  O  O24  1  0.869622  0.869237  0.717900  1
  O  O25  1  0.348684  0.369239  0.738882  1
  O  O26  1  0.859216  0.874886  0.284127  1
  O  O27  1  0.351451  0.369430  0.279903  1
