# generated using pymatgen
data_LaSm(Ho2Rh9)2
_symmetry_space_group_name_H-M   'P 1'
_cell_length_a   5.29773500
_cell_length_b   5.29773554
_cell_length_c   17.51207800
_cell_angle_alpha   90.00000000
_cell_angle_beta   90.00000000
_cell_angle_gamma   119.99999041
_symmetry_Int_Tables_number   1
_chemical_formula_structural   LaSm(Ho2Rh9)2
_chemical_formula_sum   'La1 Sm1 Ho4 Rh18'
_cell_volume   425.64629898
_cell_formula_units_Z   1
loop_
 _symmetry_equiv_pos_site_id
 _symmetry_equiv_pos_as_xyz
  1  'x, y, z'
loop_
 _atom_site_type_symbol
 _atom_site_label
 _atom_site_symmetry_multiplicity
 _atom_site_fract_x
 _atom_site_fract_y
 _atom_site_fract_z
 _atom_site_occupancy
  La  La0  1  0.333333  0.666667  0.750000  1
  Sm  Sm1  1  0.666667  0.333333  0.250000  1
  Ho  Ho2  1  0.333333  0.666667  0.958655  1
  Ho  Ho3  1  0.666667  0.333333  0.041820  1
  Ho  Ho4  1  0.666667  0.333333  0.458180  1
  Ho  Ho5  1  0.333333  0.666667  0.541345  1
  Rh  Rh6  1  0.167443  0.832557  0.374624  1
  Rh  Rh7  1  0.167443  0.334884  0.374624  1
  Rh  Rh8  1  0.665116  0.832557  0.374624  1
  Rh  Rh9  1  0.832429  0.167571  0.623954  1
  Rh  Rh10  1  0.832429  0.664857  0.623954  1
  Rh  Rh11  1  0.335143  0.167571  0.623954  1
  Rh  Rh12  1  0.832429  0.167571  0.876046  1
  Rh  Rh13  1  0.832429  0.664857  0.876046  1
  Rh  Rh14  1  0.335143  0.167571  0.876046  1
  Rh  Rh15  1  0.167443  0.832557  0.125376  1
  Rh  Rh16  1  0.167443  0.334884  0.125376  1
  Rh  Rh17  1  0.665116  0.832557  0.125376  1
  Rh  Rh18  1  0.333333  0.666667  0.250000  1
  Rh  Rh19  1  0.666667  0.333333  0.750000  1
  Rh  Rh20  1  0.000000  0.000000  0.250000  1
  Rh  Rh21  1  0.000000  0.000000  0.750000  1
  Rh  Rh22  1  0.000000  0.000000  0.499482  1
  Rh  Rh23  1  0.000000  0.000000  0.000518  1
