# generated using pymatgen
data_TaNb7(VSi3)2
_symmetry_space_group_name_H-M   'P 1'
_cell_length_a   7.52812964
_cell_length_b   7.52136796
_cell_length_c   7.52336031
_cell_angle_alpha   129.00996878
_cell_angle_beta   129.03452210
_cell_angle_gamma   74.98856997
_symmetry_Int_Tables_number   1
_chemical_formula_structural   TaNb7(VSi3)2
_chemical_formula_sum   'Ta1 Nb7 V2 Si6'
_cell_volume   250.36332239
_cell_formula_units_Z   1
loop_
 _symmetry_equiv_pos_site_id
 _symmetry_equiv_pos_as_xyz
  1  'x, y, z'
loop_
 _atom_site_type_symbol
 _atom_site_label
 _atom_site_symmetry_multiplicity
 _atom_site_fract_x
 _atom_site_fract_y
 _atom_site_fract_z
 _atom_site_occupancy
  Ta  Ta0  1  0.815830  0.983135  0.500000  1
  Nb  Nb1  1  0.018135  0.517523  0.833702  1
  Nb  Nb2  1  0.684434  0.183822  0.166298  1
  Nb  Nb3  1  0.518498  0.683902  0.500000  1
  Nb  Nb4  1  0.184494  0.018541  0.500000  1
  Nb  Nb5  1  0.981333  0.481809  0.165969  1
  Nb  Nb6  1  0.315364  0.815840  0.834031  1
  Nb  Nb7  1  0.481817  0.315293  0.500000  1
  V  V8  1  0.000062  0.000123  0.999506  1
  V  V9  1  0.500557  0.500617  0.000494  1
  Si  Si10  1  0.750025  0.749980  0.000255  1
  Si  Si11  1  0.249770  0.249724  0.999745  1
  Si  Si12  1  0.632126  0.131860  0.764211  1
  Si  Si13  1  0.367914  0.867648  0.235789  1
  Si  Si14  1  0.132002  0.367994  0.500000  1
  Si  Si15  1  0.867638  0.632188  0.500000  1
