# generated using pymatgen
data_Zr6Al9(SiIr)7
_symmetry_space_group_name_H-M   'P 1'
_cell_length_a   8.61674563
_cell_length_b   8.64482137
_cell_length_c   8.64482200
_cell_angle_alpha   59.99999759
_cell_angle_beta   59.89215599
_cell_angle_gamma   59.89216270
_symmetry_Int_Tables_number   1
_chemical_formula_structural   Zr6Al9(SiIr)7
_chemical_formula_sum   'Zr6 Al9 Si7 Ir7'
_cell_volume   454.60113401
_cell_formula_units_Z   1
loop_
 _symmetry_equiv_pos_site_id
 _symmetry_equiv_pos_as_xyz
  1  'x, y, z'
loop_
 _atom_site_type_symbol
 _atom_site_label
 _atom_site_symmetry_multiplicity
 _atom_site_fract_x
 _atom_site_fract_y
 _atom_site_fract_z
 _atom_site_occupancy
  Zr  Zr0  1  0.693079  0.306460  0.306460  1
  Zr  Zr1  1  0.307437  0.693044  0.693044  1
  Zr  Zr2  1  0.307437  0.693044  0.306474  1
  Zr  Zr3  1  0.693079  0.306460  0.694002  1
  Zr  Zr4  1  0.307437  0.306474  0.693044  1
  Zr  Zr5  1  0.693079  0.694002  0.306460  1
  Al  Al6  1  0.004950  0.665017  0.665017  1
  Al  Al7  1  0.120513  0.120600  0.120600  1
  Al  Al8  1  0.882581  0.879790  0.879790  1
  Al  Al9  1  0.120513  0.120600  0.638288  1
  Al  Al10  1  0.120513  0.638288  0.120600  1
  Al  Al11  1  0.882581  0.879790  0.357839  1
  Al  Al12  1  0.882581  0.357839  0.879790  1
  Al  Al13  1  0.638012  0.120662  0.120662  1
  Al  Al14  1  0.360654  0.879782  0.879782  1
  Si  Si15  1  0.343618  0.344289  0.344289  1
  Si  Si16  1  0.661612  0.658132  0.658132  1
  Si  Si17  1  0.343618  0.344289  0.967803  1
  Si  Si18  1  0.343618  0.967803  0.344289  1
  Si  Si19  1  0.661612  0.658132  0.022123  1
  Si  Si20  1  0.661612  0.022123  0.658132  1
  Si  Si21  1  0.966231  0.344589  0.344589  1
  Ir  Ir22  1  0.499220  0.001111  0.001111  1
  Ir  Ir23  1  0.001801  0.495291  0.495291  1
  Ir  Ir24  1  0.001801  0.495291  0.007616  1
  Ir  Ir25  1  0.499220  0.001111  0.498559  1
  Ir  Ir26  1  0.001801  0.007616  0.495291  1
  Ir  Ir27  1  0.499220  0.498559  0.001111  1
  Ir  Ir28  1  0.000569  0.999810  0.999810  1
