# generated using pymatgen
data_Tb4HoEr3(ReB6)4
_symmetry_space_group_name_H-M   'P 1'
_cell_length_a   3.67804500
_cell_length_b   9.16432401
_cell_length_c   11.56072201
_cell_angle_alpha   90.00420206
_cell_angle_beta   90.00000000
_cell_angle_gamma   90.00000000
_symmetry_Int_Tables_number   1
_chemical_formula_structural   Tb4HoEr3(ReB6)4
_chemical_formula_sum   'Tb4 Ho1 Er3 Re4 B24'
_cell_volume   389.67489831
_cell_formula_units_Z   1
loop_
 _symmetry_equiv_pos_site_id
 _symmetry_equiv_pos_as_xyz
  1  'x, y, z'
loop_
 _atom_site_type_symbol
 _atom_site_label
 _atom_site_symmetry_multiplicity
 _atom_site_fract_x
 _atom_site_fract_y
 _atom_site_fract_z
 _atom_site_occupancy
  Tb  Tb0  1  0.000000  0.323511  0.413904  1
  Tb  Tb1  1  0.000000  0.676471  0.586136  1
  Tb  Tb2  1  0.000000  0.823447  0.086063  1
  Tb  Tb3  1  0.000000  0.176527  0.913889  1
  Ho  Ho4  1  0.000000  0.943361  0.370105  1
  Er  Er5  1  0.000000  0.056744  0.630083  1
  Er  Er6  1  0.000000  0.443319  0.129946  1
  Er  Er7  1  0.000000  0.556670  0.870059  1
  Re  Re8  1  0.000000  0.638858  0.320318  1
  Re  Re9  1  0.000000  0.360889  0.679681  1
  Re  Re10  1  0.000000  0.139298  0.179464  1
  Re  Re11  1  0.000000  0.860869  0.820381  1
  B  B12  1  0.500000  0.553651  0.432486  1
  B  B13  1  0.500000  0.446285  0.567521  1
  B  B14  1  0.500000  0.053707  0.067475  1
  B  B15  1  0.500000  0.946289  0.932469  1
  B  B16  1  0.500000  0.749534  0.418283  1
  B  B17  1  0.500000  0.250178  0.581706  1
  B  B18  1  0.500000  0.249869  0.081712  1
  B  B19  1  0.500000  0.750157  0.918277  1
  B  B20  1  0.500000  0.792200  0.265724  1
  B  B21  1  0.500000  0.207546  0.734193  1
  B  B22  1  0.500000  0.292527  0.234184  1
  B  B23  1  0.500000  0.707544  0.765810  1
  B  B24  1  0.500000  0.630619  0.185624  1
  B  B25  1  0.500000  0.369328  0.814324  1
  B  B26  1  0.500000  0.130899  0.314202  1
  B  B27  1  0.500000  0.869303  0.685694  1
  B  B28  1  0.500000  0.982689  0.212223  1
  B  B29  1  0.500000  0.017450  0.787614  1
  B  B30  1  0.500000  0.482525  0.287586  1
  B  B31  1  0.500000  0.517482  0.712389  1
  B  B32  1  0.500000  0.599023  0.027642  1
  B  B33  1  0.500000  0.400996  0.972366  1
  B  B34  1  0.500000  0.099318  0.472547  1
  B  B35  1  0.500000  0.900916  0.527920  1
