# generated using pymatgen
data_Dy12In2Si3Tc
_symmetry_space_group_name_H-M   'P 1'
_cell_length_a   8.52110363
_cell_length_b   8.52110378
_cell_length_c   8.52110363
_cell_angle_alpha   111.50932938
_cell_angle_beta   111.56097205
_cell_angle_gamma   105.41783034
_symmetry_Int_Tables_number   1
_chemical_formula_structural   Dy12In2Si3Tc
_chemical_formula_sum   'Dy12 In2 Si3 Tc1'
_cell_volume   474.51221708
_cell_formula_units_Z   1
loop_
 _symmetry_equiv_pos_site_id
 _symmetry_equiv_pos_as_xyz
  1  'x, y, z'
loop_
 _atom_site_type_symbol
 _atom_site_label
 _atom_site_symmetry_multiplicity
 _atom_site_fract_x
 _atom_site_fract_y
 _atom_site_fract_z
 _atom_site_occupancy
  Dy  Dy0  1  0.449742  0.240654  0.209089  1
  Dy  Dy1  1  0.558389  0.760427  0.797961  1
  Dy  Dy2  1  0.037533  0.239573  0.797961  1
  Dy  Dy3  1  0.968436  0.759346  0.209089  1
  Dy  Dy4  1  0.186043  0.274255  0.460299  1
  Dy  Dy5  1  0.816787  0.724172  0.540960  1
  Dy  Dy6  1  0.186043  0.725745  0.911788  1
  Dy  Dy7  1  0.816787  0.275828  0.092615  1
  Dy  Dy8  1  0.324176  0.625098  0.297661  1
  Dy  Dy9  1  0.672563  0.374902  0.699079  1
  Dy  Dy10  1  0.324176  0.026516  0.699079  1
  Dy  Dy11  1  0.672563  0.973484  0.297661  1
  In  In12  1  0.500674  0.500000  0.000674  1
  In  In13  1  0.011131  0.000000  0.011131  1
  Si  Si14  1  0.629725  0.000000  0.629725  1
  Si  Si15  1  0.116119  0.614498  0.501621  1
  Si  Si16  1  0.887123  0.385502  0.501621  1
  Tc  Tc17  1  0.341988  0.000000  0.341988  1
