# generated using pymatgen
data_Nb20Al6IrOs3
_symmetry_space_group_name_H-M   'P 1'
_cell_length_a   9.94171941
_cell_length_b   9.94672441
_cell_length_c   5.20019400
_cell_angle_alpha   90.00000000
_cell_angle_beta   90.00000000
_cell_angle_gamma   90.03281298
_symmetry_Int_Tables_number   1
_chemical_formula_structural   Nb20Al6IrOs3
_chemical_formula_sum   'Nb20 Al6 Ir1 Os3'
_cell_volume   514.23432391
_cell_formula_units_Z   1
loop_
 _symmetry_equiv_pos_site_id
 _symmetry_equiv_pos_as_xyz
  1  'x, y, z'
loop_
 _atom_site_type_symbol
 _atom_site_label
 _atom_site_symmetry_multiplicity
 _atom_site_fract_x
 _atom_site_fract_y
 _atom_site_fract_z
 _atom_site_occupancy
  Nb  Nb0  1  0.396860  0.392150  0.000000  1
  Nb  Nb1  1  0.892595  0.103027  0.500000  1
  Nb  Nb2  1  0.106809  0.897407  0.500000  1
  Nb  Nb3  1  0.603191  0.607182  0.000000  1
  Nb  Nb4  1  0.128137  0.463333  0.000000  1
  Nb  Nb5  1  0.962510  0.371047  0.500000  1
  Nb  Nb6  1  0.037328  0.627804  0.500000  1
  Nb  Nb7  1  0.872272  0.536438  0.000000  1
  Nb  Nb8  1  0.374273  0.966640  0.500000  1
  Nb  Nb9  1  0.626937  0.034309  0.500000  1
  Nb  Nb10  1  0.465721  0.126259  0.000000  1
  Nb  Nb11  1  0.534104  0.873436  0.000000  1
  Nb  Nb12  1  0.184831  0.181428  0.249449  1
  Nb  Nb13  1  0.681082  0.316142  0.748979  1
  Nb  Nb14  1  0.318150  0.685789  0.749684  1
  Nb  Nb15  1  0.814900  0.817169  0.250164  1
  Nb  Nb16  1  0.318150  0.685789  0.250316  1
  Nb  Nb17  1  0.681082  0.316142  0.251021  1
  Nb  Nb18  1  0.184831  0.181428  0.750551  1
  Nb  Nb19  1  0.814900  0.817169  0.749836  1
  Al  Al20  1  0.999760  0.999850  0.000000  1
  Al  Al21  1  0.499986  0.500325  0.500000  1
  Al  Al22  1  0.242102  0.432621  0.500000  1
  Al  Al23  1  0.758172  0.566797  0.500000  1
  Al  Al24  1  0.932972  0.257812  0.000000  1
  Al  Al25  1  0.066858  0.742188  0.000000  1
  Ir  Ir26  1  0.743841  0.067678  0.000000  1
  Os  Os27  1  0.256873  0.932850  0.000000  1
  Os  Os28  1  0.433125  0.243275  0.500000  1
  Os  Os29  1  0.567648  0.756515  0.500000  1
