# generated using pymatgen
data_Cs2ZrCd3As4
_symmetry_space_group_name_H-M   'P 1'
_cell_length_a   8.35215579
_cell_length_b   8.35215620
_cell_length_c   6.41024000
_cell_angle_alpha   90.00000000
_cell_angle_beta   90.00000000
_cell_angle_gamma   134.82717629
_symmetry_Int_Tables_number   1
_chemical_formula_structural   Cs2ZrCd3As4
_chemical_formula_sum   'Cs2 Zr1 Cd3 As4'
_cell_volume   317.14839926
_cell_formula_units_Z   1
loop_
 _symmetry_equiv_pos_site_id
 _symmetry_equiv_pos_as_xyz
  1  'x, y, z'
loop_
 _atom_site_type_symbol
 _atom_site_label
 _atom_site_symmetry_multiplicity
 _atom_site_fract_x
 _atom_site_fract_y
 _atom_site_fract_z
 _atom_site_occupancy
  Cs  Cs0  1  0.500000  0.000000  0.253655  1
  Cs  Cs1  1  0.000000  0.500000  0.746345  1
  Zr  Zr2  1  0.000000  0.000000  0.000000  1
  Cd  Cd3  1  0.500000  0.500000  0.500000  1
  Cd  Cd4  1  0.500000  0.500000  0.000000  1
  Cd  Cd5  1  0.000000  0.000000  0.500000  1
  As  As6  1  0.660647  0.865495  0.763395  1
  As  As7  1  0.134505  0.339353  0.236605  1
  As  As8  1  0.865495  0.660647  0.236605  1
  As  As9  1  0.339353  0.134505  0.763395  1
