# generated using pymatgen
data_CaTb(Ga2Ag)2
_symmetry_space_group_name_H-M   'P 1'
_cell_length_a   4.38428600
_cell_length_b   6.99967984
_cell_length_c   10.39122750
_cell_angle_alpha   89.32053769
_cell_angle_beta   90.00000000
_cell_angle_gamma   90.00000000
_symmetry_Int_Tables_number   1
_chemical_formula_structural   CaTb(Ga2Ag)2
_chemical_formula_sum   'Ca2 Tb2 Ga8 Ag4'
_cell_volume   318.86978367
_cell_formula_units_Z   2
loop_
 _symmetry_equiv_pos_site_id
 _symmetry_equiv_pos_as_xyz
  1  'x, y, z'
loop_
 _atom_site_type_symbol
 _atom_site_label
 _atom_site_symmetry_multiplicity
 _atom_site_fract_x
 _atom_site_fract_y
 _atom_site_fract_z
 _atom_site_occupancy
  Ca  Ca0  1  0.250000  0.778126  0.827709  1
  Ca  Ca1  1  0.750000  0.221874  0.172291  1
  Tb  Tb2  1  0.750000  0.720616  0.328975  1
  Tb  Tb3  1  0.250000  0.279384  0.671025  1
  Ga  Ga4  1  0.250000  0.926235  0.153025  1
  Ga  Ga5  1  0.750000  0.073765  0.846975  1
  Ga  Ga6  1  0.750000  0.572922  0.651083  1
  Ga  Ga7  1  0.250000  0.427078  0.348917  1
  Ga  Ga8  1  0.250000  0.703725  0.535918  1
  Ga  Ga9  1  0.750000  0.296275  0.464082  1
  Ga  Ga10  1  0.750000  0.797076  0.036299  1
  Ga  Ga11  1  0.250000  0.202924  0.963701  1
  Ag  Ag12  1  0.250000  0.542974  0.097996  1
  Ag  Ag13  1  0.750000  0.457026  0.902004  1
  Ag  Ag14  1  0.750000  0.956637  0.597539  1
  Ag  Ag15  1  0.250000  0.043363  0.402461  1
