# generated using pymatgen
data_Tb7Ho2Tm7(Ga3Co)2
_symmetry_space_group_name_H-M   'P 1'
_cell_length_a   9.95145801
_cell_length_b   9.95145746
_cell_length_c   6.98048700
_cell_angle_alpha   89.99946189
_cell_angle_beta   90.00053680
_cell_angle_gamma   119.98735466
_symmetry_Int_Tables_number   1
_chemical_formula_structural   Tb7Ho2Tm7(Ga3Co)2
_chemical_formula_sum   'Tb7 Ho2 Tm7 Ga6 Co2'
_cell_volume   598.74939160
_cell_formula_units_Z   1
loop_
 _symmetry_equiv_pos_site_id
 _symmetry_equiv_pos_as_xyz
  1  'x, y, z'
loop_
 _atom_site_type_symbol
 _atom_site_label
 _atom_site_symmetry_multiplicity
 _atom_site_fract_x
 _atom_site_fract_y
 _atom_site_fract_z
 _atom_site_occupancy
  Tb  Tb0  1  0.073833  0.536812  0.207830  1
  Tb  Tb1  1  0.463188  0.926167  0.207830  1
  Tb  Tb2  1  0.536363  0.463637  0.708416  1
  Tb  Tb3  1  0.927080  0.463543  0.708492  1
  Tb  Tb4  1  0.536457  0.072920  0.708492  1
  Tb  Tb5  1  0.999987  0.000013  0.232317  1
  Tb  Tb6  1  0.000036  0.999964  0.731201  1
  Ho  Ho7  1  0.666538  0.333462  0.326156  1
  Ho  Ho8  1  0.462942  0.537058  0.207630  1
  Tm  Tm9  1  0.173707  0.826293  0.512867  1
  Tm  Tm10  1  0.652334  0.826011  0.512635  1
  Tm  Tm11  1  0.173989  0.347666  0.512635  1
  Tm  Tm12  1  0.826795  0.173205  0.011957  1
  Tm  Tm13  1  0.346511  0.173501  0.012204  1
  Tm  Tm14  1  0.826499  0.653489  0.012204  1
  Tm  Tm15  1  0.333490  0.666510  0.824765  1
  Ga  Ga16  1  0.163651  0.836349  0.956719  1
  Ga  Ga17  1  0.672462  0.836081  0.956980  1
  Ga  Ga18  1  0.163919  0.327538  0.956980  1
  Ga  Ga19  1  0.837084  0.162916  0.457902  1
  Ga  Ga20  1  0.325857  0.162954  0.457711  1
  Ga  Ga21  1  0.837046  0.674143  0.457711  1
  Co  Co22  1  0.333573  0.666427  0.445922  1
  Co  Co23  1  0.666654  0.333346  0.947277  1
