# generated using pymatgen
data_UTa(Fe7B2)3
_symmetry_space_group_name_H-M   'P 1'
_cell_length_a   7.55939739
_cell_length_b   7.55939743
_cell_length_c   7.55939600
_cell_angle_alpha   59.99999748
_cell_angle_beta   59.99999733
_cell_angle_gamma   59.99999838
_symmetry_Int_Tables_number   1
_chemical_formula_structural   UTa(Fe7B2)3
_chemical_formula_sum   'U1 Ta1 Fe21 B6'
_cell_volume   305.45443208
_cell_formula_units_Z   1
loop_
 _symmetry_equiv_pos_site_id
 _symmetry_equiv_pos_as_xyz
  1  'x, y, z'
loop_
 _atom_site_type_symbol
 _atom_site_label
 _atom_site_symmetry_multiplicity
 _atom_site_fract_x
 _atom_site_fract_y
 _atom_site_fract_z
 _atom_site_occupancy
  U  U0  1  0.750000  0.750000  0.750000  1
  Ta  Ta1  1  0.250000  0.250000  0.250000  1
  Fe  Fe2  1  0.336567  0.003226  0.003226  1
  Fe  Fe3  1  0.656980  0.003226  0.003226  1
  Fe  Fe4  1  0.003226  0.336567  0.656980  1
  Fe  Fe5  1  0.003226  0.656980  0.336567  1
  Fe  Fe6  1  0.003226  0.336567  0.003226  1
  Fe  Fe7  1  0.656980  0.003226  0.336567  1
  Fe  Fe8  1  0.003226  0.656980  0.003226  1
  Fe  Fe9  1  0.336567  0.003226  0.656980  1
  Fe  Fe10  1  0.003226  0.003226  0.336567  1
  Fe  Fe11  1  0.003226  0.003226  0.656980  1
  Fe  Fe12  1  0.656980  0.336567  0.003226  1
  Fe  Fe13  1  0.336567  0.656980  0.003226  1
  Fe  Fe14  1  0.385024  0.385024  0.385024  1
  Fe  Fe15  1  0.621354  0.621354  0.621354  1
  Fe  Fe16  1  0.385024  0.385024  0.844929  1
  Fe  Fe17  1  0.385024  0.844929  0.385024  1
  Fe  Fe18  1  0.621354  0.621354  0.135938  1
  Fe  Fe19  1  0.621354  0.135938  0.621354  1
  Fe  Fe20  1  0.844929  0.385024  0.385024  1
  Fe  Fe21  1  0.135938  0.621354  0.621354  1
  Fe  Fe22  1  0.000000  0.000000  0.000000  1
  B  B23  1  0.725637  0.274363  0.274363  1
  B  B24  1  0.274363  0.725637  0.725637  1
  B  B25  1  0.274363  0.725637  0.274363  1
  B  B26  1  0.725637  0.274363  0.725637  1
  B  B27  1  0.274363  0.274363  0.725637  1
  B  B28  1  0.725637  0.725637  0.274363  1
