# generated using pymatgen
data_LaNdDyNbO7
_symmetry_space_group_name_H-M   'P 1'
_cell_length_a   6.61275693
_cell_length_b   6.61275623
_cell_length_c   7.73519400
_cell_angle_alpha   90.00000000
_cell_angle_beta   90.00000000
_cell_angle_gamma   109.04350235
_symmetry_Int_Tables_number   1
_chemical_formula_structural   LaNdDyNbO7
_chemical_formula_sum   'La2 Nd2 Dy2 Nb2 O14'
_cell_volume   319.73683306
_cell_formula_units_Z   2
loop_
 _symmetry_equiv_pos_site_id
 _symmetry_equiv_pos_as_xyz
  1  'x, y, z'
loop_
 _atom_site_type_symbol
 _atom_site_label
 _atom_site_symmetry_multiplicity
 _atom_site_fract_x
 _atom_site_fract_y
 _atom_site_fract_z
 _atom_site_occupancy
  La  La0  1  0.492249  0.492249  0.500000  1
  La  La1  1  0.492249  0.492249  0.000000  1
  Nd  Nd2  1  0.536224  0.998228  0.750000  1
  Nd  Nd3  1  0.998228  0.536224  0.250000  1
  Dy  Dy4  1  0.465883  0.998447  0.250000  1
  Dy  Dy5  1  0.998447  0.465883  0.750000  1
  Nb  Nb6  1  0.999135  0.999135  0.500000  1
  Nb  Nb7  1  0.999135  0.999135  0.000000  1
  O  O8  1  0.686864  0.936328  0.460899  1
  O  O9  1  0.936328  0.686864  0.539101  1
  O  O10  1  0.686864  0.936328  0.039101  1
  O  O11  1  0.936328  0.686864  0.960899  1
  O  O12  1  0.320719  0.069861  0.524042  1
  O  O13  1  0.069861  0.320719  0.475958  1
  O  O14  1  0.320719  0.069861  0.975958  1
  O  O15  1  0.069861  0.320719  0.024042  1
  O  O16  1  0.357278  0.625500  0.750000  1
  O  O17  1  0.625500  0.357278  0.250000  1
  O  O18  1  0.644104  0.364160  0.750000  1
  O  O19  1  0.364160  0.644104  0.250000  1
  O  O20  1  0.936634  0.063229  0.750000  1
  O  O21  1  0.063229  0.936634  0.250000  1
