# generated using pymatgen
data_KMgAlFeH8
_symmetry_space_group_name_H-M   'P 1'
_cell_length_a   4.28908100
_cell_length_b   4.28908203
_cell_length_c   7.70870400
_cell_angle_alpha   90.00000000
_cell_angle_beta   90.00000000
_cell_angle_gamma   119.99999981
_symmetry_Int_Tables_number   1
_chemical_formula_structural   KMgAlFeH8
_chemical_formula_sum   'K1 Mg1 Al1 Fe1 H8'
_cell_volume   122.81194299
_cell_formula_units_Z   1
loop_
 _symmetry_equiv_pos_site_id
 _symmetry_equiv_pos_as_xyz
  1  'x, y, z'
loop_
 _atom_site_type_symbol
 _atom_site_label
 _atom_site_symmetry_multiplicity
 _atom_site_fract_x
 _atom_site_fract_y
 _atom_site_fract_z
 _atom_site_occupancy
  K  K0  1  0.000000  0.000000  0.486107  1
  Mg  Mg1  1  0.666667  0.333333  0.869732  1
  Al  Al2  1  0.333333  0.666667  0.108604  1
  Fe  Fe3  1  0.000000  0.000000  0.014430  1
  H  H4  1  0.331720  0.165860  0.135773  1
  H  H5  1  0.834140  0.668280  0.135773  1
  H  H6  1  0.834140  0.165860  0.135773  1
  H  H7  1  0.676289  0.838145  0.886256  1
  H  H8  1  0.161855  0.323711  0.886256  1
  H  H9  1  0.161855  0.838145  0.886256  1
  H  H10  1  0.666667  0.333333  0.632253  1
  H  H11  1  0.333333  0.666667  0.322789  1
