# generated using pymatgen
data_Tb4Al18ReNi4Rh
_symmetry_space_group_name_H-M   'P 1'
_cell_length_a   7.47660017
_cell_length_b   7.47659951
_cell_length_c   9.39226757
_cell_angle_alpha   89.77604768
_cell_angle_beta   89.77604712
_cell_angle_gamma   118.59687865
_symmetry_Int_Tables_number   1
_chemical_formula_structural   Tb4Al18ReNi4Rh
_chemical_formula_sum   'Tb4 Al18 Re1 Ni4 Rh1'
_cell_volume   460.96186392
_cell_formula_units_Z   1
loop_
 _symmetry_equiv_pos_site_id
 _symmetry_equiv_pos_as_xyz
  1  'x, y, z'
loop_
 _atom_site_type_symbol
 _atom_site_label
 _atom_site_symmetry_multiplicity
 _atom_site_fract_x
 _atom_site_fract_y
 _atom_site_fract_z
 _atom_site_occupancy
  Tb  Tb0  1  0.994093  0.680294  0.247461  1
  Tb  Tb1  1  0.005907  0.319706  0.752539  1
  Tb  Tb2  1  0.680294  0.994093  0.247461  1
  Tb  Tb3  1  0.319706  0.005907  0.752539  1
  Al  Al4  1  0.138574  0.138574  0.250371  1
  Al  Al5  1  0.861426  0.861426  0.749629  1
  Al  Al6  1  0.999578  0.339998  0.073577  1
  Al  Al7  1  0.000422  0.660002  0.926423  1
  Al  Al8  1  0.001894  0.659509  0.573906  1
  Al  Al9  1  0.340491  0.998106  0.426094  1
  Al  Al10  1  0.998106  0.340491  0.426094  1
  Al  Al11  1  0.659509  0.001894  0.573906  1
  Al  Al12  1  0.660002  0.000422  0.926423  1
  Al  Al13  1  0.339998  0.999578  0.073577  1
  Al  Al14  1  0.334747  0.334747  0.545492  1
  Al  Al15  1  0.665253  0.665253  0.454508  1
  Al  Al16  1  0.663835  0.663835  0.044800  1
  Al  Al17  1  0.336165  0.336165  0.955200  1
  Al  Al18  1  0.343541  0.558712  0.250132  1
  Al  Al19  1  0.656459  0.441288  0.749868  1
  Al  Al20  1  0.558712  0.343541  0.250132  1
  Al  Al21  1  0.441288  0.656459  0.749868  1
  Re  Re22  1  0.000000  0.000000  0.000000  1
  Ni  Ni23  1  0.670234  0.329766  0.000000  1
  Ni  Ni24  1  0.329766  0.670234  0.000000  1
  Ni  Ni25  1  0.329995  0.670005  0.500000  1
  Ni  Ni26  1  0.670005  0.329995  0.500000  1
  Rh  Rh27  1  0.000000  0.000000  0.500000  1
