# generated using pymatgen
data_Li4Ni10As7
_symmetry_space_group_name_H-M   'P 1'
_cell_length_a   9.39271940
_cell_length_b   9.37487449
_cell_length_c   3.76135700
_cell_angle_alpha   90.00000000
_cell_angle_beta   90.00000000
_cell_angle_gamma   120.41301267
_symmetry_Int_Tables_number   1
_chemical_formula_structural   Li4Ni10As7
_chemical_formula_sum   'Li4 Ni10 As7'
_cell_volume   285.63371529
_cell_formula_units_Z   1
loop_
 _symmetry_equiv_pos_site_id
 _symmetry_equiv_pos_as_xyz
  1  'x, y, z'
loop_
 _atom_site_type_symbol
 _atom_site_label
 _atom_site_symmetry_multiplicity
 _atom_site_fract_x
 _atom_site_fract_y
 _atom_site_fract_z
 _atom_site_occupancy
  Li  Li0  1  0.446649  0.218626  0.500000  1
  Li  Li1  1  0.785802  0.234376  0.500000  1
  Li  Li2  1  0.337170  0.671274  0.000000  1
  Li  Li3  1  0.998248  0.001760  0.500000  1
  Ni  Ni4  1  0.276903  0.373906  0.500000  1
  Ni  Ni5  1  0.621439  0.899984  0.500000  1
  Ni  Ni6  1  0.097222  0.720447  0.500000  1
  Ni  Ni7  1  0.493681  0.449869  0.000000  1
  Ni  Ni8  1  0.549097  0.052057  0.000000  1
  Ni  Ni9  1  0.958765  0.502778  0.000000  1
  Ni  Ni10  1  0.716737  0.761455  0.000000  1
  Ni  Ni11  1  0.236229  0.950298  0.000000  1
  Ni  Ni12  1  0.045752  0.285000  0.000000  1
  Ni  Ni13  1  0.763975  0.542074  0.500000  1
  As  As14  1  0.956350  0.751007  0.000000  1
  As  As15  1  0.239897  0.201760  0.000000  1
  As  As16  1  0.792104  0.037646  0.000000  1
  As  As17  1  0.671399  0.345707  0.000000  1
  As  As18  1  0.546242  0.619715  0.500000  1
  As  As19  1  0.377386  0.917267  0.500000  1
  As  As20  1  0.088955  0.462993  0.500000  1
