# generated using pymatgen
data_Tb2Co4P6Ir5Ru
_symmetry_space_group_name_H-M   'P 1'
_cell_length_a   3.84921500
_cell_length_b   10.60360300
_cell_length_c   12.16537200
_cell_angle_alpha   90.00000000
_cell_angle_beta   90.00000000
_cell_angle_gamma   90.00000000
_symmetry_Int_Tables_number   1
_chemical_formula_structural   Tb2Co4P6Ir5Ru
_chemical_formula_sum   'Tb4 Co8 P12 Ir10 Ru2'
_cell_volume   496.53632142
_cell_formula_units_Z   2
loop_
 _symmetry_equiv_pos_site_id
 _symmetry_equiv_pos_as_xyz
  1  'x, y, z'
loop_
 _atom_site_type_symbol
 _atom_site_label
 _atom_site_symmetry_multiplicity
 _atom_site_fract_x
 _atom_site_fract_y
 _atom_site_fract_z
 _atom_site_occupancy
  Tb  Tb0  1  0.250000  0.585295  0.710456  1
  Tb  Tb1  1  0.250000  0.914705  0.210456  1
  Tb  Tb2  1  0.750000  0.416182  0.289900  1
  Tb  Tb3  1  0.750000  0.083818  0.789900  1
  Co  Co4  1  0.250000  0.884135  0.697696  1
  Co  Co5  1  0.250000  0.615865  0.197696  1
  Co  Co6  1  0.750000  0.115521  0.302530  1
  Co  Co7  1  0.750000  0.384479  0.802530  1
  Co  Co8  1  0.250000  0.463367  0.932877  1
  Co  Co9  1  0.250000  0.036633  0.432877  1
  Co  Co10  1  0.750000  0.536244  0.067446  1
  Co  Co11  1  0.750000  0.963756  0.567446  1
  P  P12  1  0.250000  0.432677  0.110391  1
  P  P13  1  0.250000  0.067323  0.610391  1
  P  P14  1  0.750000  0.569467  0.890395  1
  P  P15  1  0.750000  0.930533  0.390395  1
  P  P16  1  0.250000  0.274690  0.870355  1
  P  P17  1  0.250000  0.225310  0.370355  1
  P  P18  1  0.750000  0.725578  0.128078  1
  P  P19  1  0.750000  0.774422  0.628078  1
  P  P20  1  0.250000  0.601193  0.380631  1
  P  P21  1  0.250000  0.898807  0.880631  1
  P  P22  1  0.750000  0.402786  0.621718  1
  P  P23  1  0.750000  0.097214  0.121718  1
  Ir  Ir24  1  0.750000  0.277472  0.009147  1
  Ir  Ir25  1  0.750000  0.222528  0.509147  1
  Ir  Ir26  1  0.250000  0.409637  0.477994  1
  Ir  Ir27  1  0.250000  0.090363  0.977994  1
  Ir  Ir28  1  0.750000  0.591238  0.520371  1
  Ir  Ir29  1  0.750000  0.908762  0.020371  1
  Ir  Ir30  1  0.250000  0.227908  0.178446  1
  Ir  Ir31  1  0.250000  0.272092  0.678446  1
  Ir  Ir32  1  0.750000  0.773510  0.820558  1
  Ir  Ir33  1  0.750000  0.726490  0.320558  1
  Ru  Ru34  1  0.250000  0.718397  0.991009  1
  Ru  Ru35  1  0.250000  0.781603  0.491009  1
