# generated using pymatgen
data_Zr4TcOs6W
_symmetry_space_group_name_H-M   'P 1'
_cell_length_a   5.19408431
_cell_length_b   5.19408502
_cell_length_c   8.69593000
_cell_angle_alpha   90.00000000
_cell_angle_beta   90.00000000
_cell_angle_gamma   118.05156318
_symmetry_Int_Tables_number   1
_chemical_formula_structural   Zr4TcOs6W
_chemical_formula_sum   'Zr4 Tc1 Os6 W1'
_cell_volume   207.04320004
_cell_formula_units_Z   1
loop_
 _symmetry_equiv_pos_site_id
 _symmetry_equiv_pos_as_xyz
  1  'x, y, z'
loop_
 _atom_site_type_symbol
 _atom_site_label
 _atom_site_symmetry_multiplicity
 _atom_site_fract_x
 _atom_site_fract_y
 _atom_site_fract_z
 _atom_site_occupancy
  Zr  Zr0  1  0.333711  0.666289  0.434766  1
  Zr  Zr1  1  0.668428  0.331572  0.564640  1
  Zr  Zr2  1  0.668428  0.331572  0.935360  1
  Zr  Zr3  1  0.333711  0.666289  0.065234  1
  Tc  Tc4  1  0.826348  0.173652  0.250000  1
  Os  Os5  1  0.001780  0.998220  0.497536  1
  Os  Os6  1  0.001780  0.998220  0.002464  1
  Os  Os7  1  0.828983  0.656399  0.250000  1
  Os  Os8  1  0.343601  0.171017  0.250000  1
  Os  Os9  1  0.170962  0.345940  0.750000  1
  Os  Os10  1  0.654060  0.829038  0.750000  1
  W  W11  1  0.168208  0.831792  0.750000  1
