# generated using pymatgen
data_Cs3Ho(VS4)2
_symmetry_space_group_name_H-M   'P 1'
_cell_length_a   10.06090789
_cell_length_b   7.04733400
_cell_length_c   12.03580071
_cell_angle_alpha   90.00000000
_cell_angle_beta   89.23820057
_cell_angle_gamma   90.00000000
_symmetry_Int_Tables_number   1
_chemical_formula_structural   Cs3Ho(VS4)2
_chemical_formula_sum   'Cs6 Ho2 V4 S16'
_cell_volume   853.29387270
_cell_formula_units_Z   2
loop_
 _symmetry_equiv_pos_site_id
 _symmetry_equiv_pos_as_xyz
  1  'x, y, z'
loop_
 _atom_site_type_symbol
 _atom_site_label
 _atom_site_symmetry_multiplicity
 _atom_site_fract_x
 _atom_site_fract_y
 _atom_site_fract_z
 _atom_site_occupancy
  Cs  Cs0  1  0.366756  0.804656  0.082703  1
  Cs  Cs1  1  0.400980  0.307765  0.341793  1
  Cs  Cs2  1  0.846353  0.308103  0.436836  1
  Cs  Cs3  1  0.153647  0.808103  0.563165  1
  Cs  Cs4  1  0.599020  0.807765  0.658207  1
  Cs  Cs5  1  0.633245  0.304656  0.917297  1
  Ho  Ho6  1  0.891357  0.781783  0.142367  1
  Ho  Ho7  1  0.108643  0.281783  0.857633  1
  V  V8  1  0.082180  0.334493  0.146051  1
  V  V9  1  0.644650  0.806490  0.307901  1
  V  V10  1  0.355350  0.306489  0.692099  1
  V  V11  1  0.917820  0.834493  0.853949  1
  S  S12  1  0.932553  0.402354  0.027490  1
  S  S13  1  0.264791  0.306180  0.049798  1
  S  S14  1  0.680401  0.041402  0.195959  1
  S  S15  1  0.669975  0.558005  0.202139  1
  S  S16  1  0.044724  0.075040  0.238152  1
  S  S17  1  0.087198  0.577377  0.256057  1
  S  S18  1  0.454772  0.813894  0.389259  1
  S  S19  1  0.813351  0.804739  0.415079  1
  S  S20  1  0.186650  0.304738  0.584921  1
  S  S21  1  0.545227  0.313893  0.610741  1
  S  S22  1  0.912802  0.077376  0.743943  1
  S  S23  1  0.955276  0.575040  0.761848  1
  S  S24  1  0.330025  0.058006  0.797861  1
  S  S25  1  0.319599  0.541400  0.804041  1
  S  S26  1  0.735208  0.806181  0.950202  1
  S  S27  1  0.067447  0.902354  0.972509  1
