# generated using pymatgen
data_Ho16In4Ru3Au
_symmetry_space_group_name_H-M   'P 1'
_cell_length_a   9.65470106
_cell_length_b   9.65470128
_cell_length_c   9.65470130
_cell_angle_alpha   59.98675962
_cell_angle_beta   59.98675984
_cell_angle_gamma   59.98676084
_symmetry_Int_Tables_number   1
_chemical_formula_structural   Ho16In4Ru3Au
_chemical_formula_sum   'Ho16 In4 Ru3 Au1'
_cell_volume   636.16697303
_cell_formula_units_Z   1
loop_
 _symmetry_equiv_pos_site_id
 _symmetry_equiv_pos_as_xyz
  1  'x, y, z'
loop_
 _atom_site_type_symbol
 _atom_site_label
 _atom_site_symmetry_multiplicity
 _atom_site_fract_x
 _atom_site_fract_y
 _atom_site_fract_z
 _atom_site_occupancy
  Ho  Ho0  1  0.596334  0.596334  0.596334  1
  Ho  Ho1  1  0.607427  0.607427  0.193595  1
  Ho  Ho2  1  0.607427  0.193595  0.607427  1
  Ho  Ho3  1  0.193595  0.607427  0.607427  1
  Ho  Ho4  1  0.046919  0.441951  0.441951  1
  Ho  Ho5  1  0.440778  0.059185  0.059185  1
  Ho  Ho6  1  0.441951  0.046919  0.441951  1
  Ho  Ho7  1  0.059185  0.440778  0.059185  1
  Ho  Ho8  1  0.441951  0.441951  0.046919  1
  Ho  Ho9  1  0.059185  0.059185  0.440778  1
  Ho  Ho10  1  0.190373  0.811317  0.811317  1
  Ho  Ho11  1  0.814535  0.190746  0.190746  1
  Ho  Ho12  1  0.811317  0.190373  0.811317  1
  Ho  Ho13  1  0.190746  0.814535  0.190746  1
  Ho  Ho14  1  0.811317  0.811317  0.190373  1
  Ho  Ho15  1  0.190746  0.190746  0.814535  1
  In  In16  1  0.833372  0.833372  0.833372  1
  In  In17  1  0.832191  0.832191  0.501441  1
  In  In18  1  0.832191  0.501441  0.832191  1
  In  In19  1  0.501441  0.832191  0.832191  1
  Ru  Ru20  1  0.388690  0.388690  0.826670  1
  Ru  Ru21  1  0.388690  0.826670  0.388690  1
  Ru  Ru22  1  0.826670  0.388690  0.388690  1
  Au  Au23  1  0.392969  0.392969  0.392969  1
