# generated using pymatgen
data_TbNdEu2(Ga2Ag)4
_symmetry_space_group_name_H-M   'P 1'
_cell_length_a   4.46596900
_cell_length_b   7.11291689
_cell_length_c   10.46363490
_cell_angle_alpha   89.86236731
_cell_angle_beta   90.00000000
_cell_angle_gamma   90.00000000
_symmetry_Int_Tables_number   1
_chemical_formula_structural   TbNdEu2(Ga2Ag)4
_chemical_formula_sum   'Tb1 Nd1 Eu2 Ga8 Ag4'
_cell_volume   332.38756134
_cell_formula_units_Z   1
loop_
 _symmetry_equiv_pos_site_id
 _symmetry_equiv_pos_as_xyz
  1  'x, y, z'
loop_
 _atom_site_type_symbol
 _atom_site_label
 _atom_site_symmetry_multiplicity
 _atom_site_fract_x
 _atom_site_fract_y
 _atom_site_fract_z
 _atom_site_occupancy
  Tb  Tb0  1  0.250000  0.284520  0.668825  1
  Nd  Nd1  1  0.250000  0.785277  0.827643  1
  Eu  Eu2  1  0.750000  0.216895  0.171642  1
  Eu  Eu3  1  0.750000  0.716686  0.328627  1
  Ga  Ga4  1  0.250000  0.920930  0.147840  1
  Ga  Ga5  1  0.750000  0.084298  0.845439  1
  Ga  Ga6  1  0.750000  0.575260  0.653015  1
  Ga  Ga7  1  0.250000  0.417935  0.352790  1
  Ga  Ga8  1  0.250000  0.697114  0.536363  1
  Ga  Ga9  1  0.750000  0.295385  0.467269  1
  Ga  Ga10  1  0.750000  0.798212  0.034092  1
  Ga  Ga11  1  0.250000  0.208468  0.960696  1
  Ag  Ag12  1  0.250000  0.539734  0.098164  1
  Ag  Ag13  1  0.750000  0.460747  0.899765  1
  Ag  Ag14  1  0.750000  0.960839  0.600948  1
  Ag  Ag15  1  0.250000  0.037703  0.406881  1
