# generated using pymatgen
data_CeNdRuN3
_symmetry_space_group_name_H-M   'P 1'
_cell_length_a   3.53159583
_cell_length_b   3.79685415
_cell_length_c   6.94612197
_cell_angle_alpha   105.86116461
_cell_angle_beta   104.72746499
_cell_angle_gamma   90.00000083
_symmetry_Int_Tables_number   1
_chemical_formula_structural   CeNdRuN3
_chemical_formula_sum   'Ce1 Nd1 Ru1 N3'
_cell_volume   86.40856374
_cell_formula_units_Z   1
loop_
 _symmetry_equiv_pos_site_id
 _symmetry_equiv_pos_as_xyz
  1  'x, y, z'
loop_
 _atom_site_type_symbol
 _atom_site_label
 _atom_site_symmetry_multiplicity
 _atom_site_fract_x
 _atom_site_fract_y
 _atom_site_fract_z
 _atom_site_occupancy
  Ce  Ce0  1  0.651312  0.651320  0.302643  1
  Nd  Nd1  1  0.352410  0.352498  0.704994  1
  Ru  Ru2  1  0.001242  0.001190  0.002380  1
  N  N3  1  0.001631  0.501609  0.003220  1
  N  N4  1  0.165337  0.165299  0.330598  1
  N  N5  1  0.828067  0.828082  0.656165  1
