# generated using pymatgen
data_Mo(SF6)2
_symmetry_space_group_name_H-M   'P 1'
_cell_length_a   6.39595100
_cell_length_b   7.74505500
_cell_length_c   10.07079500
_cell_angle_alpha   90.00000000
_cell_angle_beta   90.00000000
_cell_angle_gamma   90.00000000
_symmetry_Int_Tables_number   1
_chemical_formula_structural   Mo(SF6)2
_chemical_formula_sum   'Mo2 S4 F24'
_cell_volume   498.87689409
_cell_formula_units_Z   2
loop_
 _symmetry_equiv_pos_site_id
 _symmetry_equiv_pos_as_xyz
  1  'x, y, z'
loop_
 _atom_site_type_symbol
 _atom_site_label
 _atom_site_symmetry_multiplicity
 _atom_site_fract_x
 _atom_site_fract_y
 _atom_site_fract_z
 _atom_site_occupancy
  Mo  Mo0  1  0.000000  0.500000  0.000000  1
  Mo  Mo1  1  0.500000  0.000000  0.500000  1
  S  S2  1  0.500000  0.574515  0.246708  1
  S  S3  1  0.500000  0.425485  0.753292  1
  S  S4  1  0.000000  0.074515  0.253292  1
  S  S5  1  0.000000  0.925485  0.746708  1
  F  F6  1  0.219464  0.365224  0.907898  1
  F  F7  1  0.219464  0.634776  0.092102  1
  F  F8  1  0.280536  0.865224  0.592102  1
  F  F9  1  0.280536  0.134776  0.407898  1
  F  F10  1  0.780536  0.634776  0.092102  1
  F  F11  1  0.780536  0.365224  0.907898  1
  F  F12  1  0.817944  0.970249  0.845465  1
  F  F13  1  0.817944  0.029751  0.154535  1
  F  F14  1  0.682056  0.470249  0.654535  1
  F  F15  1  0.682056  0.529751  0.345465  1
  F  F16  1  0.182056  0.029751  0.154535  1
  F  F17  1  0.182056  0.970249  0.845465  1
  F  F18  1  0.317944  0.529751  0.345465  1
  F  F19  1  0.317944  0.470249  0.654535  1
  F  F20  1  0.000000  0.669375  0.842623  1
  F  F21  1  0.000000  0.330625  0.157377  1
  F  F22  1  0.500000  0.169375  0.657377  1
  F  F23  1  0.500000  0.830625  0.342623  1
  F  F24  1  0.500000  0.610106  0.820923  1
  F  F25  1  0.500000  0.389894  0.179077  1
  F  F26  1  0.000000  0.110106  0.679077  1
  F  F27  1  0.000000  0.889894  0.320923  1
  F  F28  1  0.719464  0.865224  0.592102  1
  F  F29  1  0.719464  0.134776  0.407898  1
