# generated using pymatgen
data_Ca4Yb4Fe2CoN8
_symmetry_space_group_name_H-M   'P 1'
_cell_length_a   9.11986793
_cell_length_b   4.95420309
_cell_length_c   7.03197319
_cell_angle_alpha   90.00000914
_cell_angle_beta   74.81791539
_cell_angle_gamma   74.23955003
_symmetry_Int_Tables_number   1
_chemical_formula_structural   Ca4Yb4Fe2CoN8
_chemical_formula_sum   'Ca4 Yb4 Fe2 Co1 N8'
_cell_volume   294.23342223
_cell_formula_units_Z   1
loop_
 _symmetry_equiv_pos_site_id
 _symmetry_equiv_pos_as_xyz
  1  'x, y, z'
loop_
 _atom_site_type_symbol
 _atom_site_label
 _atom_site_symmetry_multiplicity
 _atom_site_fract_x
 _atom_site_fract_y
 _atom_site_fract_z
 _atom_site_occupancy
  Ca  Ca0  1  0.814695  0.592654  0.965338  1
  Ca  Ca1  1  0.185305  0.407346  0.034662  1
  Ca  Ca2  1  0.603853  0.198074  0.805399  1
  Ca  Ca3  1  0.396147  0.801926  0.194601  1
  Yb  Yb4  1  0.059270  0.970365  0.738645  1
  Yb  Yb5  1  0.940730  0.029635  0.261355  1
  Yb  Yb6  1  0.667897  0.666052  0.471047  1
  Yb  Yb7  1  0.332103  0.333948  0.528953  1
  Fe  Fe8  1  0.375346  0.812325  0.792099  1
  Fe  Fe9  1  0.624654  0.187675  0.207901  1
  Co  Co10  1  0.000000  0.500000  0.500000  1
  N  N11  1  0.203256  0.898372  0.992890  1
  N  N12  1  0.796744  0.101628  0.007110  1
  N  N13  1  0.352849  0.823576  0.554953  1
  N  N14  1  0.647151  0.176424  0.445047  1
  N  N15  1  0.564768  0.717616  0.827937  1
  N  N16  1  0.435232  0.282384  0.172063  1
  N  N17  1  0.060017  0.469992  0.724532  1
  N  N18  1  0.939983  0.530008  0.275468  1
