# generated using pymatgen
data_Sc4Ni5P6Os
_symmetry_space_group_name_H-M   'P 1'
_cell_length_a   3.67568800
_cell_length_b   10.08691700
_cell_length_c   12.31882400
_cell_angle_alpha   90.00000000
_cell_angle_beta   90.00000000
_cell_angle_gamma   90.00000000
_symmetry_Int_Tables_number   1
_chemical_formula_structural   Sc4Ni5P6Os
_chemical_formula_sum   'Sc8 Ni10 P12 Os2'
_cell_volume   456.73715062
_cell_formula_units_Z   2
loop_
 _symmetry_equiv_pos_site_id
 _symmetry_equiv_pos_as_xyz
  1  'x, y, z'
loop_
 _atom_site_type_symbol
 _atom_site_label
 _atom_site_symmetry_multiplicity
 _atom_site_fract_x
 _atom_site_fract_y
 _atom_site_fract_z
 _atom_site_occupancy
  Sc  Sc0  1  0.250000  0.340866  0.996564  1
  Sc  Sc1  1  0.250000  0.159134  0.496564  1
  Sc  Sc2  1  0.750000  0.654735  0.003918  1
  Sc  Sc3  1  0.750000  0.845265  0.503918  1
  Sc  Sc4  1  0.250000  0.426158  0.712893  1
  Sc  Sc5  1  0.250000  0.073842  0.212893  1
  Sc  Sc6  1  0.750000  0.568679  0.284968  1
  Sc  Sc7  1  0.750000  0.931321  0.784968  1
  Ni  Ni8  1  0.750000  0.099213  0.020073  1
  Ni  Ni9  1  0.750000  0.400787  0.520073  1
  Ni  Ni10  1  0.250000  0.137085  0.716015  1
  Ni  Ni11  1  0.250000  0.362915  0.216015  1
  Ni  Ni12  1  0.750000  0.868535  0.282072  1
  Ni  Ni13  1  0.750000  0.631465  0.782072  1
  Ni  Ni14  1  0.250000  0.766225  0.169070  1
  Ni  Ni15  1  0.250000  0.733775  0.669070  1
  Ni  Ni16  1  0.750000  0.225506  0.834999  1
  Ni  Ni17  1  0.750000  0.274494  0.334999  1
  P  P18  1  0.250000  0.106366  0.894956  1
  P  P19  1  0.250000  0.393634  0.394956  1
  P  P20  1  0.750000  0.896944  0.102617  1
  P  P21  1  0.750000  0.603056  0.602617  1
  P  P22  1  0.250000  0.736744  0.850739  1
  P  P23  1  0.250000  0.763256  0.350739  1
  P  P24  1  0.750000  0.261229  0.147616  1
  P  P25  1  0.750000  0.238771  0.647616  1
  P  P26  1  0.250000  0.552487  0.126195  1
  P  P27  1  0.250000  0.947513  0.626195  1
  P  P28  1  0.750000  0.443311  0.874040  1
  P  P29  1  0.750000  0.056689  0.374040  1
  Os  Os30  1  0.250000  0.903108  0.983264  1
  Os  Os31  1  0.250000  0.596892  0.483264  1
