# generated using pymatgen
data_NaNdY(P3Pd10)2
_symmetry_space_group_name_H-M   'P 1'
_cell_length_a   8.66188348
_cell_length_b   8.66188619
_cell_length_c   8.66202800
_cell_angle_alpha   59.99946606
_cell_angle_beta   59.99945573
_cell_angle_gamma   60.00292611
_symmetry_Int_Tables_number   1
_chemical_formula_structural   NaNdY(P3Pd10)2
_chemical_formula_sum   'Na1 Nd1 Y1 P6 Pd20'
_cell_volume   459.55284606
_cell_formula_units_Z   1
loop_
 _symmetry_equiv_pos_site_id
 _symmetry_equiv_pos_as_xyz
  1  'x, y, z'
loop_
 _atom_site_type_symbol
 _atom_site_label
 _atom_site_symmetry_multiplicity
 _atom_site_fract_x
 _atom_site_fract_y
 _atom_site_fract_z
 _atom_site_occupancy
  Na  Na0  1  0.000002  0.000002  0.999998  1
  Nd  Nd1  1  0.750011  0.750009  0.749990  1
  Y  Y2  1  0.249989  0.249991  0.250010  1
  P  P3  1  0.739909  0.260091  0.260097  1
  P  P4  1  0.260091  0.739909  0.739904  1
  P  P5  1  0.260091  0.739909  0.260097  1
  P  P6  1  0.739909  0.260091  0.739904  1
  P  P7  1  0.260120  0.260120  0.739880  1
  P  P8  1  0.739882  0.739882  0.260118  1
  Pd  Pd9  1  0.384620  0.384623  0.384622  1
  Pd  Pd10  1  0.613100  0.613097  0.613097  1
  Pd  Pd11  1  0.384620  0.384623  0.846135  1
  Pd  Pd12  1  0.384617  0.846133  0.384625  1
  Pd  Pd13  1  0.613100  0.613097  0.160705  1
  Pd  Pd14  1  0.613103  0.160707  0.613096  1
  Pd  Pd15  1  0.846133  0.384619  0.384625  1
  Pd  Pd16  1  0.160707  0.613101  0.613096  1
  Pd  Pd17  1  0.345954  0.000843  0.000807  1
  Pd  Pd18  1  0.652407  0.000796  0.000831  1
  Pd  Pd19  1  0.000842  0.345956  0.652396  1
  Pd  Pd20  1  0.000797  0.652405  0.345966  1
  Pd  Pd21  1  0.000842  0.345956  0.000806  1
  Pd  Pd22  1  0.652407  0.000796  0.345966  1
  Pd  Pd23  1  0.000797  0.652405  0.000832  1
  Pd  Pd24  1  0.345954  0.000843  0.652396  1
  Pd  Pd25  1  0.000816  0.000816  0.345961  1
  Pd  Pd26  1  0.000816  0.000816  0.652405  1
  Pd  Pd27  1  0.652404  0.345961  0.000818  1
  Pd  Pd28  1  0.345958  0.652401  0.000820  1
