# generated using pymatgen
data_Tb4Co20(As3P)3
_symmetry_space_group_name_H-M   'P 1'
_cell_length_a   3.75194300
_cell_length_b   12.09426332
_cell_length_c   10.59341137
_cell_angle_alpha   90.08633217
_cell_angle_beta   90.00000000
_cell_angle_gamma   90.00000000
_symmetry_Int_Tables_number   1
_chemical_formula_structural   Tb4Co20(As3P)3
_chemical_formula_sum   'Tb4 Co20 As9 P3'
_cell_volume   480.69654021
_cell_formula_units_Z   1
loop_
 _symmetry_equiv_pos_site_id
 _symmetry_equiv_pos_as_xyz
  1  'x, y, z'
loop_
 _atom_site_type_symbol
 _atom_site_label
 _atom_site_symmetry_multiplicity
 _atom_site_fract_x
 _atom_site_fract_y
 _atom_site_fract_z
 _atom_site_occupancy
  Tb  Tb0  1  0.750000  0.706106  0.082970  1
  Tb  Tb1  1  0.250000  0.297299  0.918132  1
  Tb  Tb2  1  0.250000  0.792221  0.582551  1
  Tb  Tb3  1  0.750000  0.209315  0.417692  1
  Co  Co4  1  0.750000  0.694545  0.388501  1
  Co  Co5  1  0.250000  0.306927  0.609831  1
  Co  Co6  1  0.250000  0.803402  0.888162  1
  Co  Co7  1  0.750000  0.196746  0.117761  1
  Co  Co8  1  0.750000  0.985450  0.207515  1
  Co  Co9  1  0.250000  0.009219  0.788307  1
  Co  Co10  1  0.250000  0.515227  0.706013  1
  Co  Co11  1  0.750000  0.485800  0.294568  1
  Co  Co12  1  0.750000  0.674559  0.771908  1
  Co  Co13  1  0.250000  0.326327  0.228381  1
  Co  Co14  1  0.250000  0.824709  0.273372  1
  Co  Co15  1  0.750000  0.178948  0.716111  1
  Co  Co16  1  0.750000  0.928140  0.975374  1
  Co  Co17  1  0.250000  0.061562  0.034643  1
  Co  Co18  1  0.250000  0.566038  0.471825  1
  Co  Co19  1  0.750000  0.435730  0.527793  1
  Co  Co20  1  0.750000  0.988510  0.593324  1
  Co  Co21  1  0.250000  0.010441  0.406215  1
  Co  Co22  1  0.250000  0.510773  0.094343  1
  Co  Co23  1  0.750000  0.489775  0.906403  1
  As  As24  1  0.750000  0.111457  0.916046  1
  As  As25  1  0.750000  0.889411  0.399144  1
  As  As26  1  0.250000  0.110378  0.599529  1
  As  As27  1  0.250000  0.609845  0.898859  1
  As  As28  1  0.750000  0.390809  0.102361  1
  As  As29  1  0.750000  0.869856  0.769988  1
  As  As30  1  0.250000  0.130385  0.232674  1
  As  As31  1  0.250000  0.629806  0.269983  1
  As  As32  1  0.750000  0.372305  0.729441  1
  P  P33  1  0.750000  0.611455  0.579314  1
  P  P34  1  0.250000  0.390290  0.420328  1
  P  P35  1  0.250000  0.886233  0.080636  1
