# generated using pymatgen
data_Nd5Er3Ge8(BiO5)8
_symmetry_space_group_name_H-M   'P 1'
_cell_length_a   5.47587134
_cell_length_b   11.36129142
_cell_length_c   15.50360150
_cell_angle_alpha   89.83153106
_cell_angle_beta   90.03355555
_cell_angle_gamma   90.02201294
_symmetry_Int_Tables_number   1
_chemical_formula_structural   Nd5Er3Ge8(BiO5)8
_chemical_formula_sum   'Nd5 Er3 Ge8 Bi8 O40'
_cell_volume   964.52069051
_cell_formula_units_Z   1
loop_
 _symmetry_equiv_pos_site_id
 _symmetry_equiv_pos_as_xyz
  1  'x, y, z'
loop_
 _atom_site_type_symbol
 _atom_site_label
 _atom_site_symmetry_multiplicity
 _atom_site_fract_x
 _atom_site_fract_y
 _atom_site_fract_z
 _atom_site_occupancy
  Nd  Nd0  1  0.011965  0.856907  0.554060  1
  Nd  Nd1  1  0.511728  0.142932  0.946635  1
  Nd  Nd2  1  0.488476  0.362606  0.447477  1
  Nd  Nd3  1  0.488447  0.856748  0.052570  1
  Nd  Nd4  1  0.989184  0.140049  0.446005  1
  Er  Er5  1  0.506983  0.641620  0.554000  1
  Er  Er6  1  0.007247  0.361240  0.947977  1
  Er  Er7  1  0.993098  0.638633  0.051922  1
  Ge  Ge8  1  0.007298  0.409359  0.598245  1
  Ge  Ge9  1  0.991968  0.597001  0.403503  1
  Ge  Ge10  1  0.507625  0.591625  0.904777  1
  Ge  Ge11  1  0.492124  0.900277  0.400352  1
  Ge  Ge12  1  0.994199  0.098140  0.097824  1
  Ge  Ge13  1  0.006557  0.900764  0.900534  1
  Ge  Ge14  1  0.493795  0.408095  0.095311  1
  Ge  Ge15  1  0.507897  0.096042  0.601301  1
  Bi  Bi16  1  0.549959  0.647223  0.237168  1
  Bi  Bi17  1  0.048438  0.351013  0.258861  1
  Bi  Bi18  1  0.548221  0.151177  0.259969  1
  Bi  Bi19  1  0.451899  0.845653  0.739218  1
  Bi  Bi20  1  0.952860  0.154041  0.763020  1
  Bi  Bi21  1  0.449522  0.353908  0.762861  1
  Bi  Bi22  1  0.949229  0.645942  0.738204  1
  Bi  Bi23  1  0.047399  0.847216  0.236886  1
  O  O24  1  0.190619  0.979391  0.128505  1
  O  O25  1  0.239613  0.242300  0.849307  1
  O  O26  1  0.690508  0.527010  0.125780  1
  O  O27  1  0.760788  0.758151  0.150597  1
  O  O28  1  0.202712  0.955781  0.433015  1
  O  O29  1  0.928757  0.672985  0.304003  1
  O  O30  1  0.796787  0.042008  0.567238  1
  O  O31  1  0.935809  0.172717  0.197818  1
  O  O32  1  0.199594  0.459446  0.060522  1
  O  O33  1  0.755520  0.265065  0.345461  1
  O  O34  1  0.800977  0.540233  0.940031  1
  O  O35  1  0.063573  0.825779  0.800201  1
  O  O36  1  0.257411  0.237783  0.344963  1
  O  O37  1  0.872199  0.315987  0.521507  1
  O  O38  1  0.872213  0.806506  0.978396  1
  O  O39  1  0.434310  0.331527  0.195057  1
  O  O40  1  0.811405  0.020406  0.870148  1
  O  O41  1  0.738979  0.757927  0.651956  1
  O  O42  1  0.704443  0.042192  0.066145  1
  O  O43  1  0.629641  0.808744  0.479081  1
  O  O44  1  0.750848  0.269364  0.849402  1
  O  O45  1  0.685329  0.020348  0.369236  1
  O  O46  1  0.367787  0.187694  0.523859  1
  O  O47  1  0.249289  0.730787  0.652294  1
  O  O48  1  0.066854  0.333076  0.698016  1
  O  O49  1  0.295814  0.956922  0.932754  1
  O  O50  1  0.647791  0.316581  0.021682  1
  O  O51  1  0.128607  0.193261  0.020674  1
  O  O52  1  0.569043  0.667067  0.804817  1
  O  O53  1  0.310290  0.473040  0.874248  1
  O  O54  1  0.700514  0.548769  0.440883  1
  O  O55  1  0.313081  0.976656  0.632034  1
  O  O56  1  0.298049  0.466258  0.566752  1
  O  O57  1  0.177589  0.476025  0.370539  1
  O  O58  1  0.565113  0.172923  0.700919  1
  O  O59  1  0.803195  0.525426  0.627755  1
  O  O60  1  0.352680  0.683152  0.978105  1
  O  O61  1  0.152639  0.685986  0.477060  1
  O  O62  1  0.434252  0.825956  0.299620  1
  O  O63  1  0.249259  0.730558  0.150941  1
