# generated using pymatgen
data_Mg7MnBe6Si6(SO12)2
_symmetry_space_group_name_H-M   'P 1'
_cell_length_a   8.38665800
_cell_length_b   8.38665800
_cell_length_c   8.38665800
_cell_angle_alpha   90.00000000
_cell_angle_beta   90.00000000
_cell_angle_gamma   90.00000000
_symmetry_Int_Tables_number   1
_chemical_formula_structural   Mg7MnBe6Si6(SO12)2
_chemical_formula_sum   'Mg7 Mn1 Be6 Si6 S2 O24'
_cell_volume   589.88424889
_cell_formula_units_Z   1
loop_
 _symmetry_equiv_pos_site_id
 _symmetry_equiv_pos_as_xyz
  1  'x, y, z'
loop_
 _atom_site_type_symbol
 _atom_site_label
 _atom_site_symmetry_multiplicity
 _atom_site_fract_x
 _atom_site_fract_y
 _atom_site_fract_z
 _atom_site_occupancy
  Mg  Mg0  1  0.676183  0.676183  0.676183  1
  Mg  Mg1  1  0.823143  0.176763  0.823399  1
  Mg  Mg2  1  0.176763  0.823399  0.823143  1
  Mg  Mg3  1  0.823399  0.823143  0.176763  1
  Mg  Mg4  1  0.676014  0.323528  0.323590  1
  Mg  Mg5  1  0.323528  0.323590  0.676014  1
  Mg  Mg6  1  0.323590  0.676014  0.323528  1
  Mn  Mn7  1  0.169264  0.169264  0.169264  1
  Be  Be8  1  0.500613  0.750187  0.999984  1
  Be  Be9  1  0.501219  0.250479  0.999569  1
  Be  Be10  1  0.999569  0.501219  0.250479  1
  Be  Be11  1  0.999984  0.500613  0.750187  1
  Be  Be12  1  0.250479  0.999569  0.501219  1
  Be  Be13  1  0.750187  0.999984  0.500613  1
  Si  Si14  1  0.501285  0.999338  0.250510  1
  Si  Si15  1  0.500509  0.999901  0.750222  1
  Si  Si16  1  0.999338  0.250510  0.501285  1
  Si  Si17  1  0.250510  0.501285  0.999338  1
  Si  Si18  1  0.999901  0.750222  0.500509  1
  Si  Si19  1  0.750222  0.500509  0.999901  1
  S  S20  1  0.996671  0.996671  0.996671  1
  S  S21  1  0.499996  0.499996  0.499996  1
  O  O22  1  0.359067  0.641384  0.086179  1
  O  O23  1  0.140918  0.857783  0.587070  1
  O  O24  1  0.140135  0.140569  0.418471  1
  O  O25  1  0.359786  0.913630  0.358310  1
  O  O26  1  0.359833  0.086414  0.642238  1
  O  O27  1  0.086179  0.359067  0.641384  1
  O  O28  1  0.913630  0.358310  0.359786  1
  O  O29  1  0.642238  0.359833  0.086414  1
  O  O30  1  0.413673  0.859762  0.858700  1
  O  O31  1  0.418471  0.140135  0.140569  1
  O  O32  1  0.140569  0.418471  0.140135  1
  O  O33  1  0.857783  0.587070  0.140918  1
  O  O34  1  0.640585  0.913034  0.641790  1
  O  O35  1  0.858700  0.413673  0.859762  1
  O  O36  1  0.587435  0.858622  0.142244  1
  O  O37  1  0.587070  0.140918  0.857783  1
  O  O38  1  0.913034  0.641790  0.640585  1
  O  O39  1  0.142244  0.587435  0.858622  1
  O  O40  1  0.858622  0.142244  0.587435  1
  O  O41  1  0.859762  0.858700  0.413673  1
  O  O42  1  0.358310  0.359786  0.913630  1
  O  O43  1  0.641790  0.640585  0.913034  1
  O  O44  1  0.086414  0.642238  0.359833  1
  O  O45  1  0.641384  0.086179  0.359067  1
