# generated using pymatgen
data_Dy5Ho7(TcOs)2
_symmetry_space_group_name_H-M   'P 1'
_cell_length_a   6.28346302
_cell_length_b   7.41221501
_cell_length_c   9.06354802
_cell_angle_alpha   89.99840709
_cell_angle_beta   90.00793653
_cell_angle_gamma   90.00602383
_symmetry_Int_Tables_number   1
_chemical_formula_structural   Dy5Ho7(TcOs)2
_chemical_formula_sum   'Dy5 Ho7 Tc2 Os2'
_cell_volume   422.12911365
_cell_formula_units_Z   1
loop_
 _symmetry_equiv_pos_site_id
 _symmetry_equiv_pos_as_xyz
  1  'x, y, z'
loop_
 _atom_site_type_symbol
 _atom_site_label
 _atom_site_symmetry_multiplicity
 _atom_site_fract_x
 _atom_site_fract_y
 _atom_site_fract_z
 _atom_site_occupancy
  Dy  Dy0  1  0.336951  0.675403  0.062500  1
  Dy  Dy1  1  0.875296  0.539687  0.250040  1
  Dy  Dy2  1  0.624707  0.039751  0.250027  1
  Dy  Dy3  1  0.130374  0.459259  0.749969  1
  Dy  Dy4  1  0.369595  0.959325  0.749973  1
  Ho  Ho5  1  0.163031  0.175359  0.437492  1
  Ho  Ho6  1  0.665284  0.324334  0.563022  1
  Ho  Ho7  1  0.834716  0.824370  0.936955  1
  Ho  Ho8  1  0.665342  0.324285  0.936961  1
  Ho  Ho9  1  0.834711  0.824346  0.563016  1
  Ho  Ho10  1  0.336963  0.675356  0.437543  1
  Ho  Ho11  1  0.162988  0.175355  0.062521  1
  Tc  Tc12  1  0.039007  0.884434  0.250042  1
  Tc  Tc13  1  0.460978  0.384330  0.250017  1
  Os  Os14  1  0.959351  0.117212  0.750005  1
  Os  Os15  1  0.540707  0.617192  0.749918  1
