# generated using pymatgen
data_Yb8Si16(Mo3W)3
_symmetry_space_group_name_H-M   'P 1'
_cell_length_a   6.73297006
_cell_length_b   6.90012347
_cell_length_c   13.06348500
_cell_angle_alpha   90.00000000
_cell_angle_beta   90.00000000
_cell_angle_gamma   89.97137174
_symmetry_Int_Tables_number   1
_chemical_formula_structural   Yb8Si16(Mo3W)3
_chemical_formula_sum   'Yb8 Si16 Mo9 W3'
_cell_volume   606.90755240
_cell_formula_units_Z   1
loop_
 _symmetry_equiv_pos_site_id
 _symmetry_equiv_pos_as_xyz
  1  'x, y, z'
loop_
 _atom_site_type_symbol
 _atom_site_label
 _atom_site_symmetry_multiplicity
 _atom_site_fract_x
 _atom_site_fract_y
 _atom_site_fract_z
 _atom_site_occupancy
  Yb  Yb0  1  0.498804  0.333379  0.090650  1
  Yb  Yb1  1  0.998489  0.166577  0.409235  1
  Yb  Yb2  1  0.501337  0.666756  0.590668  1
  Yb  Yb3  1  0.001590  0.833501  0.909176  1
  Yb  Yb4  1  0.501337  0.666756  0.909332  1
  Yb  Yb5  1  0.001590  0.833501  0.590824  1
  Yb  Yb6  1  0.498804  0.333379  0.409350  1
  Yb  Yb7  1  0.998489  0.166577  0.090765  1
  Si  Si8  1  0.658544  0.042839  0.545375  1
  Si  Si9  1  0.158494  0.457249  0.954567  1
  Si  Si10  1  0.341533  0.957390  0.045443  1
  Si  Si11  1  0.842015  0.543446  0.454890  1
  Si  Si12  1  0.341533  0.957390  0.454557  1
  Si  Si13  1  0.842015  0.543446  0.045110  1
  Si  Si14  1  0.658544  0.042839  0.954625  1
  Si  Si15  1  0.158494  0.457249  0.545433  1
  Si  Si16  1  0.535311  0.376690  0.750000  1
  Si  Si17  1  0.035075  0.123237  0.750000  1
  Si  Si18  1  0.465032  0.623971  0.250000  1
  Si  Si19  1  0.964152  0.875256  0.250000  1
  Si  Si20  1  0.800693  0.634840  0.750000  1
  Si  Si21  1  0.300648  0.865196  0.750000  1
  Si  Si22  1  0.199532  0.366413  0.250000  1
  Si  Si23  1  0.699015  0.133043  0.250000  1
  Mo  Mo24  1  0.835617  0.331338  0.628308  1
  Mo  Mo25  1  0.335593  0.168815  0.871573  1
  Mo  Mo26  1  0.164683  0.669069  0.128250  1
  Mo  Mo27  1  0.664059  0.830914  0.371837  1
  Mo  Mo28  1  0.164683  0.669069  0.371750  1
  Mo  Mo29  1  0.664059  0.830914  0.128163  1
  Mo  Mo30  1  0.835617  0.331338  0.871692  1
  Mo  Mo31  1  0.335593  0.168815  0.628427  1
  Mo  Mo32  1  0.839211  0.509242  0.250000  1
  W  W33  1  0.660125  0.010431  0.750000  1
  W  W34  1  0.160375  0.489414  0.750000  1
  W  W35  1  0.339316  0.989717  0.250000  1
