# generated using pymatgen
data_BaRhF5
_symmetry_space_group_name_H-M   'P 1'
_cell_length_a   5.11588800
_cell_length_b   5.87073700
_cell_length_c   14.27617900
_cell_angle_alpha   90.00000000
_cell_angle_beta   90.00000000
_cell_angle_gamma   90.00000000
_symmetry_Int_Tables_number   1
_chemical_formula_structural   BaRhF5
_chemical_formula_sum   'Ba4 Rh4 F20'
_cell_volume   428.77123076
_cell_formula_units_Z   4
loop_
 _symmetry_equiv_pos_site_id
 _symmetry_equiv_pos_as_xyz
  1  'x, y, z'
loop_
 _atom_site_type_symbol
 _atom_site_label
 _atom_site_symmetry_multiplicity
 _atom_site_fract_x
 _atom_site_fract_y
 _atom_site_fract_z
 _atom_site_occupancy
  Ba  Ba0  1  0.735476  0.663155  0.656868  1
  Ba  Ba1  1  0.235476  0.836845  0.343132  1
  Ba  Ba2  1  0.264524  0.163155  0.843132  1
  Ba  Ba3  1  0.764524  0.336845  0.156868  1
  Rh  Rh4  1  0.324656  0.149560  0.585082  1
  Rh  Rh5  1  0.824656  0.350440  0.414918  1
  Rh  Rh6  1  0.675344  0.649560  0.914918  1
  Rh  Rh7  1  0.175344  0.850440  0.085082  1
  F  F8  1  0.972629  0.615657  0.485025  1
  F  F9  1  0.472629  0.884343  0.514975  1
  F  F10  1  0.027371  0.115657  0.014975  1
  F  F11  1  0.527371  0.384343  0.985025  1
  F  F12  1  0.658769  0.568216  0.325725  1
  F  F13  1  0.158769  0.931784  0.674275  1
  F  F14  1  0.341231  0.068216  0.174275  1
  F  F15  1  0.841231  0.431784  0.825725  1
  F  F16  1  0.191694  0.410253  0.663345  1
  F  F17  1  0.691694  0.089747  0.336655  1
  F  F18  1  0.808306  0.910253  0.836655  1
  F  F19  1  0.308306  0.589747  0.163345  1
  F  F20  1  0.622327  0.152105  0.674098  1
  F  F21  1  0.122327  0.347895  0.325902  1
  F  F22  1  0.377673  0.652105  0.825902  1
  F  F23  1  0.877673  0.847895  0.174098  1
  F  F24  1  0.510682  0.383039  0.503438  1
  F  F25  1  0.010682  0.116961  0.496562  1
  F  F26  1  0.489318  0.883039  0.996562  1
  F  F27  1  0.989318  0.616961  0.003438  1
