# generated using pymatgen
data_Pr16Y4Si15Pd
_symmetry_space_group_name_H-M   'P 1'
_cell_length_a   7.84899223
_cell_length_b   7.82873269
_cell_length_c   15.26532744
_cell_angle_alpha   89.89099312
_cell_angle_beta   89.78092936
_cell_angle_gamma   90.22519541
_symmetry_Int_Tables_number   1
_chemical_formula_structural   Pr16Y4Si15Pd
_chemical_formula_sum   'Pr16 Y4 Si15 Pd1'
_cell_volume   938.00285521
_cell_formula_units_Z   1
loop_
 _symmetry_equiv_pos_site_id
 _symmetry_equiv_pos_as_xyz
  1  'x, y, z'
loop_
 _atom_site_type_symbol
 _atom_site_label
 _atom_site_symmetry_multiplicity
 _atom_site_fract_x
 _atom_site_fract_y
 _atom_site_fract_z
 _atom_site_occupancy
  Pr  Pr0  1  0.376211  0.012963  0.446229  1
  Pr  Pr1  1  0.489345  0.873628  0.697158  1
  Pr  Pr2  1  0.512793  0.121358  0.195195  1
  Pr  Pr3  1  0.878035  0.485197  0.302680  1
  Pr  Pr4  1  0.120038  0.512969  0.802619  1
  Pr  Pr5  1  0.625820  0.986494  0.947905  1
  Pr  Pr6  1  0.003531  0.378748  0.552342  1
  Pr  Pr7  1  0.986944  0.623729  0.054813  1
  Pr  Pr8  1  0.134135  0.983623  0.876365  1
  Pr  Pr9  1  0.522348  0.629747  0.127308  1
  Pr  Pr10  1  0.472101  0.368372  0.629688  1
  Pr  Pr11  1  0.625988  0.523147  0.873038  1
  Pr  Pr12  1  0.372590  0.476963  0.371675  1
  Pr  Pr13  1  0.875223  0.025323  0.378193  1
  Pr  Pr14  1  0.977140  0.124492  0.122567  1
  Pr  Pr15  1  0.024044  0.877621  0.621036  1
  Y  Y16  1  0.308057  0.307972  0.000137  1
  Y  Y17  1  0.190892  0.808458  0.250274  1
  Y  Y18  1  0.806737  0.189173  0.751189  1
  Y  Y19  1  0.690838  0.688810  0.499434  1
  Si  Si20  1  0.327562  0.688770  0.955553  1
  Si  Si21  1  0.666336  0.311073  0.457204  1
  Si  Si22  1  0.691033  0.330929  0.044553  1
  Si  Si23  1  0.311779  0.671897  0.542683  1
  Si  Si24  1  0.812613  0.827794  0.208878  1
  Si  Si25  1  0.173118  0.187971  0.292121  1
  Si  Si26  1  0.832747  0.811427  0.793158  1
  Si  Si27  1  0.285172  0.921630  0.062423  1
  Si  Si28  1  0.580346  0.783684  0.313684  1
  Si  Si29  1  0.434092  0.208627  0.816468  1
  Si  Si30  1  0.782862  0.581536  0.686577  1
  Si  Si31  1  0.214288  0.422536  0.186685  1
  Si  Si32  1  0.708970  0.076293  0.562089  1
  Si  Si33  1  0.920793  0.287004  0.937845  1
  Si  Si34  1  0.080142  0.715910  0.437099  1
  Pd  Pd35  1  0.185336  0.174130  0.703135  1
