# generated using pymatgen
data_Zn10Ni2Au
_symmetry_space_group_name_H-M   'P 1'
_cell_length_a   7.81707181
_cell_length_b   7.81707319
_cell_length_c   7.79874115
_cell_angle_alpha   70.71654545
_cell_angle_beta   70.71653867
_cell_angle_gamma   109.41296253
_symmetry_Int_Tables_number   1
_chemical_formula_structural   Zn10Ni2Au
_chemical_formula_sum   'Zn20 Ni4 Au2'
_cell_volume   368.80238788
_cell_formula_units_Z   2
loop_
 _symmetry_equiv_pos_site_id
 _symmetry_equiv_pos_as_xyz
  1  'x, y, z'
loop_
 _atom_site_type_symbol
 _atom_site_label
 _atom_site_symmetry_multiplicity
 _atom_site_fract_x
 _atom_site_fract_y
 _atom_site_fract_z
 _atom_site_occupancy
  Zn  Zn0  1  0.998208  0.998208  0.796653  1
  Zn  Zn1  1  0.786909  0.786909  0.213070  1
  Zn  Zn2  1  0.209250  0.000957  0.000274  1
  Zn  Zn3  1  0.000957  0.209250  0.000274  1
  Zn  Zn4  1  0.259753  0.259753  0.391763  1
  Zn  Zn5  1  0.000712  0.739406  0.649463  1
  Zn  Zn6  1  0.739406  0.000712  0.649463  1
  Zn  Zn7  1  0.651290  0.651290  0.616635  1
  Zn  Zn8  1  0.390292  0.648403  0.347757  1
  Zn  Zn9  1  0.648403  0.390292  0.347757  1
  Zn  Zn10  1  0.351163  0.738376  0.995487  1
  Zn  Zn11  1  0.605209  0.256239  0.742452  1
  Zn  Zn12  1  0.352273  0.003482  0.261882  1
  Zn  Zn13  1  0.738376  0.351163  0.995487  1
  Zn  Zn14  1  0.003482  0.352273  0.261882  1
  Zn  Zn15  1  0.256239  0.605209  0.742452  1
  Zn  Zn16  1  0.645868  0.645868  0.995708  1
  Zn  Zn17  1  0.003372  0.654762  0.346900  1
  Zn  Zn18  1  0.654762  0.003372  0.346900  1
  Zn  Zn19  1  0.355353  0.355353  0.003517  1
  Ni  Ni20  1  0.999396  0.999396  0.343116  1
  Ni  Ni21  1  0.353779  0.353779  0.658172  1
  Ni  Ni22  1  0.646278  0.989063  0.011605  1
  Ni  Ni23  1  0.989063  0.646278  0.011605  1
  Au  Au24  1  0.997740  0.362465  0.634864  1
  Au  Au25  1  0.362465  0.997740  0.634864  1
