# generated using pymatgen
data_Er12Mn2AlIn2
_symmetry_space_group_name_H-M   'P 1'
_cell_length_a   8.35737029
_cell_length_b   8.35737009
_cell_length_c   8.35736960
_cell_angle_alpha   109.76938739
_cell_angle_beta   109.76939617
_cell_angle_gamma   108.87651878
_symmetry_Int_Tables_number   1
_chemical_formula_structural   Er12Mn2AlIn2
_chemical_formula_sum   'Er12 Mn2 Al1 In2'
_cell_volume   449.31601829
_cell_formula_units_Z   1
loop_
 _symmetry_equiv_pos_site_id
 _symmetry_equiv_pos_as_xyz
  1  'x, y, z'
loop_
 _atom_site_type_symbol
 _atom_site_label
 _atom_site_symmetry_multiplicity
 _atom_site_fract_x
 _atom_site_fract_y
 _atom_site_fract_z
 _atom_site_occupancy
  Er  Er0  1  0.304244  0.304244  0.608489  1
  Er  Er1  1  0.695756  0.695756  0.391511  1
  Er  Er2  1  0.304244  0.695756  0.000000  1
  Er  Er3  1  0.695756  0.304244  0.000000  1
  Er  Er4  1  0.449648  0.205129  0.244520  1
  Er  Er5  1  0.550352  0.794871  0.755480  1
  Er  Er6  1  0.960609  0.205129  0.755480  1
  Er  Er7  1  0.205129  0.960609  0.755480  1
  Er  Er8  1  0.039391  0.794871  0.244520  1
  Er  Er9  1  0.794871  0.039391  0.244520  1
  Er  Er10  1  0.205129  0.449648  0.244520  1
  Er  Er11  1  0.794871  0.550352  0.755480  1
  Mn  Mn12  1  0.392066  0.392066  0.000000  1
  Mn  Mn13  1  0.607934  0.607934  0.000000  1
  Al  Al14  1  0.000000  0.000000  0.000000  1
  In  In15  1  0.500000  0.000000  0.500000  1
  In  In16  1  0.000000  0.500000  0.500000  1
