# generated using pymatgen
data_Lu5(TlBi)2
_symmetry_space_group_name_H-M   'P 1'
_cell_length_a   8.74050788
_cell_length_b   8.74050775
_cell_length_c   8.10351600
_cell_angle_alpha   90.00000000
_cell_angle_beta   90.00000000
_cell_angle_gamma   124.87722294
_symmetry_Int_Tables_number   1
_chemical_formula_structural   Lu5(TlBi)2
_chemical_formula_sum   'Lu10 Tl4 Bi4'
_cell_volume   507.88045081
_cell_formula_units_Z   2
loop_
 _symmetry_equiv_pos_site_id
 _symmetry_equiv_pos_as_xyz
  1  'x, y, z'
loop_
 _atom_site_type_symbol
 _atom_site_label
 _atom_site_symmetry_multiplicity
 _atom_site_fract_x
 _atom_site_fract_y
 _atom_site_fract_z
 _atom_site_occupancy
  Lu  Lu0  1  0.033975  0.297165  0.335311  1
  Lu  Lu1  1  0.966025  0.702835  0.664689  1
  Lu  Lu2  1  0.466025  0.202835  0.835311  1
  Lu  Lu3  1  0.797165  0.533975  0.164689  1
  Lu  Lu4  1  0.533975  0.797165  0.164689  1
  Lu  Lu5  1  0.202835  0.466025  0.835311  1
  Lu  Lu6  1  0.702835  0.966025  0.664689  1
  Lu  Lu7  1  0.297165  0.033975  0.335311  1
  Lu  Lu8  1  0.000000  0.000000  0.000000  1
  Lu  Lu9  1  0.500000  0.500000  0.500000  1
  Tl  Tl10  1  0.363244  0.363244  0.136139  1
  Tl  Tl11  1  0.636756  0.636756  0.863861  1
  Tl  Tl12  1  0.136756  0.136756  0.636139  1
  Tl  Tl13  1  0.863244  0.863244  0.363861  1
  Bi  Bi14  1  0.794052  0.205948  0.000000  1
  Bi  Bi15  1  0.205948  0.794052  0.000000  1
  Bi  Bi16  1  0.705948  0.294052  0.500000  1
  Bi  Bi17  1  0.294052  0.705948  0.500000  1
