# generated using pymatgen
data_ThUInRu2
_symmetry_space_group_name_H-M   'P 1'
_cell_length_a   7.96040400
_cell_length_b   7.63601300
_cell_length_c   3.60505600
_cell_angle_alpha   90.00000000
_cell_angle_beta   90.00000000
_cell_angle_gamma   90.00000000
_symmetry_Int_Tables_number   1
_chemical_formula_structural   ThUInRu2
_chemical_formula_sum   'Th2 U2 In2 Ru4'
_cell_volume   219.13602709
_cell_formula_units_Z   2
loop_
 _symmetry_equiv_pos_site_id
 _symmetry_equiv_pos_as_xyz
  1  'x, y, z'
loop_
 _atom_site_type_symbol
 _atom_site_label
 _atom_site_symmetry_multiplicity
 _atom_site_fract_x
 _atom_site_fract_y
 _atom_site_fract_z
 _atom_site_occupancy
  Th  Th0  1  0.334853  0.837650  0.500000  1
  Th  Th1  1  0.834853  0.662350  0.500000  1
  U  U2  1  0.180243  0.337351  0.500000  1
  U  U3  1  0.680243  0.162649  0.500000  1
  In  In4  1  0.006521  0.003008  0.000000  1
  In  In5  1  0.506521  0.496992  0.000000  1
  Ru  Ru6  1  0.340123  0.155726  0.000000  1
  Ru  Ru7  1  0.840123  0.344274  0.000000  1
  Ru  Ru8  1  0.138260  0.582492  0.000000  1
  Ru  Ru9  1  0.638260  0.917508  0.000000  1
