# generated using pymatgen
data_DyHo5Ni7B4Ir7
_symmetry_space_group_name_H-M   'P 1'
_cell_length_a   5.20479292
_cell_length_b   5.20479313
_cell_length_c   14.75696023
_cell_angle_alpha   89.04198900
_cell_angle_beta   90.95801040
_cell_angle_gamma   118.10286304
_symmetry_Int_Tables_number   1
_chemical_formula_structural   DyHo5Ni7B4Ir7
_chemical_formula_sum   'Dy1 Ho5 Ni7 B4 Ir7'
_cell_volume   352.56626107
_cell_formula_units_Z   1
loop_
 _symmetry_equiv_pos_site_id
 _symmetry_equiv_pos_as_xyz
  1  'x, y, z'
loop_
 _atom_site_type_symbol
 _atom_site_label
 _atom_site_symmetry_multiplicity
 _atom_site_fract_x
 _atom_site_fract_y
 _atom_site_fract_z
 _atom_site_occupancy
  Dy  Dy0  1  0.332157  0.667843  0.247138  1
  Ho  Ho1  1  0.332063  0.667937  0.465253  1
  Ho  Ho2  1  0.666229  0.333771  0.968280  1
  Ho  Ho3  1  0.667683  0.332317  0.536788  1
  Ho  Ho4  1  0.328547  0.671453  0.031060  1
  Ho  Ho5  1  0.667312  0.332688  0.753483  1
  Ni  Ni6  1  0.834163  0.673841  0.148051  1
  Ni  Ni7  1  0.326159  0.165837  0.148051  1
  Ni  Ni8  1  0.675459  0.833662  0.850013  1
  Ni  Ni9  1  0.166338  0.324541  0.850013  1
  Ni  Ni10  1  0.164696  0.835304  0.655228  1
  Ni  Ni11  1  0.168864  0.831136  0.849704  1
  Ni  Ni12  1  0.834977  0.165023  0.347044  1
  B  B13  1  0.665363  0.334637  0.245444  1
  B  B14  1  0.332143  0.667857  0.755954  1
  B  B15  1  0.002081  0.997919  0.755274  1
  B  B16  1  0.001133  0.998867  0.246040  1
  Ir  Ir17  1  0.833936  0.668056  0.348462  1
  Ir  Ir18  1  0.331944  0.166064  0.348462  1
  Ir  Ir19  1  0.004647  0.995353  0.996117  1
  Ir  Ir20  1  0.999878  0.000122  0.501151  1
  Ir  Ir21  1  0.830887  0.169113  0.144446  1
  Ir  Ir22  1  0.668193  0.834853  0.654270  1
  Ir  Ir23  1  0.165147  0.331807  0.654270  1
