# generated using pymatgen
data_KSb12PdRu3
_symmetry_space_group_name_H-M   'P 1'
_cell_length_a   8.18347941
_cell_length_b   8.18348014
_cell_length_c   8.18347820
_cell_angle_alpha   109.48681210
_cell_angle_beta   109.48682019
_cell_angle_gamma   109.48681618
_symmetry_Int_Tables_number   1
_chemical_formula_structural   KSb12PdRu3
_chemical_formula_sum   'K1 Sb12 Pd1 Ru3'
_cell_volume   421.63926432
_cell_formula_units_Z   1
loop_
 _symmetry_equiv_pos_site_id
 _symmetry_equiv_pos_as_xyz
  1  'x, y, z'
loop_
 _atom_site_type_symbol
 _atom_site_label
 _atom_site_symmetry_multiplicity
 _atom_site_fract_x
 _atom_site_fract_y
 _atom_site_fract_z
 _atom_site_occupancy
  K  K0  1  0.000000  0.000000  0.000000  1
  Sb  Sb1  1  0.658828  0.849494  0.498144  1
  Sb  Sb2  1  0.341172  0.150506  0.501856  1
  Sb  Sb3  1  0.840636  0.181104  0.340367  1
  Sb  Sb4  1  0.818896  0.659633  0.159364  1
  Sb  Sb5  1  0.849494  0.498144  0.658828  1
  Sb  Sb6  1  0.181104  0.340367  0.840636  1
  Sb  Sb7  1  0.159364  0.818896  0.659633  1
  Sb  Sb8  1  0.498144  0.658828  0.849494  1
  Sb  Sb9  1  0.501856  0.341172  0.150506  1
  Sb  Sb10  1  0.150506  0.501856  0.341172  1
  Sb  Sb11  1  0.340367  0.840636  0.181104  1
  Sb  Sb12  1  0.659633  0.159364  0.818896  1
  Pd  Pd13  1  0.500000  0.500000  0.500000  1
  Ru  Ru14  1  0.000000  0.000000  0.500000  1
  Ru  Ru15  1  0.500000  0.000000  0.000000  1
  Ru  Ru16  1  0.000000  0.500000  0.000000  1
