# generated using pymatgen
data_RbP2PdO7
_symmetry_space_group_name_H-M   'P 1'
_cell_length_a   5.71372562
_cell_length_b   5.71372972
_cell_length_c   5.93735317
_cell_angle_alpha   89.00492193
_cell_angle_beta   89.00506662
_cell_angle_gamma   100.53772572
_symmetry_Int_Tables_number   1
_chemical_formula_structural   RbP2PdO7
_chemical_formula_sum   'Rb1 P2 Pd1 O7'
_cell_volume   190.49546879
_cell_formula_units_Z   1
loop_
 _symmetry_equiv_pos_site_id
 _symmetry_equiv_pos_as_xyz
  1  'x, y, z'
loop_
 _atom_site_type_symbol
 _atom_site_label
 _atom_site_symmetry_multiplicity
 _atom_site_fract_x
 _atom_site_fract_y
 _atom_site_fract_z
 _atom_site_occupancy
  Rb  Rb0  1  0.177953  0.822047  0.500000  1
  P  P1  1  0.044890  0.338796  0.080495  1
  P  P2  1  0.661204  0.955112  0.919506  1
  Pd  Pd3  1  0.529399  0.470601  0.000000  1
  O  O4  1  0.925267  0.074731  0.999999  1
  O  O5  1  0.533690  0.806070  0.123718  1
  O  O6  1  0.844324  0.467572  0.157992  1
  O  O7  1  0.214638  0.307303  0.269138  1
  O  O8  1  0.692696  0.785361  0.730861  1
  O  O9  1  0.532428  0.155675  0.842009  1
  O  O10  1  0.193930  0.466311  0.876283  1
