# generated using pymatgen
data_Nd8Ho12Ga15Si
_symmetry_space_group_name_H-M   'P 1'
_cell_length_a   7.59669499
_cell_length_b   7.96080600
_cell_length_c   15.30293800
_cell_angle_alpha   90.00000000
_cell_angle_beta   90.00000000
_cell_angle_gamma   89.84630291
_symmetry_Int_Tables_number   1
_chemical_formula_structural   Nd8Ho12Ga15Si
_chemical_formula_sum   'Nd8 Ho12 Ga15 Si1'
_cell_volume   925.45431835
_cell_formula_units_Z   1
loop_
 _symmetry_equiv_pos_site_id
 _symmetry_equiv_pos_as_xyz
  1  'x, y, z'
loop_
 _atom_site_type_symbol
 _atom_site_label
 _atom_site_symmetry_multiplicity
 _atom_site_fract_x
 _atom_site_fract_y
 _atom_site_fract_z
 _atom_site_occupancy
  Nd  Nd0  1  0.978355  0.820166  0.094979  1
  Nd  Nd1  1  0.477986  0.679405  0.405739  1
  Nd  Nd2  1  0.521760  0.320194  0.906108  1
  Nd  Nd3  1  0.020612  0.176896  0.595829  1
  Nd  Nd4  1  0.020612  0.176896  0.904171  1
  Nd  Nd5  1  0.521760  0.320194  0.593892  1
  Nd  Nd6  1  0.477986  0.679405  0.094261  1
  Nd  Nd7  1  0.978355  0.820166  0.405021  1
  Ho  Ho8  1  0.655512  0.988450  0.250000  1
  Ho  Ho9  1  0.155810  0.512341  0.250000  1
  Ho  Ho10  1  0.845890  0.490389  0.750000  1
  Ho  Ho11  1  0.343180  0.011717  0.750000  1
  Ho  Ho12  1  0.681833  0.825892  0.877564  1
  Ho  Ho13  1  0.176927  0.678524  0.622351  1
  Ho  Ho14  1  0.820146  0.324870  0.120905  1
  Ho  Ho15  1  0.319600  0.174997  0.378659  1
  Ho  Ho16  1  0.319600  0.174997  0.121341  1
  Ho  Ho17  1  0.820146  0.324870  0.379095  1
  Ho  Ho18  1  0.176927  0.678524  0.877649  1
  Ho  Ho19  1  0.681833  0.825892  0.622436  1
  Ga  Ga20  1  0.766734  0.621773  0.250000  1
  Ga  Ga21  1  0.267365  0.878051  0.250000  1
  Ga  Ga22  1  0.734337  0.120513  0.750000  1
  Ga  Ga23  1  0.234258  0.377752  0.750000  1
  Ga  Ga24  1  0.024952  0.112670  0.250000  1
  Ga  Ga25  1  0.526114  0.387586  0.250000  1
  Ga  Ga26  1  0.474252  0.612917  0.750000  1
  Ga  Ga27  1  0.849768  0.531167  0.958051  1
  Ga  Ga28  1  0.349400  0.968266  0.541859  1
  Ga  Ga29  1  0.651141  0.030005  0.040753  1
  Ga  Ga30  1  0.151338  0.469182  0.459521  1
  Ga  Ga31  1  0.151338  0.469182  0.040479  1
  Ga  Ga32  1  0.651141  0.030005  0.459247  1
  Ga  Ga33  1  0.349400  0.968266  0.958141  1
  Ga  Ga34  1  0.849768  0.531167  0.541949  1
  Si  Si35  1  0.973865  0.886714  0.750000  1
