# generated using pymatgen
data_Ac9Nd11Si15Ru
_symmetry_space_group_name_H-M   'P 1'
_cell_length_a   8.10795719
_cell_length_b   8.10609513
_cell_length_c   15.56596600
_cell_angle_alpha   89.94367323
_cell_angle_beta   89.96901998
_cell_angle_gamma   89.95764496
_symmetry_Int_Tables_number   1
_chemical_formula_structural   Ac9Nd11Si15Ru
_chemical_formula_sum   'Ac9 Nd11 Si15 Ru1'
_cell_volume   1023.05463768
_cell_formula_units_Z   1
loop_
 _symmetry_equiv_pos_site_id
 _symmetry_equiv_pos_as_xyz
  1  'x, y, z'
loop_
 _atom_site_type_symbol
 _atom_site_label
 _atom_site_symmetry_multiplicity
 _atom_site_fract_x
 _atom_site_fract_y
 _atom_site_fract_z
 _atom_site_occupancy
  Ac  Ac0  1  0.303739  0.303558  0.998250  1
  Ac  Ac1  1  0.367247  0.015636  0.452116  1
  Ac  Ac2  1  0.476458  0.878398  0.699744  1
  Ac  Ac3  1  0.514195  0.128313  0.201391  1
  Ac  Ac4  1  0.869906  0.484303  0.298747  1
  Ac  Ac5  1  0.130441  0.508399  0.794975  1
  Ac  Ac6  1  0.631954  0.984849  0.949910  1
  Ac  Ac7  1  0.011947  0.367261  0.552690  1
  Ac  Ac8  1  0.984581  0.633303  0.048179  1
  Nd  Nd9  1  0.190787  0.812340  0.249979  1
  Nd  Nd10  1  0.824362  0.185322  0.750092  1
  Nd  Nd11  1  0.692756  0.684770  0.501733  1
  Nd  Nd12  1  0.133724  0.987108  0.871208  1
  Nd  Nd13  1  0.514478  0.631487  0.126931  1
  Nd  Nd14  1  0.478977  0.356811  0.628162  1
  Nd  Nd15  1  0.630035  0.514375  0.872894  1
  Nd  Nd16  1  0.372234  0.487628  0.373855  1
  Nd  Nd17  1  0.871830  0.015610  0.377503  1
  Nd  Nd18  1  0.984109  0.128029  0.125087  1
  Nd  Nd19  1  0.022527  0.878748  0.625100  1
  Si  Si20  1  0.338711  0.701251  0.949275  1
  Si  Si21  1  0.661301  0.300904  0.452776  1
  Si  Si22  1  0.702586  0.339516  0.050187  1
  Si  Si23  1  0.301829  0.662535  0.545847  1
  Si  Si24  1  0.804329  0.837093  0.204837  1
  Si  Si25  1  0.163036  0.199135  0.297180  1
  Si  Si26  1  0.835455  0.801210  0.797027  1
  Si  Si27  1  0.284873  0.915374  0.060726  1
  Si  Si28  1  0.579512  0.783619  0.311853  1
  Si  Si29  1  0.428955  0.217045  0.808973  1
  Si  Si30  1  0.778571  0.583114  0.689440  1
  Si  Si31  1  0.214758  0.426738  0.193539  1
  Si  Si32  1  0.709371  0.074329  0.559455  1
  Si  Si33  1  0.914686  0.285071  0.939705  1
  Si  Si34  1  0.078867  0.718819  0.440069  1
  Ru  Ru35  1  0.196871  0.167996  0.700567  1
