# generated using pymatgen
data_Li11Ag2
_symmetry_space_group_name_H-M   'P 1'
_cell_length_a   8.52427449
_cell_length_b   8.52427350
_cell_length_c   8.52427400
_cell_angle_alpha   109.47122420
_cell_angle_beta   109.47122185
_cell_angle_gamma   109.47121841
_symmetry_Int_Tables_number   1
_chemical_formula_structural   Li11Ag2
_chemical_formula_sum   'Li22 Ag4'
_cell_volume   476.81542670
_cell_formula_units_Z   2
loop_
 _symmetry_equiv_pos_site_id
 _symmetry_equiv_pos_as_xyz
  1  'x, y, z'
loop_
 _atom_site_type_symbol
 _atom_site_label
 _atom_site_symmetry_multiplicity
 _atom_site_fract_x
 _atom_site_fract_y
 _atom_site_fract_z
 _atom_site_occupancy
  Li  Li0  1  0.789329  0.000000  0.000000  1
  Li  Li1  1  0.650200  0.265703  0.000000  1
  Li  Li2  1  0.353019  0.353019  0.000000  1
  Li  Li3  1  0.646981  0.646981  0.000000  1
  Li  Li4  1  0.265703  0.650200  0.000000  1
  Li  Li5  1  0.000000  0.789329  0.000000  1
  Li  Li6  1  0.210670  0.210670  0.210670  1
  Li  Li7  1  0.650200  0.000000  0.265703  1
  Li  Li8  1  0.000000  0.650200  0.265703  1
  Li  Li9  1  0.349799  0.615503  0.349799  1
  Li  Li10  1  0.615503  0.349799  0.349799  1
  Li  Li11  1  0.353019  0.000000  0.353019  1
  Li  Li12  1  0.000000  0.353019  0.353019  1
  Li  Li13  1  0.734296  0.734296  0.384497  1
  Li  Li14  1  0.349799  0.349799  0.615503  1
  Li  Li15  1  0.646981  0.000000  0.646981  1
  Li  Li16  1  0.000000  0.646981  0.646981  1
  Li  Li17  1  0.265703  0.000000  0.650200  1
  Li  Li18  1  0.000000  0.265703  0.650200  1
  Li  Li19  1  0.734296  0.384497  0.734296  1
  Li  Li20  1  0.384497  0.734296  0.734296  1
  Li  Li21  1  0.000000  0.000000  0.789329  1
  Ag  Ag22  1  0.341009  0.000000  0.000000  1
  Ag  Ag23  1  0.000000  0.341009  0.000000  1
  Ag  Ag24  1  0.000000  0.000000  0.341009  1
  Ag  Ag25  1  0.658990  0.658990  0.658990  1
