# generated using pymatgen
data_Tb3Dy2Si2Ir
_symmetry_space_group_name_H-M   'P 1'
_cell_length_a   7.55272600
_cell_length_b   8.76414300
_cell_length_c   11.95233500
_cell_angle_alpha   90.00000000
_cell_angle_beta   90.00000000
_cell_angle_gamma   90.00000000
_symmetry_Int_Tables_number   1
_chemical_formula_structural   Tb3Dy2Si2Ir
_chemical_formula_sum   'Tb12 Dy8 Si8 Ir4'
_cell_volume   791.16295096
_cell_formula_units_Z   4
loop_
 _symmetry_equiv_pos_site_id
 _symmetry_equiv_pos_as_xyz
  1  'x, y, z'
loop_
 _atom_site_type_symbol
 _atom_site_label
 _atom_site_symmetry_multiplicity
 _atom_site_fract_x
 _atom_site_fract_y
 _atom_site_fract_z
 _atom_site_occupancy
  Tb  Tb0  1  0.671667  0.750000  0.719931  1
  Tb  Tb1  1  0.328333  0.250000  0.280069  1
  Tb  Tb2  1  0.171667  0.250000  0.780069  1
  Tb  Tb3  1  0.828333  0.750000  0.219931  1
  Tb  Tb4  1  0.147777  0.750000  0.796497  1
  Tb  Tb5  1  0.852223  0.250000  0.203503  1
  Tb  Tb6  1  0.647777  0.250000  0.703503  1
  Tb  Tb7  1  0.352223  0.750000  0.296497  1
  Tb  Tb8  1  0.535667  0.750000  0.997829  1
  Tb  Tb9  1  0.464333  0.250000  0.002171  1
  Tb  Tb10  1  0.035667  0.250000  0.502171  1
  Tb  Tb11  1  0.964333  0.750000  0.497829  1
  Dy  Dy12  1  0.817952  0.466489  0.922484  1
  Dy  Dy13  1  0.182048  0.533511  0.077516  1
  Dy  Dy14  1  0.317952  0.533511  0.577516  1
  Dy  Dy15  1  0.182048  0.966489  0.077516  1
  Dy  Dy16  1  0.682048  0.466489  0.422484  1
  Dy  Dy17  1  0.817952  0.033511  0.922484  1
  Dy  Dy18  1  0.682048  0.033511  0.422484  1
  Dy  Dy19  1  0.317952  0.966489  0.577516  1
  Si  Si20  1  0.940259  0.004000  0.669592  1
  Si  Si21  1  0.059741  0.996000  0.330408  1
  Si  Si22  1  0.440259  0.996000  0.830408  1
  Si  Si23  1  0.059741  0.504000  0.330408  1
  Si  Si24  1  0.559741  0.004000  0.169592  1
  Si  Si25  1  0.940259  0.496000  0.669592  1
  Si  Si26  1  0.559741  0.496000  0.169592  1
  Si  Si27  1  0.440259  0.504000  0.830408  1
  Ir  Ir28  1  0.930265  0.750000  0.989658  1
  Ir  Ir29  1  0.069735  0.250000  0.010342  1
  Ir  Ir30  1  0.430265  0.250000  0.510342  1
  Ir  Ir31  1  0.569735  0.750000  0.489658  1
