# generated using pymatgen
data_Sr4Mg2Co7Si8Ir
_symmetry_space_group_name_H-M   'P 1'
_cell_length_a   6.20670821
_cell_length_b   6.14900910
_cell_length_c   10.88727400
_cell_angle_alpha   90.00000000
_cell_angle_beta   90.00000000
_cell_angle_gamma   112.33875901
_symmetry_Int_Tables_number   1
_chemical_formula_structural   Sr4Mg2Co7Si8Ir
_chemical_formula_sum   'Sr4 Mg2 Co7 Si8 Ir1'
_cell_volume   384.33080566
_cell_formula_units_Z   1
loop_
 _symmetry_equiv_pos_site_id
 _symmetry_equiv_pos_as_xyz
  1  'x, y, z'
loop_
 _atom_site_type_symbol
 _atom_site_label
 _atom_site_symmetry_multiplicity
 _atom_site_fract_x
 _atom_site_fract_y
 _atom_site_fract_z
 _atom_site_occupancy
  Sr  Sr0  1  0.204990  0.796563  0.502055  1
  Sr  Sr1  1  0.204990  0.796563  0.997945  1
  Sr  Sr2  1  0.800000  0.205345  0.499870  1
  Sr  Sr3  1  0.800000  0.205345  0.000130  1
  Mg  Mg4  1  0.024818  0.015753  0.250000  1
  Mg  Mg5  1  0.974201  0.974424  0.750000  1
  Co  Co6  1  0.502622  0.253984  0.250000  1
  Co  Co7  1  0.746063  0.493184  0.750000  1
  Co  Co8  1  0.492816  0.743779  0.750000  1
  Co  Co9  1  0.667368  0.673758  0.369165  1
  Co  Co10  1  0.332456  0.330961  0.634502  1
  Co  Co11  1  0.667368  0.673758  0.130835  1
  Co  Co12  1  0.332456  0.330961  0.865498  1
  Si  Si13  1  0.531332  0.906077  0.250000  1
  Si  Si14  1  0.103993  0.477418  0.750000  1
  Si  Si15  1  0.480882  0.104348  0.750000  1
  Si  Si16  1  0.875782  0.519081  0.250000  1
  Si  Si17  1  0.354448  0.344143  0.429522  1
  Si  Si18  1  0.653213  0.651469  0.575505  1
  Si  Si19  1  0.354448  0.344143  0.070478  1
  Si  Si20  1  0.653213  0.651469  0.924495  1
  Ir  Ir21  1  0.242542  0.507474  0.250000  1
