# generated using pymatgen
data_TbYCo9Mo3As7
_symmetry_space_group_name_H-M   'P 1'
_cell_length_a   3.85616500
_cell_length_b   9.40969929
_cell_length_c   9.40970000
_cell_angle_alpha   119.99999546
_cell_angle_beta   90.00000000
_cell_angle_gamma   90.00000000
_symmetry_Int_Tables_number   1
_chemical_formula_structural   TbYCo9Mo3As7
_chemical_formula_sum   'Tb1 Y1 Co9 Mo3 As7'
_cell_volume   295.69077955
_cell_formula_units_Z   1
loop_
 _symmetry_equiv_pos_site_id
 _symmetry_equiv_pos_as_xyz
  1  'x, y, z'
loop_
 _atom_site_type_symbol
 _atom_site_label
 _atom_site_symmetry_multiplicity
 _atom_site_fract_x
 _atom_site_fract_y
 _atom_site_fract_z
 _atom_site_occupancy
  Tb  Tb0  1  0.500000  0.333333  0.666667  1
  Y  Y1  1  0.000000  0.666667  0.333333  1
  Co  Co2  1  0.000000  0.570046  0.940750  1
  Co  Co3  1  0.000000  0.370703  0.429954  1
  Co  Co4  1  0.000000  0.059250  0.629297  1
  Co  Co5  1  0.000000  0.876369  0.158242  1
  Co  Co6  1  0.000000  0.281873  0.123631  1
  Co  Co7  1  0.000000  0.841758  0.718127  1
  Co  Co8  1  0.500000  0.949547  0.382907  1
  Co  Co9  1  0.500000  0.433359  0.050453  1
  Co  Co10  1  0.500000  0.617093  0.566641  1
  Mo  Mo11  1  0.500000  0.781316  0.902280  1
  Mo  Mo12  1  0.500000  0.120964  0.218684  1
  Mo  Mo13  1  0.500000  0.097720  0.879036  1
  As  As14  1  0.000000  0.000000  0.000000  1
  As  As15  1  0.500000  0.707688  0.119779  1
  As  As16  1  0.500000  0.412093  0.292312  1
  As  As17  1  0.500000  0.880221  0.587907  1
  As  As18  1  0.000000  0.586057  0.699587  1
  As  As19  1  0.000000  0.113531  0.413943  1
  As  As20  1  0.000000  0.300413  0.886469  1
