# generated using pymatgen
data_La5Nd11Cd3Hg(OsPd)2
_symmetry_space_group_name_H-M   'P 1'
_cell_length_a   10.00612123
_cell_length_b   10.03693677
_cell_length_c   10.14524694
_cell_angle_alpha   59.57359395
_cell_angle_beta   59.72715223
_cell_angle_gamma   59.65338500
_symmetry_Int_Tables_number   1
_chemical_formula_structural   La5Nd11Cd3Hg(OsPd)2
_chemical_formula_sum   'La5 Nd11 Cd3 Hg1 Os2 Pd2'
_cell_volume   714.75815861
_cell_formula_units_Z   1
loop_
 _symmetry_equiv_pos_site_id
 _symmetry_equiv_pos_as_xyz
  1  'x, y, z'
loop_
 _atom_site_type_symbol
 _atom_site_label
 _atom_site_symmetry_multiplicity
 _atom_site_fract_x
 _atom_site_fract_y
 _atom_site_fract_z
 _atom_site_occupancy
  La  La0  1  0.346590  0.347496  0.356712  1
  La  La1  1  0.349253  0.349113  0.945165  1
  La  La2  1  0.343690  0.955716  0.349637  1
  La  La3  1  0.955247  0.344745  0.350999  1
  La  La4  1  0.820153  0.187242  0.188896  1
  Nd  Nd5  1  0.187272  0.815828  0.803776  1
  Nd  Nd6  1  0.189816  0.814857  0.190170  1
  Nd  Nd7  1  0.815355  0.187379  0.802663  1
  Nd  Nd8  1  0.189368  0.188040  0.810178  1
  Nd  Nd9  1  0.805352  0.804215  0.193870  1
  Nd  Nd10  1  0.936244  0.556422  0.567688  1
  Nd  Nd11  1  0.556450  0.936713  0.939002  1
  Nd  Nd12  1  0.555978  0.935955  0.568055  1
  Nd  Nd13  1  0.937493  0.557339  0.938764  1
  Nd  Nd14  1  0.562763  0.563860  0.937011  1
  Nd  Nd15  1  0.937867  0.936731  0.562193  1
  Cd  Cd16  1  0.579391  0.581066  0.258611  1
  Cd  Cd17  1  0.580279  0.257390  0.581228  1
  Cd  Cd18  1  0.257337  0.580874  0.580206  1
  Hg  Hg19  1  0.583665  0.583804  0.584565  1
  Os  Os20  1  0.140768  0.146072  0.138725  1
  Os  Os21  1  0.146724  0.146696  0.572365  1
  Pd  Pd22  1  0.147332  0.575052  0.139525  1
  Pd  Pd23  1  0.575612  0.147395  0.139992  1
