# generated using pymatgen
data_Tb2Er2ReB12Ir
_symmetry_space_group_name_H-M   'P 1'
_cell_length_a   3.66442800
_cell_length_b   9.14350204
_cell_length_c   11.54439307
_cell_angle_alpha   90.30527250
_cell_angle_beta   90.00000000
_cell_angle_gamma   90.00000000
_symmetry_Int_Tables_number   1
_chemical_formula_structural   Tb2Er2ReB12Ir
_chemical_formula_sum   'Tb4 Er4 Re2 B24 Ir2'
_cell_volume   386.79753688
_cell_formula_units_Z   2
loop_
 _symmetry_equiv_pos_site_id
 _symmetry_equiv_pos_as_xyz
  1  'x, y, z'
loop_
 _atom_site_type_symbol
 _atom_site_label
 _atom_site_symmetry_multiplicity
 _atom_site_fract_x
 _atom_site_fract_y
 _atom_site_fract_z
 _atom_site_occupancy
  Tb  Tb0  1  0.000000  0.317357  0.410088  1
  Tb  Tb1  1  0.000000  0.682643  0.589912  1
  Tb  Tb2  1  0.000000  0.826103  0.082663  1
  Tb  Tb3  1  0.000000  0.173897  0.917337  1
  Er  Er4  1  0.000000  0.946120  0.372323  1
  Er  Er5  1  0.000000  0.053880  0.627677  1
  Er  Er6  1  0.000000  0.441608  0.125880  1
  Er  Er7  1  0.000000  0.558392  0.874120  1
  Re  Re8  1  0.000000  0.138428  0.180238  1
  Re  Re9  1  0.000000  0.861572  0.819762  1
  B  B10  1  0.500000  0.554375  0.433586  1
  B  B11  1  0.500000  0.445625  0.566414  1
  B  B12  1  0.500000  0.053487  0.067660  1
  B  B13  1  0.500000  0.946513  0.932340  1
  B  B14  1  0.500000  0.749921  0.420819  1
  B  B15  1  0.500000  0.250079  0.579181  1
  B  B16  1  0.500000  0.248346  0.081125  1
  B  B17  1  0.500000  0.751654  0.918875  1
  B  B18  1  0.500000  0.790931  0.266301  1
  B  B19  1  0.500000  0.209069  0.733699  1
  B  B20  1  0.500000  0.292206  0.234137  1
  B  B21  1  0.500000  0.707794  0.765863  1
  B  B22  1  0.500000  0.631115  0.184003  1
  B  B23  1  0.500000  0.368885  0.815997  1
  B  B24  1  0.500000  0.131197  0.314869  1
  B  B25  1  0.500000  0.868803  0.685131  1
  B  B26  1  0.500000  0.982840  0.213572  1
  B  B27  1  0.500000  0.017160  0.786428  1
  B  B28  1  0.500000  0.482524  0.286887  1
  B  B29  1  0.500000  0.517476  0.713113  1
  B  B30  1  0.500000  0.605057  0.029502  1
  B  B31  1  0.500000  0.394943  0.970498  1
  B  B32  1  0.500000  0.106006  0.471301  1
  B  B33  1  0.500000  0.893994  0.528699  1
  Ir  Ir34  1  0.000000  0.636808  0.321920  1
  Ir  Ir35  1  0.000000  0.363192  0.678080  1
