# generated using pymatgen
data_SmHo4(CoO6)2
_symmetry_space_group_name_H-M   'P 1'
_cell_length_a   6.77052901
_cell_length_b   6.77052968
_cell_length_c   7.21284979
_cell_angle_alpha   74.59830196
_cell_angle_beta   74.59830079
_cell_angle_gamma   50.32026332
_symmetry_Int_Tables_number   1
_chemical_formula_structural   SmHo4(CoO6)2
_chemical_formula_sum   'Sm1 Ho4 Co2 O12'
_cell_volume   243.26602502
_cell_formula_units_Z   1
loop_
 _symmetry_equiv_pos_site_id
 _symmetry_equiv_pos_as_xyz
  1  'x, y, z'
loop_
 _atom_site_type_symbol
 _atom_site_label
 _atom_site_symmetry_multiplicity
 _atom_site_fract_x
 _atom_site_fract_y
 _atom_site_fract_z
 _atom_site_occupancy
  Sm  Sm0  1  0.000000  0.000000  0.500000  1
  Ho  Ho1  1  0.306248  0.306248  0.355657  1
  Ho  Ho2  1  0.693752  0.693752  0.644343  1
  Ho  Ho3  1  0.306633  0.306633  0.836609  1
  Ho  Ho4  1  0.693367  0.693367  0.163391  1
  Co  Co5  1  0.755501  0.244499  0.000000  1
  Co  Co6  1  0.244499  0.755501  0.000000  1
  O  O7  1  0.900000  0.417557  0.922196  1
  O  O8  1  0.417557  0.900000  0.922196  1
  O  O9  1  0.100000  0.582443  0.077804  1
  O  O10  1  0.582443  0.100000  0.077804  1
  O  O11  1  0.096145  0.591012  0.579561  1
  O  O12  1  0.591012  0.096145  0.579561  1
  O  O13  1  0.903855  0.408988  0.420439  1
  O  O14  1  0.408988  0.903855  0.420439  1
  O  O15  1  0.000697  0.000697  0.831085  1
  O  O16  1  0.999303  0.999303  0.168915  1
  O  O17  1  0.499930  0.499930  0.824201  1
  O  O18  1  0.500070  0.500070  0.175799  1
