# generated using pymatgen
data_Tb6Y14Ir11Ru
_symmetry_space_group_name_H-M   'P 1'
_cell_length_a   10.92368063
_cell_length_b   10.92342600
_cell_length_c   6.42014637
_cell_angle_alpha   90.00136946
_cell_angle_beta   89.96118261
_cell_angle_gamma   90.00237104
_symmetry_Int_Tables_number   1
_chemical_formula_structural   Tb6Y14Ir11Ru
_chemical_formula_sum   'Tb6 Y14 Ir11 Ru1'
_cell_volume   766.07747798
_cell_formula_units_Z   1
loop_
 _symmetry_equiv_pos_site_id
 _symmetry_equiv_pos_as_xyz
  1  'x, y, z'
loop_
 _atom_site_type_symbol
 _atom_site_label
 _atom_site_symmetry_multiplicity
 _atom_site_fract_x
 _atom_site_fract_y
 _atom_site_fract_z
 _atom_site_occupancy
  Tb  Tb0  1  0.292635  0.087364  0.377810  1
  Tb  Tb1  1  0.293041  0.912492  0.880665  1
  Tb  Tb2  1  0.999844  0.999923  0.498929  1
  Tb  Tb3  1  0.999815  0.000065  0.998877  1
  Tb  Tb4  1  0.500047  0.499945  0.999044  1
  Tb  Tb5  1  0.500054  0.500052  0.499086  1
  Y  Y6  1  0.707048  0.087376  0.880663  1
  Y  Y7  1  0.707496  0.912735  0.377890  1
  Y  Y8  1  0.587657  0.792933  0.880555  1
  Y  Y9  1  0.587531  0.207527  0.377809  1
  Y  Y10  1  0.412846  0.792272  0.377816  1
  Y  Y11  1  0.412726  0.207285  0.880565  1
  Y  Y12  1  0.208778  0.411494  0.621372  1
  Y  Y13  1  0.208763  0.588325  0.121041  1
  Y  Y14  1  0.791273  0.411626  0.120858  1
  Y  Y15  1  0.791283  0.588543  0.621185  1
  Y  Y16  1  0.911573  0.708781  0.120884  1
  Y  Y17  1  0.911385  0.291224  0.621217  1
  Y  Y18  1  0.088502  0.708803  0.621011  1
  Y  Y19  1  0.088308  0.291200  0.120603  1
  Ir  Ir20  1  0.847436  0.153472  0.249936  1
  Ir  Ir21  1  0.847452  0.846967  0.749718  1
  Ir  Ir22  1  0.152906  0.152929  0.749346  1
  Ir  Ir23  1  0.152944  0.846639  0.249557  1
  Ir  Ir24  1  0.652969  0.347394  0.749659  1
  Ir  Ir25  1  0.653413  0.652630  0.249832  1
  Ir  Ir26  1  0.346564  0.347155  0.250013  1
  Ir  Ir27  1  0.347018  0.652824  0.749843  1
  Ir  Ir28  1  0.499474  0.000057  0.625195  1
  Ir  Ir29  1  0.999990  0.499993  0.876183  1
  Ir  Ir30  1  0.999988  0.500012  0.376362  1
  Ru  Ru31  1  0.499239  0.999961  0.126474  1
