# generated using pymatgen
data_YbY4Ho3(SiPd)8
_symmetry_space_group_name_H-M   'P 1'
_cell_length_a   4.31962700
_cell_length_b   7.51130921
_cell_length_c   13.94022239
_cell_angle_alpha   89.97280139
_cell_angle_beta   90.00000000
_cell_angle_gamma   90.00000000
_symmetry_Int_Tables_number   1
_chemical_formula_structural   YbY4Ho3(SiPd)8
_chemical_formula_sum   'Yb1 Y4 Ho3 Si8 Pd8'
_cell_volume   452.30515862
_cell_formula_units_Z   1
loop_
 _symmetry_equiv_pos_site_id
 _symmetry_equiv_pos_as_xyz
  1  'x, y, z'
loop_
 _atom_site_type_symbol
 _atom_site_label
 _atom_site_symmetry_multiplicity
 _atom_site_fract_x
 _atom_site_fract_y
 _atom_site_fract_z
 _atom_site_occupancy
  Yb  Yb0  1  0.500000  0.792632  0.748606  1
  Y  Y1  1  0.500000  0.707750  0.998628  1
  Y  Y2  1  0.000000  0.292366  0.500357  1
  Y  Y3  1  0.500000  0.700002  0.501144  1
  Y  Y4  1  0.000000  0.300144  0.999947  1
  Ho  Ho5  1  0.000000  0.207232  0.751252  1
  Ho  Ho6  1  0.500000  0.790623  0.250456  1
  Ho  Ho7  1  0.000000  0.209563  0.249208  1
  Si  Si8  1  0.500000  0.405878  0.645649  1
  Si  Si9  1  0.000000  0.591968  0.857300  1
  Si  Si10  1  0.500000  0.407311  0.355299  1
  Si  Si11  1  0.000000  0.592801  0.144300  1
  Si  Si12  1  0.500000  0.092232  0.093377  1
  Si  Si13  1  0.000000  0.908353  0.406152  1
  Si  Si14  1  0.500000  0.091079  0.907820  1
  Si  Si15  1  0.000000  0.910330  0.591111  1
  Pd  Pd16  1  0.500000  0.077613  0.607901  1
  Pd  Pd17  1  0.000000  0.922686  0.891711  1
  Pd  Pd18  1  0.500000  0.076188  0.390749  1
  Pd  Pd19  1  0.000000  0.924057  0.109093  1
  Pd  Pd20  1  0.500000  0.420406  0.158359  1
  Pd  Pd21  1  0.000000  0.580257  0.342701  1
  Pd  Pd22  1  0.500000  0.419330  0.841459  1
  Pd  Pd23  1  0.000000  0.579199  0.657422  1
