# generated using pymatgen
data_Th3Zn3CoIr2
_symmetry_space_group_name_H-M   'P 1'
_cell_length_a   7.28136400
_cell_length_b   7.28136346
_cell_length_c   3.98182400
_cell_angle_alpha   90.00000000
_cell_angle_beta   90.00000000
_cell_angle_gamma   120.00001153
_symmetry_Int_Tables_number   1
_chemical_formula_structural   Th3Zn3CoIr2
_chemical_formula_sum   'Th3 Zn3 Co1 Ir2'
_cell_volume   182.82605727
_cell_formula_units_Z   1
loop_
 _symmetry_equiv_pos_site_id
 _symmetry_equiv_pos_as_xyz
  1  'x, y, z'
loop_
 _atom_site_type_symbol
 _atom_site_label
 _atom_site_symmetry_multiplicity
 _atom_site_fract_x
 _atom_site_fract_y
 _atom_site_fract_z
 _atom_site_occupancy
  Th  Th0  1  0.405802  0.405802  0.500000  1
  Th  Th1  1  0.594198  0.000000  0.500000  1
  Th  Th2  1  0.000000  0.594198  0.500000  1
  Zn  Zn3  1  0.772658  0.772658  0.000000  1
  Zn  Zn4  1  0.227342  0.000000  0.000000  1
  Zn  Zn5  1  0.000000  0.227342  0.000000  1
  Co  Co6  1  0.000000  0.000000  0.500000  1
  Ir  Ir7  1  0.666667  0.333333  0.000000  1
  Ir  Ir8  1  0.333333  0.666667  0.000000  1
