# generated using pymatgen
data_Tb5Ho15(CoSb2)4
_symmetry_space_group_name_H-M   'P 1'
_cell_length_a   7.88092225
_cell_length_b   8.74242122
_cell_length_c   12.15079736
_cell_angle_alpha   90.01736554
_cell_angle_beta   89.97789975
_cell_angle_gamma   90.01865175
_symmetry_Int_Tables_number   1
_chemical_formula_structural   Tb5Ho15(CoSb2)4
_chemical_formula_sum   'Tb5 Ho15 Co4 Sb8'
_cell_volume   837.16964606
_cell_formula_units_Z   1
loop_
 _symmetry_equiv_pos_site_id
 _symmetry_equiv_pos_as_xyz
  1  'x, y, z'
loop_
 _atom_site_type_symbol
 _atom_site_label
 _atom_site_symmetry_multiplicity
 _atom_site_fract_x
 _atom_site_fract_y
 _atom_site_fract_z
 _atom_site_occupancy
  Tb  Tb0  1  0.622056  0.750261  0.305862  1
  Tb  Tb1  1  0.121689  0.250092  0.193780  1
  Tb  Tb2  1  0.378602  0.249646  0.694148  1
  Tb  Tb3  1  0.878219  0.750001  0.806101  1
  Tb  Tb4  1  0.320612  0.464287  0.435057  1
  Ho  Ho5  1  0.154831  0.750057  0.203089  1
  Ho  Ho6  1  0.655111  0.249790  0.296734  1
  Ho  Ho7  1  0.845125  0.249977  0.796854  1
  Ho  Ho8  1  0.345128  0.750138  0.703244  1
  Ho  Ho9  1  0.453069  0.750044  0.997843  1
  Ho  Ho10  1  0.952459  0.249785  0.502141  1
  Ho  Ho11  1  0.547064  0.249945  0.002094  1
  Ho  Ho12  1  0.046353  0.750309  0.497937  1
  Ho  Ho13  1  0.821986  0.964068  0.064987  1
  Ho  Ho14  1  0.322088  0.035809  0.435109  1
  Ho  Ho15  1  0.177994  0.463900  0.934999  1
  Ho  Ho16  1  0.678194  0.536191  0.565141  1
  Ho  Ho17  1  0.177997  0.036074  0.934956  1
  Ho  Ho18  1  0.677932  0.963681  0.565124  1
  Ho  Ho19  1  0.821951  0.535909  0.064948  1
  Co  Co20  1  0.433013  0.750312  0.490403  1
  Co  Co21  1  0.932592  0.249987  0.009557  1
  Co  Co22  1  0.568587  0.249461  0.509909  1
  Co  Co23  1  0.067410  0.750006  0.990394  1
  Sb  Sb24  1  0.928712  0.991563  0.327396  1
  Sb  Sb25  1  0.428565  0.008478  0.172494  1
  Sb  Sb26  1  0.071608  0.491559  0.672519  1
  Sb  Sb27  1  0.571451  0.508500  0.827522  1
  Sb  Sb28  1  0.071458  0.008473  0.672542  1
  Sb  Sb29  1  0.571549  0.991480  0.827628  1
  Sb  Sb30  1  0.927825  0.508621  0.327279  1
  Sb  Sb31  1  0.428768  0.491596  0.172208  1
