# generated using pymatgen
data_CsHo2TmSe5
_symmetry_space_group_name_H-M   'P 1'
_cell_length_a   4.12757500
_cell_length_b   12.43406400
_cell_length_c   22.14554300
_cell_angle_alpha   90.00000000
_cell_angle_beta   90.00000259
_cell_angle_gamma   90.00000000
_symmetry_Int_Tables_number   1
_chemical_formula_structural   CsHo2TmSe5
_chemical_formula_sum   'Cs4 Ho8 Tm4 Se20'
_cell_volume   1136.56533296
_cell_formula_units_Z   4
loop_
 _symmetry_equiv_pos_site_id
 _symmetry_equiv_pos_as_xyz
  1  'x, y, z'
loop_
 _atom_site_type_symbol
 _atom_site_label
 _atom_site_symmetry_multiplicity
 _atom_site_fract_x
 _atom_site_fract_y
 _atom_site_fract_z
 _atom_site_occupancy
  Cs  Cs0  1  0.249998  0.853678  0.092135  1
  Cs  Cs1  1  0.750002  0.146322  0.907865  1
  Cs  Cs2  1  0.750002  0.353678  0.407865  1
  Cs  Cs3  1  0.249998  0.646322  0.592135  1
  Ho  Ho4  1  0.749995  0.796994  0.825386  1
  Ho  Ho5  1  0.250005  0.203006  0.174614  1
  Ho  Ho6  1  0.250005  0.296994  0.674614  1
  Ho  Ho7  1  0.749995  0.703006  0.325386  1
  Ho  Ho8  1  0.250004  0.957236  0.697856  1
  Ho  Ho9  1  0.749996  0.042764  0.302144  1
  Ho  Ho10  1  0.749996  0.457236  0.802144  1
  Ho  Ho11  1  0.250004  0.542764  0.197856  1
  Tm  Tm12  1  0.750000  0.391954  0.054024  1
  Tm  Tm13  1  0.250000  0.608046  0.945976  1
  Tm  Tm14  1  0.250000  0.891954  0.445976  1
  Tm  Tm15  1  0.750000  0.108046  0.554024  1
  Se  Se16  1  0.250001  0.949140  0.568398  1
  Se  Se17  1  0.749999  0.050860  0.431602  1
  Se  Se18  1  0.749999  0.449140  0.931602  1
  Se  Se19  1  0.250001  0.550860  0.068398  1
  Se  Se20  1  0.750000  0.763109  0.952391  1
  Se  Se21  1  0.250000  0.236891  0.047609  1
  Se  Se22  1  0.250000  0.263109  0.547609  1
  Se  Se23  1  0.750000  0.736891  0.452391  1
  Se  Se24  1  0.250001  0.949485  0.825496  1
  Se  Se25  1  0.749999  0.050515  0.174504  1
  Se  Se26  1  0.749999  0.449485  0.674504  1
  Se  Se27  1  0.250001  0.550515  0.325496  1
  Se  Se28  1  0.750000  0.126082  0.684237  1
  Se  Se29  1  0.250000  0.873918  0.315763  1
  Se  Se30  1  0.250000  0.626082  0.815763  1
  Se  Se31  1  0.750000  0.373918  0.184237  1
  Se  Se32  1  0.750000  0.693834  0.197678  1
  Se  Se33  1  0.250000  0.306166  0.802322  1
  Se  Se34  1  0.250000  0.193834  0.302322  1
  Se  Se35  1  0.750000  0.806166  0.697678  1
