# generated using pymatgen
data_Tb3Er(GaRu)4
_symmetry_space_group_name_H-M   'P 1'
_cell_length_a   4.33777600
_cell_length_b   6.96260039
_cell_length_c   7.63515282
_cell_angle_alpha   89.93765217
_cell_angle_beta   90.00000000
_cell_angle_gamma   90.00000000
_symmetry_Int_Tables_number   1
_chemical_formula_structural   Tb3Er(GaRu)4
_chemical_formula_sum   'Tb3 Er1 Ga4 Ru4'
_cell_volume   230.59828254
_cell_formula_units_Z   1
loop_
 _symmetry_equiv_pos_site_id
 _symmetry_equiv_pos_as_xyz
  1  'x, y, z'
loop_
 _atom_site_type_symbol
 _atom_site_label
 _atom_site_symmetry_multiplicity
 _atom_site_fract_x
 _atom_site_fract_y
 _atom_site_fract_z
 _atom_site_occupancy
  Tb  Tb0  1  0.250000  0.513921  0.693360  1
  Tb  Tb1  1  0.750000  0.986459  0.190666  1
  Tb  Tb2  1  0.750000  0.486034  0.307237  1
  Er  Er3  1  0.250000  0.014303  0.807579  1
  Ga  Ga4  1  0.250000  0.173285  0.420326  1
  Ga  Ga5  1  0.250000  0.674085  0.080172  1
  Ga  Ga6  1  0.750000  0.827644  0.581127  1
  Ga  Ga7  1  0.750000  0.325685  0.919298  1
  Ru  Ru8  1  0.250000  0.791190  0.403796  1
  Ru  Ru9  1  0.250000  0.287216  0.095470  1
  Ru  Ru10  1  0.750000  0.207592  0.597994  1
  Ru  Ru11  1  0.750000  0.712587  0.902974  1
