# generated using pymatgen
data_PrSmAl20FeRh3
_symmetry_space_group_name_H-M   'P 1'
_cell_length_a   6.86382197
_cell_length_b   6.86458319
_cell_length_c   9.17211102
_cell_angle_alpha   89.94367736
_cell_angle_beta   90.13019296
_cell_angle_gamma   97.43295292
_symmetry_Int_Tables_number   1
_chemical_formula_structural   PrSmAl20FeRh3
_chemical_formula_sum   'Pr1 Sm1 Al20 Fe1 Rh3'
_cell_volume   428.53217002
_cell_formula_units_Z   1
loop_
 _symmetry_equiv_pos_site_id
 _symmetry_equiv_pos_as_xyz
  1  'x, y, z'
loop_
 _atom_site_type_symbol
 _atom_site_label
 _atom_site_symmetry_multiplicity
 _atom_site_fract_x
 _atom_site_fract_y
 _atom_site_fract_z
 _atom_site_occupancy
  Pr  Pr0  1  0.125329  0.872716  0.248868  1
  Sm  Sm1  1  0.873989  0.128276  0.751192  1
  Al  Al2  1  0.622364  0.378744  0.550348  1
  Al  Al3  1  0.378141  0.620779  0.450230  1
  Al  Al4  1  0.372731  0.618862  0.046828  1
  Al  Al5  1  0.627735  0.380599  0.952560  1
  Al  Al6  1  0.223667  0.225008  0.499529  1
  Al  Al7  1  0.776064  0.775285  0.501603  1
  Al  Al8  1  0.779859  0.771772  0.001388  1
  Al  Al9  1  0.219710  0.228421  0.997428  1
  Al  Al10  1  0.845139  0.163087  0.100854  1
  Al  Al11  1  0.154238  0.837497  0.898184  1
  Al  Al12  1  0.157489  0.842629  0.605046  1
  Al  Al13  1  0.841855  0.158038  0.395837  1
  Al  Al14  1  0.861321  0.588870  0.754739  1
  Al  Al15  1  0.138580  0.409903  0.245247  1
  Al  Al16  1  0.407718  0.141604  0.751114  1
  Al  Al17  1  0.593393  0.858534  0.248892  1
  Al  Al18  1  0.223000  0.481409  0.756073  1
  Al  Al19  1  0.776236  0.517808  0.243898  1
  Al  Al20  1  0.519929  0.773735  0.750910  1
  Al  Al21  1  0.480814  0.227017  0.249091  1
  Fe  Fe22  1  0.999994  0.499675  0.999534  1
  Rh  Rh23  1  0.999952  0.499650  0.500599  1
  Rh  Rh24  1  0.500416  0.000037  0.999459  1
  Rh  Rh25  1  0.500336  0.000047  0.500550  1
