# generated using pymatgen
data_Yb4TaIr6Os
_symmetry_space_group_name_H-M   'P 1'
_cell_length_a   5.43750700
_cell_length_b   5.43750745
_cell_length_c   8.28683200
_cell_angle_alpha   90.00000000
_cell_angle_beta   90.00000000
_cell_angle_gamma   119.99999120
_symmetry_Int_Tables_number   1
_chemical_formula_structural   Yb4TaIr6Os
_chemical_formula_sum   'Yb4 Ta1 Ir6 Os1'
_cell_volume   212.18706149
_cell_formula_units_Z   1
loop_
 _symmetry_equiv_pos_site_id
 _symmetry_equiv_pos_as_xyz
  1  'x, y, z'
loop_
 _atom_site_type_symbol
 _atom_site_label
 _atom_site_symmetry_multiplicity
 _atom_site_fract_x
 _atom_site_fract_y
 _atom_site_fract_z
 _atom_site_occupancy
  Yb  Yb0  1  0.333333  0.666667  0.424303  1
  Yb  Yb1  1  0.666667  0.333333  0.575697  1
  Yb  Yb2  1  0.666667  0.333333  0.932565  1
  Yb  Yb3  1  0.333333  0.666667  0.067435  1
  Ta  Ta4  1  0.000000  0.000000  0.500000  1
  Ir  Ir5  1  0.826792  0.173208  0.249388  1
  Ir  Ir6  1  0.826792  0.653584  0.249388  1
  Ir  Ir7  1  0.346416  0.173208  0.249388  1
  Ir  Ir8  1  0.173208  0.826792  0.750612  1
  Ir  Ir9  1  0.173208  0.346416  0.750612  1
  Ir  Ir10  1  0.653584  0.826792  0.750612  1
  Os  Os11  1  0.000000  0.000000  0.000000  1
