# generated using pymatgen
data_Y2Mn2Co9NiAs7
_symmetry_space_group_name_H-M   'P 1'
_cell_length_a   3.75861200
_cell_length_b   9.38776242
_cell_length_c   9.43610164
_cell_angle_alpha   119.73722434
_cell_angle_beta   90.00000000
_cell_angle_gamma   90.00000000
_symmetry_Int_Tables_number   1
_chemical_formula_structural   Y2Mn2Co9NiAs7
_chemical_formula_sum   'Y2 Mn2 Co9 Ni1 As7'
_cell_volume   289.10574256
_cell_formula_units_Z   1
loop_
 _symmetry_equiv_pos_site_id
 _symmetry_equiv_pos_as_xyz
  1  'x, y, z'
loop_
 _atom_site_type_symbol
 _atom_site_label
 _atom_site_symmetry_multiplicity
 _atom_site_fract_x
 _atom_site_fract_y
 _atom_site_fract_z
 _atom_site_occupancy
  Y  Y0  1  0.000000  0.669843  0.336641  1
  Y  Y1  1  0.500000  0.331170  0.666410  1
  Mn  Mn2  1  0.500000  0.783161  0.896229  1
  Mn  Mn3  1  0.500000  0.117934  0.219413  1
  Co  Co4  1  0.000000  0.369258  0.429423  1
  Co  Co5  1  0.000000  0.057849  0.629569  1
  Co  Co6  1  0.500000  0.093812  0.876760  1
  Co  Co7  1  0.000000  0.880989  0.156218  1
  Co  Co8  1  0.000000  0.280249  0.122832  1
  Co  Co9  1  0.000000  0.843731  0.723213  1
  Co  Co10  1  0.500000  0.950506  0.384136  1
  Co  Co11  1  0.500000  0.432422  0.048997  1
  Co  Co12  1  0.500000  0.618266  0.567217  1
  Ni  Ni13  1  0.000000  0.567417  0.939769  1
  As  As14  1  0.000000  0.003784  0.998349  1
  As  As15  1  0.500000  0.710891  0.119972  1
  As  As16  1  0.500000  0.411639  0.292703  1
  As  As17  1  0.500000  0.886489  0.595477  1
  As  As18  1  0.000000  0.584727  0.696856  1
  As  As19  1  0.000000  0.113818  0.413772  1
  As  As20  1  0.000000  0.292044  0.886044  1
