# generated using pymatgen
data_RbBaBi4
_symmetry_space_group_name_H-M   'P 1'
_cell_length_a   6.81523200
_cell_length_b   6.81523217
_cell_length_c   6.81523200
_cell_angle_alpha   119.99999919
_cell_angle_beta   90.00000000
_cell_angle_gamma   119.99999919
_symmetry_Int_Tables_number   1
_chemical_formula_structural   RbBaBi4
_chemical_formula_sum   'Rb1 Ba1 Bi4'
_cell_volume   223.83446438
_cell_formula_units_Z   1
loop_
 _symmetry_equiv_pos_site_id
 _symmetry_equiv_pos_as_xyz
  1  'x, y, z'
loop_
 _atom_site_type_symbol
 _atom_site_label
 _atom_site_symmetry_multiplicity
 _atom_site_fract_x
 _atom_site_fract_y
 _atom_site_fract_z
 _atom_site_occupancy
  Rb  Rb0  1  0.625000  0.249999  0.874999  1
  Ba  Ba1  1  0.375000  0.749999  0.125001  1
  Bi  Bi2  1  0.000000  0.000000  0.000000  1
  Bi  Bi3  1  0.000000  0.000000  0.500000  1
  Bi  Bi4  1  0.000000  0.500000  0.500000  1
  Bi  Bi5  1  0.500000  0.500000  0.500000  1
