# generated using pymatgen
data_TbCe(Cu9Si2)2
_symmetry_space_group_name_H-M   'P 1'
_cell_length_a   7.80403566
_cell_length_b   7.80403639
_cell_length_c   7.80403555
_cell_angle_alpha   99.88235335
_cell_angle_beta   99.88236368
_cell_angle_gamma   131.05236881
_symmetry_Int_Tables_number   1
_chemical_formula_structural   TbCe(Cu9Si2)2
_chemical_formula_sum   'Tb1 Ce1 Cu18 Si4'
_cell_volume   326.21620115
_cell_formula_units_Z   1
loop_
 _symmetry_equiv_pos_site_id
 _symmetry_equiv_pos_as_xyz
  1  'x, y, z'
loop_
 _atom_site_type_symbol
 _atom_site_label
 _atom_site_symmetry_multiplicity
 _atom_site_fract_x
 _atom_site_fract_y
 _atom_site_fract_z
 _atom_site_occupancy
  Tb  Tb0  1  0.500000  0.500000  0.000000  1
  Ce  Ce1  1  0.750000  0.250000  0.500000  1
  Cu  Cu2  1  0.250000  0.750000  0.500000  1
  Cu  Cu3  1  0.000000  0.000000  0.000000  1
  Cu  Cu4  1  0.687456  0.014044  0.081749  1
  Cu  Cu5  1  0.687456  0.605707  0.673412  1
  Cu  Cu6  1  0.265729  0.437438  0.583155  1
  Cu  Cu7  1  0.265729  0.682574  0.828291  1
  Cu  Cu8  1  0.932295  0.014044  0.326588  1
  Cu  Cu9  1  0.932295  0.605707  0.918251  1
  Cu  Cu10  1  0.854283  0.437438  0.171709  1
  Cu  Cu11  1  0.854283  0.682574  0.416845  1
  Cu  Cu12  1  0.562562  0.734271  0.416845  1
  Cu  Cu13  1  0.562562  0.145717  0.828291  1
  Cu  Cu14  1  0.985956  0.312544  0.918251  1
  Cu  Cu15  1  0.985956  0.067705  0.673412  1
  Cu  Cu16  1  0.317426  0.734271  0.171709  1
  Cu  Cu17  1  0.317426  0.145717  0.583155  1
  Cu  Cu18  1  0.394293  0.312544  0.326588  1
  Cu  Cu19  1  0.394293  0.067705  0.081749  1
  Si  Si20  1  0.625208  0.875973  0.749236  1
  Si  Si21  1  0.124027  0.374792  0.250764  1
  Si  Si22  1  0.124027  0.873263  0.749236  1
  Si  Si23  1  0.126737  0.875973  0.250764  1
