# generated using pymatgen
data_Tb4ErGa2P10Ir19
_symmetry_space_group_name_H-M   'P 1'
_cell_length_a   12.81801522
_cell_length_b   12.80378995
_cell_length_c   3.98077500
_cell_angle_alpha   90.00000000
_cell_angle_beta   90.00000000
_cell_angle_gamma   119.96330164
_symmetry_Int_Tables_number   1
_chemical_formula_structural   Tb4ErGa2P10Ir19
_chemical_formula_sum   'Tb4 Er1 Ga2 P10 Ir19'
_cell_volume   566.00213449
_cell_formula_units_Z   1
loop_
 _symmetry_equiv_pos_site_id
 _symmetry_equiv_pos_as_xyz
  1  'x, y, z'
loop_
 _atom_site_type_symbol
 _atom_site_label
 _atom_site_symmetry_multiplicity
 _atom_site_fract_x
 _atom_site_fract_y
 _atom_site_fract_z
 _atom_site_occupancy
  Tb  Tb0  1  0.662508  0.329522  0.000000  1
  Tb  Tb1  1  0.337492  0.667015  0.000000  1
  Tb  Tb2  1  0.821430  0.818075  0.500000  1
  Tb  Tb3  1  0.178570  0.996646  0.500000  1
  Er  Er4  1  0.000000  0.184766  0.500000  1
  Ga  Ga5  1  0.643627  0.643324  0.000000  1
  Ga  Ga6  1  0.356373  0.999696  0.000000  1
  P  P7  1  0.682708  0.166260  0.500000  1
  P  P8  1  0.820167  0.512083  0.500000  1
  P  P9  1  0.479071  0.310313  0.500000  1
  P  P10  1  0.179833  0.691916  0.500000  1
  P  P11  1  0.520929  0.831242  0.500000  1
  P  P12  1  0.317292  0.483552  0.500000  1
  P  P13  1  0.000000  0.357162  0.000000  1
  P  P14  1  0.175891  0.176919  0.000000  1
  P  P15  1  0.824109  0.001027  0.000000  1
  P  P16  1  0.000000  0.815158  0.000000  1
  Ir  Ir17  1  0.814211  0.183154  0.000000  1
  Ir  Ir18  1  0.825862  0.614231  0.000000  1
  Ir  Ir19  1  0.376779  0.208413  0.000000  1
  Ir  Ir20  1  0.174138  0.788369  0.000000  1
  Ir  Ir21  1  0.623221  0.831633  0.000000  1
  Ir  Ir22  1  0.185789  0.368942  0.000000  1
  Ir  Ir23  1  0.438355  0.458889  0.000000  1
  Ir  Ir24  1  0.561645  0.020535  0.000000  1
  Ir  Ir25  1  0.000000  0.534278  0.000000  1
  Ir  Ir26  1  0.277356  0.283647  0.500000  1
  Ir  Ir27  1  0.722644  0.006291  0.500000  1
  Ir  Ir28  1  0.000000  0.713060  0.500000  1
  Ir  Ir29  1  0.862439  0.357330  0.500000  1
  Ir  Ir30  1  0.631619  0.504128  0.500000  1
  Ir  Ir31  1  0.490099  0.134466  0.500000  1
  Ir  Ir32  1  0.368381  0.872508  0.500000  1
  Ir  Ir33  1  0.509901  0.644364  0.500000  1
  Ir  Ir34  1  0.137561  0.494890  0.500000  1
  Ir  Ir35  1  0.000000  0.996199  0.000000  1
