# generated using pymatgen
data_DyEr11(Zn3C)4
_symmetry_space_group_name_H-M   'P 1'
_cell_length_a   9.08567667
_cell_length_b   9.09081177
_cell_length_c   9.09081143
_cell_angle_alpha   60.06176033
_cell_angle_beta   60.01868680
_cell_angle_gamma   60.01868953
_symmetry_Int_Tables_number   1
_chemical_formula_structural   DyEr11(Zn3C)4
_chemical_formula_sum   'Dy1 Er11 Zn12 C4'
_cell_volume   531.34013978
_cell_formula_units_Z   1
loop_
 _symmetry_equiv_pos_site_id
 _symmetry_equiv_pos_as_xyz
  1  'x, y, z'
loop_
 _atom_site_type_symbol
 _atom_site_label
 _atom_site_symmetry_multiplicity
 _atom_site_fract_x
 _atom_site_fract_y
 _atom_site_fract_z
 _atom_site_occupancy
  Dy  Dy0  1  0.197505  0.802495  0.802495  1
  Er  Er1  1  0.447409  0.447004  0.052915  1
  Er  Er2  1  0.052672  0.447004  0.052915  1
  Er  Er3  1  0.447245  0.052755  0.052755  1
  Er  Er4  1  0.052672  0.052915  0.447004  1
  Er  Er5  1  0.447409  0.052915  0.447004  1
  Er  Er6  1  0.052646  0.447354  0.447354  1
  Er  Er7  1  0.802647  0.802698  0.197424  1
  Er  Er8  1  0.197231  0.802698  0.197424  1
  Er  Er9  1  0.802777  0.197223  0.197223  1
  Er  Er10  1  0.197231  0.197424  0.802698  1
  Er  Er11  1  0.802647  0.197424  0.802698  1
  Zn  Zn12  1  0.826397  0.826519  0.520688  1
  Zn  Zn13  1  0.826397  0.520688  0.826519  1
  Zn  Zn14  1  0.520938  0.826433  0.826433  1
  Zn  Zn15  1  0.826197  0.826433  0.826433  1
  Zn  Zn16  1  0.423711  0.423320  0.729257  1
  Zn  Zn17  1  0.423711  0.729257  0.423320  1
  Zn  Zn18  1  0.729284  0.423566  0.423566  1
  Zn  Zn19  1  0.423582  0.423566  0.423566  1
  Zn  Zn20  1  0.625024  0.624955  0.124998  1
  Zn  Zn21  1  0.625024  0.124998  0.624955  1
  Zn  Zn22  1  0.124985  0.624871  0.624871  1
  Zn  Zn23  1  0.625273  0.624871  0.624871  1
  C  C24  1  0.124714  0.126161  0.624411  1
  C  C25  1  0.124714  0.624411  0.126161  1
  C  C26  1  0.624955  0.125021  0.125021  1
  C  C27  1  0.125004  0.125021  0.125021  1
