# generated using pymatgen
data_ErCoH4
_symmetry_space_group_name_H-M   'P 1'
_cell_length_a   6.00440767
_cell_length_b   6.00440774
_cell_length_c   4.68667400
_cell_angle_alpha   90.00000000
_cell_angle_beta   90.00000000
_cell_angle_gamma   145.72863192
_symmetry_Int_Tables_number   1
_chemical_formula_structural   ErCoH4
_chemical_formula_sum   'Er2 Co2 H8'
_cell_volume   95.14824226
_cell_formula_units_Z   2
loop_
 _symmetry_equiv_pos_site_id
 _symmetry_equiv_pos_as_xyz
  1  'x, y, z'
loop_
 _atom_site_type_symbol
 _atom_site_label
 _atom_site_symmetry_multiplicity
 _atom_site_fract_x
 _atom_site_fract_y
 _atom_site_fract_z
 _atom_site_occupancy
  Er  Er0  1  0.867349  0.132651  0.750000  1
  Er  Er1  1  0.132651  0.867349  0.250000  1
  Co  Co2  1  0.598441  0.401559  0.750000  1
  Co  Co3  1  0.401559  0.598441  0.250000  1
  H  H4  1  0.089231  0.910769  0.750000  1
  H  H5  1  0.910769  0.089231  0.250000  1
  H  H6  1  0.693389  0.306611  0.498891  1
  H  H7  1  0.306611  0.693389  0.501109  1
  H  H8  1  0.693389  0.306611  0.001109  1
  H  H9  1  0.306611  0.693389  0.998891  1
  H  H10  1  0.500000  0.500000  0.000000  1
  H  H11  1  0.500000  0.500000  0.500000  1
