# generated using pymatgen
data_Er4Al3ZnPd4
_symmetry_space_group_name_H-M   'P 1'
_cell_length_a   4.40782600
_cell_length_b   6.81192513
_cell_length_c   7.82816541
_cell_angle_alpha   90.12388482
_cell_angle_beta   90.00000000
_cell_angle_gamma   90.00000000
_symmetry_Int_Tables_number   1
_chemical_formula_structural   Er4Al3ZnPd4
_chemical_formula_sum   'Er4 Al3 Zn1 Pd4'
_cell_volume   235.04622833
_cell_formula_units_Z   1
loop_
 _symmetry_equiv_pos_site_id
 _symmetry_equiv_pos_as_xyz
  1  'x, y, z'
loop_
 _atom_site_type_symbol
 _atom_site_label
 _atom_site_symmetry_multiplicity
 _atom_site_fract_x
 _atom_site_fract_y
 _atom_site_fract_z
 _atom_site_occupancy
  Er  Er0  1  0.250000  0.032377  0.315592  1
  Er  Er1  1  0.250000  0.531772  0.179982  1
  Er  Er2  1  0.750000  0.967453  0.682397  1
  Er  Er3  1  0.750000  0.463206  0.821880  1
  Al  Al4  1  0.250000  0.645002  0.560325  1
  Al  Al5  1  0.750000  0.856310  0.060823  1
  Al  Al6  1  0.750000  0.358728  0.441390  1
  Zn  Zn7  1  0.250000  0.148169  0.937151  1
  Pd  Pd8  1  0.250000  0.270372  0.612983  1
  Pd  Pd9  1  0.250000  0.762047  0.879477  1
  Pd  Pd10  1  0.750000  0.731651  0.380183  1
  Pd  Pd11  1  0.750000  0.232913  0.127817  1
