# generated using pymatgen
data_Pa4Sn2Os3Pd
_symmetry_space_group_name_H-M   'P 1'
_cell_length_a   7.73204385
_cell_length_b   7.73204385
_cell_length_c   3.62119000
_cell_angle_alpha   90.00000000
_cell_angle_beta   90.00000000
_cell_angle_gamma   90.52078872
_symmetry_Int_Tables_number   1
_chemical_formula_structural   Pa4Sn2Os3Pd
_chemical_formula_sum   'Pa4 Sn2 Os3 Pd1'
_cell_volume   216.48209819
_cell_formula_units_Z   1
loop_
 _symmetry_equiv_pos_site_id
 _symmetry_equiv_pos_as_xyz
  1  'x, y, z'
loop_
 _atom_site_type_symbol
 _atom_site_label
 _atom_site_symmetry_multiplicity
 _atom_site_fract_x
 _atom_site_fract_y
 _atom_site_fract_z
 _atom_site_occupancy
  Pa  Pa0  1  0.683433  0.162443  0.500000  1
  Pa  Pa1  1  0.337557  0.816567  0.500000  1
  Pa  Pa2  1  0.155195  0.344805  0.500000  1
  Pa  Pa3  1  0.827821  0.672179  0.500000  1
  Sn  Sn4  1  0.005868  0.998244  0.000000  1
  Sn  Sn5  1  0.501756  0.494132  0.000000  1
  Os  Os6  1  0.134730  0.637750  0.000000  1
  Os  Os7  1  0.862250  0.365270  0.000000  1
  Os  Os8  1  0.627983  0.872017  0.000000  1
  Pd  Pd9  1  0.363407  0.136593  0.000000  1
