# generated using pymatgen
data_TmZn2InNi2
_symmetry_space_group_name_H-M   'P 1'
_cell_length_a   5.09882736
_cell_length_b   5.09226388
_cell_length_c   5.09882763
_cell_angle_alpha   60.04257102
_cell_angle_beta   61.90240507
_cell_angle_gamma   60.04256879
_symmetry_Int_Tables_number   1
_chemical_formula_structural   TmZn2InNi2
_chemical_formula_sum   'Tm1 Zn2 In1 Ni2'
_cell_volume   94.94698356
_cell_formula_units_Z   1
loop_
 _symmetry_equiv_pos_site_id
 _symmetry_equiv_pos_as_xyz
  1  'x, y, z'
loop_
 _atom_site_type_symbol
 _atom_site_label
 _atom_site_symmetry_multiplicity
 _atom_site_fract_x
 _atom_site_fract_y
 _atom_site_fract_z
 _atom_site_occupancy
  Tm  Tm0  1  0.755786  0.744214  0.755786  1
  Zn  Zn1  1  0.373518  0.875769  0.373518  1
  Zn  Zn2  1  0.373518  0.377194  0.373518  1
  In  In3  1  0.998183  0.001817  0.998183  1
  Ni  Ni4  1  0.875519  0.375503  0.373475  1
  Ni  Ni5  1  0.373475  0.375503  0.875519  1
