# generated using pymatgen
data_Dy5Sc3GeP11Ir16
_symmetry_space_group_name_H-M   'P 1'
_cell_length_a   12.91087421
_cell_length_b   12.90682273
_cell_length_c   3.97219200
_cell_angle_alpha   90.00000000
_cell_angle_beta   90.00000000
_cell_angle_gamma   119.98962326
_symmetry_Int_Tables_number   1
_chemical_formula_structural   Dy5Sc3GeP11Ir16
_chemical_formula_sum   'Dy5 Sc3 Ge1 P11 Ir16'
_cell_volume   573.29910113
_cell_formula_units_Z   1
loop_
 _symmetry_equiv_pos_site_id
 _symmetry_equiv_pos_as_xyz
  1  'x, y, z'
loop_
 _atom_site_type_symbol
 _atom_site_label
 _atom_site_symmetry_multiplicity
 _atom_site_fract_x
 _atom_site_fract_y
 _atom_site_fract_z
 _atom_site_occupancy
  Dy  Dy0  1  0.333994  0.666731  0.500000  1
  Dy  Dy1  1  0.666006  0.332736  0.500000  1
  Dy  Dy2  1  0.000000  0.815550  0.000000  1
  Dy  Dy3  1  0.189106  0.188830  0.000000  1
  Dy  Dy4  1  0.810894  0.999724  0.000000  1
  Sc  Sc5  1  0.000000  0.439009  0.500000  1
  Sc  Sc6  1  0.553687  0.556285  0.500000  1
  Sc  Sc7  1  0.446313  0.002597  0.500000  1
  Ge  Ge8  1  0.000000  0.643747  0.500000  1
  P  P9  1  0.355074  0.354285  0.500000  1
  P  P10  1  0.644926  0.999211  0.500000  1
  P  P11  1  0.516976  0.687308  0.000000  1
  P  P12  1  0.313069  0.830050  0.000000  1
  P  P13  1  0.170160  0.482175  0.000000  1
  P  P14  1  0.483024  0.170332  0.000000  1
  P  P15  1  0.686931  0.516982  0.000000  1
  P  P16  1  0.829840  0.312015  0.000000  1
  P  P17  1  0.000000  0.176052  0.500000  1
  P  P18  1  0.822284  0.822749  0.500000  1
  P  P19  1  0.177716  0.000465  0.500000  1
  Ir  Ir20  1  0.509810  0.867923  0.000000  1
  Ir  Ir21  1  0.134696  0.641833  0.000000  1
  Ir  Ir22  1  0.358011  0.490737  0.000000  1
  Ir  Ir23  1  0.490190  0.358113  0.000000  1
  Ir  Ir24  1  0.865304  0.507136  0.000000  1
  Ir  Ir25  1  0.641989  0.132725  0.000000  1
  Ir  Ir26  1  0.000000  0.276259  0.000000  1
  Ir  Ir27  1  0.721160  0.724605  0.000000  1
  Ir  Ir28  1  0.278840  0.003445  0.000000  1
  Ir  Ir29  1  0.627207  0.807603  0.500000  1
  Ir  Ir30  1  0.202172  0.826989  0.500000  1
  Ir  Ir31  1  0.179350  0.370412  0.500000  1
  Ir  Ir32  1  0.372793  0.180396  0.500000  1
  Ir  Ir33  1  0.797828  0.624818  0.500000  1
  Ir  Ir34  1  0.820650  0.191061  0.500000  1
  Ir  Ir35  1  0.000000  0.999115  0.500000  1
