# generated using pymatgen
data_Lu4Pa4V(ReB8)3
_symmetry_space_group_name_H-M   'P 1'
_cell_length_a   3.67648200
_cell_length_b   9.10051100
_cell_length_c   11.46971700
_cell_angle_alpha   90.00045014
_cell_angle_beta   90.00000000
_cell_angle_gamma   90.00000000
_symmetry_Int_Tables_number   1
_chemical_formula_structural   Lu4Pa4V(ReB8)3
_chemical_formula_sum   'Lu4 Pa4 V1 Re3 B24'
_cell_volume   383.75224162
_cell_formula_units_Z   1
loop_
 _symmetry_equiv_pos_site_id
 _symmetry_equiv_pos_as_xyz
  1  'x, y, z'
loop_
 _atom_site_type_symbol
 _atom_site_label
 _atom_site_symmetry_multiplicity
 _atom_site_fract_x
 _atom_site_fract_y
 _atom_site_fract_z
 _atom_site_occupancy
  Lu  Lu0  1  0.000000  0.943136  0.373785  1
  Lu  Lu1  1  0.000000  0.054690  0.625554  1
  Lu  Lu2  1  0.000000  0.447265  0.127184  1
  Lu  Lu3  1  0.000000  0.554907  0.874065  1
  Pa  Pa4  1  0.000000  0.322984  0.412554  1
  Pa  Pa5  1  0.000000  0.678628  0.584671  1
  Pa  Pa6  1  0.000000  0.820378  0.088044  1
  Pa  Pa7  1  0.000000  0.178171  0.914209  1
  V  V8  1  0.000000  0.639029  0.320912  1
  Re  Re9  1  0.000000  0.360410  0.679749  1
  Re  Re10  1  0.000000  0.139486  0.178529  1
  Re  Re11  1  0.000000  0.861265  0.820733  1
  B  B12  1  0.500000  0.553582  0.432665  1
  B  B13  1  0.500000  0.446162  0.567228  1
  B  B14  1  0.500000  0.053759  0.067040  1
  B  B15  1  0.500000  0.946342  0.933132  1
  B  B16  1  0.500000  0.749161  0.419791  1
  B  B17  1  0.500000  0.250241  0.580082  1
  B  B18  1  0.500000  0.250853  0.080360  1
  B  B19  1  0.500000  0.749636  0.919679  1
  B  B20  1  0.500000  0.793668  0.265156  1
  B  B21  1  0.500000  0.206140  0.734593  1
  B  B22  1  0.500000  0.293683  0.234797  1
  B  B23  1  0.500000  0.706481  0.765195  1
  B  B24  1  0.500000  0.632456  0.184522  1
  B  B25  1  0.500000  0.367906  0.815900  1
  B  B26  1  0.500000  0.131491  0.315443  1
  B  B27  1  0.500000  0.868233  0.684186  1
  B  B28  1  0.500000  0.982176  0.213900  1
  B  B29  1  0.500000  0.017564  0.786047  1
  B  B30  1  0.500000  0.482604  0.286451  1
  B  B31  1  0.500000  0.517345  0.713813  1
  B  B32  1  0.500000  0.606443  0.028957  1
  B  B33  1  0.500000  0.393875  0.970862  1
  B  B34  1  0.500000  0.106093  0.470271  1
  B  B35  1  0.500000  0.893758  0.529943  1
