# generated using pymatgen
data_La7Nd9MgCd3Ir4
_symmetry_space_group_name_H-M   'P 1'
_cell_length_a   10.00298890
_cell_length_b   10.03696031
_cell_length_c   10.05905375
_cell_angle_alpha   59.86921289
_cell_angle_beta   60.26099273
_cell_angle_gamma   60.45496268
_symmetry_Int_Tables_number   1
_chemical_formula_structural   La7Nd9MgCd3Ir4
_chemical_formula_sum   'La7 Nd9 Mg1 Cd3 Ir4'
_cell_volume   717.24045286
_cell_formula_units_Z   1
loop_
 _symmetry_equiv_pos_site_id
 _symmetry_equiv_pos_as_xyz
  1  'x, y, z'
loop_
 _atom_site_type_symbol
 _atom_site_label
 _atom_site_symmetry_multiplicity
 _atom_site_fract_x
 _atom_site_fract_y
 _atom_site_fract_z
 _atom_site_occupancy
  La  La0  1  0.346234  0.347274  0.349717  1
  La  La1  1  0.348817  0.344194  0.958122  1
  La  La2  1  0.351447  0.955578  0.345709  1
  La  La3  1  0.958457  0.348593  0.348352  1
  La  La4  1  0.810127  0.190489  0.187699  1
  La  La5  1  0.185086  0.813470  0.811467  1
  La  La6  1  0.189094  0.810754  0.189789  1
  Nd  Nd7  1  0.808530  0.190139  0.809130  1
  Nd  Nd8  1  0.190927  0.194239  0.806350  1
  Nd  Nd9  1  0.806142  0.809609  0.188801  1
  Nd  Nd10  1  0.935766  0.565555  0.565032  1
  Nd  Nd11  1  0.562602  0.936718  0.935457  1
  Nd  Nd12  1  0.562450  0.938965  0.563312  1
  Nd  Nd13  1  0.937655  0.561724  0.937737  1
  Nd  Nd14  1  0.562334  0.562092  0.938940  1
  Nd  Nd15  1  0.938225  0.939483  0.561638  1
  Mg  Mg16  1  0.578348  0.575480  0.576008  1
  Cd  Cd17  1  0.582964  0.581721  0.256403  1
  Cd  Cd18  1  0.580992  0.256158  0.583318  1
  Cd  Cd19  1  0.256123  0.579390  0.583037  1
  Ir  Ir20  1  0.139205  0.139274  0.144778  1
  Ir  Ir21  1  0.145673  0.136962  0.575845  1
  Ir  Ir22  1  0.146068  0.577590  0.138556  1
  Ir  Ir23  1  0.576731  0.144548  0.144800  1
