# generated using pymatgen
data_ErTh(Al3Pd)6
_symmetry_space_group_name_H-M   'P 1'
_cell_length_a   10.44200200
_cell_length_b   10.44200286
_cell_length_c   10.44200388
_cell_angle_alpha   42.38541121
_cell_angle_beta   42.38541470
_cell_angle_gamma   42.38541085
_symmetry_Int_Tables_number   1
_chemical_formula_structural   ErTh(Al3Pd)6
_chemical_formula_sum   'Er1 Th1 Al18 Pd6'
_cell_volume   468.37901201
_cell_formula_units_Z   1
loop_
 _symmetry_equiv_pos_site_id
 _symmetry_equiv_pos_as_xyz
  1  'x, y, z'
loop_
 _atom_site_type_symbol
 _atom_site_label
 _atom_site_symmetry_multiplicity
 _atom_site_fract_x
 _atom_site_fract_y
 _atom_site_fract_z
 _atom_site_occupancy
  Er  Er0  1  0.833178  0.833178  0.833178  1
  Th  Th1  1  0.166829  0.166829  0.166829  1
  Al  Al2  1  0.106412  0.437499  0.759529  1
  Al  Al3  1  0.437499  0.759529  0.106412  1
  Al  Al4  1  0.568889  0.890424  0.237331  1
  Al  Al5  1  0.950017  0.950017  0.950017  1
  Al  Al6  1  0.049431  0.049431  0.049431  1
  Al  Al7  1  0.295337  0.700436  0.504238  1
  Al  Al8  1  0.890424  0.237331  0.568889  1
  Al  Al9  1  0.384343  0.384343  0.384343  1
  Al  Al10  1  0.504238  0.295337  0.700436  1
  Al  Al11  1  0.237331  0.568889  0.890424  1
  Al  Al12  1  0.716333  0.716333  0.716333  1
  Al  Al13  1  0.615646  0.615646  0.615646  1
  Al  Al14  1  0.334750  0.999517  0.665712  1
  Al  Al15  1  0.700436  0.504238  0.295337  1
  Al  Al16  1  0.665712  0.334750  0.999517  1
  Al  Al17  1  0.284165  0.284165  0.284165  1
  Al  Al18  1  0.999517  0.665712  0.334750  1
  Al  Al19  1  0.759529  0.106412  0.437499  1
  Pd  Pd20  1  0.418732  0.076998  0.760807  1
  Pd  Pd21  1  0.580930  0.239442  0.923076  1
  Pd  Pd22  1  0.076998  0.760807  0.418732  1
  Pd  Pd23  1  0.760807  0.418732  0.076998  1
  Pd  Pd24  1  0.923076  0.580930  0.239442  1
  Pd  Pd25  1  0.239442  0.923076  0.580930  1
