# generated using pymatgen
data_CaDy(Al5Os)4
_symmetry_space_group_name_H-M   'P 1'
_cell_length_a   6.88099200
_cell_length_b   6.88099122
_cell_length_c   9.16965900
_cell_angle_alpha   90.00000000
_cell_angle_beta   90.00000000
_cell_angle_gamma   96.36825747
_symmetry_Int_Tables_number   1
_chemical_formula_structural   CaDy(Al5Os)4
_chemical_formula_sum   'Ca1 Dy1 Al20 Os4'
_cell_volume   431.48642365
_cell_formula_units_Z   1
loop_
 _symmetry_equiv_pos_site_id
 _symmetry_equiv_pos_as_xyz
  1  'x, y, z'
loop_
 _atom_site_type_symbol
 _atom_site_label
 _atom_site_symmetry_multiplicity
 _atom_site_fract_x
 _atom_site_fract_y
 _atom_site_fract_z
 _atom_site_occupancy
  Ca  Ca0  1  0.872845  0.127155  0.750000  1
  Dy  Dy1  1  0.128101  0.871899  0.250000  1
  Al  Al2  1  0.521789  0.783411  0.750000  1
  Al  Al3  1  0.781830  0.518864  0.250000  1
  Al  Al4  1  0.481136  0.218170  0.250000  1
  Al  Al5  1  0.216589  0.478211  0.750000  1
  Al  Al6  1  0.623643  0.376357  0.960284  1
  Al  Al7  1  0.376287  0.623713  0.049387  1
  Al  Al8  1  0.623643  0.376357  0.539716  1
  Al  Al9  1  0.376287  0.623713  0.450613  1
  Al  Al10  1  0.413184  0.144330  0.750000  1
  Al  Al11  1  0.145558  0.417765  0.250000  1
  Al  Al12  1  0.582235  0.854442  0.250000  1
  Al  Al13  1  0.855670  0.586816  0.750000  1
  Al  Al14  1  0.845992  0.154008  0.399032  1
  Al  Al15  1  0.158447  0.841553  0.601032  1
  Al  Al16  1  0.845992  0.154008  0.100968  1
  Al  Al17  1  0.158447  0.841553  0.898968  1
  Al  Al18  1  0.775098  0.776447  0.001184  1
  Al  Al19  1  0.775098  0.776447  0.498816  1
  Al  Al20  1  0.223553  0.224902  0.001184  1
  Al  Al21  1  0.223553  0.224902  0.498816  1
  Os  Os22  1  0.497910  0.000399  0.000090  1
  Os  Os23  1  0.999601  0.502090  0.000090  1
  Os  Os24  1  0.497910  0.000399  0.499910  1
  Os  Os25  1  0.999601  0.502090  0.499910  1
