# generated using pymatgen
data_PrNd3(TmSi2)2
_symmetry_space_group_name_H-M   'P 1'
_cell_length_a   7.57056583
_cell_length_b   7.57056583
_cell_length_c   4.42782700
_cell_angle_alpha   90.00000000
_cell_angle_beta   90.00000000
_cell_angle_gamma   89.76562691
_symmetry_Int_Tables_number   1
_chemical_formula_structural   PrNd3(TmSi2)2
_chemical_formula_sum   'Pr1 Nd3 Tm2 Si4'
_cell_volume   253.77199372
_cell_formula_units_Z   1
loop_
 _symmetry_equiv_pos_site_id
 _symmetry_equiv_pos_as_xyz
  1  'x, y, z'
loop_
 _atom_site_type_symbol
 _atom_site_label
 _atom_site_symmetry_multiplicity
 _atom_site_fract_x
 _atom_site_fract_y
 _atom_site_fract_z
 _atom_site_occupancy
  Pr  Pr0  1  0.677065  0.177065  0.500000  1
  Nd  Nd1  1  0.322986  0.822986  0.500000  1
  Nd  Nd2  1  0.176917  0.323229  0.500000  1
  Nd  Nd3  1  0.823229  0.676917  0.500000  1
  Tm  Tm4  1  0.000269  0.999787  0.000000  1
  Tm  Tm5  1  0.499787  0.500269  0.000000  1
  Si  Si6  1  0.114639  0.614639  0.000000  1
  Si  Si7  1  0.885988  0.385988  0.000000  1
  Si  Si8  1  0.614235  0.884886  0.000000  1
  Si  Si9  1  0.384886  0.114235  0.000000  1
