# generated using pymatgen
data_Pr6Zn4Pd4Pt9
_symmetry_space_group_name_H-M   'P 1'
_cell_length_a   8.47721342
_cell_length_b   8.46527705
_cell_length_c   8.46527700
_cell_angle_alpha   109.35834288
_cell_angle_beta   109.43662914
_cell_angle_gamma   109.43662943
_symmetry_Int_Tables_number   1
_chemical_formula_structural   Pr6Zn4Pd4Pt9
_chemical_formula_sum   'Pr6 Zn4 Pd4 Pt9'
_cell_volume   468.68963940
_cell_formula_units_Z   1
loop_
 _symmetry_equiv_pos_site_id
 _symmetry_equiv_pos_as_xyz
  1  'x, y, z'
loop_
 _atom_site_type_symbol
 _atom_site_label
 _atom_site_symmetry_multiplicity
 _atom_site_fract_x
 _atom_site_fract_y
 _atom_site_fract_z
 _atom_site_occupancy
  Pr  Pr0  1  0.699724  0.699692  0.001462  1
  Pr  Pr1  1  0.299578  0.998712  0.300488  1
  Pr  Pr2  1  0.000002  0.299751  0.299751  1
  Pr  Pr3  1  0.299578  0.300488  0.998712  1
  Pr  Pr4  1  0.699724  0.001462  0.699692  1
  Pr  Pr5  1  0.002191  0.700736  0.700736  1
  Zn  Zn6  1  0.999491  0.999412  0.499526  1
  Zn  Zn7  1  0.999491  0.499526  0.999412  1
  Zn  Zn8  1  0.500208  0.000117  0.000117  1
  Zn  Zn9  1  0.499647  0.500049  0.500049  1
  Pd  Pd10  1  0.664368  0.332985  0.332985  1
  Pd  Pd11  1  0.667626  0.667464  0.336658  1
  Pd  Pd12  1  0.667626  0.336658  0.667464  1
  Pd  Pd13  1  0.336235  0.667932  0.667932  1
  Pt  Pt14  1  0.331140  0.331281  0.660827  1
  Pt  Pt15  1  0.669720  0.000964  0.331096  1
  Pt  Pt16  1  0.000261  0.668998  0.331481  1
  Pt  Pt17  1  0.669720  0.331096  0.000964  1
  Pt  Pt18  1  0.331140  0.660827  0.331281  1
  Pt  Pt19  1  0.000261  0.331481  0.668998  1
  Pt  Pt20  1  0.331389  0.670238  0.000916  1
  Pt  Pt21  1  0.331389  0.000916  0.670238  1
  Pt  Pt22  1  0.999488  0.999218  0.999218  1
