# generated using pymatgen
data_YHo19(Cd3Ru)2
_symmetry_space_group_name_H-M   'P 1'
_cell_length_a   9.55294202
_cell_length_b   9.55194746
_cell_length_c   9.80665400
_cell_angle_alpha   90.00000000
_cell_angle_beta   90.00000000
_cell_angle_gamma   119.99655918
_symmetry_Int_Tables_number   1
_chemical_formula_structural   YHo19(Cd3Ru)2
_chemical_formula_sum   'Y1 Ho19 Cd6 Ru2'
_cell_volume   774.98912428
_cell_formula_units_Z   1
loop_
 _symmetry_equiv_pos_site_id
 _symmetry_equiv_pos_as_xyz
  1  'x, y, z'
loop_
 _atom_site_type_symbol
 _atom_site_label
 _atom_site_symmetry_multiplicity
 _atom_site_fract_x
 _atom_site_fract_y
 _atom_site_fract_z
 _atom_site_occupancy
  Y  Y0  1  0.082779  0.541389  0.750000  1
  Ho  Ho1  1  0.999934  0.999967  0.500025  1
  Ho  Ho2  1  0.999934  0.999967  0.999975  1
  Ho  Ho3  1  0.209862  0.790412  0.440171  1
  Ho  Ho4  1  0.209862  0.419452  0.440171  1
  Ho  Ho5  1  0.580446  0.790224  0.440332  1
  Ho  Ho6  1  0.790017  0.209566  0.559606  1
  Ho  Ho7  1  0.790017  0.580449  0.559606  1
  Ho  Ho8  1  0.419520  0.209760  0.559703  1
  Ho  Ho9  1  0.790017  0.209566  0.940394  1
  Ho  Ho10  1  0.790017  0.580449  0.940394  1
  Ho  Ho11  1  0.419520  0.209760  0.940297  1
  Ho  Ho12  1  0.209862  0.790412  0.059829  1
  Ho  Ho13  1  0.209862  0.419452  0.059829  1
  Ho  Ho14  1  0.580446  0.790224  0.059668  1
  Ho  Ho15  1  0.541242  0.458788  0.250000  1
  Ho  Ho16  1  0.541242  0.082455  0.250000  1
  Ho  Ho17  1  0.917551  0.458776  0.250000  1
  Ho  Ho18  1  0.458991  0.541189  0.750000  1
  Ho  Ho19  1  0.458991  0.917803  0.750000  1
  Cd  Cd20  1  0.885381  0.114610  0.250000  1
  Cd  Cd21  1  0.885381  0.770771  0.250000  1
  Cd  Cd22  1  0.229225  0.114613  0.250000  1
  Cd  Cd23  1  0.114631  0.885487  0.750000  1
  Cd  Cd24  1  0.114631  0.229143  0.750000  1
  Cd  Cd25  1  0.770754  0.885376  0.750000  1
  Ru  Ru26  1  0.333317  0.666659  0.250000  1
  Ru  Ru27  1  0.666565  0.333282  0.750000  1
