# generated using pymatgen
data_Nb8InFeSe16
_symmetry_space_group_name_H-M   'P 1'
_cell_length_a   7.00039500
_cell_length_b   7.00039483
_cell_length_c   14.11410000
_cell_angle_alpha   90.00000000
_cell_angle_beta   90.00000000
_cell_angle_gamma   119.99999607
_symmetry_Int_Tables_number   1
_chemical_formula_structural   Nb8InFeSe16
_chemical_formula_sum   'Nb8 In1 Fe1 Se16'
_cell_volume   599.00289369
_cell_formula_units_Z   1
loop_
 _symmetry_equiv_pos_site_id
 _symmetry_equiv_pos_as_xyz
  1  'x, y, z'
loop_
 _atom_site_type_symbol
 _atom_site_label
 _atom_site_symmetry_multiplicity
 _atom_site_fract_x
 _atom_site_fract_y
 _atom_site_fract_z
 _atom_site_occupancy
  Nb  Nb0  1  0.000000  0.000000  0.218112  1
  Nb  Nb1  1  0.000000  0.000000  0.781888  1
  Nb  Nb2  1  0.506011  0.012023  0.216905  1
  Nb  Nb3  1  0.987977  0.493989  0.216905  1
  Nb  Nb4  1  0.506011  0.493989  0.216905  1
  Nb  Nb5  1  0.493989  0.987977  0.783095  1
  Nb  Nb6  1  0.012023  0.506011  0.783095  1
  Nb  Nb7  1  0.493989  0.506011  0.783095  1
  In  In8  1  0.000000  0.000000  0.500000  1
  Fe  Fe9  1  0.000000  0.000000  0.000000  1
  Se  Se10  1  0.333333  0.666667  0.903623  1
  Se  Se11  1  0.666667  0.333333  0.096377  1
  Se  Se12  1  0.666667  0.333333  0.339506  1
  Se  Se13  1  0.333333  0.666667  0.660494  1
  Se  Se14  1  0.167881  0.832119  0.335424  1
  Se  Se15  1  0.167881  0.335761  0.335424  1
  Se  Se16  1  0.664239  0.832119  0.335424  1
  Se  Se17  1  0.832119  0.167881  0.664576  1
  Se  Se18  1  0.832119  0.664239  0.664576  1
  Se  Se19  1  0.335761  0.167881  0.664576  1
  Se  Se20  1  0.834990  0.165010  0.899556  1
  Se  Se21  1  0.834990  0.669982  0.899556  1
  Se  Se22  1  0.330018  0.165010  0.899556  1
  Se  Se23  1  0.165010  0.834990  0.100444  1
  Se  Se24  1  0.165010  0.330018  0.100444  1
  Se  Se25  1  0.669982  0.834990  0.100444  1
