# generated using pymatgen
data_K4MnZnSe4
_symmetry_space_group_name_H-M   'P 1'
_cell_length_a   8.23164107
_cell_length_b   8.23163915
_cell_length_c   8.23164604
_cell_angle_alpha   133.67281776
_cell_angle_beta   128.49375041
_cell_angle_gamma   71.76192963
_symmetry_Int_Tables_number   1
_chemical_formula_structural   K4MnZnSe4
_chemical_formula_sum   'K4 Mn1 Zn1 Se4'
_cell_volume   308.96057631
_cell_formula_units_Z   1
loop_
 _symmetry_equiv_pos_site_id
 _symmetry_equiv_pos_as_xyz
  1  'x, y, z'
loop_
 _atom_site_type_symbol
 _atom_site_label
 _atom_site_symmetry_multiplicity
 _atom_site_fract_x
 _atom_site_fract_y
 _atom_site_fract_z
 _atom_site_occupancy
  K  K0  1  0.812841  0.641790  0.166836  1
  K  K1  1  0.187161  0.353997  0.828952  1
  K  K2  1  0.474952  0.146006  0.333165  1
  K  K3  1  0.525044  0.858209  0.671050  1
  Mn  Mn4  1  0.000000  0.749991  0.749991  1
  Zn  Zn5  1  0.000000  0.250002  0.250001  1
  Se  Se6  1  0.702323  0.391109  0.303801  1
  Se  Se7  1  0.297677  0.601480  0.688788  1
  Se  Se8  1  0.087307  0.898525  0.196202  1
  Se  Se9  1  0.912695  0.108892  0.811214  1
