# generated using pymatgen
data_Lu2Mn9MoP6
_symmetry_space_group_name_H-M   'P 1'
_cell_length_a   3.61010900
_cell_length_b   10.60727300
_cell_length_c   12.23416100
_cell_angle_alpha   90.00000000
_cell_angle_beta   90.00000000
_cell_angle_gamma   90.00000000
_symmetry_Int_Tables_number   1
_chemical_formula_structural   Lu2Mn9MoP6
_chemical_formula_sum   'Lu4 Mn18 Mo2 P12'
_cell_volume   468.48776426
_cell_formula_units_Z   2
loop_
 _symmetry_equiv_pos_site_id
 _symmetry_equiv_pos_as_xyz
  1  'x, y, z'
loop_
 _atom_site_type_symbol
 _atom_site_label
 _atom_site_symmetry_multiplicity
 _atom_site_fract_x
 _atom_site_fract_y
 _atom_site_fract_z
 _atom_site_occupancy
  Lu  Lu0  1  0.250000  0.583184  0.707154  1
  Lu  Lu1  1  0.250000  0.916816  0.207154  1
  Lu  Lu2  1  0.750000  0.415989  0.293621  1
  Lu  Lu3  1  0.750000  0.084011  0.793621  1
  Mn  Mn4  1  0.750000  0.292798  0.011326  1
  Mn  Mn5  1  0.750000  0.207202  0.511326  1
  Mn  Mn6  1  0.250000  0.406334  0.493374  1
  Mn  Mn7  1  0.250000  0.093666  0.993374  1
  Mn  Mn8  1  0.750000  0.585984  0.509199  1
  Mn  Mn9  1  0.750000  0.914016  0.009199  1
  Mn  Mn10  1  0.250000  0.215950  0.178685  1
  Mn  Mn11  1  0.250000  0.284050  0.678685  1
  Mn  Mn12  1  0.750000  0.784726  0.821234  1
  Mn  Mn13  1  0.750000  0.715274  0.321234  1
  Mn  Mn14  1  0.250000  0.881621  0.697831  1
  Mn  Mn15  1  0.250000  0.618379  0.197831  1
  Mn  Mn16  1  0.750000  0.123368  0.302072  1
  Mn  Mn17  1  0.750000  0.376632  0.802072  1
  Mn  Mn18  1  0.250000  0.460415  0.934940  1
  Mn  Mn19  1  0.250000  0.039585  0.434940  1
  Mn  Mn20  1  0.750000  0.532175  0.066840  1
  Mn  Mn21  1  0.750000  0.967825  0.566840  1
  Mo  Mo22  1  0.250000  0.709110  0.983494  1
  Mo  Mo23  1  0.250000  0.790890  0.483494  1
  P  P24  1  0.250000  0.414551  0.116250  1
  P  P25  1  0.250000  0.085449  0.616250  1
  P  P26  1  0.750000  0.577497  0.882407  1
  P  P27  1  0.750000  0.922503  0.382407  1
  P  P28  1  0.250000  0.261361  0.871645  1
  P  P29  1  0.250000  0.238639  0.371645  1
  P  P30  1  0.750000  0.737064  0.130227  1
  P  P31  1  0.750000  0.762936  0.630227  1
  P  P32  1  0.250000  0.587969  0.385444  1
  P  P33  1  0.250000  0.912031  0.885444  1
  P  P34  1  0.750000  0.403048  0.614258  1
  P  P35  1  0.750000  0.096952  0.114258  1
