# generated using pymatgen
data_La6ZnIr17
_symmetry_space_group_name_H-M   'P 1'
_cell_length_a   5.43238700
_cell_length_b   5.43238612
_cell_length_c   17.56404500
_cell_angle_alpha   90.00000000
_cell_angle_beta   90.00000000
_cell_angle_gamma   119.99998706
_symmetry_Int_Tables_number   1
_chemical_formula_structural   La6ZnIr17
_chemical_formula_sum   'La6 Zn1 Ir17'
_cell_volume   448.88651806
_cell_formula_units_Z   1
loop_
 _symmetry_equiv_pos_site_id
 _symmetry_equiv_pos_as_xyz
  1  'x, y, z'
loop_
 _atom_site_type_symbol
 _atom_site_label
 _atom_site_symmetry_multiplicity
 _atom_site_fract_x
 _atom_site_fract_y
 _atom_site_fract_z
 _atom_site_occupancy
  La  La0  1  0.333333  0.666667  0.540681  1
  La  La1  1  0.666667  0.333333  0.041684  1
  La  La2  1  0.666667  0.333333  0.458316  1
  La  La3  1  0.333333  0.666667  0.959319  1
  La  La4  1  0.333333  0.666667  0.750000  1
  La  La5  1  0.666667  0.333333  0.250000  1
  Zn  Zn6  1  0.666667  0.333333  0.750000  1
  Ir  Ir7  1  0.166157  0.332314  0.128140  1
  Ir  Ir8  1  0.831733  0.663466  0.628182  1
  Ir  Ir9  1  0.667686  0.833843  0.128140  1
  Ir  Ir10  1  0.166157  0.833843  0.128140  1
  Ir  Ir11  1  0.831733  0.168267  0.628182  1
  Ir  Ir12  1  0.336534  0.168267  0.628182  1
  Ir  Ir13  1  0.831733  0.663466  0.871818  1
  Ir  Ir14  1  0.831733  0.168267  0.871818  1
  Ir  Ir15  1  0.336534  0.168267  0.871818  1
  Ir  Ir16  1  0.667686  0.833843  0.371860  1
  Ir  Ir17  1  0.166157  0.833843  0.371860  1
  Ir  Ir18  1  0.166157  0.332314  0.371860  1
  Ir  Ir19  1  0.000000  0.000000  0.250000  1
  Ir  Ir20  1  0.000000  0.000000  0.750000  1
  Ir  Ir21  1  0.333333  0.666667  0.250000  1
  Ir  Ir22  1  0.000000  0.000000  0.997217  1
  Ir  Ir23  1  0.000000  0.000000  0.502783  1
