# generated using pymatgen
data_La4Al14CuPd
_symmetry_space_group_name_H-M   'P 1'
_cell_length_a   6.15850000
_cell_length_b   6.16235128
_cell_length_c   11.69139500
_cell_angle_alpha   74.71964820
_cell_angle_beta   74.72943737
_cell_angle_gamma   89.99999685
_symmetry_Int_Tables_number   1
_chemical_formula_structural   La4Al14CuPd
_chemical_formula_sum   'La4 Al14 Cu1 Pd1'
_cell_volume   411.75050872
_cell_formula_units_Z   1
loop_
 _symmetry_equiv_pos_site_id
 _symmetry_equiv_pos_as_xyz
  1  'x, y, z'
loop_
 _atom_site_type_symbol
 _atom_site_label
 _atom_site_symmetry_multiplicity
 _atom_site_fract_x
 _atom_site_fract_y
 _atom_site_fract_z
 _atom_site_occupancy
  La  La0  1  0.998974  0.998974  0.002049  1
  La  La1  1  0.499426  0.499426  0.001145  1
  La  La2  1  0.749417  0.249417  0.501168  1
  La  La3  1  0.246570  0.746570  0.506861  1
  Al  Al4  1  0.200763  0.200763  0.598476  1
  Al  Al5  1  0.807964  0.807964  0.384074  1
  Al  Al6  1  0.613655  0.123399  0.251404  1
  Al  Al7  1  0.134941  0.625195  0.251404  1
  Al  Al8  1  0.613655  0.625195  0.251404  1
  Al  Al9  1  0.134941  0.123399  0.251404  1
  Al  Al10  1  0.869132  0.356297  0.753617  1
  Al  Al11  1  0.377251  0.890085  0.753617  1
  Al  Al12  1  0.869132  0.890085  0.753617  1
  Al  Al13  1  0.377251  0.356297  0.753617  1
  Al  Al14  1  0.691062  0.691062  0.617876  1
  Al  Al15  1  0.060017  0.560017  0.879964  1
  Al  Al16  1  0.451505  0.951505  0.096990  1
  Al  Al17  1  0.943134  0.443134  0.113733  1
  Cu  Cu18  1  0.561974  0.061974  0.876054  1
  Pd  Pd19  1  0.314068  0.314068  0.371863  1
