# generated using pymatgen
data_Sc2ZnNiPt4
_symmetry_space_group_name_H-M   'P 1'
_cell_length_a   5.73292700
_cell_length_b   5.73290500
_cell_length_c   7.55965100
_cell_angle_alpha   90.00019814
_cell_angle_beta   89.99996760
_cell_angle_gamma   89.99971017
_symmetry_Int_Tables_number   1
_chemical_formula_structural   Sc2ZnNiPt4
_chemical_formula_sum   'Sc4 Zn2 Ni2 Pt8'
_cell_volume   248.45795317
_cell_formula_units_Z   2
loop_
 _symmetry_equiv_pos_site_id
 _symmetry_equiv_pos_as_xyz
  1  'x, y, z'
loop_
 _atom_site_type_symbol
 _atom_site_label
 _atom_site_symmetry_multiplicity
 _atom_site_fract_x
 _atom_site_fract_y
 _atom_site_fract_z
 _atom_site_occupancy
  Sc  Sc0  1  0.750250  0.249996  0.000004  1
  Sc  Sc1  1  0.249749  0.750003  0.999996  1
  Sc  Sc2  1  0.250232  0.749990  0.500012  1
  Sc  Sc3  1  0.749769  0.250011  0.499989  1
  Zn  Zn4  1  0.750117  0.750009  0.499981  1
  Zn  Zn5  1  0.249884  0.249991  0.500018  1
  Ni  Ni6  1  0.250014  0.249998  0.999995  1
  Ni  Ni7  1  0.749986  0.750001  0.000005  1
  Pt  Pt8  1  0.499983  0.000000  0.250949  1
  Pt  Pt9  1  0.499983  0.499999  0.250947  1
  Pt  Pt10  1  0.999996  0.999998  0.251135  1
  Pt  Pt11  1  0.999995  0.500002  0.251131  1
  Pt  Pt12  1  0.000004  0.000002  0.748866  1
  Pt  Pt13  1  0.000005  0.499998  0.748870  1
  Pt  Pt14  1  0.500018  0.000000  0.749051  1
  Pt  Pt15  1  0.500018  0.500003  0.749054  1
