# generated using pymatgen
data_Tb2Dy(CuSn)4
_symmetry_space_group_name_H-M   'P 1'
_cell_length_a   8.45110492
_cell_length_b   8.45110532
_cell_length_c   8.45110608
_cell_angle_alpha   149.05917822
_cell_angle_beta   131.39389585
_cell_angle_gamma   58.73944602
_symmetry_Int_Tables_number   1
_chemical_formula_structural   Tb2Dy(CuSn)4
_chemical_formula_sum   'Tb2 Dy1 Cu4 Sn4'
_cell_volume   230.98301333
_cell_formula_units_Z   1
loop_
 _symmetry_equiv_pos_site_id
 _symmetry_equiv_pos_as_xyz
  1  'x, y, z'
loop_
 _atom_site_type_symbol
 _atom_site_label
 _atom_site_symmetry_multiplicity
 _atom_site_fract_x
 _atom_site_fract_y
 _atom_site_fract_z
 _atom_site_occupancy
  Tb  Tb0  1  0.368870  0.868870  0.500000  1
  Tb  Tb1  1  0.631130  0.131130  0.500000  1
  Dy  Dy2  1  0.000000  0.000000  0.000000  1
  Cu  Cu3  1  0.982851  0.670409  0.312442  1
  Cu  Cu4  1  0.642034  0.329591  0.312442  1
  Cu  Cu5  1  0.357966  0.670409  0.687558  1
  Cu  Cu6  1  0.017149  0.329591  0.687558  1
  Sn  Sn7  1  0.703077  0.500000  0.203077  1
  Sn  Sn8  1  0.296923  0.500000  0.796923  1
  Sn  Sn9  1  0.784174  0.784174  0.000000  1
  Sn  Sn10  1  0.215826  0.215826  0.000000  1
