# generated using pymatgen
data_TbY2Co8TcP6
_symmetry_space_group_name_H-M   'P 1'
_cell_length_a   3.71561300
_cell_length_b   10.52131100
_cell_length_c   12.22720300
_cell_angle_alpha   90.00000000
_cell_angle_beta   90.00000000
_cell_angle_gamma   90.00000000
_symmetry_Int_Tables_number   1
_chemical_formula_structural   TbY2Co8TcP6
_chemical_formula_sum   'Tb2 Y4 Co16 Tc2 P12'
_cell_volume   477.99951327
_cell_formula_units_Z   2
loop_
 _symmetry_equiv_pos_site_id
 _symmetry_equiv_pos_as_xyz
  1  'x, y, z'
loop_
 _atom_site_type_symbol
 _atom_site_label
 _atom_site_symmetry_multiplicity
 _atom_site_fract_x
 _atom_site_fract_y
 _atom_site_fract_z
 _atom_site_occupancy
  Tb  Tb0  1  0.000000  0.500000  0.523776  1
  Tb  Tb1  1  0.500000  0.000000  0.476224  1
  Y  Y2  1  0.500000  0.817725  0.206068  1
  Y  Y3  1  0.500000  0.182275  0.206068  1
  Y  Y4  1  0.000000  0.682275  0.793932  1
  Y  Y5  1  0.000000  0.317725  0.793932  1
  Co  Co6  1  0.500000  0.500000  0.702737  1
  Co  Co7  1  0.000000  0.000000  0.297263  1
  Co  Co8  1  0.000000  0.500000  0.987237  1
  Co  Co9  1  0.500000  0.000000  0.012763  1
  Co  Co10  1  0.500000  0.332196  0.990081  1
  Co  Co11  1  0.500000  0.667804  0.990081  1
  Co  Co12  1  0.000000  0.167804  0.009919  1
  Co  Co13  1  0.000000  0.832196  0.009919  1
  Co  Co14  1  0.500000  0.296597  0.431019  1
  Co  Co15  1  0.500000  0.703403  0.431019  1
  Co  Co16  1  0.000000  0.203403  0.568981  1
  Co  Co17  1  0.000000  0.796597  0.568981  1
  Co  Co18  1  0.500000  0.879219  0.708014  1
  Co  Co19  1  0.500000  0.120781  0.708014  1
  Co  Co20  1  0.000000  0.620781  0.291986  1
  Co  Co21  1  0.000000  0.379219  0.291986  1
  Tc  Tc22  1  0.500000  0.500000  0.156274  1
  Tc  Tc23  1  0.000000  0.000000  0.843726  1
  P  P24  1  0.500000  0.500000  0.881301  1
  P  P25  1  0.000000  0.000000  0.118699  1
  P  P26  1  0.500000  0.500000  0.348046  1
  P  P27  1  0.000000  0.000000  0.651954  1
  P  P28  1  0.500000  0.311282  0.615876  1
  P  P29  1  0.500000  0.688718  0.615876  1
  P  P30  1  0.000000  0.188718  0.384124  1
  P  P31  1  0.000000  0.811282  0.384124  1
  P  P32  1  0.500000  0.846247  0.892912  1
  P  P33  1  0.500000  0.153753  0.892912  1
  P  P34  1  0.000000  0.653753  0.107088  1
  P  P35  1  0.000000  0.346247  0.107088  1
