# generated using pymatgen
data_HfZr2Ti2Sb3C
_symmetry_space_group_name_H-M   'P 1'
_cell_length_a   8.25152596
_cell_length_b   8.26719671
_cell_length_c   5.66561600
_cell_angle_alpha   90.00000000
_cell_angle_beta   90.00000000
_cell_angle_gamma   120.06285222
_symmetry_Int_Tables_number   1
_chemical_formula_structural   HfZr2Ti2Sb3C
_chemical_formula_sum   'Hf2 Zr4 Ti4 Sb6 C2'
_cell_volume   334.49906239
_cell_formula_units_Z   2
loop_
 _symmetry_equiv_pos_site_id
 _symmetry_equiv_pos_as_xyz
  1  'x, y, z'
loop_
 _atom_site_type_symbol
 _atom_site_label
 _atom_site_symmetry_multiplicity
 _atom_site_fract_x
 _atom_site_fract_y
 _atom_site_fract_z
 _atom_site_occupancy
  Hf  Hf0  1  0.778651  0.778647  0.250000  1
  Hf  Hf1  1  0.221349  0.999996  0.250000  1
  Zr  Zr2  1  0.000000  0.225869  0.250000  1
  Zr  Zr3  1  0.224815  0.224075  0.750000  1
  Zr  Zr4  1  0.775185  0.999259  0.750000  1
  Zr  Zr5  1  0.000000  0.774459  0.750000  1
  Ti  Ti6  1  0.666528  0.333473  0.499482  1
  Ti  Ti7  1  0.333472  0.666946  0.499482  1
  Ti  Ti8  1  0.333472  0.666946  0.000518  1
  Ti  Ti9  1  0.666528  0.333473  0.000518  1
  Sb  Sb10  1  0.410072  0.409476  0.250000  1
  Sb  Sb11  1  0.589928  0.999404  0.250000  1
  Sb  Sb12  1  0.000000  0.592080  0.250000  1
  Sb  Sb13  1  0.591011  0.591024  0.750000  1
  Sb  Sb14  1  0.408989  0.000013  0.750000  1
  Sb  Sb15  1  0.000000  0.408985  0.750000  1
  C  C16  1  0.000000  0.997937  0.497388  1
  C  C17  1  0.000000  0.997937  0.002612  1
