# generated using pymatgen
data_Ta10Si5Sn
_symmetry_space_group_name_H-M   'P 1'
_cell_length_a   7.61449205
_cell_length_b   7.61449119
_cell_length_c   7.61449207
_cell_angle_alpha   128.11455572
_cell_angle_beta   128.11455088
_cell_angle_gamma   76.43952615
_symmetry_Int_Tables_number   1
_chemical_formula_structural   Ta10Si5Sn
_chemical_formula_sum   'Ta10 Si5 Sn1'
_cell_volume   265.52760856
_cell_formula_units_Z   1
loop_
 _symmetry_equiv_pos_site_id
 _symmetry_equiv_pos_as_xyz
  1  'x, y, z'
loop_
 _atom_site_type_symbol
 _atom_site_label
 _atom_site_symmetry_multiplicity
 _atom_site_fract_x
 _atom_site_fract_y
 _atom_site_fract_z
 _atom_site_occupancy
  Ta  Ta0  1  0.023590  0.197985  0.516811  1
  Ta  Ta1  1  0.681173  0.506779  0.483189  1
  Ta  Ta2  1  0.506779  0.023590  0.825605  1
  Ta  Ta3  1  0.197985  0.681173  0.174395  1
  Ta  Ta4  1  0.993221  0.818827  0.516811  1
  Ta  Ta5  1  0.302015  0.476410  0.483189  1
  Ta  Ta6  1  0.476410  0.993221  0.174395  1
  Ta  Ta7  1  0.818827  0.302015  0.825605  1
  Ta  Ta8  1  0.001793  0.001793  0.000000  1
  Ta  Ta9  1  0.498207  0.498207  0.000000  1
  Si  Si10  1  0.250000  0.250000  0.000000  1
  Si  Si11  1  0.368955  0.131045  0.500000  1
  Si  Si12  1  0.631045  0.868955  0.500000  1
  Si  Si13  1  0.868955  0.368955  0.237910  1
  Si  Si14  1  0.131045  0.631045  0.762090  1
  Sn  Sn15  1  0.750000  0.750000  0.000000  1
