# generated using pymatgen
data_SmNb(FeGe)2
_symmetry_space_group_name_H-M   'P 1'
_cell_length_a   4.14715400
_cell_length_b   4.14715338
_cell_length_c   13.74771100
_cell_angle_alpha   90.00000000
_cell_angle_beta   90.00000000
_cell_angle_gamma   120.00000496
_symmetry_Int_Tables_number   1
_chemical_formula_structural   SmNb(FeGe)2
_chemical_formula_sum   'Sm2 Nb2 Fe4 Ge4'
_cell_volume   204.76761141
_cell_formula_units_Z   2
loop_
 _symmetry_equiv_pos_site_id
 _symmetry_equiv_pos_as_xyz
  1  'x, y, z'
loop_
 _atom_site_type_symbol
 _atom_site_label
 _atom_site_symmetry_multiplicity
 _atom_site_fract_x
 _atom_site_fract_y
 _atom_site_fract_z
 _atom_site_occupancy
  Sm  Sm0  1  0.000000  0.000000  0.250000  1
  Sm  Sm1  1  0.000000  0.000000  0.750000  1
  Nb  Nb2  1  0.000000  0.000000  0.000000  1
  Nb  Nb3  1  0.000000  0.000000  0.500000  1
  Fe  Fe4  1  0.666666  0.333333  0.063410  1
  Fe  Fe5  1  0.666666  0.333333  0.436589  1
  Fe  Fe6  1  0.333333  0.666666  0.563410  1
  Fe  Fe7  1  0.333333  0.666666  0.936590  1
  Ge  Ge8  1  0.333333  0.666666  0.116731  1
  Ge  Ge9  1  0.333333  0.666666  0.383269  1
  Ge  Ge10  1  0.666666  0.333333  0.616730  1
  Ge  Ge11  1  0.666666  0.333333  0.883269  1
