# generated using pymatgen
data_Tb3Y(GaSi)2
_symmetry_space_group_name_H-M   'P 1'
_cell_length_a   3.95972100
_cell_length_b   5.78957108
_cell_length_c   8.01361800
_cell_angle_alpha   89.93201187
_cell_angle_beta   90.00000000
_cell_angle_gamma   90.00000000
_symmetry_Int_Tables_number   1
_chemical_formula_structural   Tb3Y(GaSi)2
_chemical_formula_sum   'Tb3 Y1 Ga2 Si2'
_cell_volume   183.71275385
_cell_formula_units_Z   1
loop_
 _symmetry_equiv_pos_site_id
 _symmetry_equiv_pos_as_xyz
  1  'x, y, z'
loop_
 _atom_site_type_symbol
 _atom_site_label
 _atom_site_symmetry_multiplicity
 _atom_site_fract_x
 _atom_site_fract_y
 _atom_site_fract_z
 _atom_site_occupancy
  Tb  Tb0  1  0.250000  0.380726  0.679117  1
  Tb  Tb1  1  0.250000  0.119118  0.178877  1
  Tb  Tb2  1  0.750000  0.611109  0.321632  1
  Y  Y3  1  0.750000  0.888720  0.821407  1
  Ga  Ga4  1  0.250000  0.869255  0.537915  1
  Ga  Ga5  1  0.250000  0.631097  0.036639  1
  Si  Si6  1  0.750000  0.126202  0.462567  1
  Si  Si7  1  0.750000  0.373775  0.961844  1
