# generated using pymatgen
data_Tb4Al24CuPdPt7
_symmetry_space_group_name_H-M   'P 1'
_cell_length_a   7.54078705
_cell_length_b   7.53997830
_cell_length_c   13.15084983
_cell_angle_alpha   84.49101387
_cell_angle_beta   100.92352361
_cell_angle_gamma   119.81517330
_symmetry_Int_Tables_number   1
_chemical_formula_structural   Tb4Al24CuPdPt7
_chemical_formula_sum   'Tb4 Al24 Cu1 Pd1 Pt7'
_cell_volume   636.99344405
_cell_formula_units_Z   1
loop_
 _symmetry_equiv_pos_site_id
 _symmetry_equiv_pos_as_xyz
  1  'x, y, z'
loop_
 _atom_site_type_symbol
 _atom_site_label
 _atom_site_symmetry_multiplicity
 _atom_site_fract_x
 _atom_site_fract_y
 _atom_site_fract_z
 _atom_site_occupancy
  Tb  Tb0  1  0.437468  0.830733  0.807429  1
  Tb  Tb1  1  0.562331  0.168400  0.192437  1
  Tb  Tb2  1  0.766960  0.501234  0.807285  1
  Tb  Tb3  1  0.231617  0.498345  0.192206  1
  Al  Al4  1  0.482040  0.167024  0.944526  1
  Al  Al5  1  0.518356  0.833347  0.055825  1
  Al  Al6  1  0.018620  0.164580  0.561376  1
  Al  Al7  1  0.978257  0.832675  0.437182  1
  Al  Al8  1  0.352745  0.834061  0.559236  1
  Al  Al9  1  0.646084  0.166559  0.440370  1
  Al  Al10  1  0.616944  0.834669  0.330223  1
  Al  Al11  1  0.382872  0.168369  0.670399  1
  Al  Al12  1  0.059318  0.492722  0.670343  1
  Al  Al13  1  0.943511  0.506637  0.330145  1
  Al  Al14  1  0.727496  0.837073  0.669060  1
  Al  Al15  1  0.270129  0.160198  0.331368  1
  Al  Al16  1  0.148558  0.500358  0.944579  1
  Al  Al17  1  0.851527  0.499872  0.055597  1
  Al  Al18  1  0.817065  0.832300  0.954349  1
  Al  Al19  1  0.183528  0.167864  0.046446  1
  Al  Al20  1  0.313245  0.499714  0.442127  1
  Al  Al21  1  0.687712  0.499541  0.559218  1
  Al  Al22  1  0.101513  0.835683  0.183963  1
  Al  Al23  1  0.899838  0.164963  0.815994  1
  Al  Al24  1  0.310092  0.372261  0.812950  1
  Al  Al25  1  0.691300  0.630068  0.184786  1
  Al  Al26  1  0.103816  0.960548  0.815502  1
  Al  Al27  1  0.897284  0.040721  0.184167  1
  Cu  Cu28  1  0.388709  0.508312  0.639235  1
  Pd  Pd29  1  0.499516  0.499854  0.999453  1
  Pt  Pt30  1  0.611884  0.492134  0.362902  1
  Pt  Pt31  1  0.171396  0.828582  0.999343  1
  Pt  Pt32  1  0.828599  0.171729  0.999729  1
  Pt  Pt33  1  0.295367  0.832676  0.362742  1
  Pt  Pt34  1  0.704452  0.166243  0.637643  1
  Pt  Pt35  1  0.045695  0.824748  0.636558  1
  Pt  Pt36  1  0.954151  0.175209  0.363305  1
