# generated using pymatgen
data_TmLu3(Ge4Mo3)2
_symmetry_space_group_name_H-M   'P 1'
_cell_length_a   6.86453700
_cell_length_b   7.02799510
_cell_length_c   13.05929418
_cell_angle_alpha   89.98101686
_cell_angle_beta   90.00000000
_cell_angle_gamma   90.00000000
_symmetry_Int_Tables_number   1
_chemical_formula_structural   TmLu3(Ge4Mo3)2
_chemical_formula_sum   'Tm2 Lu6 Ge16 Mo12'
_cell_volume   630.03167067
_cell_formula_units_Z   2
loop_
 _symmetry_equiv_pos_site_id
 _symmetry_equiv_pos_as_xyz
  1  'x, y, z'
loop_
 _atom_site_type_symbol
 _atom_site_label
 _atom_site_symmetry_multiplicity
 _atom_site_fract_x
 _atom_site_fract_y
 _atom_site_fract_z
 _atom_site_occupancy
  Tm  Tm0  1  0.490682  0.329251  0.091656  1
  Tm  Tm1  1  0.990682  0.170749  0.408344  1
  Lu  Lu2  1  0.509571  0.670923  0.591864  1
  Lu  Lu3  1  0.009571  0.829077  0.908136  1
  Lu  Lu4  1  0.509598  0.671029  0.908066  1
  Lu  Lu5  1  0.009598  0.828971  0.591934  1
  Lu  Lu6  1  0.490408  0.329089  0.408165  1
  Lu  Lu7  1  0.990408  0.170911  0.091835  1
  Ge  Ge8  1  0.670751  0.042566  0.547712  1
  Ge  Ge9  1  0.170751  0.457434  0.952288  1
  Ge  Ge10  1  0.328812  0.956903  0.047519  1
  Ge  Ge11  1  0.828812  0.543097  0.452481  1
  Ge  Ge12  1  0.329570  0.957055  0.452502  1
  Ge  Ge13  1  0.829570  0.542945  0.047498  1
  Ge  Ge14  1  0.671066  0.042469  0.952311  1
  Ge  Ge15  1  0.171066  0.457531  0.547689  1
  Ge  Ge16  1  0.529237  0.371055  0.750032  1
  Ge  Ge17  1  0.029237  0.128945  0.749968  1
  Ge  Ge18  1  0.470639  0.629170  0.250097  1
  Ge  Ge19  1  0.970639  0.870830  0.249903  1
  Ge  Ge20  1  0.808236  0.645690  0.750021  1
  Ge  Ge21  1  0.308236  0.854310  0.749979  1
  Ge  Ge22  1  0.191743  0.354695  0.249904  1
  Ge  Ge23  1  0.691743  0.145305  0.250096  1
  Mo  Mo24  1  0.829316  0.341943  0.626324  1
  Mo  Mo25  1  0.329316  0.158057  0.873676  1
  Mo  Mo26  1  0.170249  0.658415  0.126264  1
  Mo  Mo27  1  0.670249  0.841585  0.373736  1
  Mo  Mo28  1  0.170508  0.658245  0.373870  1
  Mo  Mo29  1  0.670508  0.841755  0.126130  1
  Mo  Mo30  1  0.829559  0.341786  0.873756  1
  Mo  Mo31  1  0.329559  0.158214  0.626244  1
  Mo  Mo32  1  0.665005  0.002087  0.750007  1
  Mo  Mo33  1  0.165005  0.497913  0.749993  1
  Mo  Mo34  1  0.335050  0.997635  0.249988  1
  Mo  Mo35  1  0.835050  0.502365  0.250012  1
