# generated using pymatgen
data_YHo(Hg2O)2
_symmetry_space_group_name_H-M   'P 1'
_cell_length_a   5.59021629
_cell_length_b   5.60160486
_cell_length_c   10.92124398
_cell_angle_alpha   86.05197625
_cell_angle_beta   91.09150330
_cell_angle_gamma   90.56654858
_symmetry_Int_Tables_number   1
_chemical_formula_structural   YHo(Hg2O)2
_chemical_formula_sum   'Y2 Ho2 Hg8 O4'
_cell_volume   341.10374303
_cell_formula_units_Z   2
loop_
 _symmetry_equiv_pos_site_id
 _symmetry_equiv_pos_as_xyz
  1  'x, y, z'
loop_
 _atom_site_type_symbol
 _atom_site_label
 _atom_site_symmetry_multiplicity
 _atom_site_fract_x
 _atom_site_fract_y
 _atom_site_fract_z
 _atom_site_occupancy
  Y  Y0  1  0.571327  0.011916  0.900666  1
  Y  Y1  1  0.071457  0.513492  0.900757  1
  Ho  Ho2  1  0.577202  0.487159  0.097206  1
  Ho  Ho3  1  0.077308  0.988883  0.097357  1
  Hg  Hg4  1  0.579920  0.982643  0.278906  1
  Hg  Hg5  1  0.079256  0.953338  0.415970  1
  Hg  Hg6  1  0.572931  0.042528  0.582855  1
  Hg  Hg7  1  0.070777  0.022207  0.721231  1
  Hg  Hg8  1  0.079941  0.448586  0.279371  1
  Hg  Hg9  1  0.579043  0.492236  0.415361  1
  Hg  Hg10  1  0.072638  0.510727  0.584979  1
  Hg  Hg11  1  0.570465  0.546279  0.720387  1
  O  O12  1  0.824302  0.250022  0.000660  1
  O  O13  1  0.824612  0.749986  0.001799  1
  O  O14  1  0.324519  0.250232  0.999421  1
  O  O15  1  0.324344  0.749762  0.003075  1
