# generated using pymatgen
data_Sm5Er3(Tm3Sn4)4
_symmetry_space_group_name_H-M   'P 1'
_cell_length_a   7.99481866
_cell_length_b   8.15063297
_cell_length_c   15.37440857
_cell_angle_alpha   90.02908697
_cell_angle_beta   89.69601400
_cell_angle_gamma   89.78968985
_symmetry_Int_Tables_number   1
_chemical_formula_structural   Sm5Er3(Tm3Sn4)4
_chemical_formula_sum   'Sm5 Er3 Tm12 Sn16'
_cell_volume   1001.81902237
_cell_formula_units_Z   1
loop_
 _symmetry_equiv_pos_site_id
 _symmetry_equiv_pos_as_xyz
  1  'x, y, z'
loop_
 _atom_site_type_symbol
 _atom_site_label
 _atom_site_symmetry_multiplicity
 _atom_site_fract_x
 _atom_site_fract_y
 _atom_site_fract_z
 _atom_site_occupancy
  Sm  Sm0  1  0.984641  0.820263  0.096313  1
  Sm  Sm1  1  0.484676  0.676713  0.094975  1
  Sm  Sm2  1  0.982843  0.821517  0.404066  1
  Sm  Sm3  1  0.516042  0.322096  0.595566  1
  Sm  Sm4  1  0.014476  0.178728  0.904504  1
  Er  Er5  1  0.518710  0.321461  0.902331  1
  Er  Er6  1  0.019910  0.179258  0.597724  1
  Er  Er7  1  0.480339  0.678484  0.403180  1
  Tm  Tm8  1  0.359391  0.836292  0.875647  1
  Tm  Tm9  1  0.861904  0.662508  0.623089  1
  Tm  Tm10  1  0.637117  0.162667  0.377000  1
  Tm  Tm11  1  0.139273  0.337019  0.123296  1
  Tm  Tm12  1  0.638620  0.163532  0.124331  1
  Tm  Tm13  1  0.136396  0.337311  0.377549  1
  Tm  Tm14  1  0.364099  0.837883  0.623682  1
  Tm  Tm15  1  0.861473  0.662457  0.876106  1
  Tm  Tm16  1  0.193852  0.503563  0.749454  1
  Tm  Tm17  1  0.693427  0.996605  0.749593  1
  Tm  Tm18  1  0.805798  0.496371  0.250678  1
  Tm  Tm19  1  0.306445  0.003937  0.250857  1
  Sn  Sn20  1  0.304252  0.040543  0.041444  1
  Sn  Sn21  1  0.796631  0.462413  0.457596  1
  Sn  Sn22  1  0.703536  0.963654  0.542645  1
  Sn  Sn23  1  0.201890  0.537217  0.957225  1
  Sn  Sn24  1  0.694523  0.960106  0.958270  1
  Sn  Sn25  1  0.200649  0.542691  0.540769  1
  Sn  Sn26  1  0.298812  0.040326  0.459656  1
  Sn  Sn27  1  0.800366  0.456237  0.040043  1
  Sn  Sn28  1  0.559626  0.620197  0.750101  1
  Sn  Sn29  1  0.058669  0.878925  0.749434  1
  Sn  Sn30  1  0.440327  0.378733  0.250815  1
  Sn  Sn31  1  0.940831  0.122472  0.250027  1
  Sn  Sn32  1  0.326540  0.148171  0.751097  1
  Sn  Sn33  1  0.826848  0.352012  0.749147  1
  Sn  Sn34  1  0.671324  0.851536  0.251286  1
  Sn  Sn35  1  0.175741  0.646103  0.250503  1
