# generated using pymatgen
data_Tb5Th3MgHgRu2
_symmetry_space_group_name_H-M   'P 1'
_cell_length_a   9.68976080
_cell_length_b   9.80717823
_cell_length_c   9.83312738
_cell_angle_alpha   59.12327358
_cell_angle_beta   60.30489450
_cell_angle_gamma   60.37808171
_symmetry_Int_Tables_number   1
_chemical_formula_structural   Tb5Th3MgHgRu2
_chemical_formula_sum   'Tb10 Th6 Mg2 Hg2 Ru4'
_cell_volume   659.57878692
_cell_formula_units_Z   2
loop_
 _symmetry_equiv_pos_site_id
 _symmetry_equiv_pos_as_xyz
  1  'x, y, z'
loop_
 _atom_site_type_symbol
 _atom_site_label
 _atom_site_symmetry_multiplicity
 _atom_site_fract_x
 _atom_site_fract_y
 _atom_site_fract_z
 _atom_site_occupancy
  Tb  Tb0  1  0.439144  0.059483  0.441070  1
  Tb  Tb1  1  0.059483  0.439144  0.060303  1
  Tb  Tb2  1  0.439386  0.439386  0.060614  1
  Tb  Tb3  1  0.057017  0.057017  0.442983  1
  Tb  Tb4  1  0.183803  0.814970  0.816930  1
  Tb  Tb5  1  0.814970  0.183803  0.184297  1
  Tb  Tb6  1  0.810783  0.187512  0.812997  1
  Tb  Tb7  1  0.187512  0.810783  0.188708  1
  Tb  Tb8  1  0.811362  0.811362  0.188638  1
  Tb  Tb9  1  0.187374  0.187374  0.812626  1
  Th  Th10  1  0.591018  0.600480  0.599213  1
  Th  Th11  1  0.600480  0.591018  0.209291  1
  Th  Th12  1  0.602317  0.204709  0.592229  1
  Th  Th13  1  0.204709  0.602317  0.600747  1
  Th  Th14  1  0.065519  0.433723  0.435822  1
  Th  Th15  1  0.433723  0.065519  0.064937  1
  Mg  Mg16  1  0.828219  0.518308  0.828038  1
  Mg  Mg17  1  0.518308  0.828219  0.825435  1
  Hg  Hg18  1  0.835325  0.830935  0.837832  1
  Hg  Hg19  1  0.830935  0.835325  0.495908  1
  Ru  Ru20  1  0.377755  0.398699  0.399839  1
  Ru  Ru21  1  0.398699  0.377755  0.823707  1
  Ru  Ru22  1  0.398655  0.823505  0.377351  1
  Ru  Ru23  1  0.823505  0.398655  0.400489  1
