# generated using pymatgen
data_Hf5Sc3(OsRu)4
_symmetry_space_group_name_H-M   'P 1'
_cell_length_a   6.44517400
_cell_length_b   4.58342000
_cell_length_c   9.17916300
_cell_angle_alpha   90.00068083
_cell_angle_beta   89.99888800
_cell_angle_gamma   90.00167318
_symmetry_Int_Tables_number   1
_chemical_formula_structural   Hf5Sc3(OsRu)4
_chemical_formula_sum   'Hf5 Sc3 Os4 Ru4'
_cell_volume   271.16109797
_cell_formula_units_Z   1
loop_
 _symmetry_equiv_pos_site_id
 _symmetry_equiv_pos_as_xyz
  1  'x, y, z'
loop_
 _atom_site_type_symbol
 _atom_site_label
 _atom_site_symmetry_multiplicity
 _atom_site_fract_x
 _atom_site_fract_y
 _atom_site_fract_z
 _atom_site_occupancy
  Hf  Hf0  1  0.000014  0.250000  0.371290  1
  Hf  Hf1  1  0.999979  0.749997  0.623778  1
  Hf  Hf2  1  0.499888  0.750003  0.622537  1
  Hf  Hf3  1  0.999919  0.249999  0.878815  1
  Hf  Hf4  1  0.500064  0.250004  0.878713  1
  Sc  Sc5  1  0.500191  0.749998  0.127345  1
  Sc  Sc6  1  0.999903  0.749997  0.125710  1
  Sc  Sc7  1  0.500070  0.249991  0.371865  1
  Os  Os8  1  0.751334  0.250000  0.123237  1
  Os  Os9  1  0.247062  0.750001  0.378525  1
  Os  Os10  1  0.751171  0.250005  0.626852  1
  Os  Os11  1  0.250164  0.750005  0.871352  1
  Ru  Ru12  1  0.249355  0.250000  0.123601  1
  Ru  Ru13  1  0.751583  0.750005  0.377835  1
  Ru  Ru14  1  0.249465  0.250003  0.626450  1
  Ru  Ru15  1  0.749837  0.750000  0.872095  1
