# generated using pymatgen
data_Zr4ZnSnRh10
_symmetry_space_group_name_H-M   'P 1'
_cell_length_a   5.61347130
_cell_length_b   5.61347069
_cell_length_c   8.22790300
_cell_angle_alpha   90.00000000
_cell_angle_beta   90.00000000
_cell_angle_gamma   96.19480406
_symmetry_Int_Tables_number   1
_chemical_formula_structural   Zr4ZnSnRh10
_chemical_formula_sum   'Zr4 Zn1 Sn1 Rh10'
_cell_volume   257.75597620
_cell_formula_units_Z   1
loop_
 _symmetry_equiv_pos_site_id
 _symmetry_equiv_pos_as_xyz
  1  'x, y, z'
loop_
 _atom_site_type_symbol
 _atom_site_label
 _atom_site_symmetry_multiplicity
 _atom_site_fract_x
 _atom_site_fract_y
 _atom_site_fract_z
 _atom_site_occupancy
  Zr  Zr0  1  0.775944  0.224098  0.505981  1
  Zr  Zr1  1  0.224098  0.775944  0.994019  1
  Zr  Zr2  1  0.224098  0.775944  0.505981  1
  Zr  Zr3  1  0.775944  0.224098  0.994019  1
  Zn  Zn4  1  0.500491  0.500491  0.750000  1
  Sn  Sn5  1  0.499527  0.499527  0.250000  1
  Rh  Rh6  1  0.730167  0.730167  0.996278  1
  Rh  Rh7  1  0.730167  0.730167  0.503722  1
  Rh  Rh8  1  0.269963  0.269963  0.996106  1
  Rh  Rh9  1  0.269963  0.269963  0.503894  1
  Rh  Rh10  1  0.499872  0.000071  0.750000  1
  Rh  Rh11  1  0.499890  0.000000  0.250000  1
  Rh  Rh12  1  0.999970  0.999970  0.250000  1
  Rh  Rh13  1  0.999836  0.999836  0.750000  1
  Rh  Rh14  1  0.000071  0.499872  0.750000  1
  Rh  Rh15  1  0.000000  0.499890  0.250000  1
