# generated using pymatgen
data_Dy5CoCuP12Ru17
_symmetry_space_group_name_H-M   'P 1'
_cell_length_a   12.48509817
_cell_length_b   12.52838929
_cell_length_c   3.94525100
_cell_angle_alpha   90.00000000
_cell_angle_beta   90.00000000
_cell_angle_gamma   120.11476491
_symmetry_Int_Tables_number   1
_chemical_formula_structural   Dy5CoCuP12Ru17
_chemical_formula_sum   'Dy5 Co1 Cu1 P12 Ru17'
_cell_volume   533.81290686
_cell_formula_units_Z   1
loop_
 _symmetry_equiv_pos_site_id
 _symmetry_equiv_pos_as_xyz
  1  'x, y, z'
loop_
 _atom_site_type_symbol
 _atom_site_label
 _atom_site_symmetry_multiplicity
 _atom_site_fract_x
 _atom_site_fract_y
 _atom_site_fract_z
 _atom_site_occupancy
  Dy  Dy0  1  0.667442  0.333021  0.000000  1
  Dy  Dy1  1  0.332558  0.665580  0.000000  1
  Dy  Dy2  1  0.188680  0.189167  0.500000  1
  Dy  Dy3  1  0.811320  0.000486  0.500000  1
  Dy  Dy4  1  0.000000  0.811013  0.500000  1
  Co  Co5  1  0.000000  0.280630  0.500000  1
  Cu  Cu6  1  0.000000  0.001406  0.000000  1
  P  P7  1  0.371402  0.372206  0.000000  1
  P  P8  1  0.628598  0.000803  0.000000  1
  P  P9  1  0.000000  0.626070  0.000000  1
  P  P10  1  0.836172  0.309059  0.500000  1
  P  P11  1  0.692882  0.522839  0.500000  1
  P  P12  1  0.478392  0.170476  0.500000  1
  P  P13  1  0.307118  0.829956  0.500000  1
  P  P14  1  0.521608  0.692084  0.500000  1
  P  P15  1  0.163828  0.472888  0.500000  1
  P  P16  1  0.818436  0.818461  0.000000  1
  P  P17  1  0.181564  0.000025  0.000000  1
  P  P18  1  0.000000  0.183192  0.000000  1
  Ru  Ru19  1  0.553937  0.556552  0.000000  1
  Ru  Ru20  1  0.446063  0.002614  0.000000  1
  Ru  Ru21  1  0.000000  0.442176  0.000000  1
  Ru  Ru22  1  0.820775  0.192786  0.000000  1
  Ru  Ru23  1  0.809162  0.625157  0.000000  1
  Ru  Ru24  1  0.374288  0.184446  0.000000  1
  Ru  Ru25  1  0.190838  0.815994  0.000000  1
  Ru  Ru26  1  0.625712  0.810158  0.000000  1
  Ru  Ru27  1  0.179225  0.372011  0.000000  1
  Ru  Ru28  1  0.638730  0.128334  0.500000  1
  Ru  Ru29  1  0.874220  0.508107  0.500000  1
  Ru  Ru30  1  0.491192  0.365548  0.500000  1
  Ru  Ru31  1  0.125780  0.633887  0.500000  1
  Ru  Ru32  1  0.508808  0.874356  0.500000  1
  Ru  Ru33  1  0.361270  0.489604  0.500000  1
  Ru  Ru34  1  0.718691  0.718800  0.500000  1
  Ru  Ru35  1  0.281309  0.000109  0.500000  1
