# generated using pymatgen
data_Cs2Pr10Ga2Br17
_symmetry_space_group_name_H-M   'P 1'
_cell_length_a   9.61257126
_cell_length_b   11.24708786
_cell_length_c   11.24733867
_cell_angle_alpha   106.62888704
_cell_angle_beta   94.42286245
_cell_angle_gamma   94.42724753
_symmetry_Int_Tables_number   1
_chemical_formula_structural   Cs2Pr10Ga2Br17
_chemical_formula_sum   'Cs2 Pr10 Ga2 Br17'
_cell_volume   1155.37647240
_cell_formula_units_Z   1
loop_
 _symmetry_equiv_pos_site_id
 _symmetry_equiv_pos_as_xyz
  1  'x, y, z'
loop_
 _atom_site_type_symbol
 _atom_site_label
 _atom_site_symmetry_multiplicity
 _atom_site_fract_x
 _atom_site_fract_y
 _atom_site_fract_z
 _atom_site_occupancy
  Cs  Cs0  1  0.999303  0.818732  0.180295  1
  Cs  Cs1  1  0.999298  0.180291  0.818738  1
  Pr  Pr2  1  0.434469  0.156195  0.156191  1
  Pr  Pr3  1  0.571805  0.516572  0.198367  1
  Pr  Pr4  1  0.841030  0.288957  0.288977  1
  Pr  Pr5  1  0.296544  0.431344  0.431345  1
  Pr  Pr6  1  0.428278  0.801768  0.483644  1
  Pr  Pr7  1  0.571735  0.198358  0.516551  1
  Pr  Pr8  1  0.703678  0.568706  0.568696  1
  Pr  Pr9  1  0.158958  0.710982  0.711017  1
  Pr  Pr10  1  0.428295  0.483645  0.801778  1
  Pr  Pr11  1  0.565767  0.843944  0.843941  1
  Ga  Ga12  1  0.571398  0.358157  0.358149  1
  Ga  Ga13  1  0.428623  0.641937  0.641941  1
  Br  Br14  1  0.581347  0.689460  0.022479  1
  Br  Br15  1  0.714340  0.069364  0.069361  1
  Br  Br16  1  0.855159  0.450957  0.120173  1
  Br  Br17  1  0.136476  0.207096  0.207018  1
  Br  Br18  1  0.283651  0.601800  0.255858  1
  Br  Br19  1  0.418980  0.977493  0.310808  1
  Br  Br20  1  0.716450  0.744528  0.398532  1
  Br  Br21  1  0.855113  0.120156  0.450962  1
  Br  Br22  1  0.000043  0.499837  0.499891  1
  Br  Br23  1  0.144549  0.879498  0.548778  1
  Br  Br24  1  0.283598  0.255862  0.601813  1
  Br  Br25  1  0.581287  0.022480  0.689450  1
  Br  Br26  1  0.716438  0.398501  0.744486  1
  Br  Br27  1  0.863806  0.793099  0.793015  1
  Br  Br28  1  0.144539  0.548747  0.879528  1
  Br  Br29  1  0.286078  0.930687  0.930696  1
  Br  Br30  1  0.418969  0.310844  0.977525  1
