# generated using pymatgen
data_Pr20IrRu2Rh9
_symmetry_space_group_name_H-M   'P 1'
_cell_length_a   11.33616532
_cell_length_b   11.33794110
_cell_length_c   6.67214292
_cell_angle_alpha   90.05215065
_cell_angle_beta   90.03016276
_cell_angle_gamma   89.93315596
_symmetry_Int_Tables_number   1
_chemical_formula_structural   Pr20IrRu2Rh9
_chemical_formula_sum   'Pr20 Ir1 Ru2 Rh9'
_cell_volume   857.56129736
_cell_formula_units_Z   1
loop_
 _symmetry_equiv_pos_site_id
 _symmetry_equiv_pos_as_xyz
  1  'x, y, z'
loop_
 _atom_site_type_symbol
 _atom_site_label
 _atom_site_symmetry_multiplicity
 _atom_site_fract_x
 _atom_site_fract_y
 _atom_site_fract_z
 _atom_site_occupancy
  Pr  Pr0  1  0.294805  0.087490  0.385763  1
  Pr  Pr1  1  0.294634  0.910689  0.885603  1
  Pr  Pr2  1  0.705592  0.087281  0.885835  1
  Pr  Pr3  1  0.705231  0.912324  0.385915  1
  Pr  Pr4  1  0.585846  0.793913  0.885483  1
  Pr  Pr5  1  0.587865  0.205821  0.386128  1
  Pr  Pr6  1  0.411633  0.793549  0.387123  1
  Pr  Pr7  1  0.412264  0.205157  0.885978  1
  Pr  Pr8  1  0.209537  0.410485  0.618361  1
  Pr  Pr9  1  0.209467  0.591720  0.116468  1
  Pr  Pr10  1  0.791085  0.408739  0.117151  1
  Pr  Pr11  1  0.791411  0.591534  0.617353  1
  Pr  Pr12  1  0.908583  0.708652  0.117507  1
  Pr  Pr13  1  0.908992  0.291047  0.617785  1
  Pr  Pr14  1  0.092961  0.708785  0.617461  1
  Pr  Pr15  1  0.091290  0.291276  0.117625  1
  Pr  Pr16  1  0.000141  0.999819  0.493158  1
  Pr  Pr17  1  0.000063  0.999803  0.993458  1
  Pr  Pr18  1  0.499677  0.500041  0.993809  1
  Pr  Pr19  1  0.499808  0.500103  0.493102  1
  Ir  Ir20  1  0.344727  0.651401  0.748711  1
  Ru  Ru21  1  0.500638  0.000765  0.123903  1
  Ru  Ru22  1  0.500506  0.000937  0.623510  1
  Rh  Rh23  1  0.848584  0.155670  0.249176  1
  Rh  Rh24  1  0.848667  0.844714  0.749013  1
  Rh  Rh25  1  0.151241  0.155169  0.749419  1
  Rh  Rh26  1  0.150713  0.845388  0.248843  1
  Rh  Rh27  1  0.655315  0.348885  0.748940  1
  Rh  Rh28  1  0.656088  0.651576  0.249065  1
  Rh  Rh29  1  0.344250  0.348034  0.248646  1
  Rh  Rh30  1  0.999002  0.499639  0.880206  1
  Rh  Rh31  1  0.999383  0.499595  0.379510  1
