# generated using pymatgen
data_NpPa(NCl)2
_symmetry_space_group_name_H-M   'P 1'
_cell_length_a   10.50789556
_cell_length_b   10.50789519
_cell_length_c   10.50789590
_cell_angle_alpha   21.25993402
_cell_angle_beta   21.25993565
_cell_angle_gamma   21.25992775
_symmetry_Int_Tables_number   1
_chemical_formula_structural   NpPa(NCl)2
_chemical_formula_sum   'Np1 Pa1 N2 Cl2'
_cell_volume   133.62425288
_cell_formula_units_Z   1
loop_
 _symmetry_equiv_pos_site_id
 _symmetry_equiv_pos_as_xyz
  1  'x, y, z'
loop_
 _atom_site_type_symbol
 _atom_site_label
 _atom_site_symmetry_multiplicity
 _atom_site_fract_x
 _atom_site_fract_y
 _atom_site_fract_z
 _atom_site_occupancy
  Np  Np0  1  0.119147  0.119147  0.119147  1
  Pa  Pa1  1  0.877487  0.877487  0.877487  1
  N  N2  1  0.806673  0.806673  0.806673  1
  N  N3  1  0.196877  0.196877  0.196877  1
  Cl  Cl4  1  0.605368  0.605368  0.605368  1
  Cl  Cl5  1  0.394447  0.394447  0.394447  1
