# generated using pymatgen
data_Yb2TmHf(Al8Pt3)3
_symmetry_space_group_name_H-M   'P 1'
_cell_length_a   7.50022483
_cell_length_b   7.52012836
_cell_length_c   13.16205695
_cell_angle_alpha   84.61162255
_cell_angle_beta   79.13043117
_cell_angle_gamma   59.94170348
_symmetry_Int_Tables_number   1
_chemical_formula_structural   Yb2TmHf(Al8Pt3)3
_chemical_formula_sum   'Yb2 Tm1 Hf1 Al24 Pt9'
_cell_volume   631.00965910
_cell_formula_units_Z   1
loop_
 _symmetry_equiv_pos_site_id
 _symmetry_equiv_pos_as_xyz
  1  'x, y, z'
loop_
 _atom_site_type_symbol
 _atom_site_label
 _atom_site_symmetry_multiplicity
 _atom_site_fract_x
 _atom_site_fract_y
 _atom_site_fract_z
 _atom_site_occupancy
  Yb  Yb0  1  0.606678  0.830847  0.191496  1
  Yb  Yb1  1  0.733956  0.499012  0.807833  1
  Tm  Tm2  1  0.266435  0.501830  0.191753  1
  Hf  Hf3  1  0.394716  0.167864  0.808035  1
  Al  Al4  1  0.681360  0.836318  0.942101  1
  Al  Al5  1  0.316589  0.166609  0.053233  1
  Al  Al6  1  0.146522  0.832187  0.562791  1
  Al  Al7  1  0.852581  0.167727  0.439246  1
  Al  Al8  1  0.479625  0.166155  0.560544  1
  Al  Al9  1  0.519973  0.833375  0.441151  1
  Al  Al10  1  0.217606  0.164591  0.329658  1
  Al  Al11  1  0.779128  0.835243  0.674686  1
  Al  Al12  1  0.437140  0.504633  0.674937  1
  Al  Al13  1  0.562582  0.494729  0.329180  1
  Al  Al14  1  0.109235  0.161228  0.673548  1
  Al  Al15  1  0.889582  0.839582  0.330668  1
  Al  Al16  1  0.355549  0.495174  0.940917  1
  Al  Al17  1  0.648550  0.499800  0.053429  1
  Al  Al18  1  0.019850  0.169382  0.948852  1
  Al  Al19  1  0.985285  0.832451  0.044696  1
  Al  Al20  1  0.186334  0.499755  0.441652  1
  Al  Al21  1  0.812942  0.500663  0.560434  1
  Al  Al22  1  0.731765  0.168033  0.183101  1
  Al  Al23  1  0.265011  0.843770  0.816658  1
  Al  Al24  1  0.068760  0.624555  0.815433  1
  Al  Al25  1  0.942187  0.367087  0.183843  1
  Al  Al26  1  0.847756  0.040832  0.815842  1
  Al  Al27  1  0.142618  0.957038  0.183286  1
  Pt  Pt28  1  0.121364  0.490335  0.639567  1
  Pt  Pt29  1  0.880439  0.507361  0.362045  1
  Pt  Pt30  1  0.657856  0.171359  0.998777  1
  Pt  Pt31  1  0.343424  0.827969  0.999224  1
  Pt  Pt32  1  0.536951  0.167705  0.361828  1
  Pt  Pt33  1  0.461998  0.834279  0.639268  1
  Pt  Pt34  1  0.777469  0.175053  0.638121  1
  Pt  Pt35  1  0.219949  0.825089  0.363353  1
  Pt  Pt36  1  0.000231  0.500379  0.998815  1
