# generated using pymatgen
data_Eu4YTmNb2O12
_symmetry_space_group_name_H-M   'P 1'
_cell_length_a   5.95163119
_cell_length_b   5.78469419
_cell_length_c   10.05888471
_cell_angle_alpha   55.18440494
_cell_angle_beta   89.83715345
_cell_angle_gamma   89.91491203
_symmetry_Int_Tables_number   1
_chemical_formula_structural   Eu4YTmNb2O12
_chemical_formula_sum   'Eu4 Y1 Tm1 Nb2 O12'
_cell_volume   284.31801855
_cell_formula_units_Z   1
loop_
 _symmetry_equiv_pos_site_id
 _symmetry_equiv_pos_as_xyz
  1  'x, y, z'
loop_
 _atom_site_type_symbol
 _atom_site_label
 _atom_site_symmetry_multiplicity
 _atom_site_fract_x
 _atom_site_fract_y
 _atom_site_fract_z
 _atom_site_occupancy
  Eu  Eu0  1  0.449682  0.265813  0.748944  1
  Eu  Eu1  1  0.949252  0.738775  0.746799  1
  Eu  Eu2  1  0.050748  0.261225  0.253201  1
  Eu  Eu3  1  0.550318  0.734187  0.251056  1
  Y  Y4  1  0.000000  0.000000  0.000000  1
  Tm  Tm5  1  0.500000  0.000000  0.500000  1
  Nb  Nb6  1  0.000000  0.500000  0.500000  1
  Nb  Nb7  1  0.500000  0.500000  0.000000  1
  O  O8  1  0.197586  0.734435  0.549428  1
  O  O9  1  0.691010  0.266497  0.948681  1
  O  O10  1  0.802414  0.265565  0.450572  1
  O  O11  1  0.308990  0.733503  0.051319  1
  O  O12  1  0.718165  0.638447  0.555578  1
  O  O13  1  0.217275  0.370104  0.942938  1
  O  O14  1  0.281835  0.361553  0.444422  1
  O  O15  1  0.782725  0.629896  0.057062  1
  O  O16  1  0.034270  0.163651  0.735719  1
  O  O17  1  0.534096  0.837764  0.761577  1
  O  O18  1  0.965730  0.836349  0.264281  1
  O  O19  1  0.465904  0.162236  0.238423  1
