# generated using pymatgen
data_Er2Lu10Co5Hg
_symmetry_space_group_name_H-M   'P 1'
_cell_length_a   8.08762361
_cell_length_b   8.07502486
_cell_length_c   8.08762386
_cell_angle_alpha   111.08298208
_cell_angle_beta   110.76139980
_cell_angle_gamma   106.66709106
_symmetry_Int_Tables_number   1
_chemical_formula_structural   Er2Lu10Co5Hg
_chemical_formula_sum   'Er2 Lu10 Co5 Hg1'
_cell_volume   405.54943021
_cell_formula_units_Z   1
loop_
 _symmetry_equiv_pos_site_id
 _symmetry_equiv_pos_as_xyz
  1  'x, y, z'
loop_
 _atom_site_type_symbol
 _atom_site_label
 _atom_site_symmetry_multiplicity
 _atom_site_fract_x
 _atom_site_fract_y
 _atom_site_fract_z
 _atom_site_occupancy
  Er  Er0  1  0.218080  0.026514  0.808434  1
  Er  Er1  1  0.781920  0.973486  0.191566  1
  Lu  Lu2  1  0.286195  0.184530  0.468941  1
  Lu  Lu3  1  0.713805  0.815470  0.531059  1
  Lu  Lu4  1  0.284411  0.815470  0.101665  1
  Lu  Lu5  1  0.715589  0.184530  0.898335  1
  Lu  Lu6  1  0.620160  0.317029  0.306064  1
  Lu  Lu7  1  0.379840  0.682971  0.693936  1
  Lu  Lu8  1  0.010966  0.317029  0.696869  1
  Lu  Lu9  1  0.989034  0.682971  0.303131  1
  Lu  Lu10  1  0.217201  0.409789  0.192587  1
  Lu  Lu11  1  0.782799  0.590211  0.807413  1
  Co  Co12  1  0.000176  0.374680  0.374504  1
  Co  Co13  1  0.999824  0.625320  0.625496  1
  Co  Co14  1  0.385517  0.885237  0.499720  1
  Co  Co15  1  0.614483  0.114763  0.500280  1
  Co  Co16  1  0.000000  0.000000  0.000000  1
  Hg  Hg17  1  0.500000  0.500000  0.000000  1
