# generated using pymatgen
data_PrScCdCu9
_symmetry_space_group_name_H-M   'P 1'
_cell_length_a   5.08969400
_cell_length_b   5.08969324
_cell_length_c   16.24584900
_cell_angle_alpha   90.00000000
_cell_angle_beta   90.00000000
_cell_angle_gamma   119.99999195
_symmetry_Int_Tables_number   1
_chemical_formula_structural   PrScCdCu9
_chemical_formula_sum   'Pr2 Sc2 Cd2 Cu18'
_cell_volume   364.46544546
_cell_formula_units_Z   2
loop_
 _symmetry_equiv_pos_site_id
 _symmetry_equiv_pos_as_xyz
  1  'x, y, z'
loop_
 _atom_site_type_symbol
 _atom_site_label
 _atom_site_symmetry_multiplicity
 _atom_site_fract_x
 _atom_site_fract_y
 _atom_site_fract_z
 _atom_site_occupancy
  Pr  Pr0  1  0.666667  0.333333  0.239350  1
  Pr  Pr1  1  0.333333  0.666667  0.739350  1
  Sc  Sc2  1  0.666667  0.333333  0.472220  1
  Sc  Sc3  1  0.333333  0.666667  0.972220  1
  Cd  Cd4  1  0.666667  0.333333  0.032590  1
  Cd  Cd5  1  0.333333  0.666667  0.532590  1
  Cu  Cu6  1  0.333333  0.666667  0.250494  1
  Cu  Cu7  1  0.666667  0.333333  0.750494  1
  Cu  Cu8  1  0.168606  0.831394  0.378004  1
  Cu  Cu9  1  0.168606  0.337213  0.378004  1
  Cu  Cu10  1  0.000000  0.000000  0.753093  1
  Cu  Cu11  1  0.000000  0.000000  0.253093  1
  Cu  Cu12  1  0.000000  0.000000  0.000045  1
  Cu  Cu13  1  0.000000  0.000000  0.500045  1
  Cu  Cu14  1  0.166875  0.333750  0.122732  1
  Cu  Cu15  1  0.833125  0.166875  0.622732  1
  Cu  Cu16  1  0.333750  0.166875  0.622732  1
  Cu  Cu17  1  0.666250  0.833125  0.122732  1
  Cu  Cu18  1  0.166875  0.833125  0.122732  1
  Cu  Cu19  1  0.831394  0.662787  0.878004  1
  Cu  Cu20  1  0.831394  0.168606  0.878004  1
  Cu  Cu21  1  0.833125  0.666250  0.622732  1
  Cu  Cu22  1  0.337213  0.168606  0.878004  1
  Cu  Cu23  1  0.662787  0.831394  0.378004  1
