# generated using pymatgen
data_Li2PrYAu2
_symmetry_space_group_name_H-M   'P 1'
_cell_length_a   4.19972600
_cell_length_b   7.44364802
_cell_length_c   8.79628400
_cell_angle_alpha   90.69334865
_cell_angle_beta   90.00000000
_cell_angle_gamma   90.00000000
_symmetry_Int_Tables_number   1
_chemical_formula_structural   Li2PrYAu2
_chemical_formula_sum   'Li4 Pr2 Y2 Au4'
_cell_volume   274.96298165
_cell_formula_units_Z   2
loop_
 _symmetry_equiv_pos_site_id
 _symmetry_equiv_pos_as_xyz
  1  'x, y, z'
loop_
 _atom_site_type_symbol
 _atom_site_label
 _atom_site_symmetry_multiplicity
 _atom_site_fract_x
 _atom_site_fract_y
 _atom_site_fract_z
 _atom_site_occupancy
  Li  Li0  1  0.250000  0.366607  0.557342  1
  Li  Li1  1  0.750000  0.121166  0.058577  1
  Li  Li2  1  0.250000  0.878834  0.941423  1
  Li  Li3  1  0.750000  0.633393  0.442658  1
  Pr  Pr4  1  0.250000  0.455459  0.188276  1
  Pr  Pr5  1  0.750000  0.544541  0.811724  1
  Y  Y6  1  0.250000  0.952248  0.320384  1
  Y  Y7  1  0.750000  0.047752  0.679616  1
  Au  Au8  1  0.750000  0.238704  0.381494  1
  Au  Au9  1  0.250000  0.243368  0.874574  1
  Au  Au10  1  0.750000  0.756632  0.125426  1
  Au  Au11  1  0.250000  0.761296  0.618506  1
