# generated using pymatgen
data_Li3Hf2Ir6W
_symmetry_space_group_name_H-M   'P 1'
_cell_length_a   4.39287700
_cell_length_b   6.19325300
_cell_length_c   13.16209300
_cell_angle_alpha   90.00000000
_cell_angle_beta   89.99872975
_cell_angle_gamma   90.00000000
_symmetry_Int_Tables_number   1
_chemical_formula_structural   Li3Hf2Ir6W
_chemical_formula_sum   'Li6 Hf4 Ir12 W2'
_cell_volume   358.09051688
_cell_formula_units_Z   2
loop_
 _symmetry_equiv_pos_site_id
 _symmetry_equiv_pos_as_xyz
  1  'x, y, z'
loop_
 _atom_site_type_symbol
 _atom_site_label
 _atom_site_symmetry_multiplicity
 _atom_site_fract_x
 _atom_site_fract_y
 _atom_site_fract_z
 _atom_site_occupancy
  Li  Li0  1  0.000006  0.500001  0.999694  1
  Li  Li1  1  0.499870  0.000000  0.166950  1
  Li  Li2  1  0.999892  0.500001  0.332670  1
  Li  Li3  1  0.500002  0.000000  0.499541  1
  Li  Li4  1  0.000114  0.500001  0.667129  1
  Li  Li5  1  0.500123  0.000000  0.834024  1
  Hf  Hf6  1  0.999892  0.000000  0.332297  1
  Hf  Hf7  1  0.500003  0.500001  0.499590  1
  Hf  Hf8  1  0.000109  0.000000  0.667080  1
  Hf  Hf9  1  0.500095  0.500001  0.834352  1
  Ir  Ir10  1  0.499993  0.241983  0.006016  1
  Ir  Ir11  1  0.499993  0.758017  0.006016  1
  Ir  Ir12  1  0.999903  0.258020  0.160648  1
  Ir  Ir13  1  0.999903  0.741980  0.160648  1
  Ir  Ir14  1  0.499890  0.255162  0.326503  1
  Ir  Ir15  1  0.499890  0.744838  0.326503  1
  Ir  Ir16  1  0.000006  0.249306  0.498898  1
  Ir  Ir17  1  0.000006  0.750694  0.498898  1
  Ir  Ir18  1  0.500111  0.250707  0.667774  1
  Ir  Ir19  1  0.500111  0.749293  0.667774  1
  Ir  Ir20  1  0.000099  0.244845  0.840162  1
  Ir  Ir21  1  0.000099  0.755155  0.840162  1
  W  W22  1  0.999998  0.000000  0.999511  1
  W  W23  1  0.499890  0.500001  0.167157  1
