# generated using pymatgen
data_Sc3Tl6RhCl18
_symmetry_space_group_name_H-M   'P 1'
_cell_length_a   7.28918300
_cell_length_b   7.28918305
_cell_length_c   18.28882900
_cell_angle_alpha   90.00000000
_cell_angle_beta   90.00000000
_cell_angle_gamma   119.99999522
_symmetry_Int_Tables_number   1
_chemical_formula_structural   Sc3Tl6RhCl18
_chemical_formula_sum   'Sc3 Tl6 Rh1 Cl18'
_cell_volume   841.53902847
_cell_formula_units_Z   1
loop_
 _symmetry_equiv_pos_site_id
 _symmetry_equiv_pos_as_xyz
  1  'x, y, z'
loop_
 _atom_site_type_symbol
 _atom_site_label
 _atom_site_symmetry_multiplicity
 _atom_site_fract_x
 _atom_site_fract_y
 _atom_site_fract_z
 _atom_site_occupancy
  Sc  Sc0  1  0.666667  0.333333  0.345864  1
  Sc  Sc1  1  0.666667  0.333333  0.155997  1
  Sc  Sc2  1  0.333333  0.666667  0.840316  1
  Tl  Tl3  1  0.333333  0.666667  0.059119  1
  Tl  Tl4  1  0.666667  0.333333  0.944179  1
  Tl  Tl5  1  0.666667  0.333333  0.565575  1
  Tl  Tl6  1  0.333333  0.666667  0.448623  1
  Tl  Tl7  1  0.000000  0.000000  0.254208  1
  Tl  Tl8  1  0.000000  0.000000  0.739375  1
  Rh  Rh9  1  0.333333  0.666667  0.664846  1
  Cl  Cl10  1  0.181037  0.362074  0.591727  1
  Cl  Cl11  1  0.829236  0.658472  0.414781  1
  Cl  Cl12  1  0.637926  0.818963  0.591727  1
  Cl  Cl13  1  0.828375  0.656749  0.085151  1
  Cl  Cl14  1  0.341528  0.170764  0.414781  1
  Cl  Cl15  1  0.171394  0.342787  0.909287  1
  Cl  Cl16  1  0.181037  0.818963  0.591727  1
  Cl  Cl17  1  0.343251  0.171625  0.085151  1
  Cl  Cl18  1  0.829236  0.170764  0.414781  1
  Cl  Cl19  1  0.657213  0.828606  0.909287  1
  Cl  Cl20  1  0.828375  0.171625  0.085151  1
  Cl  Cl21  1  0.171394  0.828606  0.909287  1
  Cl  Cl22  1  0.512575  0.025149  0.250020  1
  Cl  Cl23  1  0.486038  0.972076  0.743000  1
  Cl  Cl24  1  0.974851  0.487425  0.250020  1
  Cl  Cl25  1  0.027924  0.513962  0.743000  1
  Cl  Cl26  1  0.512575  0.487425  0.250020  1
  Cl  Cl27  1  0.486038  0.513962  0.743000  1
