# generated using pymatgen
data_Lu12Fe3Pb2
_symmetry_space_group_name_H-M   'P 1'
_cell_length_a   8.21682727
_cell_length_b   8.21791984
_cell_length_c   8.21279138
_cell_angle_alpha   108.43906725
_cell_angle_beta   108.40558760
_cell_angle_gamma   111.59451103
_symmetry_Int_Tables_number   1
_chemical_formula_structural   Lu12Fe3Pb2
_chemical_formula_sum   'Lu12 Fe3 Pb2'
_cell_volume   426.44433183
_cell_formula_units_Z   1
loop_
 _symmetry_equiv_pos_site_id
 _symmetry_equiv_pos_as_xyz
  1  'x, y, z'
loop_
 _atom_site_type_symbol
 _atom_site_label
 _atom_site_symmetry_multiplicity
 _atom_site_fract_x
 _atom_site_fract_y
 _atom_site_fract_z
 _atom_site_occupancy
  Lu  Lu0  1  0.308097  0.308113  0.616235  1
  Lu  Lu1  1  0.691903  0.691887  0.383765  1
  Lu  Lu2  1  0.691932  0.308135  0.000029  1
  Lu  Lu3  1  0.308068  0.691865  0.999971  1
  Lu  Lu4  1  0.192962  0.426367  0.233358  1
  Lu  Lu5  1  0.807038  0.573633  0.766642  1
  Lu  Lu6  1  0.192990  0.959598  0.766590  1
  Lu  Lu7  1  0.959571  0.193015  0.766594  1
  Lu  Lu8  1  0.807010  0.040402  0.233410  1
  Lu  Lu9  1  0.040429  0.806985  0.233406  1
  Lu  Lu10  1  0.426374  0.193001  0.233403  1
  Lu  Lu11  1  0.573626  0.806999  0.766597  1
  Fe  Fe12  1  0.383788  0.383785  0.999999  1
  Fe  Fe13  1  0.616212  0.616215  0.000001  1
  Fe  Fe14  1  0.000000  0.000000  0.000000  1
  Pb  Pb15  1  0.000000  0.500000  0.500000  1
  Pb  Pb16  1  0.500000  0.000000  0.500000  1
