# generated using pymatgen
data_Nd2Eu(CoH6)2
_symmetry_space_group_name_H-M   'P 1'
_cell_length_a   4.81859400
_cell_length_b   4.81859503
_cell_length_c   8.32078800
_cell_angle_alpha   90.00000000
_cell_angle_beta   90.00000000
_cell_angle_gamma   119.99999295
_symmetry_Int_Tables_number   1
_chemical_formula_structural   Nd2Eu(CoH6)2
_chemical_formula_sum   'Nd2 Eu1 Co2 H12'
_cell_volume   167.31538734
_cell_formula_units_Z   1
loop_
 _symmetry_equiv_pos_site_id
 _symmetry_equiv_pos_as_xyz
  1  'x, y, z'
loop_
 _atom_site_type_symbol
 _atom_site_label
 _atom_site_symmetry_multiplicity
 _atom_site_fract_x
 _atom_site_fract_y
 _atom_site_fract_z
 _atom_site_occupancy
  Nd  Nd0  1  0.666667  0.333333  0.359113  1
  Nd  Nd1  1  0.333333  0.666667  0.640887  1
  Eu  Eu2  1  0.000000  0.000000  0.000000  1
  Co  Co3  1  0.666667  0.333333  0.745604  1
  Co  Co4  1  0.333333  0.666667  0.254396  1
  H  H5  1  0.180738  0.819262  0.370985  1
  H  H6  1  0.638522  0.819262  0.370985  1
  H  H7  1  0.180738  0.361478  0.370985  1
  H  H8  1  0.819262  0.180738  0.629015  1
  H  H9  1  0.361478  0.180738  0.629015  1
  H  H10  1  0.819262  0.638522  0.629015  1
  H  H11  1  0.513825  0.027650  0.859600  1
  H  H12  1  0.513825  0.486175  0.859600  1
  H  H13  1  0.972350  0.486175  0.859600  1
  H  H14  1  0.486175  0.972350  0.140400  1
  H  H15  1  0.486175  0.513825  0.140400  1
  H  H16  1  0.027650  0.513825  0.140400  1
