# generated using pymatgen
data_LaTb2Pr5Au4
_symmetry_space_group_name_H-M   'P 1'
_cell_length_a   5.04385100
_cell_length_b   7.36475405
_cell_length_c   9.28922800
_cell_angle_alpha   90.00652719
_cell_angle_beta   90.00000000
_cell_angle_gamma   90.00000000
_symmetry_Int_Tables_number   1
_chemical_formula_structural   LaTb2Pr5Au4
_chemical_formula_sum   'La1 Tb2 Pr5 Au4'
_cell_volume   345.06436851
_cell_formula_units_Z   1
loop_
 _symmetry_equiv_pos_site_id
 _symmetry_equiv_pos_as_xyz
  1  'x, y, z'
loop_
 _atom_site_type_symbol
 _atom_site_label
 _atom_site_symmetry_multiplicity
 _atom_site_fract_x
 _atom_site_fract_y
 _atom_site_fract_z
 _atom_site_occupancy
  La  La0  1  0.250000  0.348774  0.588958  1
  Tb  Tb1  1  0.750000  0.149239  0.078347  1
  Tb  Tb2  1  0.250000  0.850385  0.922093  1
  Pr  Pr3  1  0.250000  0.490330  0.175526  1
  Pr  Pr4  1  0.750000  0.509584  0.823960  1
  Pr  Pr5  1  0.250000  0.991588  0.323622  1
  Pr  Pr6  1  0.750000  0.008251  0.676395  1
  Pr  Pr7  1  0.750000  0.652190  0.411292  1
  Au  Au8  1  0.250000  0.244167  0.911602  1
  Au  Au9  1  0.750000  0.755630  0.088422  1
  Au  Au10  1  0.250000  0.757489  0.609943  1
  Au  Au11  1  0.750000  0.242373  0.389841  1
