# generated using pymatgen
data_Ho3Sn2SbIr3
_symmetry_space_group_name_H-M   'P 1'
_cell_length_a   7.45398231
_cell_length_b   7.45398112
_cell_length_c   3.97710200
_cell_angle_alpha   90.00000000
_cell_angle_beta   90.00000000
_cell_angle_gamma   119.96694362
_symmetry_Int_Tables_number   1
_chemical_formula_structural   Ho3Sn2SbIr3
_chemical_formula_sum   'Ho3 Sn2 Sb1 Ir3'
_cell_volume   191.43377938
_cell_formula_units_Z   1
loop_
 _symmetry_equiv_pos_site_id
 _symmetry_equiv_pos_as_xyz
  1  'x, y, z'
loop_
 _atom_site_type_symbol
 _atom_site_label
 _atom_site_symmetry_multiplicity
 _atom_site_fract_x
 _atom_site_fract_y
 _atom_site_fract_z
 _atom_site_occupancy
  Ho  Ho0  1  0.401476  0.401476  0.500000  1
  Ho  Ho1  1  0.596136  0.001628  0.500000  1
  Ho  Ho2  1  0.001628  0.596136  0.500000  1
  Sn  Sn3  1  0.262311  0.001120  0.000000  1
  Sn  Sn4  1  0.001120  0.262311  0.000000  1
  Sb  Sb5  1  0.738443  0.738443  0.000000  1
  Ir  Ir6  1  0.666743  0.334209  0.000000  1
  Ir  Ir7  1  0.334209  0.666743  0.000000  1
  Ir  Ir8  1  0.997934  0.997934  0.500000  1
