# generated using pymatgen
data_DyOsI18
_symmetry_space_group_name_H-M   'P 1'
_cell_length_a   10.24286982
_cell_length_b   10.24287018
_cell_length_c   10.24287038
_cell_angle_alpha   94.55380540
_cell_angle_beta   94.55379803
_cell_angle_gamma   94.55381172
_symmetry_Int_Tables_number   1
_chemical_formula_structural   DyOsI18
_chemical_formula_sum   'Dy1 Os1 I18'
_cell_volume   1063.89210610
_cell_formula_units_Z   1
loop_
 _symmetry_equiv_pos_site_id
 _symmetry_equiv_pos_as_xyz
  1  'x, y, z'
loop_
 _atom_site_type_symbol
 _atom_site_label
 _atom_site_symmetry_multiplicity
 _atom_site_fract_x
 _atom_site_fract_y
 _atom_site_fract_z
 _atom_site_occupancy
  Dy  Dy0  1  0.000000  0.000000  0.000000  1
  Os  Os1  1  0.500000  0.500000  0.500000  1
  I  I2  1  0.704822  0.969577  0.022983  1
  I  I3  1  0.726473  0.136219  0.598096  1
  I  I4  1  0.022983  0.704822  0.969577  1
  I  I5  1  0.273527  0.863781  0.401904  1
  I  I6  1  0.136219  0.598096  0.726473  1
  I  I7  1  0.030423  0.977017  0.295178  1
  I  I8  1  0.598096  0.726473  0.136219  1
  I  I9  1  0.977017  0.295178  0.030423  1
  I  I10  1  0.863781  0.401904  0.273527  1
  I  I11  1  0.401904  0.273527  0.863781  1
  I  I12  1  0.969577  0.022983  0.704822  1
  I  I13  1  0.295178  0.030423  0.977017  1
  I  I14  1  0.763996  0.529960  0.506459  1
  I  I15  1  0.493541  0.236004  0.470040  1
  I  I16  1  0.470040  0.493541  0.236004  1
  I  I17  1  0.506459  0.763996  0.529960  1
  I  I18  1  0.529960  0.506459  0.763996  1
  I  I19  1  0.236004  0.470040  0.493541  1
