# generated using pymatgen
data_ScTcSn4
_symmetry_space_group_name_H-M   'P 1'
_cell_length_a   7.51848736
_cell_length_b   7.51848645
_cell_length_c   7.51848683
_cell_angle_alpha   125.62685890
_cell_angle_beta   125.62685096
_cell_angle_gamma   80.50229821
_symmetry_Int_Tables_number   1
_chemical_formula_structural   ScTcSn4
_chemical_formula_sum   'Sc2 Tc2 Sn8'
_cell_volume   270.84642342
_cell_formula_units_Z   2
loop_
 _symmetry_equiv_pos_site_id
 _symmetry_equiv_pos_as_xyz
  1  'x, y, z'
loop_
 _atom_site_type_symbol
 _atom_site_label
 _atom_site_symmetry_multiplicity
 _atom_site_fract_x
 _atom_site_fract_y
 _atom_site_fract_z
 _atom_site_occupancy
  Sc  Sc0  1  0.000000  0.000000  0.000000  1
  Sc  Sc1  1  0.500000  0.500000  0.000000  1
  Tc  Tc2  1  0.250000  0.250000  0.000000  1
  Tc  Tc3  1  0.750000  0.750000  0.000000  1
  Sn  Sn4  1  0.703950  0.515826  0.500000  1
  Sn  Sn5  1  0.515826  0.015826  0.811876  1
  Sn  Sn6  1  0.203950  0.703950  0.188124  1
  Sn  Sn7  1  0.796050  0.296050  0.811876  1
  Sn  Sn8  1  0.484174  0.984174  0.188124  1
  Sn  Sn9  1  0.296050  0.484174  0.500000  1
  Sn  Sn10  1  0.984174  0.796050  0.500000  1
  Sn  Sn11  1  0.015826  0.203950  0.500000  1
