# generated using pymatgen
data_LiAc2Si3P3Pd20
_symmetry_space_group_name_H-M   'P 1'
_cell_length_a   8.75570499
_cell_length_b   8.76283154
_cell_length_c   8.77274403
_cell_angle_alpha   59.90881205
_cell_angle_beta   59.98939597
_cell_angle_gamma   60.10178083
_symmetry_Int_Tables_number   1
_chemical_formula_structural   LiAc2Si3P3Pd20
_chemical_formula_sum   'Li1 Ac2 Si3 P3 Pd20'
_cell_volume   475.94143953
_cell_formula_units_Z   1
loop_
 _symmetry_equiv_pos_site_id
 _symmetry_equiv_pos_as_xyz
  1  'x, y, z'
loop_
 _atom_site_type_symbol
 _atom_site_label
 _atom_site_symmetry_multiplicity
 _atom_site_fract_x
 _atom_site_fract_y
 _atom_site_fract_z
 _atom_site_occupancy
  Li  Li0  1  0.000566  0.999434  0.000566  1
  Ac  Ac1  1  0.249441  0.250559  0.249441  1
  Ac  Ac2  1  0.749441  0.750559  0.749441  1
  Si  Si3  1  0.737388  0.262612  0.261021  1
  Si  Si4  1  0.261021  0.738979  0.737388  1
  Si  Si5  1  0.262284  0.737716  0.262284  1
  P  P6  1  0.738521  0.261479  0.738521  1
  P  P7  1  0.260862  0.262692  0.737308  1
  P  P8  1  0.737308  0.739138  0.260862  1
  Pd  Pd9  1  0.386569  0.386511  0.388824  1
  Pd  Pd10  1  0.613410  0.611725  0.611715  1
  Pd  Pd11  1  0.388275  0.386590  0.836849  1
  Pd  Pd12  1  0.388824  0.838096  0.386569  1
  Pd  Pd13  1  0.613489  0.613431  0.161904  1
  Pd  Pd14  1  0.611715  0.163151  0.613410  1
  Pd  Pd15  1  0.836849  0.388285  0.388275  1
  Pd  Pd16  1  0.161904  0.611176  0.613489  1
  Pd  Pd17  1  0.343841  0.002160  0.997840  1
  Pd  Pd18  1  0.657548  0.999913  0.000087  1
  Pd  Pd19  1  0.000087  0.342452  0.657548  1
  Pd  Pd20  1  0.997840  0.656159  0.343841  1
  Pd  Pd21  1  0.003211  0.343171  0.998706  1
  Pd  Pd22  1  0.656829  0.996789  0.345088  1
  Pd  Pd23  1  0.998706  0.654912  0.003211  1
  Pd  Pd24  1  0.345088  0.001294  0.656829  1
  Pd  Pd25  1  0.000172  0.999828  0.345379  1
  Pd  Pd26  1  0.997921  0.002079  0.655514  1
  Pd  Pd27  1  0.655514  0.344486  0.997921  1
  Pd  Pd28  1  0.345379  0.654621  0.000172  1
