# generated using pymatgen
data_Ho2Tm8GaBi5
_symmetry_space_group_name_H-M   'P 1'
_cell_length_a   8.09491000
_cell_length_b   9.35996900
_cell_length_c   11.87955900
_cell_angle_alpha   90.00000000
_cell_angle_beta   90.00000000
_cell_angle_gamma   90.00000000
_symmetry_Int_Tables_number   1
_chemical_formula_structural   Ho2Tm8GaBi5
_chemical_formula_sum   'Ho4 Tm16 Ga2 Bi10'
_cell_volume   900.09169336
_cell_formula_units_Z   2
loop_
 _symmetry_equiv_pos_site_id
 _symmetry_equiv_pos_as_xyz
  1  'x, y, z'
loop_
 _atom_site_type_symbol
 _atom_site_label
 _atom_site_symmetry_multiplicity
 _atom_site_fract_x
 _atom_site_fract_y
 _atom_site_fract_z
 _atom_site_occupancy
  Ho  Ho0  1  0.312730  0.250000  0.218668  1
  Ho  Ho1  1  0.812730  0.250000  0.281332  1
  Ho  Ho2  1  0.676964  0.750000  0.786522  1
  Ho  Ho3  1  0.176964  0.750000  0.713478  1
  Tm  Tm4  1  0.353779  0.750000  0.206327  1
  Tm  Tm5  1  0.853779  0.750000  0.293673  1
  Tm  Tm6  1  0.651930  0.250000  0.782580  1
  Tm  Tm7  1  0.151930  0.250000  0.717420  1
  Tm  Tm8  1  0.684075  0.571906  0.056093  1
  Tm  Tm9  1  0.184075  0.928094  0.443907  1
  Tm  Tm10  1  0.309574  0.048974  0.940571  1
  Tm  Tm11  1  0.809574  0.451026  0.559429  1
  Tm  Tm12  1  0.309574  0.451026  0.940571  1
  Tm  Tm13  1  0.809574  0.048974  0.559429  1
  Tm  Tm14  1  0.684075  0.928094  0.056093  1
  Tm  Tm15  1  0.184075  0.571906  0.443907  1
  Tm  Tm16  1  0.480444  0.250000  0.490369  1
  Tm  Tm17  1  0.980444  0.250000  0.009631  1
  Tm  Tm18  1  0.536674  0.750000  0.509917  1
  Tm  Tm19  1  0.036674  0.750000  0.990083  1
  Ga  Ga20  1  0.408308  0.750000  0.960548  1
  Ga  Ga21  1  0.908308  0.750000  0.539452  1
  Bi  Bi22  1  0.595088  0.250000  0.040807  1
  Bi  Bi23  1  0.095088  0.250000  0.459193  1
  Bi  Bi24  1  0.561495  0.995949  0.324555  1
  Bi  Bi25  1  0.061495  0.504051  0.175445  1
  Bi  Bi26  1  0.436897  0.497513  0.675619  1
  Bi  Bi27  1  0.936897  0.002487  0.824381  1
  Bi  Bi28  1  0.436897  0.002487  0.675619  1
  Bi  Bi29  1  0.936897  0.497513  0.824381  1
  Bi  Bi30  1  0.561495  0.504051  0.324555  1
  Bi  Bi31  1  0.061495  0.995949  0.175445  1
