# generated using pymatgen
data_SrYb5Pr2Zn3Si12Pd
_symmetry_space_group_name_H-M   'P 1'
_cell_length_a   8.27649600
_cell_length_b   8.27117903
_cell_length_c   8.45701700
_cell_angle_alpha   90.00000000
_cell_angle_beta   90.00000000
_cell_angle_gamma   120.02133097
_symmetry_Int_Tables_number   1
_chemical_formula_structural   SrYb5Pr2Zn3Si12Pd
_chemical_formula_sum   'Sr1 Yb5 Pr2 Zn3 Si12 Pd1'
_cell_volume   501.26614803
_cell_formula_units_Z   1
loop_
 _symmetry_equiv_pos_site_id
 _symmetry_equiv_pos_as_xyz
  1  'x, y, z'
loop_
 _atom_site_type_symbol
 _atom_site_label
 _atom_site_symmetry_multiplicity
 _atom_site_fract_x
 _atom_site_fract_y
 _atom_site_fract_z
 _atom_site_occupancy
  Sr  Sr0  1  0.500845  0.001689  0.252291  1
  Yb  Yb1  1  0.503389  0.497492  0.745148  1
  Yb  Yb2  1  0.503417  0.496865  0.255813  1
  Yb  Yb3  1  0.994102  0.497491  0.745148  1
  Yb  Yb4  1  0.993448  0.496865  0.255813  1
  Yb  Yb5  1  0.502953  0.005907  0.745448  1
  Pr  Pr6  1  0.000098  0.000198  0.749513  1
  Pr  Pr7  1  0.000072  0.000144  0.252012  1
  Zn  Zn8  1  0.667509  0.335018  0.985272  1
  Zn  Zn9  1  0.332415  0.664829  0.982115  1
  Zn  Zn10  1  0.332146  0.664290  0.514186  1
  Si  Si11  1  0.835767  0.166853  0.997485  1
  Si  Si12  1  0.163862  0.833775  0.996844  1
  Si  Si13  1  0.331087  0.166853  0.997485  1
  Si  Si14  1  0.162009  0.836856  0.502936  1
  Si  Si15  1  0.669912  0.833775  0.996844  1
  Si  Si16  1  0.834297  0.167874  0.504330  1
  Si  Si17  1  0.833909  0.667818  0.002745  1
  Si  Si18  1  0.674846  0.836856  0.502936  1
  Si  Si19  1  0.165665  0.331331  0.002091  1
  Si  Si20  1  0.333578  0.167874  0.504330  1
  Si  Si21  1  0.162824  0.325650  0.500392  1
  Si  Si22  1  0.833773  0.667546  0.501111  1
  Pd  Pd23  1  0.668075  0.336150  0.507714  1
