# generated using pymatgen
data_SmGd2RuCl3
_symmetry_space_group_name_H-M   'P 1'
_cell_length_a   4.06843800
_cell_length_b   8.22426927
_cell_length_c   11.54670700
_cell_angle_alpha   85.49089940
_cell_angle_beta   90.00000000
_cell_angle_gamma   90.00000000
_symmetry_Int_Tables_number   1
_chemical_formula_structural   SmGd2RuCl3
_chemical_formula_sum   'Sm2 Gd4 Ru2 Cl6'
_cell_volume   385.15618978
_cell_formula_units_Z   2
loop_
 _symmetry_equiv_pos_site_id
 _symmetry_equiv_pos_as_xyz
  1  'x, y, z'
loop_
 _atom_site_type_symbol
 _atom_site_label
 _atom_site_symmetry_multiplicity
 _atom_site_fract_x
 _atom_site_fract_y
 _atom_site_fract_z
 _atom_site_occupancy
  Sm  Sm0  1  0.250000  0.876323  0.838385  1
  Sm  Sm1  1  0.750000  0.123677  0.161615  1
  Gd  Gd2  1  0.250000  0.287738  0.395755  1
  Gd  Gd3  1  0.750000  0.712262  0.604245  1
  Gd  Gd4  1  0.250000  0.852881  0.359113  1
  Gd  Gd5  1  0.750000  0.147119  0.640887  1
  Ru  Ru6  1  0.250000  0.941819  0.597511  1
  Ru  Ru7  1  0.750000  0.058181  0.402489  1
  Cl  Cl8  1  0.250000  0.430052  0.627537  1
  Cl  Cl9  1  0.750000  0.569948  0.372463  1
  Cl  Cl10  1  0.250000  0.890785  0.102766  1
  Cl  Cl11  1  0.750000  0.109215  0.897234  1
  Cl  Cl12  1  0.250000  0.357855  0.141625  1
  Cl  Cl13  1  0.750000  0.642145  0.858375  1
