# generated using pymatgen
data_K3Rb7(Sb2Au)2
_symmetry_space_group_name_H-M   'P 1'
_cell_length_a   6.20458300
_cell_length_b   6.20458145
_cell_length_c   21.25898500
_cell_angle_alpha   90.00000000
_cell_angle_beta   90.00000000
_cell_angle_gamma   120.00000292
_symmetry_Int_Tables_number   1
_chemical_formula_structural   K3Rb7(Sb2Au)2
_chemical_formula_sum   'K3 Rb7 Sb4 Au2'
_cell_volume   708.75842324
_cell_formula_units_Z   1
loop_
 _symmetry_equiv_pos_site_id
 _symmetry_equiv_pos_as_xyz
  1  'x, y, z'
loop_
 _atom_site_type_symbol
 _atom_site_label
 _atom_site_symmetry_multiplicity
 _atom_site_fract_x
 _atom_site_fract_y
 _atom_site_fract_z
 _atom_site_occupancy
  K  K0  1  0.000000  0.000000  0.646460  1
  K  K1  1  0.000000  0.000000  0.853462  1
  K  K2  1  0.000000  0.000000  0.354027  1
  Rb  Rb3  1  0.333333  0.666667  0.550475  1
  Rb  Rb4  1  0.666667  0.333333  0.049973  1
  Rb  Rb5  1  0.666667  0.333333  0.449645  1
  Rb  Rb6  1  0.333333  0.666667  0.949543  1
  Rb  Rb7  1  0.000000  0.000000  0.148722  1
  Rb  Rb8  1  0.333333  0.666667  0.750022  1
  Rb  Rb9  1  0.666667  0.333333  0.250250  1
  Sb  Sb10  1  0.333333  0.666667  0.122973  1
  Sb  Sb11  1  0.666667  0.333333  0.623875  1
  Sb  Sb12  1  0.333333  0.666667  0.375395  1
  Sb  Sb13  1  0.666667  0.333333  0.875869  1
  Au  Au14  1  0.666667  0.333333  0.749943  1
  Au  Au15  1  0.333333  0.666667  0.249365  1
