# generated using pymatgen
data_HoTm2Zn3Si2Ag
_symmetry_space_group_name_H-M   'P 1'
_cell_length_a   6.81377300
_cell_length_b   6.82411923
_cell_length_c   4.26617200
_cell_angle_alpha   90.00000000
_cell_angle_beta   90.00000000
_cell_angle_gamma   119.94986446
_symmetry_Int_Tables_number   1
_chemical_formula_structural   HoTm2Zn3Si2Ag
_chemical_formula_sum   'Ho1 Tm2 Zn3 Si2 Ag1'
_cell_volume   171.87885150
_cell_formula_units_Z   1
loop_
 _symmetry_equiv_pos_site_id
 _symmetry_equiv_pos_as_xyz
  1  'x, y, z'
loop_
 _atom_site_type_symbol
 _atom_site_label
 _atom_site_symmetry_multiplicity
 _atom_site_fract_x
 _atom_site_fract_y
 _atom_site_fract_z
 _atom_site_occupancy
  Ho  Ho0  1  0.573992  0.000000  0.000000  1
  Tm  Tm1  1  0.999712  0.573821  0.000000  1
  Tm  Tm2  1  0.425891  0.426179  0.000000  1
  Zn  Zn3  1  0.248803  0.000000  0.500000  1
  Zn  Zn4  1  0.000222  0.249812  0.500000  1
  Zn  Zn5  1  0.750411  0.750188  0.500000  1
  Si  Si6  1  0.332388  0.665259  0.500000  1
  Si  Si7  1  0.667130  0.334741  0.500000  1
  Ag  Ag8  1  0.001451  0.000000  0.000000  1
