# generated using pymatgen
data_La14CuIr2Pd3
_symmetry_space_group_name_H-M   'P 1'
_cell_length_a   6.57803282
_cell_length_b   10.31206790
_cell_length_c   10.31206636
_cell_angle_alpha   119.86715029
_cell_angle_beta   90.20039855
_cell_angle_gamma   89.79960486
_symmetry_Int_Tables_number   1
_chemical_formula_structural   La14CuIr2Pd3
_chemical_formula_sum   'La14 Cu1 Ir2 Pd3'
_cell_volume   606.58883325
_cell_formula_units_Z   1
loop_
 _symmetry_equiv_pos_site_id
 _symmetry_equiv_pos_as_xyz
  1  'x, y, z'
loop_
 _atom_site_type_symbol
 _atom_site_label
 _atom_site_symmetry_multiplicity
 _atom_site_fract_x
 _atom_site_fract_y
 _atom_site_fract_z
 _atom_site_occupancy
  La  La0  1  0.471327  0.335993  0.664007  1
  La  La1  1  0.953190  0.666458  0.333542  1
  La  La2  1  0.240083  0.126361  0.873639  1
  La  La3  1  0.251060  0.742090  0.870211  1
  La  La4  1  0.251060  0.129789  0.257910  1
  La  La5  1  0.740525  0.876009  0.123991  1
  La  La6  1  0.738071  0.251021  0.134225  1
  La  La7  1  0.738071  0.865775  0.748979  1
  La  La8  1  0.443454  0.539021  0.460979  1
  La  La9  1  0.443171  0.928653  0.460046  1
  La  La10  1  0.443171  0.539954  0.071347  1
  La  La11  1  0.939103  0.458484  0.541516  1
  La  La12  1  0.942517  0.077077  0.533994  1
  La  La13  1  0.942517  0.466006  0.922923  1
  Cu  Cu14  1  0.186474  0.810820  0.189180  1
  Ir  Ir15  1  0.694602  0.624661  0.814209  1
  Ir  Ir16  1  0.694602  0.185791  0.375339  1
  Pd  Pd17  1  0.196491  0.375714  0.185286  1
  Pd  Pd18  1  0.196491  0.814714  0.624286  1
  Pd  Pd19  1  0.696018  0.185611  0.814389  1
