# generated using pymatgen
data_Zr2TiCoIr2
_symmetry_space_group_name_H-M   'P 1'
_cell_length_a   5.29079510
_cell_length_b   5.10088930
_cell_length_c   5.43014300
_cell_angle_alpha   57.84075447
_cell_angle_beta   59.12485364
_cell_angle_gamma   57.04380775
_symmetry_Int_Tables_number   1
_chemical_formula_structural   Zr2TiCoIr2
_chemical_formula_sum   'Zr2 Ti1 Co1 Ir2'
_cell_volume   98.80713409
_cell_formula_units_Z   1
loop_
 _symmetry_equiv_pos_site_id
 _symmetry_equiv_pos_as_xyz
  1  'x, y, z'
loop_
 _atom_site_type_symbol
 _atom_site_label
 _atom_site_symmetry_multiplicity
 _atom_site_fract_x
 _atom_site_fract_y
 _atom_site_fract_z
 _atom_site_occupancy
  Zr  Zr0  1  0.249409  0.244916  0.252838  1
  Zr  Zr1  1  0.000591  0.005084  0.997162  1
  Ti  Ti2  1  0.625000  0.125000  0.625000  1
  Co  Co3  1  0.125000  0.625000  0.625000  1
  Ir  Ir4  1  0.625000  0.625000  0.125000  1
  Ir  Ir5  1  0.625000  0.625000  0.625000  1
