# generated using pymatgen
data_TbYNb3P7Rh9
_symmetry_space_group_name_H-M   'P 1'
_cell_length_a   3.93287000
_cell_length_b   9.64905517
_cell_length_c   9.64942510
_cell_angle_alpha   119.98846112
_cell_angle_beta   89.99957531
_cell_angle_gamma   89.99985815
_symmetry_Int_Tables_number   1
_chemical_formula_structural   TbYNb3P7Rh9
_chemical_formula_sum   'Tb1 Y1 Nb3 P7 Rh9'
_cell_volume   317.15892485
_cell_formula_units_Z   1
loop_
 _symmetry_equiv_pos_site_id
 _symmetry_equiv_pos_as_xyz
  1  'x, y, z'
loop_
 _atom_site_type_symbol
 _atom_site_label
 _atom_site_symmetry_multiplicity
 _atom_site_fract_x
 _atom_site_fract_y
 _atom_site_fract_z
 _atom_site_occupancy
  Tb  Tb0  1  0.260509  0.666665  0.333456  1
  Y  Y1  1  0.761963  0.333330  0.666600  1
  Nb  Nb2  1  0.762282  0.095027  0.873833  1
  Nb  Nb3  1  0.762277  0.126116  0.221111  1
  Nb  Nb4  1  0.762290  0.778705  0.904880  1
  P  P5  1  0.262675  0.000023  0.000018  1
  P  P6  1  0.761498  0.876987  0.590019  1
  P  P7  1  0.761434  0.410063  0.286929  1
  P  P8  1  0.761457  0.713097  0.123276  1
  P  P9  1  0.262380  0.116964  0.416219  1
  P  P10  1  0.262406  0.583782  0.700763  1
  P  P11  1  0.262374  0.299210  0.883020  1
  Rh  Rh12  1  0.261902  0.883739  0.162709  1
  Rh  Rh13  1  0.261902  0.837153  0.721039  1
  Rh  Rh14  1  0.261896  0.279072  0.116315  1
  Rh  Rh15  1  0.761769  0.610358  0.556785  1
  Rh  Rh16  1  0.761775  0.443201  0.053478  1
  Rh  Rh17  1  0.761758  0.946556  0.389657  1
  Rh  Rh18  1  0.261810  0.367919  0.438781  1
  Rh  Rh19  1  0.261825  0.561090  0.928997  1
  Rh  Rh20  1  0.261819  0.070943  0.632111  1
