# generated using pymatgen
data_Ce5DyIrI10
_symmetry_space_group_name_H-M   'P 1'
_cell_length_a   7.94646995
_cell_length_b   9.97592728
_cell_length_c   10.02802400
_cell_angle_alpha   107.15509967
_cell_angle_beta   104.62520320
_cell_angle_gamma   96.54517162
_symmetry_Int_Tables_number   1
_chemical_formula_structural   Ce5DyIrI10
_chemical_formula_sum   'Ce5 Dy1 Ir1 I10'
_cell_volume   719.54413279
_cell_formula_units_Z   1
loop_
 _symmetry_equiv_pos_site_id
 _symmetry_equiv_pos_as_xyz
  1  'x, y, z'
loop_
 _atom_site_type_symbol
 _atom_site_label
 _atom_site_symmetry_multiplicity
 _atom_site_fract_x
 _atom_site_fract_y
 _atom_site_fract_z
 _atom_site_occupancy
  Ce  Ce0  1  0.359228  0.172890  0.127915  1
  Ce  Ce1  1  0.031692  0.909045  0.707095  1
  Ce  Ce2  1  0.963743  0.087542  0.291733  1
  Ce  Ce3  1  0.112862  0.765308  0.041288  1
  Ce  Ce4  1  0.881997  0.232569  0.956184  1
  Dy  Dy5  1  0.651635  0.833074  0.876708  1
  Ir  Ir6  1  0.997865  0.999563  0.999395  1
  I  I7  1  0.641564  0.727923  0.557126  1
  I  I8  1  0.351877  0.271594  0.453392  1
  I  I9  1  0.236433  0.655764  0.747629  1
  I  I10  1  0.781464  0.353589  0.257370  1
  I  I11  1  0.456386  0.083692  0.813423  1
  I  I12  1  0.545671  0.904075  0.176943  1
  I  I13  1  0.253874  0.461491  0.083845  1
  I  I14  1  0.736569  0.544155  0.910842  1
  I  I15  1  0.086152  0.816962  0.370533  1
  I  I16  1  0.910988  0.180765  0.628579  1
