# generated using pymatgen
data_TbCd3(Ru2O7)2
_symmetry_space_group_name_H-M   'P 1'
_cell_length_a   7.28410312
_cell_length_b   7.23413569
_cell_length_c   7.23413700
_cell_angle_alpha   59.99999860
_cell_angle_beta   60.22666042
_cell_angle_gamma   60.22665953
_symmetry_Int_Tables_number   1
_chemical_formula_structural   TbCd3(Ru2O7)2
_chemical_formula_sum   'Tb1 Cd3 Ru4 O14'
_cell_volume   270.46674558
_cell_formula_units_Z   1
loop_
 _symmetry_equiv_pos_site_id
 _symmetry_equiv_pos_as_xyz
  1  'x, y, z'
loop_
 _atom_site_type_symbol
 _atom_site_label
 _atom_site_symmetry_multiplicity
 _atom_site_fract_x
 _atom_site_fract_y
 _atom_site_fract_z
 _atom_site_occupancy
  Tb  Tb0  1  0.625000  0.125000  0.125000  1
  Cd  Cd1  1  0.125000  0.625000  0.125000  1
  Cd  Cd2  1  0.125000  0.125000  0.625000  1
  Cd  Cd3  1  0.125000  0.125000  0.125000  1
  Ru  Ru4  1  0.625000  0.125000  0.625000  1
  Ru  Ru5  1  0.625000  0.625000  0.125000  1
  Ru  Ru6  1  0.125000  0.625000  0.625000  1
  Ru  Ru7  1  0.625000  0.625000  0.625000  1
  O  O8  1  0.702677  0.705407  0.295958  1
  O  O9  1  0.938389  0.559591  0.559591  1
  O  O10  1  0.547323  0.954042  0.954042  1
  O  O11  1  0.938389  0.942430  0.559591  1
  O  O12  1  0.938389  0.559591  0.942430  1
  O  O13  1  0.547323  0.954042  0.544593  1
  O  O14  1  0.311611  0.690409  0.307570  1
  O  O15  1  0.311611  0.690409  0.690409  1
  O  O16  1  0.702677  0.295958  0.295958  1
  O  O17  1  0.702677  0.295958  0.705407  1
  O  O18  1  0.547323  0.544593  0.954042  1
  O  O19  1  0.311611  0.307570  0.690409  1
  O  O20  1  0.243127  0.252291  0.252291  1
  O  O21  1  0.006873  0.997709  0.997709  1
