# generated using pymatgen
data_Tb8TmSc(SiB4)4
_symmetry_space_group_name_H-M   'P 1'
_cell_length_a   7.21946000
_cell_length_b   7.21946000
_cell_length_c   8.04692600
_cell_angle_alpha   90.00000000
_cell_angle_beta   90.00000000
_cell_angle_gamma   90.00000000
_symmetry_Int_Tables_number   1
_chemical_formula_structural   Tb8TmSc(SiB4)4
_chemical_formula_sum   'Tb8 Tm1 Sc1 Si4 B16'
_cell_volume   419.41063293
_cell_formula_units_Z   1
loop_
 _symmetry_equiv_pos_site_id
 _symmetry_equiv_pos_as_xyz
  1  'x, y, z'
loop_
 _atom_site_type_symbol
 _atom_site_label
 _atom_site_symmetry_multiplicity
 _atom_site_fract_x
 _atom_site_fract_y
 _atom_site_fract_z
 _atom_site_occupancy
  Tb  Tb0  1  0.680803  0.179805  0.226867  1
  Tb  Tb1  1  0.319197  0.820195  0.773133  1
  Tb  Tb2  1  0.319197  0.820195  0.226867  1
  Tb  Tb3  1  0.820195  0.680803  0.226867  1
  Tb  Tb4  1  0.820195  0.680803  0.773133  1
  Tb  Tb5  1  0.680803  0.179805  0.773133  1
  Tb  Tb6  1  0.179805  0.319197  0.773133  1
  Tb  Tb7  1  0.179805  0.319197  0.226867  1
  Tm  Tm8  1  0.500000  0.500000  0.500000  1
  Sc  Sc9  1  0.000000  0.000000  0.500000  1
  Si  Si10  1  0.111320  0.621248  0.500000  1
  Si  Si11  1  0.888680  0.378752  0.500000  1
  Si  Si12  1  0.378752  0.111320  0.500000  1
  Si  Si13  1  0.621248  0.888680  0.500000  1
  B  B14  1  0.172765  0.038872  0.000000  1
  B  B15  1  0.827235  0.961128  0.000000  1
  B  B16  1  0.961128  0.172765  0.000000  1
  B  B17  1  0.327578  0.539106  0.000000  1
  B  B18  1  0.038872  0.827235  0.000000  1
  B  B19  1  0.672422  0.460894  0.000000  1
  B  B20  1  0.539106  0.672422  0.000000  1
  B  B21  1  0.460894  0.327578  0.000000  1
  B  B22  1  0.089876  0.589841  0.000000  1
  B  B23  1  0.910124  0.410159  0.000000  1
  B  B24  1  0.410159  0.089876  0.000000  1
  B  B25  1  0.589841  0.910124  0.000000  1
  B  B26  1  0.000000  0.000000  0.163139  1
  B  B27  1  0.000000  0.000000  0.836861  1
  B  B28  1  0.500000  0.500000  0.836670  1
  B  B29  1  0.500000  0.500000  0.163330  1
