# generated using pymatgen
data_As(S8Br)3
_symmetry_space_group_name_H-M   'P 1'
_cell_length_a   15.41877938
_cell_length_b   15.41878013
_cell_length_c   15.41877911
_cell_angle_alpha   118.77514491
_cell_angle_beta   118.77514635
_cell_angle_gamma   118.77515033
_symmetry_Int_Tables_number   1
_chemical_formula_structural   As(S8Br)3
_chemical_formula_sum   'As1 S24 Br3'
_cell_volume   1048.08131060
_cell_formula_units_Z   1
loop_
 _symmetry_equiv_pos_site_id
 _symmetry_equiv_pos_as_xyz
  1  'x, y, z'
loop_
 _atom_site_type_symbol
 _atom_site_label
 _atom_site_symmetry_multiplicity
 _atom_site_fract_x
 _atom_site_fract_y
 _atom_site_fract_z
 _atom_site_occupancy
  As  As0  1  0.772579  0.772579  0.772579  1
  S  S1  1  0.805635  0.519987  0.519987  1
  S  S2  1  0.519987  0.519987  0.805635  1
  S  S3  1  0.519987  0.805635  0.519987  1
  S  S4  1  0.245533  0.372150  0.635784  1
  S  S5  1  0.357710  0.953230  0.357710  1
  S  S6  1  0.357710  0.357710  0.953230  1
  S  S7  1  0.953230  0.357710  0.357710  1
  S  S8  1  0.131170  0.740282  0.257683  1
  S  S9  1  0.257683  0.131170  0.740282  1
  S  S10  1  0.740282  0.257683  0.131170  1
  S  S11  1  0.740282  0.131170  0.257683  1
  S  S12  1  0.257683  0.740282  0.131170  1
  S  S13  1  0.131170  0.257683  0.740282  1
  S  S14  1  0.349543  0.879495  0.528463  1
  S  S15  1  0.528463  0.349543  0.879495  1
  S  S16  1  0.879495  0.528463  0.349543  1
  S  S17  1  0.879495  0.349543  0.528463  1
  S  S18  1  0.528463  0.879495  0.349543  1
  S  S19  1  0.349543  0.528463  0.879495  1
  S  S20  1  0.245533  0.635784  0.372150  1
  S  S21  1  0.372150  0.245533  0.635784  1
  S  S22  1  0.635784  0.372150  0.245533  1
  S  S23  1  0.635784  0.245533  0.372150  1
  S  S24  1  0.372150  0.635784  0.245533  1
  Br  Br25  1  0.894530  0.031862  0.031862  1
  Br  Br26  1  0.031862  0.031862  0.894530  1
  Br  Br27  1  0.031862  0.894530  0.031862  1
