# generated using pymatgen
data_Ba4Cr3FeF28
_symmetry_space_group_name_H-M   'P 1'
_cell_length_a   10.00788776
_cell_length_b   5.45287164
_cell_length_c   10.22996180
_cell_angle_alpha   86.33325078
_cell_angle_beta   90.12922770
_cell_angle_gamma   90.44076257
_symmetry_Int_Tables_number   1
_chemical_formula_structural   Ba4Cr3FeF28
_chemical_formula_sum   'Ba4 Cr3 Fe1 F28'
_cell_volume   557.10650474
_cell_formula_units_Z   1
loop_
 _symmetry_equiv_pos_site_id
 _symmetry_equiv_pos_as_xyz
  1  'x, y, z'
loop_
 _atom_site_type_symbol
 _atom_site_label
 _atom_site_symmetry_multiplicity
 _atom_site_fract_x
 _atom_site_fract_y
 _atom_site_fract_z
 _atom_site_occupancy
  Ba  Ba0  1  0.299657  0.754773  0.518616  1
  Ba  Ba1  1  0.793148  0.259455  0.991033  1
  Ba  Ba2  1  0.708500  0.255840  0.527236  1
  Ba  Ba3  1  0.212973  0.735173  0.966389  1
  Cr  Cr4  1  0.388870  0.176411  0.191369  1
  Cr  Cr5  1  0.889463  0.822839  0.309325  1
  Cr  Cr6  1  0.107337  0.186204  0.687890  1
  Fe  Fe7  1  0.608022  0.813442  0.812124  1
  F  F8  1  0.450577  0.901425  0.129885  1
  F  F9  1  0.039004  0.670871  0.360237  1
  F  F10  1  0.686483  0.538284  0.757266  1
  F  F11  1  0.313774  0.449655  0.243070  1
  F  F12  1  0.457928  0.102771  0.352493  1
  F  F13  1  0.808947  0.750549  0.468348  1
  F  F14  1  0.759484  0.012246  0.761267  1
  F  F15  1  0.955292  0.899450  0.147293  1
  F  F16  1  0.455260  0.640449  0.863396  1
  F  F17  1  0.190794  0.468352  0.745189  1
  F  F18  1  0.051245  0.901434  0.619962  1
  F  F19  1  0.541399  0.087164  0.874258  1
  F  F20  1  0.261346  0.002121  0.740681  1
  F  F21  1  0.968710  0.599012  0.920018  1
  F  F22  1  0.540707  0.900232  0.637528  1
  F  F23  1  0.040549  0.100679  0.855334  1
  F  F24  1  0.241189  0.998934  0.243584  1
  F  F25  1  0.953353  0.098375  0.370745  1
  F  F26  1  0.465374  0.396838  0.576470  1
  F  F27  1  0.951422  0.340563  0.638514  1
  F  F28  1  0.033057  0.411670  0.080924  1
  F  F29  1  0.741263  0.000002  0.259833  1
  F  F30  1  0.534297  0.586180  0.418085  1
  F  F31  1  0.307945  0.244280  0.031882  1
  F  F32  1  0.192672  0.267114  0.527205  1
  F  F33  1  0.698609  0.748184  0.977879  1
  F  F34  1  0.539736  0.329748  0.138725  1
  F  F35  1  0.811612  0.549281  0.255949  1
