# generated using pymatgen
data_RbPr2Sm(SbAu)4
_symmetry_space_group_name_H-M   'P 1'
_cell_length_a   4.68584200
_cell_length_b   4.68584268
_cell_length_c   17.88338600
_cell_angle_alpha   90.00000000
_cell_angle_beta   90.00000000
_cell_angle_gamma   119.99999517
_symmetry_Int_Tables_number   1
_chemical_formula_structural   RbPr2Sm(SbAu)4
_chemical_formula_sum   'Rb1 Pr2 Sm1 Sb4 Au4'
_cell_volume   340.06015484
_cell_formula_units_Z   1
loop_
 _symmetry_equiv_pos_site_id
 _symmetry_equiv_pos_as_xyz
  1  'x, y, z'
loop_
 _atom_site_type_symbol
 _atom_site_label
 _atom_site_symmetry_multiplicity
 _atom_site_fract_x
 _atom_site_fract_y
 _atom_site_fract_z
 _atom_site_occupancy
  Rb  Rb0  1  0.000000  0.000000  0.250000  1
  Pr  Pr1  1  0.000000  0.000000  0.516746  1
  Pr  Pr2  1  0.000000  0.000000  0.983254  1
  Sm  Sm3  1  0.000000  0.000000  0.750000  1
  Sb  Sb4  1  0.333333  0.666667  0.396557  1
  Sb  Sb5  1  0.666667  0.333333  0.622293  1
  Sb  Sb6  1  0.666667  0.333333  0.877707  1
  Sb  Sb7  1  0.333333  0.666667  0.103443  1
  Au  Au8  1  0.666667  0.333333  0.421927  1
  Au  Au9  1  0.333333  0.666667  0.667924  1
  Au  Au10  1  0.333333  0.666667  0.832076  1
  Au  Au11  1  0.666667  0.333333  0.078073  1
