# generated using pymatgen
data_Tb3Lu7Cd3Ru
_symmetry_space_group_name_H-M   'P 1'
_cell_length_a   9.47353800
_cell_length_b   9.47353924
_cell_length_c   9.68091500
_cell_angle_alpha   90.00000000
_cell_angle_beta   90.00000000
_cell_angle_gamma   119.99999568
_symmetry_Int_Tables_number   1
_chemical_formula_structural   Tb3Lu7Cd3Ru
_chemical_formula_sum   'Tb6 Lu14 Cd6 Ru2'
_cell_volume   752.43938059
_cell_formula_units_Z   2
loop_
 _symmetry_equiv_pos_site_id
 _symmetry_equiv_pos_as_xyz
  1  'x, y, z'
loop_
 _atom_site_type_symbol
 _atom_site_label
 _atom_site_symmetry_multiplicity
 _atom_site_fract_x
 _atom_site_fract_y
 _atom_site_fract_z
 _atom_site_occupancy
  Tb  Tb0  1  0.540291  0.459709  0.250000  1
  Tb  Tb1  1  0.540291  0.080582  0.250000  1
  Tb  Tb2  1  0.919418  0.459709  0.250000  1
  Tb  Tb3  1  0.459709  0.540291  0.750000  1
  Tb  Tb4  1  0.459709  0.919418  0.750000  1
  Tb  Tb5  1  0.080582  0.540291  0.750000  1
  Lu  Lu6  1  0.000000  0.000000  0.500000  1
  Lu  Lu7  1  0.000000  0.000000  0.000000  1
  Lu  Lu8  1  0.210153  0.789847  0.439893  1
  Lu  Lu9  1  0.210153  0.420308  0.439893  1
  Lu  Lu10  1  0.579692  0.789847  0.439893  1
  Lu  Lu11  1  0.789847  0.210153  0.560107  1
  Lu  Lu12  1  0.789847  0.579692  0.560107  1
  Lu  Lu13  1  0.420308  0.210153  0.560107  1
  Lu  Lu14  1  0.789847  0.210153  0.939893  1
  Lu  Lu15  1  0.789847  0.579692  0.939893  1
  Lu  Lu16  1  0.420308  0.210153  0.939893  1
  Lu  Lu17  1  0.210153  0.789847  0.060107  1
  Lu  Lu18  1  0.210153  0.420308  0.060107  1
  Lu  Lu19  1  0.579692  0.789847  0.060107  1
  Cd  Cd20  1  0.886377  0.113623  0.250000  1
  Cd  Cd21  1  0.886377  0.772754  0.250000  1
  Cd  Cd22  1  0.227246  0.113623  0.250000  1
  Cd  Cd23  1  0.113623  0.886377  0.750000  1
  Cd  Cd24  1  0.113623  0.227246  0.750000  1
  Cd  Cd25  1  0.772754  0.886377  0.750000  1
  Ru  Ru26  1  0.333333  0.666667  0.250000  1
  Ru  Ru27  1  0.666667  0.333333  0.750000  1
