# generated using pymatgen
data_Sc4Zn2CdOs
_symmetry_space_group_name_H-M   'P 1'
_cell_length_a   6.75652000
_cell_length_b   6.70321500
_cell_length_c   6.75833300
_cell_angle_alpha   90.00010215
_cell_angle_beta   90.00046634
_cell_angle_gamma   89.99973584
_symmetry_Int_Tables_number   1
_chemical_formula_structural   Sc4Zn2CdOs
_chemical_formula_sum   'Sc8 Zn4 Cd2 Os2'
_cell_volume   306.08764688
_cell_formula_units_Z   2
loop_
 _symmetry_equiv_pos_site_id
 _symmetry_equiv_pos_as_xyz
  1  'x, y, z'
loop_
 _atom_site_type_symbol
 _atom_site_label
 _atom_site_symmetry_multiplicity
 _atom_site_fract_x
 _atom_site_fract_y
 _atom_site_fract_z
 _atom_site_occupancy
  Sc  Sc0  1  0.234533  0.999994  0.265484  1
  Sc  Sc1  1  0.234532  0.500017  0.265483  1
  Sc  Sc2  1  0.765479  0.000006  0.265493  1
  Sc  Sc3  1  0.765475  0.499983  0.265495  1
  Sc  Sc4  1  0.234521  0.999994  0.734507  1
  Sc  Sc5  1  0.234525  0.500018  0.734505  1
  Sc  Sc6  1  0.765467  0.000006  0.734515  1
  Sc  Sc7  1  0.765468  0.499982  0.734516  1
  Zn  Zn8  1  0.000008  0.249999  0.000000  1
  Zn  Zn9  1  0.999992  0.750000  0.000000  1
  Zn  Zn10  1  0.499972  0.249998  0.499999  1
  Zn  Zn11  1  0.500028  0.750001  0.500001  1
  Cd  Cd12  1  0.499985  0.249999  0.000000  1
  Cd  Cd13  1  0.500015  0.750000  0.000000  1
  Os  Os14  1  0.999991  0.750001  0.500000  1
  Os  Os15  1  0.000009  0.249998  0.500001  1
