# generated using pymatgen
data_ZnTc6SnO24
_symmetry_space_group_name_H-M   'P 1'
_cell_length_a   10.48373401
_cell_length_b   10.48373308
_cell_length_c   10.48373198
_cell_angle_alpha   49.04577320
_cell_angle_beta   49.04578560
_cell_angle_gamma   49.04578611
_symmetry_Int_Tables_number   1
_chemical_formula_structural   ZnTc6SnO24
_chemical_formula_sum   'Zn1 Tc6 Sn1 O24'
_cell_volume   603.51003181
_cell_formula_units_Z   1
loop_
 _symmetry_equiv_pos_site_id
 _symmetry_equiv_pos_as_xyz
  1  'x, y, z'
loop_
 _atom_site_type_symbol
 _atom_site_label
 _atom_site_symmetry_multiplicity
 _atom_site_fract_x
 _atom_site_fract_y
 _atom_site_fract_z
 _atom_site_occupancy
  Zn  Zn0  1  0.000000  0.000000  0.000000  1
  Tc  Tc1  1  0.593645  0.908719  0.248589  1
  Tc  Tc2  1  0.248589  0.593645  0.908719  1
  Tc  Tc3  1  0.908719  0.248589  0.593645  1
  Tc  Tc4  1  0.751411  0.406355  0.091281  1
  Tc  Tc5  1  0.091281  0.751411  0.406355  1
  Tc  Tc6  1  0.406355  0.091281  0.751411  1
  Sn  Sn7  1  0.500000  0.500000  0.500000  1
  O  O8  1  0.808844  0.887589  0.177053  1
  O  O9  1  0.177053  0.808844  0.887589  1
  O  O10  1  0.887589  0.177053  0.808844  1
  O  O11  1  0.678685  0.380164  0.315327  1
  O  O12  1  0.315327  0.678685  0.380164  1
  O  O13  1  0.380164  0.315327  0.678685  1
  O  O14  1  0.191156  0.112411  0.822947  1
  O  O15  1  0.822947  0.191156  0.112411  1
  O  O16  1  0.112411  0.822947  0.191156  1
  O  O17  1  0.321315  0.619836  0.684673  1
  O  O18  1  0.684673  0.321315  0.619836  1
  O  O19  1  0.619836  0.684673  0.321315  1
  O  O20  1  0.437648  0.981833  0.424196  1
  O  O21  1  0.424196  0.437648  0.981833  1
  O  O22  1  0.981833  0.424196  0.437648  1
  O  O23  1  0.929133  0.476656  0.935568  1
  O  O24  1  0.935568  0.929133  0.476656  1
  O  O25  1  0.476656  0.935568  0.929133  1
  O  O26  1  0.562352  0.018167  0.575804  1
  O  O27  1  0.575804  0.562352  0.018167  1
  O  O28  1  0.018167  0.575804  0.562352  1
  O  O29  1  0.070867  0.523344  0.064432  1
  O  O30  1  0.064432  0.070867  0.523344  1
  O  O31  1  0.523344  0.064432  0.070867  1
