# generated using pymatgen
data_Tb2Gd2S9
_symmetry_space_group_name_H-M   'P 1'
_cell_length_a   12.55337936
_cell_length_b   20.86907534
_cell_length_c   22.45104430
_cell_angle_alpha   100.73543767
_cell_angle_beta   101.11416212
_cell_angle_gamma   104.14363425
_symmetry_Int_Tables_number   1
_chemical_formula_structural   Tb2Gd2S9
_chemical_formula_sum   'Tb2 Gd2 S9'
_cell_volume   5425.45735054
_cell_formula_units_Z   1
loop_
 _symmetry_equiv_pos_site_id
 _symmetry_equiv_pos_as_xyz
  1  'x, y, z'
loop_
 _atom_site_type_symbol
 _atom_site_label
 _atom_site_symmetry_multiplicity
 _atom_site_fract_x
 _atom_site_fract_y
 _atom_site_fract_z
 _atom_site_occupancy
  Tb  Tb0  1  0.858246  0.498420  0.937175  1
  Tb  Tb1  1  0.433381  0.308237  0.759280  1
  Gd  Gd2  1  0.646219  0.962740  0.581900  1
  Gd  Gd3  1  0.753098  0.060374  0.470576  1
  S  S4  1  0.015719  0.260892  0.856249  1
  S  S5  1  0.849535  0.597307  0.758739  1
  S  S6  1  0.247826  0.593066  0.579984  1
  S  S7  1  0.278304  0.029556  0.295458  1
  S  S8  1  0.230084  0.818420  0.342594  1
  S  S9  1  0.596593  0.685059  0.401403  1
  S  S10  1  0.959415  0.590735  0.375291  1
  S  S11  1  0.735159  0.374166  0.188688  1
  S  S12  1  0.476560  0.689815  0.041927  1
