# generated using pymatgen
data_Er2Lu3(RuO6)2
_symmetry_space_group_name_H-M   'P 1'
_cell_length_a   6.74074596
_cell_length_b   6.74074549
_cell_length_c   7.33472565
_cell_angle_alpha   74.14332501
_cell_angle_beta   74.14332771
_cell_angle_gamma   49.45422780
_symmetry_Int_Tables_number   1
_chemical_formula_structural   Er2Lu3(RuO6)2
_chemical_formula_sum   'Er2 Lu3 Ru2 O12'
_cell_volume   241.51981811
_cell_formula_units_Z   1
loop_
 _symmetry_equiv_pos_site_id
 _symmetry_equiv_pos_as_xyz
  1  'x, y, z'
loop_
 _atom_site_type_symbol
 _atom_site_label
 _atom_site_symmetry_multiplicity
 _atom_site_fract_x
 _atom_site_fract_y
 _atom_site_fract_z
 _atom_site_occupancy
  Er  Er0  1  0.698485  0.698485  0.641580  1
  Er  Er1  1  0.301515  0.301515  0.358420  1
  Lu  Lu2  1  0.687526  0.687526  0.172986  1
  Lu  Lu3  1  0.312474  0.312474  0.827014  1
  Lu  Lu4  1  0.000000  0.000000  0.500000  1
  Ru  Ru5  1  0.778227  0.221773  0.000000  1
  Ru  Ru6  1  0.221773  0.778227  0.000000  1
  O  O7  1  0.001235  0.001235  0.205390  1
  O  O8  1  0.998765  0.998765  0.794610  1
  O  O9  1  0.579039  0.083890  0.086378  1
  O  O10  1  0.420961  0.916110  0.913622  1
  O  O11  1  0.916110  0.420961  0.913622  1
  O  O12  1  0.083890  0.579039  0.086378  1
  O  O13  1  0.500287  0.500287  0.178959  1
  O  O14  1  0.499713  0.499713  0.821041  1
  O  O15  1  0.402795  0.899083  0.426458  1
  O  O16  1  0.597205  0.100917  0.573542  1
  O  O17  1  0.100917  0.597205  0.573542  1
  O  O18  1  0.899083  0.402795  0.426458  1
