# generated using pymatgen
data_CuRh4Pb3O14
_symmetry_space_group_name_H-M   'P 1'
_cell_length_a   7.15617941
_cell_length_b   7.27926703
_cell_length_c   7.27926700
_cell_angle_alpha   59.99999561
_cell_angle_beta   59.42936794
_cell_angle_gamma   59.42937384
_symmetry_Int_Tables_number   1
_chemical_formula_structural   CuRh4Pb3O14
_chemical_formula_sum   'Cu1 Rh4 Pb3 O14'
_cell_volume   265.79165767
_cell_formula_units_Z   1
loop_
 _symmetry_equiv_pos_site_id
 _symmetry_equiv_pos_as_xyz
  1  'x, y, z'
loop_
 _atom_site_type_symbol
 _atom_site_label
 _atom_site_symmetry_multiplicity
 _atom_site_fract_x
 _atom_site_fract_y
 _atom_site_fract_z
 _atom_site_occupancy
  Cu  Cu0  1  0.625000  0.125000  0.125000  1
  Rh  Rh1  1  0.625000  0.625000  0.625000  1
  Rh  Rh2  1  0.625000  0.625000  0.125000  1
  Rh  Rh3  1  0.125000  0.625000  0.625000  1
  Rh  Rh4  1  0.625000  0.125000  0.625000  1
  Pb  Pb5  1  0.125000  0.125000  0.125000  1
  Pb  Pb6  1  0.125000  0.625000  0.125000  1
  Pb  Pb7  1  0.125000  0.125000  0.625000  1
  O  O8  1  0.301051  0.232983  0.232983  1
  O  O9  1  0.287039  0.711077  0.290805  1
  O  O10  1  0.962961  0.959195  0.538923  1
  O  O11  1  0.544624  0.951169  0.553036  1
  O  O12  1  0.705376  0.696964  0.298831  1
  O  O13  1  0.962961  0.538923  0.538923  1
  O  O14  1  0.705376  0.298831  0.696964  1
  O  O15  1  0.287039  0.290805  0.711077  1
  O  O16  1  0.705376  0.298831  0.298831  1
  O  O17  1  0.287039  0.711077  0.711077  1
  O  O18  1  0.962961  0.538923  0.959195  1
  O  O19  1  0.544624  0.553036  0.951169  1
  O  O20  1  0.948949  0.017017  0.017017  1
  O  O21  1  0.544624  0.951169  0.951169  1
