# generated using pymatgen
data_Ho3Er5Re3B24Os
_symmetry_space_group_name_H-M   'P 1'
_cell_length_a   3.65533500
_cell_length_b   9.12981060
_cell_length_c   11.50894101
_cell_angle_alpha   90.07119680
_cell_angle_beta   90.00000000
_cell_angle_gamma   90.00000000
_symmetry_Int_Tables_number   1
_chemical_formula_structural   Ho3Er5Re3B24Os
_chemical_formula_sum   'Ho3 Er5 Re3 B24 Os1'
_cell_volume   384.08202409
_cell_formula_units_Z   1
loop_
 _symmetry_equiv_pos_site_id
 _symmetry_equiv_pos_as_xyz
  1  'x, y, z'
loop_
 _atom_site_type_symbol
 _atom_site_label
 _atom_site_symmetry_multiplicity
 _atom_site_fract_x
 _atom_site_fract_y
 _atom_site_fract_z
 _atom_site_occupancy
  Ho  Ho0  1  0.000000  0.321980  0.414172  1
  Ho  Ho1  1  0.000000  0.677461  0.587538  1
  Ho  Ho2  1  0.000000  0.824322  0.084518  1
  Er  Er3  1  0.000000  0.176555  0.913519  1
  Er  Er4  1  0.000000  0.942862  0.370151  1
  Er  Er5  1  0.000000  0.056350  0.629375  1
  Er  Er6  1  0.000000  0.442925  0.129637  1
  Er  Er7  1  0.000000  0.556705  0.870897  1
  Re  Re8  1  0.000000  0.361892  0.678315  1
  Re  Re9  1  0.000000  0.138607  0.179588  1
  Re  Re10  1  0.000000  0.861607  0.820874  1
  B  B11  1  0.500000  0.553877  0.432916  1
  B  B12  1  0.500000  0.446950  0.566661  1
  B  B13  1  0.500000  0.053219  0.066644  1
  B  B14  1  0.500000  0.946967  0.933154  1
  B  B15  1  0.500000  0.749103  0.418691  1
  B  B16  1  0.500000  0.250127  0.580983  1
  B  B17  1  0.500000  0.249639  0.080863  1
  B  B18  1  0.500000  0.750715  0.919034  1
  B  B19  1  0.500000  0.791449  0.265528  1
  B  B20  1  0.500000  0.207529  0.734505  1
  B  B21  1  0.500000  0.292319  0.234838  1
  B  B22  1  0.500000  0.707497  0.765736  1
  B  B23  1  0.500000  0.631292  0.185632  1
  B  B24  1  0.500000  0.369218  0.814415  1
  B  B25  1  0.500000  0.131129  0.315059  1
  B  B26  1  0.500000  0.868851  0.685409  1
  B  B27  1  0.500000  0.982251  0.212063  1
  B  B28  1  0.500000  0.017997  0.787755  1
  B  B29  1  0.500000  0.483132  0.287981  1
  B  B30  1  0.500000  0.518226  0.712145  1
  B  B31  1  0.500000  0.601384  0.028679  1
  B  B32  1  0.500000  0.398687  0.971990  1
  B  B33  1  0.500000  0.100549  0.471664  1
  B  B34  1  0.500000  0.898196  0.528042  1
  Os  Os35  1  0.000000  0.638435  0.321026  1
