# generated using pymatgen
data_Pu8Si15Pd
_symmetry_space_group_name_H-M   'P 1'
_cell_length_a   8.17037300
_cell_length_b   8.17037398
_cell_length_c   7.83593600
_cell_angle_alpha   90.00000000
_cell_angle_beta   90.00000000
_cell_angle_gamma   119.99999197
_symmetry_Int_Tables_number   1
_chemical_formula_structural   Pu8Si15Pd
_chemical_formula_sum   'Pu8 Si15 Pd1'
_cell_volume   453.00747340
_cell_formula_units_Z   1
loop_
 _symmetry_equiv_pos_site_id
 _symmetry_equiv_pos_as_xyz
  1  'x, y, z'
loop_
 _atom_site_type_symbol
 _atom_site_label
 _atom_site_symmetry_multiplicity
 _atom_site_fract_x
 _atom_site_fract_y
 _atom_site_fract_z
 _atom_site_occupancy
  Pu  Pu0  1  0.497109  0.502891  0.751571  1
  Pu  Pu1  1  0.497561  0.502439  0.248470  1
  Pu  Pu2  1  0.005781  0.502891  0.751571  1
  Pu  Pu3  1  0.004878  0.502439  0.248470  1
  Pu  Pu4  1  0.497109  0.994219  0.751571  1
  Pu  Pu5  1  0.497561  0.995122  0.248470  1
  Pu  Pu6  1  0.000000  0.000000  0.750776  1
  Pu  Pu7  1  0.000000  0.000000  0.249115  1
  Si  Si8  1  0.666667  0.333333  0.999672  1
  Si  Si9  1  0.333333  0.666667  0.000797  1
  Si  Si10  1  0.333333  0.666667  0.499117  1
  Si  Si11  1  0.833816  0.166184  0.000667  1
  Si  Si12  1  0.167219  0.832781  0.000728  1
  Si  Si13  1  0.332369  0.166184  0.000667  1
  Si  Si14  1  0.165265  0.834735  0.498963  1
  Si  Si15  1  0.665562  0.832781  0.000728  1
  Si  Si16  1  0.834341  0.165659  0.499494  1
  Si  Si17  1  0.833816  0.667631  0.000667  1
  Si  Si18  1  0.669472  0.834735  0.498963  1
  Si  Si19  1  0.167219  0.334438  0.000728  1
  Si  Si20  1  0.331316  0.165659  0.499494  1
  Si  Si21  1  0.165265  0.330528  0.498963  1
  Si  Si22  1  0.834341  0.668684  0.499494  1
  Pd  Pd23  1  0.666667  0.333333  0.500846  1
