# generated using pymatgen
data_DySc5(Be2Rh5)2
_symmetry_space_group_name_H-M   'P 1'
_cell_length_a   9.58242192
_cell_length_b   9.58242192
_cell_length_c   3.23907900
_cell_angle_alpha   90.00000000
_cell_angle_beta   90.00000000
_cell_angle_gamma   89.75487412
_symmetry_Int_Tables_number   1
_chemical_formula_structural   DySc5(Be2Rh5)2
_chemical_formula_sum   'Dy1 Sc5 Be4 Rh10'
_cell_volume   297.41861344
_cell_formula_units_Z   1
loop_
 _symmetry_equiv_pos_site_id
 _symmetry_equiv_pos_as_xyz
  1  'x, y, z'
loop_
 _atom_site_type_symbol
 _atom_site_label
 _atom_site_symmetry_multiplicity
 _atom_site_fract_x
 _atom_site_fract_y
 _atom_site_fract_z
 _atom_site_occupancy
  Dy  Dy0  1  0.825063  0.325063  0.000000  1
  Sc  Sc1  1  0.325213  0.174503  0.000000  1
  Sc  Sc2  1  0.674503  0.825213  0.000000  1
  Sc  Sc3  1  0.175904  0.675904  0.000000  1
  Sc  Sc4  1  0.001307  0.998250  0.000000  1
  Sc  Sc5  1  0.498250  0.501307  0.000000  1
  Be  Be6  1  0.619078  0.119078  0.000000  1
  Be  Be7  1  0.125852  0.378379  0.000000  1
  Be  Be8  1  0.878379  0.625852  0.000000  1
  Be  Be9  1  0.376590  0.876590  0.000000  1
  Rh  Rh10  1  0.076969  0.214433  0.500000  1
  Rh  Rh11  1  0.215629  0.928702  0.500000  1
  Rh  Rh12  1  0.781417  0.063978  0.500000  1
  Rh  Rh13  1  0.929133  0.786438  0.500000  1
  Rh  Rh14  1  0.428702  0.715629  0.500000  1
  Rh  Rh15  1  0.563978  0.281417  0.500000  1
  Rh  Rh16  1  0.714433  0.576969  0.500000  1
  Rh  Rh17  1  0.286438  0.429133  0.500000  1
  Rh  Rh18  1  0.498063  0.998063  0.500000  1
  Rh  Rh19  1  0.005100  0.505100  0.500000  1
