# generated using pymatgen
data_Er8TmTh3Ru4
_symmetry_space_group_name_H-M   'P 1'
_cell_length_a   6.29236176
_cell_length_b   7.20596267
_cell_length_c   9.41678103
_cell_angle_alpha   90.00374662
_cell_angle_beta   90.00917778
_cell_angle_gamma   89.48761209
_symmetry_Int_Tables_number   1
_chemical_formula_structural   Er8TmTh3Ru4
_chemical_formula_sum   'Er8 Tm1 Th3 Ru4'
_cell_volume   426.96353997
_cell_formula_units_Z   1
loop_
 _symmetry_equiv_pos_site_id
 _symmetry_equiv_pos_as_xyz
  1  'x, y, z'
loop_
 _atom_site_type_symbol
 _atom_site_label
 _atom_site_symmetry_multiplicity
 _atom_site_fract_x
 _atom_site_fract_y
 _atom_site_fract_z
 _atom_site_occupancy
  Er  Er0  1  0.861409  0.535806  0.250067  1
  Er  Er1  1  0.167040  0.175847  0.066619  1
  Er  Er2  1  0.835677  0.822695  0.937005  1
  Er  Er3  1  0.664358  0.325338  0.935934  1
  Er  Er4  1  0.835615  0.822682  0.563012  1
  Er  Er5  1  0.329759  0.676145  0.068810  1
  Er  Er6  1  0.167042  0.175884  0.433432  1
  Er  Er7  1  0.329850  0.676112  0.431243  1
  Tm  Tm8  1  0.664336  0.325461  0.564051  1
  Th  Th9  1  0.649933  0.046321  0.250049  1
  Th  Th10  1  0.351989  0.953193  0.749963  1
  Th  Th11  1  0.146080  0.454885  0.749908  1
  Ru  Ru12  1  0.460477  0.367995  0.250120  1
  Ru  Ru13  1  0.538841  0.629694  0.749899  1
  Ru  Ru14  1  0.963385  0.130948  0.749879  1
  Ru  Ru15  1  0.034207  0.880993  0.250008  1
