# generated using pymatgen
data_Dy7Sn22BiRu6
_symmetry_space_group_name_H-M   'P 1'
_cell_length_a   9.87599800
_cell_length_b   9.87599873
_cell_length_c   10.09539800
_cell_angle_alpha   90.00000000
_cell_angle_beta   90.00000000
_cell_angle_gamma   119.99999755
_symmetry_Int_Tables_number   1
_chemical_formula_structural   Dy7Sn22BiRu6
_chemical_formula_sum   'Dy7 Sn22 Bi1 Ru6'
_cell_volume   852.73896171
_cell_formula_units_Z   1
loop_
 _symmetry_equiv_pos_site_id
 _symmetry_equiv_pos_as_xyz
  1  'x, y, z'
loop_
 _atom_site_type_symbol
 _atom_site_label
 _atom_site_symmetry_multiplicity
 _atom_site_fract_x
 _atom_site_fract_y
 _atom_site_fract_z
 _atom_site_occupancy
  Dy  Dy0  1  0.000000  0.000000  0.000000  1
  Dy  Dy1  1  0.484220  0.515780  0.302989  1
  Dy  Dy2  1  0.515780  0.484220  0.697011  1
  Dy  Dy3  1  0.484220  0.968440  0.302989  1
  Dy  Dy4  1  0.515780  0.031560  0.697011  1
  Dy  Dy5  1  0.031560  0.515780  0.302989  1
  Dy  Dy6  1  0.968440  0.484220  0.697011  1
  Sn  Sn7  1  0.349318  0.000000  0.000000  1
  Sn  Sn8  1  0.650682  0.000000  0.000000  1
  Sn  Sn9  1  0.000000  0.349318  0.000000  1
  Sn  Sn10  1  0.000000  0.650682  0.000000  1
  Sn  Sn11  1  0.650682  0.650682  0.000000  1
  Sn  Sn12  1  0.349318  0.349318  0.000000  1
  Sn  Sn13  1  0.333333  0.666667  0.820625  1
  Sn  Sn14  1  0.666667  0.333333  0.179375  1
  Sn  Sn15  1  0.779601  0.220399  0.461949  1
  Sn  Sn16  1  0.220399  0.779601  0.538051  1
  Sn  Sn17  1  0.779601  0.559204  0.461949  1
  Sn  Sn18  1  0.220399  0.440796  0.538051  1
  Sn  Sn19  1  0.440796  0.220399  0.461949  1
  Sn  Sn20  1  0.559204  0.779601  0.538051  1
  Sn  Sn21  1  0.333333  0.666667  0.127064  1
  Sn  Sn22  1  0.666667  0.333333  0.872936  1
  Sn  Sn23  1  0.119108  0.880892  0.272213  1
  Sn  Sn24  1  0.880892  0.119108  0.727787  1
  Sn  Sn25  1  0.119108  0.238216  0.272213  1
  Sn  Sn26  1  0.880892  0.761784  0.727787  1
  Sn  Sn27  1  0.761784  0.880892  0.272213  1
  Sn  Sn28  1  0.238216  0.119108  0.727787  1
  Bi  Bi29  1  0.000000  0.000000  0.500000  1
  Ru  Ru30  1  0.830310  0.169690  0.202058  1
  Ru  Ru31  1  0.169690  0.830310  0.797942  1
  Ru  Ru32  1  0.830310  0.660619  0.202058  1
  Ru  Ru33  1  0.169690  0.339381  0.797942  1
  Ru  Ru34  1  0.339381  0.169690  0.202058  1
  Ru  Ru35  1  0.660619  0.830310  0.797942  1
