# generated using pymatgen
data_TbZr(Ga2Pd)2
_symmetry_space_group_name_H-M   'P 1'
_cell_length_a   5.50500685
_cell_length_b   5.50500673
_cell_length_c   6.48337600
_cell_angle_alpha   90.00000000
_cell_angle_beta   90.00000000
_cell_angle_gamma   133.00975332
_symmetry_Int_Tables_number   1
_chemical_formula_structural   TbZr(Ga2Pd)2
_chemical_formula_sum   'Tb1 Zr1 Ga4 Pd2'
_cell_volume   143.67309256
_cell_formula_units_Z   1
loop_
 _symmetry_equiv_pos_site_id
 _symmetry_equiv_pos_as_xyz
  1  'x, y, z'
loop_
 _atom_site_type_symbol
 _atom_site_label
 _atom_site_symmetry_multiplicity
 _atom_site_fract_x
 _atom_site_fract_y
 _atom_site_fract_z
 _atom_site_occupancy
  Tb  Tb0  1  0.915302  0.084698  0.250000  1
  Zr  Zr1  1  0.089017  0.910983  0.750000  1
  Ga  Ga2  1  0.372599  0.627401  0.554151  1
  Ga  Ga3  1  0.623712  0.376288  0.042523  1
  Ga  Ga4  1  0.623712  0.376288  0.457477  1
  Ga  Ga5  1  0.372599  0.627401  0.945849  1
  Pd  Pd6  1  0.800792  0.199208  0.750000  1
  Pd  Pd7  1  0.202268  0.797732  0.250000  1
