# generated using pymatgen
data_Ho6Al6GeAu5
_symmetry_space_group_name_H-M   'P 1'
_cell_length_a   7.12432800
_cell_length_b   7.12432747
_cell_length_c   8.46832500
_cell_angle_alpha   90.00000000
_cell_angle_beta   90.00000000
_cell_angle_gamma   119.99999317
_symmetry_Int_Tables_number   1
_chemical_formula_structural   Ho6Al6GeAu5
_chemical_formula_sum   'Ho6 Al6 Ge1 Au5'
_cell_volume   372.23393070
_cell_formula_units_Z   1
loop_
 _symmetry_equiv_pos_site_id
 _symmetry_equiv_pos_as_xyz
  1  'x, y, z'
loop_
 _atom_site_type_symbol
 _atom_site_label
 _atom_site_symmetry_multiplicity
 _atom_site_fract_x
 _atom_site_fract_y
 _atom_site_fract_z
 _atom_site_occupancy
  Ho  Ho0  1  0.583339  0.001569  0.747585  1
  Ho  Ho1  1  0.998431  0.581771  0.747585  1
  Ho  Ho2  1  0.418229  0.416661  0.747585  1
  Ho  Ho3  1  0.997744  0.581513  0.252311  1
  Ho  Ho4  1  0.583769  0.002256  0.252311  1
  Ho  Ho5  1  0.418487  0.416231  0.252311  1
  Al  Al6  1  0.753113  0.763308  0.999987  1
  Al  Al7  1  0.236692  0.989805  0.999987  1
  Al  Al8  1  0.010195  0.246887  0.999987  1
  Al  Al9  1  0.760084  0.759809  0.500011  1
  Al  Al10  1  0.240191  0.000274  0.500011  1
  Al  Al11  1  0.999726  0.239916  0.500011  1
  Ge  Ge12  1  0.666667  0.333333  0.000036  1
  Au  Au13  1  0.000000  0.000000  0.753479  1
  Au  Au14  1  0.000000  0.000000  0.246517  1
  Au  Au15  1  0.666667  0.333333  0.500439  1
  Au  Au16  1  0.333333  0.666667  0.499380  1
  Au  Au17  1  0.333333  0.666667  0.000465  1
