# generated using pymatgen
data_Rb2Hg(PS3)2
_symmetry_space_group_name_H-M   'P 1'
_cell_length_a   12.62365300
_cell_length_b   6.56970929
_cell_length_c   9.98093881
_cell_angle_alpha   52.16919778
_cell_angle_beta   90.00000000
_cell_angle_gamma   90.00000000
_symmetry_Int_Tables_number   1
_chemical_formula_structural   Rb2Hg(PS3)2
_chemical_formula_sum   'Rb4 Hg2 P4 S12'
_cell_volume   653.78309898
_cell_formula_units_Z   2
loop_
 _symmetry_equiv_pos_site_id
 _symmetry_equiv_pos_as_xyz
  1  'x, y, z'
loop_
 _atom_site_type_symbol
 _atom_site_label
 _atom_site_symmetry_multiplicity
 _atom_site_fract_x
 _atom_site_fract_y
 _atom_site_fract_z
 _atom_site_occupancy
  Rb  Rb0  1  0.327695  0.222862  0.521344  1
  Rb  Rb1  1  0.672305  0.777138  0.478656  1
  Rb  Rb2  1  0.827695  0.777138  0.978656  1
  Rb  Rb3  1  0.172305  0.222862  0.021344  1
  Hg  Hg4  1  0.500000  0.500000  0.000000  1
  Hg  Hg5  1  0.000000  0.500000  0.500000  1
  P  P6  1  0.459330  0.851735  0.128399  1
  P  P7  1  0.040670  0.851735  0.628399  1
  P  P8  1  0.959330  0.148265  0.371601  1
  P  P9  1  0.540670  0.148265  0.871601  1
  S  S10  1  0.066738  0.060669  0.721346  1
  S  S11  1  0.678435  0.256199  0.913029  1
  S  S12  1  0.061596  0.440734  0.224079  1
  S  S13  1  0.933262  0.939331  0.278654  1
  S  S14  1  0.433262  0.060669  0.221346  1
  S  S15  1  0.321565  0.743801  0.086971  1
  S  S16  1  0.438404  0.440734  0.724079  1
  S  S17  1  0.561596  0.559266  0.275921  1
  S  S18  1  0.566738  0.939331  0.778654  1
  S  S19  1  0.178435  0.743801  0.586971  1
  S  S20  1  0.938404  0.559266  0.775921  1
  S  S21  1  0.821565  0.256199  0.413029  1
