# generated using pymatgen
data_Er16In4IrPd3
_symmetry_space_group_name_H-M   'P 1'
_cell_length_a   9.62594843
_cell_length_b   9.65249455
_cell_length_c   9.62594800
_cell_angle_alpha   60.09093515
_cell_angle_beta   60.00000148
_cell_angle_gamma   60.09093466
_symmetry_Int_Tables_number   1
_chemical_formula_structural   Er16In4IrPd3
_chemical_formula_sum   'Er16 In4 Ir1 Pd3'
_cell_volume   633.29663141
_cell_formula_units_Z   1
loop_
 _symmetry_equiv_pos_site_id
 _symmetry_equiv_pos_as_xyz
  1  'x, y, z'
loop_
 _atom_site_type_symbol
 _atom_site_label
 _atom_site_symmetry_multiplicity
 _atom_site_fract_x
 _atom_site_fract_y
 _atom_site_fract_z
 _atom_site_occupancy
  Er  Er0  1  0.063497  0.062120  0.437191  1
  Er  Er1  1  0.648511  0.054467  0.648511  1
  Er  Er2  1  0.190312  0.810004  0.190312  1
  Er  Er3  1  0.437191  0.062120  0.437191  1
  Er  Er4  1  0.185092  0.193981  0.810464  1
  Er  Er5  1  0.651626  0.644995  0.651626  1
  Er  Er6  1  0.051754  0.644995  0.651626  1
  Er  Er7  1  0.437191  0.062120  0.063497  1
  Er  Er8  1  0.651626  0.644995  0.051754  1
  Er  Er9  1  0.190312  0.810004  0.809373  1
  Er  Er10  1  0.810464  0.193981  0.810464  1
  Er  Er11  1  0.810464  0.193981  0.185092  1
  Er  Er12  1  0.809373  0.810004  0.190312  1
  Er  Er13  1  0.061298  0.436619  0.440785  1
  Er  Er14  1  0.440785  0.436619  0.061298  1
  Er  Er15  1  0.061298  0.436619  0.061298  1
  In  In16  1  0.749427  0.416614  0.416980  1
  In  In17  1  0.416980  0.416614  0.749427  1
  In  In18  1  0.416582  0.750254  0.416582  1
  In  In19  1  0.416980  0.416614  0.416980  1
  Ir  Ir20  1  0.856982  0.429055  0.856982  1
  Pd  Pd21  1  0.856754  0.857743  0.856754  1
  Pd  Pd22  1  0.428750  0.857743  0.856754  1
  Pd  Pd23  1  0.856754  0.857743  0.428750  1
