# generated using pymatgen
data_Sc4Fe3Si4Pt
_symmetry_space_group_name_H-M   'P 1'
_cell_length_a   4.06481500
_cell_length_b   6.53338940
_cell_length_c   6.89440729
_cell_angle_alpha   90.54305695
_cell_angle_beta   90.00000000
_cell_angle_gamma   90.00000000
_symmetry_Int_Tables_number   1
_chemical_formula_structural   Sc4Fe3Si4Pt
_chemical_formula_sum   'Sc4 Fe3 Si4 Pt1'
_cell_volume   183.08668271
_cell_formula_units_Z   1
loop_
 _symmetry_equiv_pos_site_id
 _symmetry_equiv_pos_as_xyz
  1  'x, y, z'
loop_
 _atom_site_type_symbol
 _atom_site_label
 _atom_site_symmetry_multiplicity
 _atom_site_fract_x
 _atom_site_fract_y
 _atom_site_fract_z
 _atom_site_occupancy
  Sc  Sc0  1  0.750000  0.504765  0.817690  1
  Sc  Sc1  1  0.250000  0.000308  0.302172  1
  Sc  Sc2  1  0.750000  0.005919  0.694693  1
  Sc  Sc3  1  0.250000  0.479667  0.186475  1
  Fe  Fe4  1  0.250000  0.157601  0.942237  1
  Fe  Fe5  1  0.750000  0.849521  0.059801  1
  Fe  Fe6  1  0.750000  0.348809  0.441655  1
  Si  Si7  1  0.250000  0.800924  0.907442  1
  Si  Si8  1  0.250000  0.285988  0.612881  1
  Si  Si9  1  0.750000  0.202133  0.108865  1
  Si  Si10  1  0.750000  0.701414  0.363153  1
  Pt  Pt11  1  0.250000  0.662952  0.562936  1
