# generated using pymatgen
data_Ce3Y4Er(ReB6)4
_symmetry_space_group_name_H-M   'P 1'
_cell_length_a   3.71572300
_cell_length_b   9.20632598
_cell_length_c   11.59430468
_cell_angle_alpha   90.10814808
_cell_angle_beta   90.00000000
_cell_angle_gamma   90.00000000
_symmetry_Int_Tables_number   1
_chemical_formula_structural   Ce3Y4Er(ReB6)4
_chemical_formula_sum   'Ce3 Y4 Er1 Re4 B24'
_cell_volume   396.61909066
_cell_formula_units_Z   1
loop_
 _symmetry_equiv_pos_site_id
 _symmetry_equiv_pos_as_xyz
  1  'x, y, z'
loop_
 _atom_site_type_symbol
 _atom_site_label
 _atom_site_symmetry_multiplicity
 _atom_site_fract_x
 _atom_site_fract_y
 _atom_site_fract_z
 _atom_site_occupancy
  Ce  Ce0  1  0.000000  0.322330  0.414415  1
  Ce  Ce1  1  0.000000  0.677507  0.586493  1
  Ce  Ce2  1  0.000000  0.823656  0.085398  1
  Y  Y3  1  0.000000  0.177444  0.913810  1
  Y  Y4  1  0.000000  0.944402  0.372707  1
  Y  Y5  1  0.000000  0.056304  0.628474  1
  Y  Y6  1  0.000000  0.442955  0.127209  1
  Er  Er7  1  0.000000  0.556373  0.871279  1
  Re  Re8  1  0.000000  0.637968  0.320991  1
  Re  Re9  1  0.000000  0.363521  0.678597  1
  Re  Re10  1  0.000000  0.138549  0.179326  1
  Re  Re11  1  0.000000  0.860136  0.821033  1
  B  B12  1  0.500000  0.554204  0.431682  1
  B  B13  1  0.500000  0.445944  0.568742  1
  B  B14  1  0.500000  0.053734  0.067442  1
  B  B15  1  0.500000  0.945527  0.932342  1
  B  B16  1  0.500000  0.748172  0.418247  1
  B  B17  1  0.500000  0.251636  0.582336  1
  B  B18  1  0.500000  0.248221  0.080897  1
  B  B19  1  0.500000  0.751058  0.918160  1
  B  B20  1  0.500000  0.791086  0.265741  1
  B  B21  1  0.500000  0.208662  0.734736  1
  B  B22  1  0.500000  0.291137  0.233396  1
  B  B23  1  0.500000  0.708179  0.766414  1
  B  B24  1  0.500000  0.631156  0.185568  1
  B  B25  1  0.500000  0.369317  0.814841  1
  B  B26  1  0.500000  0.131712  0.313836  1
  B  B27  1  0.500000  0.868465  0.686606  1
  B  B28  1  0.500000  0.983952  0.212020  1
  B  B29  1  0.500000  0.016932  0.787890  1
  B  B30  1  0.500000  0.483524  0.287131  1
  B  B31  1  0.500000  0.516725  0.713587  1
  B  B32  1  0.500000  0.602838  0.027711  1
  B  B33  1  0.500000  0.396567  0.970116  1
  B  B34  1  0.500000  0.106921  0.470789  1
  B  B35  1  0.500000  0.893184  0.530038  1
