# generated using pymatgen
data_Dy20Ru11Au
_symmetry_space_group_name_H-M   'P 1'
_cell_length_a   10.85442107
_cell_length_b   10.85441996
_cell_length_c   6.39515276
_cell_angle_alpha   90.09850318
_cell_angle_beta   90.09850324
_cell_angle_gamma   89.62087311
_symmetry_Int_Tables_number   1
_chemical_formula_structural   Dy20Ru11Au
_chemical_formula_sum   'Dy20 Ru11 Au1'
_cell_volume   753.44824409
_cell_formula_units_Z   1
loop_
 _symmetry_equiv_pos_site_id
 _symmetry_equiv_pos_as_xyz
  1  'x, y, z'
loop_
 _atom_site_type_symbol
 _atom_site_label
 _atom_site_symmetry_multiplicity
 _atom_site_fract_x
 _atom_site_fract_y
 _atom_site_fract_z
 _atom_site_occupancy
  Dy  Dy0  1  0.292883  0.087641  0.376494  1
  Dy  Dy1  1  0.291193  0.924218  0.874879  1
  Dy  Dy2  1  0.709282  0.088182  0.877018  1
  Dy  Dy3  1  0.709852  0.913893  0.378089  1
  Dy  Dy4  1  0.594448  0.796613  0.878059  1
  Dy  Dy5  1  0.588015  0.205535  0.375679  1
  Dy  Dy6  1  0.418093  0.797486  0.361853  1
  Dy  Dy7  1  0.414471  0.211278  0.875688  1
  Dy  Dy8  1  0.203387  0.405552  0.621941  1
  Dy  Dy9  1  0.202514  0.581907  0.138147  1
  Dy  Dy10  1  0.794465  0.411985  0.124321  1
  Dy  Dy11  1  0.788722  0.585529  0.624312  1
  Dy  Dy12  1  0.912359  0.707117  0.123506  1
  Dy  Dy13  1  0.911818  0.290718  0.622982  1
  Dy  Dy14  1  0.075782  0.708807  0.625121  1
  Dy  Dy15  1  0.086107  0.290148  0.121911  1
  Dy  Dy16  1  0.001278  0.000252  0.498746  1
  Dy  Dy17  1  0.999748  0.998722  0.001254  1
  Dy  Dy18  1  0.505934  0.497529  0.003864  1
  Dy  Dy19  1  0.502471  0.494066  0.496136  1
  Ru  Ru20  1  0.847416  0.152584  0.250000  1
  Ru  Ru21  1  0.847594  0.847000  0.749345  1
  Ru  Ru22  1  0.153000  0.152406  0.750655  1
  Ru  Ru23  1  0.155387  0.844613  0.250000  1
  Ru  Ru24  1  0.653106  0.346894  0.750000  1
  Ru  Ru25  1  0.649894  0.652226  0.251099  1
  Ru  Ru26  1  0.347774  0.350106  0.248901  1
  Ru  Ru27  1  0.501378  0.000677  0.121205  1
  Ru  Ru28  1  0.500478  0.000633  0.624978  1
  Ru  Ru29  1  0.999367  0.499522  0.875022  1
  Ru  Ru30  1  0.999323  0.498622  0.378795  1
  Au  Au31  1  0.342459  0.657541  0.750000  1
