# generated using pymatgen
data_Tb5Dy15Ir7Ru5
_symmetry_space_group_name_H-M   'P 1'
_cell_length_a   10.86235057
_cell_length_b   10.86154727
_cell_length_c   6.40722901
_cell_angle_alpha   89.97205420
_cell_angle_beta   89.96785007
_cell_angle_gamma   90.01267184
_symmetry_Int_Tables_number   1
_chemical_formula_structural   Tb5Dy15Ir7Ru5
_chemical_formula_sum   'Tb5 Dy15 Ir7 Ru5'
_cell_volume   755.93704344
_cell_formula_units_Z   1
loop_
 _symmetry_equiv_pos_site_id
 _symmetry_equiv_pos_as_xyz
  1  'x, y, z'
loop_
 _atom_site_type_symbol
 _atom_site_label
 _atom_site_symmetry_multiplicity
 _atom_site_fract_x
 _atom_site_fract_y
 _atom_site_fract_z
 _atom_site_occupancy
  Tb  Tb0  1  0.293314  0.086732  0.378942  1
  Tb  Tb1  1  0.292613  0.913173  0.878986  1
  Tb  Tb2  1  0.707596  0.087302  0.879453  1
  Tb  Tb3  1  0.707205  0.913568  0.378178  1
  Tb  Tb4  1  0.586762  0.793213  0.879024  1
  Dy  Dy5  1  0.587612  0.206896  0.379372  1
  Dy  Dy6  1  0.413084  0.793203  0.379231  1
  Dy  Dy7  1  0.413067  0.206609  0.878564  1
  Dy  Dy8  1  0.206372  0.413312  0.620878  1
  Dy  Dy9  1  0.206489  0.586764  0.120895  1
  Dy  Dy10  1  0.793401  0.412442  0.120741  1
  Dy  Dy11  1  0.793753  0.586799  0.621426  1
  Dy  Dy12  1  0.913450  0.706425  0.120887  1
  Dy  Dy13  1  0.912997  0.292759  0.620422  1
  Dy  Dy14  1  0.086699  0.707009  0.620776  1
  Dy  Dy15  1  0.086352  0.293129  0.121620  1
  Dy  Dy16  1  0.999499  0.001052  0.499397  1
  Dy  Dy17  1  0.998969  0.000485  0.000628  1
  Dy  Dy18  1  0.500109  0.499992  0.000204  1
  Dy  Dy19  1  0.499912  0.499823  0.499828  1
  Ir  Ir20  1  0.847294  0.846422  0.749928  1
  Ir  Ir21  1  0.153238  0.153316  0.750476  1
  Ir  Ir22  1  0.152907  0.846698  0.250263  1
  Ir  Ir23  1  0.652014  0.348109  0.749896  1
  Ir  Ir24  1  0.653045  0.652407  0.250037  1
  Ir  Ir25  1  0.347318  0.347179  0.250122  1
  Ir  Ir26  1  0.347285  0.652370  0.749808  1
  Ru  Ru27  1  0.847925  0.152369  0.250164  1
  Ru  Ru28  1  0.500112  0.000287  0.123675  1
  Ru  Ru29  1  0.499790  0.000140  0.623443  1
  Ru  Ru30  1  0.999967  0.500180  0.876332  1
  Ru  Ru31  1  0.999847  0.499837  0.376406  1
