# generated using pymatgen
data_CeGd5TaO12
_symmetry_space_group_name_H-M   'P 1'
_cell_length_a   6.55951386
_cell_length_b   6.59883507
_cell_length_c   6.58838519
_cell_angle_alpha   98.75206402
_cell_angle_beta   98.54201534
_cell_angle_gamma   98.86978018
_symmetry_Int_Tables_number   1
_chemical_formula_structural   CeGd5TaO12
_chemical_formula_sum   'Ce1 Gd5 Ta1 O12'
_cell_volume   274.13441782
_cell_formula_units_Z   1
loop_
 _symmetry_equiv_pos_site_id
 _symmetry_equiv_pos_as_xyz
  1  'x, y, z'
loop_
 _atom_site_type_symbol
 _atom_site_label
 _atom_site_symmetry_multiplicity
 _atom_site_fract_x
 _atom_site_fract_y
 _atom_site_fract_z
 _atom_site_occupancy
  Ce  Ce0  1  0.859065  0.394372  0.693098  1
  Gd  Gd1  1  0.607084  0.304702  0.141011  1
  Gd  Gd2  1  0.303814  0.134850  0.609300  1
  Gd  Gd3  1  0.693093  0.858037  0.389009  1
  Gd  Gd4  1  0.390578  0.700566  0.862264  1
  Gd  Gd5  1  0.142633  0.612209  0.303995  1
  Ta  Ta6  1  0.998470  0.003569  0.001826  1
  O  O7  1  0.927803  0.041231  0.700540  1
  O  O8  1  0.959601  0.300198  0.072065  1
  O  O9  1  0.594838  0.179116  0.438418  1
  O  O10  1  0.822961  0.563438  0.416168  1
  O  O11  1  0.300610  0.071666  0.959253  1
  O  O12  1  0.572517  0.411271  0.817297  1
  O  O13  1  0.436022  0.586512  0.174726  1
  O  O14  1  0.700052  0.927215  0.039585  1
  O  O15  1  0.169802  0.431725  0.594065  1
  O  O16  1  0.408644  0.819878  0.563234  1
  O  O17  1  0.038409  0.699092  0.925867  1
  O  O18  1  0.074005  0.960353  0.298282  1
