# generated using pymatgen
data_Ba2TlPd4Pb3
_symmetry_space_group_name_H-M   'P 1'
_cell_length_a   4.93811600
_cell_length_b   5.00681299
_cell_length_c   10.98707600
_cell_angle_alpha   88.05385391
_cell_angle_beta   90.00000000
_cell_angle_gamma   90.00000000
_symmetry_Int_Tables_number   1
_chemical_formula_structural   Ba2TlPd4Pb3
_chemical_formula_sum   'Ba2 Tl1 Pd4 Pb3'
_cell_volume   271.49023161
_cell_formula_units_Z   1
loop_
 _symmetry_equiv_pos_site_id
 _symmetry_equiv_pos_as_xyz
  1  'x, y, z'
loop_
 _atom_site_type_symbol
 _atom_site_label
 _atom_site_symmetry_multiplicity
 _atom_site_fract_x
 _atom_site_fract_y
 _atom_site_fract_z
 _atom_site_occupancy
  Ba  Ba0  1  0.750000  0.265170  0.241111  1
  Ba  Ba1  1  0.250000  0.735609  0.758847  1
  Tl  Tl2  1  0.250000  0.798535  0.113648  1
  Pd  Pd3  1  0.250000  0.758649  0.368176  1
  Pd  Pd4  1  0.250000  0.314198  0.996858  1
  Pd  Pd5  1  0.750000  0.240467  0.632868  1
  Pd  Pd6  1  0.750000  0.688045  0.001257  1
  Pb  Pb7  1  0.750000  0.201036  0.888478  1
  Pb  Pb8  1  0.250000  0.250342  0.498939  1
  Pb  Pb9  1  0.750000  0.747949  0.499816  1
