# generated using pymatgen
data_TbDyTm2(Co5P3)4
_symmetry_space_group_name_H-M   'P 1'
_cell_length_a   3.64360300
_cell_length_b   10.26873136
_cell_length_c   11.72064000
_cell_angle_alpha   89.98596527
_cell_angle_beta   90.00000000
_cell_angle_gamma   90.00000000
_symmetry_Int_Tables_number   1
_chemical_formula_structural   TbDyTm2(Co5P3)4
_chemical_formula_sum   'Tb1 Dy1 Tm2 Co20 P12'
_cell_volume   438.52984694
_cell_formula_units_Z   1
loop_
 _symmetry_equiv_pos_site_id
 _symmetry_equiv_pos_as_xyz
  1  'x, y, z'
loop_
 _atom_site_type_symbol
 _atom_site_label
 _atom_site_symmetry_multiplicity
 _atom_site_fract_x
 _atom_site_fract_y
 _atom_site_fract_z
 _atom_site_occupancy
  Tb  Tb0  1  0.250000  0.917111  0.202729  1
  Dy  Dy1  1  0.250000  0.582744  0.702633  1
  Tm  Tm2  1  0.750000  0.417294  0.297659  1
  Tm  Tm3  1  0.750000  0.082843  0.797703  1
  Co  Co4  1  0.250000  0.716595  0.991364  1
  Co  Co5  1  0.250000  0.783240  0.491439  1
  Co  Co6  1  0.750000  0.283302  0.007728  1
  Co  Co7  1  0.750000  0.216798  0.508027  1
  Co  Co8  1  0.250000  0.406809  0.487019  1
  Co  Co9  1  0.250000  0.093491  0.986861  1
  Co  Co10  1  0.750000  0.592658  0.511388  1
  Co  Co11  1  0.750000  0.907370  0.010860  1
  Co  Co12  1  0.250000  0.221839  0.176639  1
  Co  Co13  1  0.250000  0.278393  0.676747  1
  Co  Co14  1  0.750000  0.778764  0.823222  1
  Co  Co15  1  0.750000  0.720797  0.323373  1
  Co  Co16  1  0.250000  0.883581  0.699239  1
  Co  Co17  1  0.250000  0.616096  0.199076  1
  Co  Co18  1  0.750000  0.118321  0.301607  1
  Co  Co19  1  0.750000  0.382078  0.801378  1
  Co  Co20  1  0.250000  0.467022  0.932143  1
  Co  Co21  1  0.250000  0.033180  0.432601  1
  Co  Co22  1  0.750000  0.531178  0.068885  1
  Co  Co23  1  0.750000  0.968593  0.569351  1
  P  P24  1  0.250000  0.418386  0.112996  1
  P  P25  1  0.250000  0.081581  0.613355  1
  P  P26  1  0.750000  0.581236  0.888382  1
  P  P27  1  0.750000  0.918664  0.388931  1
  P  P28  1  0.250000  0.269646  0.869729  1
  P  P29  1  0.250000  0.230477  0.369777  1
  P  P30  1  0.750000  0.728728  0.129075  1
  P  P31  1  0.750000  0.770721  0.629337  1
  P  P32  1  0.250000  0.600997  0.390910  1
  P  P33  1  0.250000  0.898951  0.890902  1
  P  P34  1  0.750000  0.398025  0.608556  1
  P  P35  1  0.750000  0.102490  0.108379  1
