# generated using pymatgen
data_HfSi2MoRh2
_symmetry_space_group_name_H-M   'P 1'
_cell_length_a   3.89138700
_cell_length_b   6.31931317
_cell_length_c   7.31983579
_cell_angle_alpha   91.13874734
_cell_angle_beta   90.00000000
_cell_angle_gamma   90.00000000
_symmetry_Int_Tables_number   1
_chemical_formula_structural   HfSi2MoRh2
_chemical_formula_sum   'Hf2 Si4 Mo2 Rh4'
_cell_volume   179.96574962
_cell_formula_units_Z   2
loop_
 _symmetry_equiv_pos_site_id
 _symmetry_equiv_pos_as_xyz
  1  'x, y, z'
loop_
 _atom_site_type_symbol
 _atom_site_label
 _atom_site_symmetry_multiplicity
 _atom_site_fract_x
 _atom_site_fract_y
 _atom_site_fract_z
 _atom_site_occupancy
  Hf  Hf0  1  0.250000  0.029873  0.311952  1
  Hf  Hf1  1  0.750000  0.970127  0.688048  1
  Si  Si2  1  0.250000  0.746413  0.890045  1
  Si  Si3  1  0.750000  0.253587  0.109955  1
  Si  Si4  1  0.250000  0.287515  0.632442  1
  Si  Si5  1  0.750000  0.712485  0.367558  1
  Mo  Mo6  1  0.250000  0.525342  0.174367  1
  Mo  Mo7  1  0.750000  0.474658  0.825633  1
  Rh  Rh8  1  0.750000  0.856013  0.064218  1
  Rh  Rh9  1  0.250000  0.143987  0.935782  1
  Rh  Rh10  1  0.750000  0.342191  0.442086  1
  Rh  Rh11  1  0.250000  0.657809  0.557914  1
