# generated using pymatgen
data_ReMoRu6
_symmetry_space_group_name_H-M   'P 1'
_cell_length_a   5.50162300
_cell_length_b   5.50162387
_cell_length_c   4.34708200
_cell_angle_alpha   90.00000000
_cell_angle_beta   90.00000000
_cell_angle_gamma   120.00000076
_symmetry_Int_Tables_number   1
_chemical_formula_structural   ReMoRu6
_chemical_formula_sum   'Re1 Mo1 Ru6'
_cell_volume   113.94891222
_cell_formula_units_Z   1
loop_
 _symmetry_equiv_pos_site_id
 _symmetry_equiv_pos_as_xyz
  1  'x, y, z'
loop_
 _atom_site_type_symbol
 _atom_site_label
 _atom_site_symmetry_multiplicity
 _atom_site_fract_x
 _atom_site_fract_y
 _atom_site_fract_z
 _atom_site_occupancy
  Re  Re0  1  0.666667  0.333333  0.250000  1
  Mo  Mo1  1  0.333333  0.666667  0.750000  1
  Ru  Ru2  1  0.166683  0.333366  0.250000  1
  Ru  Ru3  1  0.666634  0.833317  0.250000  1
  Ru  Ru4  1  0.166683  0.833317  0.250000  1
  Ru  Ru5  1  0.832575  0.665149  0.750000  1
  Ru  Ru6  1  0.334851  0.167425  0.750000  1
  Ru  Ru7  1  0.832575  0.167425  0.750000  1
