# generated using pymatgen
data_PmAl2Au3
_symmetry_space_group_name_H-M   'P 1'
_cell_length_a   5.52632127
_cell_length_b   5.52631940
_cell_length_c   4.54433500
_cell_angle_alpha   90.00000000
_cell_angle_beta   90.00000000
_cell_angle_gamma   58.69955376
_symmetry_Int_Tables_number   1
_chemical_formula_structural   PmAl2Au3
_chemical_formula_sum   'Pm1 Al2 Au3'
_cell_volume   118.58548534
_cell_formula_units_Z   1
loop_
 _symmetry_equiv_pos_site_id
 _symmetry_equiv_pos_as_xyz
  1  'x, y, z'
loop_
 _atom_site_type_symbol
 _atom_site_label
 _atom_site_symmetry_multiplicity
 _atom_site_fract_x
 _atom_site_fract_y
 _atom_site_fract_z
 _atom_site_occupancy
  Pm  Pm0  1  0.000051  0.999949  0.000000  1
  Al  Al1  1  0.500223  0.000030  0.499999  1
  Al  Al2  1  0.999970  0.499776  0.499999  1
  Au  Au3  1  0.317648  0.317531  0.000000  1
  Au  Au4  1  0.682469  0.682352  0.000000  1
  Au  Au5  1  0.499634  0.500365  0.499999  1
