# generated using pymatgen
data_Tm12Fe2ReAg2
_symmetry_space_group_name_H-M   'P 1'
_cell_length_a   8.18572750
_cell_length_b   8.18572690
_cell_length_c   8.18572729
_cell_angle_alpha   108.61458774
_cell_angle_beta   108.61457335
_cell_angle_gamma   111.19842636
_symmetry_Int_Tables_number   1
_chemical_formula_structural   Tm12Fe2ReAg2
_chemical_formula_sum   'Tm12 Fe2 Re1 Ag2'
_cell_volume   421.94207372
_cell_formula_units_Z   1
loop_
 _symmetry_equiv_pos_site_id
 _symmetry_equiv_pos_as_xyz
  1  'x, y, z'
loop_
 _atom_site_type_symbol
 _atom_site_label
 _atom_site_symmetry_multiplicity
 _atom_site_fract_x
 _atom_site_fract_y
 _atom_site_fract_z
 _atom_site_occupancy
  Tm  Tm0  1  0.191790  0.434825  0.243036  1
  Tm  Tm1  1  0.808210  0.565175  0.756964  1
  Tm  Tm2  1  0.191790  0.948755  0.756964  1
  Tm  Tm3  1  0.948755  0.191790  0.756964  1
  Tm  Tm4  1  0.808210  0.051245  0.243036  1
  Tm  Tm5  1  0.051245  0.808210  0.243036  1
  Tm  Tm6  1  0.434825  0.191790  0.243036  1
  Tm  Tm7  1  0.565175  0.808210  0.756964  1
  Tm  Tm8  1  0.309929  0.309929  0.619857  1
  Tm  Tm9  1  0.690071  0.690071  0.380143  1
  Tm  Tm10  1  0.690071  0.309929  0.000000  1
  Tm  Tm11  1  0.309929  0.690071  0.000000  1
  Fe  Fe12  1  0.381239  0.381239  0.000000  1
  Fe  Fe13  1  0.618761  0.618761  0.000000  1
  Re  Re14  1  0.000000  0.000000  0.000000  1
  Ag  Ag15  1  0.000000  0.500000  0.500000  1
  Ag  Ag16  1  0.500000  0.000000  0.500000  1
