# generated using pymatgen
data_Ho8Ti3V2Si16W7
_symmetry_space_group_name_H-M   'P 1'
_cell_length_a   6.88488150
_cell_length_b   6.88277297
_cell_length_c   12.76809373
_cell_angle_alpha   89.97770649
_cell_angle_beta   89.99241438
_cell_angle_gamma   89.92027742
_symmetry_Int_Tables_number   1
_chemical_formula_structural   Ho8Ti3V2Si16W7
_chemical_formula_sum   'Ho8 Ti3 V2 Si16 W7'
_cell_volume   605.04199463
_cell_formula_units_Z   1
loop_
 _symmetry_equiv_pos_site_id
 _symmetry_equiv_pos_as_xyz
  1  'x, y, z'
loop_
 _atom_site_type_symbol
 _atom_site_label
 _atom_site_symmetry_multiplicity
 _atom_site_fract_x
 _atom_site_fract_y
 _atom_site_fract_z
 _atom_site_occupancy
  Ho  Ho0  1  0.338760  0.002552  0.469079  1
  Ho  Ho1  1  0.497784  0.837683  0.719740  1
  Ho  Ho2  1  0.500152  0.162021  0.217549  1
  Ho  Ho3  1  0.838617  0.497688  0.280585  1
  Ho  Ho4  1  0.162179  0.499965  0.782468  1
  Ho  Ho5  1  0.660449  0.999678  0.969664  1
  Ho  Ho6  1  0.002501  0.338624  0.531391  1
  Ho  Ho7  1  0.999465  0.658819  0.030212  1
  Ti  Ti8  1  0.170022  0.832530  0.248476  1
  Ti  Ti9  1  0.830972  0.170544  0.751271  1
  Ti  Ti10  1  0.669441  0.669972  0.499877  1
  V  V11  1  0.159188  0.005177  0.873468  1
  V  V12  1  0.492777  0.662987  0.124301  1
  Si  Si13  1  0.199649  0.127369  0.685237  1
  Si  Si14  1  0.373329  0.701202  0.934038  1
  Si  Si15  1  0.628544  0.298397  0.432889  1
  Si  Si16  1  0.699137  0.377902  0.068229  1
  Si  Si17  1  0.297980  0.628411  0.567063  1
  Si  Si18  1  0.795496  0.870380  0.182361  1
  Si  Si19  1  0.129078  0.201676  0.316786  1
  Si  Si20  1  0.876416  0.799290  0.817572  1
  Si  Si21  1  0.289382  0.959896  0.061650  1
  Si  Si22  1  0.539570  0.789990  0.311203  1
  Si  Si23  1  0.456076  0.206733  0.815135  1
  Si  Si24  1  0.791207  0.541130  0.686924  1
  Si  Si25  1  0.212786  0.461474  0.184752  1
  Si  Si26  1  0.708947  0.040621  0.563979  1
  Si  Si27  1  0.963040  0.284907  0.936419  1
  Si  Si28  1  0.040219  0.709038  0.435816  1
  W  W29  1  0.331610  0.331774  0.000275  1
  W  W30  1  0.505689  0.339914  0.624428  1
  W  W31  1  0.663406  0.493003  0.875503  1
  W  W32  1  0.339408  0.505529  0.375372  1
  W  W33  1  0.839739  0.994404  0.374144  1
  W  W34  1  0.003724  0.159558  0.127040  1
  W  W35  1  0.993255  0.839165  0.625105  1
