# generated using pymatgen
data_Dy5InSn2Se
_symmetry_space_group_name_H-M   'P 1'
_cell_length_a   9.10062096
_cell_length_b   9.10784649
_cell_length_c   6.77740300
_cell_angle_alpha   90.00000000
_cell_angle_beta   90.00000000
_cell_angle_gamma   120.02627789
_symmetry_Int_Tables_number   1
_chemical_formula_structural   Dy5InSn2Se
_chemical_formula_sum   'Dy10 In2 Sn4 Se2'
_cell_volume   486.36869223
_cell_formula_units_Z   2
loop_
 _symmetry_equiv_pos_site_id
 _symmetry_equiv_pos_as_xyz
  1  'x, y, z'
loop_
 _atom_site_type_symbol
 _atom_site_label
 _atom_site_symmetry_multiplicity
 _atom_site_fract_x
 _atom_site_fract_y
 _atom_site_fract_z
 _atom_site_occupancy
  Dy  Dy0  1  0.666997  0.333281  0.998958  1
  Dy  Dy1  1  0.333003  0.666285  0.998958  1
  Dy  Dy2  1  0.333003  0.666285  0.501042  1
  Dy  Dy3  1  0.666997  0.333281  0.501042  1
  Dy  Dy4  1  0.748451  0.747962  0.750000  1
  Dy  Dy5  1  0.251549  0.999511  0.750000  1
  Dy  Dy6  1  0.000000  0.252416  0.750000  1
  Dy  Dy7  1  0.251393  0.252208  0.250000  1
  Dy  Dy8  1  0.748607  0.000815  0.250000  1
  Dy  Dy9  1  0.000000  0.748917  0.250000  1
  In  In10  1  0.397618  0.397505  0.750000  1
  In  In11  1  0.602382  0.999887  0.750000  1
  Sn  Sn12  1  0.000000  0.604225  0.750000  1
  Sn  Sn13  1  0.602457  0.601971  0.250000  1
  Sn  Sn14  1  0.397543  0.999514  0.250000  1
  Sn  Sn15  1  0.000000  0.395723  0.250000  1
  Se  Se16  1  0.000000  0.000107  0.000354  1
  Se  Se17  1  0.000000  0.000107  0.499646  1
