# generated using pymatgen
data_Ta6Al4CuWC2
_symmetry_space_group_name_H-M   'P 1'
_cell_length_a   8.33683609
_cell_length_b   8.33683586
_cell_length_c   8.28729000
_cell_angle_alpha   60.19639116
_cell_angle_beta   60.19639206
_cell_angle_gamma   60.55876634
_symmetry_Int_Tables_number   1
_chemical_formula_structural   Ta6Al4CuWC2
_chemical_formula_sum   'Ta12 Al8 Cu2 W2 C4'
_cell_volume   410.19869354
_cell_formula_units_Z   2
loop_
 _symmetry_equiv_pos_site_id
 _symmetry_equiv_pos_as_xyz
  1  'x, y, z'
loop_
 _atom_site_type_symbol
 _atom_site_label
 _atom_site_symmetry_multiplicity
 _atom_site_fract_x
 _atom_site_fract_y
 _atom_site_fract_z
 _atom_site_occupancy
  Ta  Ta0  1  0.569584  0.938242  0.551846  1
  Ta  Ta1  1  0.311758  0.680416  0.698154  1
  Ta  Ta2  1  0.680416  0.311758  0.309671  1
  Ta  Ta3  1  0.311758  0.680416  0.309671  1
  Ta  Ta4  1  0.695252  0.695252  0.304748  1
  Ta  Ta5  1  0.317162  0.317162  0.682838  1
  Ta  Ta6  1  0.554748  0.554748  0.945252  1
  Ta  Ta7  1  0.938242  0.569584  0.551846  1
  Ta  Ta8  1  0.569584  0.938242  0.940329  1
  Ta  Ta9  1  0.932838  0.932838  0.567162  1
  Ta  Ta10  1  0.680416  0.311758  0.698154  1
  Ta  Ta11  1  0.938242  0.569584  0.940329  1
  Al  Al12  1  0.922515  0.922515  0.907010  1
  Al  Al13  1  0.991428  0.327978  0.340296  1
  Al  Al14  1  0.327978  0.991428  0.340296  1
  Al  Al15  1  0.327485  0.327485  0.002038  1
  Al  Al16  1  0.922022  0.258572  0.909704  1
  Al  Al17  1  0.922515  0.922515  0.247962  1
  Al  Al18  1  0.258572  0.922022  0.909704  1
  Al  Al19  1  0.327485  0.327485  0.342990  1
  Cu  Cu20  1  0.125000  0.125000  0.125000  1
  Cu  Cu21  1  0.125000  0.125000  0.625000  1
  W  W22  1  0.625000  0.125000  0.125000  1
  W  W23  1  0.125000  0.625000  0.125000  1
  C  C24  1  0.625000  0.625000  0.625000  1
  C  C25  1  0.125000  0.625000  0.625000  1
  C  C26  1  0.625000  0.125000  0.625000  1
  C  C27  1  0.625000  0.625000  0.125000  1
