# generated using pymatgen
data_DyTmMn2(Co4P3)2
_symmetry_space_group_name_H-M   'P 1'
_cell_length_a   3.64430700
_cell_length_b   10.29149400
_cell_length_c   11.78442200
_cell_angle_alpha   90.00000000
_cell_angle_beta   90.00000000
_cell_angle_gamma   90.00000000
_symmetry_Int_Tables_number   1
_chemical_formula_structural   DyTmMn2(Co4P3)2
_chemical_formula_sum   'Dy2 Tm2 Mn4 Co16 P12'
_cell_volume   441.97903222
_cell_formula_units_Z   2
loop_
 _symmetry_equiv_pos_site_id
 _symmetry_equiv_pos_as_xyz
  1  'x, y, z'
loop_
 _atom_site_type_symbol
 _atom_site_label
 _atom_site_symmetry_multiplicity
 _atom_site_fract_x
 _atom_site_fract_y
 _atom_site_fract_z
 _atom_site_occupancy
  Dy  Dy0  1  0.750000  0.417573  0.295426  1
  Dy  Dy1  1  0.750000  0.082427  0.795426  1
  Tm  Tm2  1  0.250000  0.582149  0.704380  1
  Tm  Tm3  1  0.250000  0.917851  0.204380  1
  Mn  Mn4  1  0.250000  0.711673  0.988713  1
  Mn  Mn5  1  0.250000  0.788327  0.488713  1
  Mn  Mn6  1  0.750000  0.288877  0.011739  1
  Mn  Mn7  1  0.750000  0.211123  0.511739  1
  Co  Co8  1  0.250000  0.406775  0.488540  1
  Co  Co9  1  0.250000  0.093225  0.988540  1
  Co  Co10  1  0.750000  0.593331  0.513089  1
  Co  Co11  1  0.750000  0.906669  0.013089  1
  Co  Co12  1  0.250000  0.220396  0.177045  1
  Co  Co13  1  0.250000  0.279604  0.677045  1
  Co  Co14  1  0.750000  0.779279  0.822956  1
  Co  Co15  1  0.750000  0.720721  0.322956  1
  Co  Co16  1  0.250000  0.882938  0.698373  1
  Co  Co17  1  0.250000  0.617062  0.198373  1
  Co  Co18  1  0.750000  0.115250  0.300997  1
  Co  Co19  1  0.750000  0.384750  0.800997  1
  Co  Co20  1  0.250000  0.467262  0.931741  1
  Co  Co21  1  0.250000  0.032738  0.431741  1
  Co  Co22  1  0.750000  0.534457  0.067134  1
  Co  Co23  1  0.750000  0.965543  0.567134  1
  P  P24  1  0.250000  0.418548  0.111760  1
  P  P25  1  0.250000  0.081452  0.611760  1
  P  P26  1  0.750000  0.582137  0.886812  1
  P  P27  1  0.750000  0.917863  0.386812  1
  P  P28  1  0.250000  0.270071  0.868854  1
  P  P29  1  0.250000  0.229929  0.368854  1
  P  P30  1  0.750000  0.731389  0.131910  1
  P  P31  1  0.750000  0.768611  0.631910  1
  P  P32  1  0.250000  0.600279  0.391141  1
  P  P33  1  0.250000  0.899721  0.891141  1
  P  P34  1  0.750000  0.400327  0.609389  1
  P  P35  1  0.750000  0.099673  0.109389  1
