# generated using pymatgen
data_Ho2ErCoSn3Pt2
_symmetry_space_group_name_H-M   'P 1'
_cell_length_a   7.56147205
_cell_length_b   7.56836134
_cell_length_c   3.79002500
_cell_angle_alpha   90.00000000
_cell_angle_beta   90.00000000
_cell_angle_gamma   120.03015307
_symmetry_Int_Tables_number   1
_chemical_formula_structural   Ho2ErCoSn3Pt2
_chemical_formula_sum   'Ho2 Er1 Co1 Sn3 Pt2'
_cell_volume   187.77980297
_cell_formula_units_Z   1
loop_
 _symmetry_equiv_pos_site_id
 _symmetry_equiv_pos_as_xyz
  1  'x, y, z'
loop_
 _atom_site_type_symbol
 _atom_site_label
 _atom_site_symmetry_multiplicity
 _atom_site_fract_x
 _atom_site_fract_y
 _atom_site_fract_z
 _atom_site_occupancy
  Ho  Ho0  1  0.402830  0.402883  0.500000  1
  Ho  Ho1  1  0.597170  0.000053  0.500000  1
  Er  Er2  1  0.000000  0.597397  0.500000  1
  Co  Co3  1  0.000000  0.999531  0.500000  1
  Sn  Sn4  1  0.750246  0.750089  0.000000  1
  Sn  Sn5  1  0.249754  0.999843  0.000000  1
  Sn  Sn6  1  0.000000  0.249919  0.000000  1
  Pt  Pt7  1  0.667407  0.333845  0.000000  1
  Pt  Pt8  1  0.332593  0.666440  0.000000  1
