# generated using pymatgen
data_SmLuB6Os
_symmetry_space_group_name_H-M   'P 1'
_cell_length_a   3.65229300
_cell_length_b   9.13356000
_cell_length_c   11.55398500
_cell_angle_alpha   90.00000000
_cell_angle_beta   90.00000000
_cell_angle_gamma   90.00000000
_symmetry_Int_Tables_number   1
_chemical_formula_structural   SmLuB6Os
_chemical_formula_sum   'Sm4 Lu4 B24 Os4'
_cell_volume   385.42288365
_cell_formula_units_Z   4
loop_
 _symmetry_equiv_pos_site_id
 _symmetry_equiv_pos_as_xyz
  1  'x, y, z'
loop_
 _atom_site_type_symbol
 _atom_site_label
 _atom_site_symmetry_multiplicity
 _atom_site_fract_x
 _atom_site_fract_y
 _atom_site_fract_z
 _atom_site_occupancy
  Sm  Sm0  1  0.000000  0.321772  0.414223  1
  Sm  Sm1  1  0.000000  0.678228  0.585777  1
  Sm  Sm2  1  0.000000  0.821772  0.085777  1
  Sm  Sm3  1  0.000000  0.178228  0.914223  1
  Lu  Lu4  1  0.000000  0.944656  0.372987  1
  Lu  Lu5  1  0.000000  0.055344  0.627013  1
  Lu  Lu6  1  0.000000  0.444656  0.127013  1
  Lu  Lu7  1  0.000000  0.555344  0.872987  1
  B  B8  1  0.500000  0.555564  0.431435  1
  B  B9  1  0.500000  0.444436  0.568565  1
  B  B10  1  0.500000  0.055564  0.068565  1
  B  B11  1  0.500000  0.944436  0.931435  1
  B  B12  1  0.500000  0.750672  0.418149  1
  B  B13  1  0.500000  0.249328  0.581851  1
  B  B14  1  0.500000  0.250672  0.081851  1
  B  B15  1  0.500000  0.749328  0.918149  1
  B  B16  1  0.500000  0.791926  0.266474  1
  B  B17  1  0.500000  0.208074  0.733525  1
  B  B18  1  0.500000  0.291926  0.233526  1
  B  B19  1  0.500000  0.708074  0.766475  1
  B  B20  1  0.500000  0.630415  0.184530  1
  B  B21  1  0.500000  0.369585  0.815470  1
  B  B22  1  0.500000  0.130415  0.315470  1
  B  B23  1  0.500000  0.869585  0.684530  1
  B  B24  1  0.500000  0.984067  0.214373  1
  B  B25  1  0.500000  0.015933  0.785627  1
  B  B26  1  0.500000  0.484067  0.285627  1
  B  B27  1  0.500000  0.515933  0.714373  1
  B  B28  1  0.500000  0.601754  0.027811  1
  B  B29  1  0.500000  0.398246  0.972189  1
  B  B30  1  0.500000  0.101754  0.472189  1
  B  B31  1  0.500000  0.898246  0.527811  1
  Os  Os32  1  0.000000  0.639183  0.319573  1
  Os  Os33  1  0.000000  0.360817  0.680427  1
  Os  Os34  1  0.000000  0.139183  0.180427  1
  Os  Os35  1  0.000000  0.860817  0.819573  1
