# generated using pymatgen
data_Hf8AgMo3Ir4
_symmetry_space_group_name_H-M   'P 1'
_cell_length_a   6.59660500
_cell_length_b   4.66184800
_cell_length_c   9.31460100
_cell_angle_alpha   90.00000000
_cell_angle_beta   90.00003329
_cell_angle_gamma   90.00000000
_symmetry_Int_Tables_number   1
_chemical_formula_structural   Hf8AgMo3Ir4
_chemical_formula_sum   'Hf8 Ag1 Mo3 Ir4'
_cell_volume   286.44605473
_cell_formula_units_Z   1
loop_
 _symmetry_equiv_pos_site_id
 _symmetry_equiv_pos_as_xyz
  1  'x, y, z'
loop_
 _atom_site_type_symbol
 _atom_site_label
 _atom_site_symmetry_multiplicity
 _atom_site_fract_x
 _atom_site_fract_y
 _atom_site_fract_z
 _atom_site_occupancy
  Hf  Hf0  1  0.009332  0.750000  0.125011  1
  Hf  Hf1  1  0.490649  0.750000  0.125013  1
  Hf  Hf2  1  0.003675  0.250001  0.380399  1
  Hf  Hf3  1  0.496321  0.250001  0.380400  1
  Hf  Hf4  1  0.499944  0.750000  0.625025  1
  Hf  Hf5  1  0.000063  0.750000  0.625025  1
  Hf  Hf6  1  0.496351  0.250001  0.869600  1
  Hf  Hf7  1  0.003665  0.250001  0.869603  1
  Ag  Ag8  1  0.749991  0.250001  0.124932  1
  Mo  Mo9  1  0.249995  0.750000  0.373135  1
  Mo  Mo10  1  0.750007  0.250001  0.624996  1
  Mo  Mo11  1  0.250007  0.750000  0.876874  1
  Ir  Ir12  1  0.249992  0.250001  0.124996  1
  Ir  Ir13  1  0.749993  0.750000  0.373337  1
  Ir  Ir14  1  0.250006  0.250001  0.624996  1
  Ir  Ir15  1  0.750009  0.750000  0.876657  1
