# generated using pymatgen
data_Tb2Pr3P12Pd3Ru16
_symmetry_space_group_name_H-M   'P 1'
_cell_length_a   4.01204300
_cell_length_b   12.68009031
_cell_length_c   12.67944903
_cell_angle_alpha   120.00167499
_cell_angle_beta   90.00000000
_cell_angle_gamma   90.00000000
_symmetry_Int_Tables_number   1
_chemical_formula_structural   Tb2Pr3P12Pd3Ru16
_chemical_formula_sum   'Tb2 Pr3 P12 Pd3 Ru16'
_cell_volume   558.61373457
_cell_formula_units_Z   1
loop_
 _symmetry_equiv_pos_site_id
 _symmetry_equiv_pos_as_xyz
  1  'x, y, z'
loop_
 _atom_site_type_symbol
 _atom_site_label
 _atom_site_symmetry_multiplicity
 _atom_site_fract_x
 _atom_site_fract_y
 _atom_site_fract_z
 _atom_site_occupancy
  Tb  Tb0  1  0.000000  0.333301  0.666630  1
  Tb  Tb1  1  0.000000  0.666671  0.333370  1
  Pr  Pr2  1  0.500000  0.999905  0.182146  1
  Pr  Pr3  1  0.500000  0.182188  0.000000  1
  Pr  Pr4  1  0.500000  0.817760  0.817854  1
  P  P5  1  0.000000  0.000060  0.809750  1
  P  P6  1  0.000000  0.809715  0.000000  1
  P  P7  1  0.000000  0.190308  0.190250  1
  P  P8  1  0.500000  0.300019  0.480979  1
  P  P9  1  0.500000  0.180989  0.699959  1
  P  P10  1  0.500000  0.518967  0.819012  1
  P  P11  1  0.500000  0.819040  0.519021  1
  P  P12  1  0.500000  0.481029  0.300041  1
  P  P13  1  0.500000  0.699957  0.180988  1
  P  P14  1  0.000000  0.999988  0.369303  1
  P  P15  1  0.000000  0.369340  0.000000  1
  P  P16  1  0.000000  0.630685  0.630697  1
  Pd  Pd17  1  0.000000  0.999993  0.553298  1
  Pd  Pd18  1  0.000000  0.553289  0.000000  1
  Pd  Pd19  1  0.000000  0.446696  0.446702  1
  Ru  Ru20  1  0.500000  0.000022  0.708668  1
  Ru  Ru21  1  0.500000  0.708641  0.000000  1
  Ru  Ru22  1  0.500000  0.291355  0.291332  1
  Ru  Ru23  1  0.000000  0.195981  0.382691  1
  Ru  Ru24  1  0.000000  0.186749  0.804002  1
  Ru  Ru25  1  0.000000  0.617261  0.813262  1
  Ru  Ru26  1  0.000000  0.813291  0.617309  1
  Ru  Ru27  1  0.000000  0.382747  0.195998  1
  Ru  Ru28  1  0.000000  0.803999  0.186738  1
  Ru  Ru29  1  0.500000  0.123821  0.494072  1
  Ru  Ru30  1  0.500000  0.370242  0.876173  1
  Ru  Ru31  1  0.500000  0.505872  0.629712  1
  Ru  Ru32  1  0.500000  0.629750  0.505928  1
  Ru  Ru33  1  0.500000  0.494069  0.123827  1
  Ru  Ru34  1  0.500000  0.876160  0.370288  1
  Ru  Ru35  1  0.000000  0.000038  0.000000  1
