# generated using pymatgen
data_Sc4Ge2B4(IrRu)5
_symmetry_space_group_name_H-M   'P 1'
_cell_length_a   9.43002129
_cell_length_b   9.44063252
_cell_length_c   3.01822500
_cell_angle_alpha   90.00000000
_cell_angle_beta   90.00000000
_cell_angle_gamma   89.53284338
_symmetry_Int_Tables_number   1
_chemical_formula_structural   Sc4Ge2B4(IrRu)5
_chemical_formula_sum   'Sc4 Ge2 B4 Ir5 Ru5'
_cell_volume   268.68965302
_cell_formula_units_Z   1
loop_
 _symmetry_equiv_pos_site_id
 _symmetry_equiv_pos_as_xyz
  1  'x, y, z'
loop_
 _atom_site_type_symbol
 _atom_site_label
 _atom_site_symmetry_multiplicity
 _atom_site_fract_x
 _atom_site_fract_y
 _atom_site_fract_z
 _atom_site_occupancy
  Sc  Sc0  1  0.677262  0.178140  0.000000  1
  Sc  Sc1  1  0.325750  0.818123  0.000000  1
  Sc  Sc2  1  0.173486  0.328729  0.000000  1
  Sc  Sc3  1  0.824722  0.672477  0.000000  1
  Ge  Ge4  1  0.999045  0.005135  0.000000  1
  Ge  Ge5  1  0.496162  0.500927  0.000000  1
  B  B6  1  0.122821  0.620609  0.000000  1
  B  B7  1  0.880505  0.375589  0.000000  1
  B  B8  1  0.623847  0.870262  0.000000  1
  B  B9  1  0.377069  0.129175  0.000000  1
  Ir  Ir10  1  0.217718  0.069375  0.500000  1
  Ir  Ir11  1  0.783951  0.928879  0.500000  1
  Ir  Ir12  1  0.069054  0.787557  0.500000  1
  Ir  Ir13  1  0.713869  0.430344  0.500000  1
  Ir  Ir14  1  0.500308  0.998962  0.500000  1
  Ru  Ru15  1  0.930147  0.214094  0.500000  1
  Ru  Ru16  1  0.284497  0.571048  0.500000  1
  Ru  Ru17  1  0.570221  0.713063  0.500000  1
  Ru  Ru18  1  0.431090  0.286015  0.500000  1
  Ru  Ru19  1  0.998477  0.501496  0.500000  1
