# generated using pymatgen
data_Er8Tc3B24Rh
_symmetry_space_group_name_H-M   'P 1'
_cell_length_a   3.65044500
_cell_length_b   9.10828440
_cell_length_c   11.47850774
_cell_angle_alpha   90.12444563
_cell_angle_beta   90.00000000
_cell_angle_gamma   90.00000000
_symmetry_Int_Tables_number   1
_chemical_formula_structural   Er8Tc3B24Rh
_chemical_formula_sum   'Er8 Tc3 B24 Rh1'
_cell_volume   381.65134644
_cell_formula_units_Z   1
loop_
 _symmetry_equiv_pos_site_id
 _symmetry_equiv_pos_as_xyz
  1  'x, y, z'
loop_
 _atom_site_type_symbol
 _atom_site_label
 _atom_site_symmetry_multiplicity
 _atom_site_fract_x
 _atom_site_fract_y
 _atom_site_fract_z
 _atom_site_occupancy
  Er  Er0  1  0.500000  0.318892  0.415851  1
  Er  Er1  1  0.500000  0.677711  0.591270  1
  Er  Er2  1  0.500000  0.176805  0.912786  1
  Er  Er3  1  0.500000  0.827485  0.081276  1
  Er  Er4  1  0.500000  0.440845  0.128860  1
  Er  Er5  1  0.500000  0.556746  0.871147  1
  Er  Er6  1  0.500000  0.055923  0.629500  1
  Er  Er7  1  0.500000  0.944191  0.369905  1
  Tc  Tc8  1  0.500000  0.138769  0.180140  1
  Tc  Tc9  1  0.500000  0.861158  0.820829  1
  Tc  Tc10  1  0.500000  0.362318  0.677730  1
  B  B11  1  0.000000  0.102260  0.471208  1
  B  B12  1  0.000000  0.894836  0.528332  1
  B  B13  1  0.000000  0.396569  0.971788  1
  B  B14  1  0.000000  0.604247  0.029457  1
  B  B15  1  0.000000  0.131133  0.315265  1
  B  B16  1  0.000000  0.868093  0.685119  1
  B  B17  1  0.000000  0.368814  0.814576  1
  B  B18  1  0.000000  0.632097  0.183704  1
  B  B19  1  0.000000  0.053593  0.066349  1
  B  B20  1  0.000000  0.947092  0.932858  1
  B  B21  1  0.000000  0.446496  0.566247  1
  B  B22  1  0.000000  0.553918  0.434000  1
  B  B23  1  0.000000  0.483001  0.287937  1
  B  B24  1  0.000000  0.518129  0.712303  1
  B  B25  1  0.000000  0.017479  0.787174  1
  B  B26  1  0.000000  0.982849  0.211982  1
  B  B27  1  0.000000  0.249427  0.080713  1
  B  B28  1  0.000000  0.751403  0.919416  1
  B  B29  1  0.000000  0.250230  0.580438  1
  B  B30  1  0.000000  0.749282  0.420615  1
  B  B31  1  0.000000  0.292400  0.235319  1
  B  B32  1  0.000000  0.707591  0.765695  1
  B  B33  1  0.000000  0.207882  0.734379  1
  B  B34  1  0.000000  0.791890  0.264784  1
  Rh  Rh35  1  0.500000  0.638449  0.321048  1
