# generated using pymatgen
data_Nd3Y2P12Ru17Pt2
_symmetry_space_group_name_H-M   'P 1'
_cell_length_a   12.69747300
_cell_length_b   12.59102603
_cell_length_c   4.01248500
_cell_angle_alpha   90.00000000
_cell_angle_beta   90.00000000
_cell_angle_gamma   120.28005086
_symmetry_Int_Tables_number   1
_chemical_formula_structural   Nd3Y2P12Ru17Pt2
_chemical_formula_sum   'Nd3 Y2 P12 Ru17 Pt2'
_cell_volume   553.97475438
_cell_formula_units_Z   1
loop_
 _symmetry_equiv_pos_site_id
 _symmetry_equiv_pos_as_xyz
  1  'x, y, z'
loop_
 _atom_site_type_symbol
 _atom_site_label
 _atom_site_symmetry_multiplicity
 _atom_site_fract_x
 _atom_site_fract_y
 _atom_site_fract_z
 _atom_site_occupancy
  Nd  Nd0  1  0.001894  0.183632  0.500000  1
  Nd  Nd1  1  0.818262  0.816368  0.500000  1
  Nd  Nd2  1  0.184532  0.000000  0.500000  1
  Y  Y3  1  0.664059  0.327053  0.000000  1
  Y  Y4  1  0.337004  0.672947  0.000000  1
  P  P5  1  0.998360  0.809408  0.000000  1
  P  P6  1  0.188952  0.190592  0.000000  1
  P  P7  1  0.814547  0.000000  0.000000  1
  P  P8  1  0.694043  0.171450  0.500000  1
  P  P9  1  0.814687  0.515570  0.500000  1
  P  P10  1  0.478288  0.298126  0.500000  1
  P  P11  1  0.180162  0.701874  0.500000  1
  P  P12  1  0.522593  0.828550  0.500000  1
  P  P13  1  0.299116  0.484430  0.500000  1
  P  P14  1  0.000139  0.366993  0.000000  1
  P  P15  1  0.633146  0.633007  0.000000  1
  P  P16  1  0.375132  0.000000  0.000000  1
  Ru  Ru17  1  0.554865  0.000000  0.000000  1
  Ru  Ru18  1  0.997419  0.705995  0.500000  1
  Ru  Ru19  1  0.291424  0.294005  0.500000  1
  Ru  Ru20  1  0.715315  0.000000  0.500000  1
  Ru  Ru21  1  0.806234  0.185288  0.000000  1
  Ru  Ru22  1  0.812417  0.614858  0.000000  1
  Ru  Ru23  1  0.379721  0.195914  0.000000  1
  Ru  Ru24  1  0.183807  0.804086  0.000000  1
  Ru  Ru25  1  0.620948  0.814712  0.000000  1
  Ru  Ru26  1  0.197560  0.385142  0.000000  1
  Ru  Ru27  1  0.870570  0.366700  0.500000  1
  Ru  Ru28  1  0.627454  0.504861  0.500000  1
  Ru  Ru29  1  0.492899  0.123687  0.500000  1
  Ru  Ru30  1  0.369212  0.876313  0.500000  1
  Ru  Ru31  1  0.503870  0.633300  0.500000  1
  Ru  Ru32  1  0.122594  0.495139  0.500000  1
  Ru  Ru33  1  0.002543  0.000000  0.000000  1
  Pt  Pt34  1  0.997911  0.549590  0.000000  1
  Pt  Pt35  1  0.448320  0.450410  0.000000  1
