# generated using pymatgen
data_Zr6Zn16Ni7P
_symmetry_space_group_name_H-M   'P 1'
_cell_length_a   8.52569877
_cell_length_b   8.52525994
_cell_length_c   8.52470207
_cell_angle_alpha   60.00353035
_cell_angle_beta   59.99842439
_cell_angle_gamma   59.99451440
_symmetry_Int_Tables_number   1
_chemical_formula_structural   Zr6Zn16Ni7P
_chemical_formula_sum   'Zr6 Zn16 Ni7 P1'
_cell_volume   438.11712699
_cell_formula_units_Z   1
loop_
 _symmetry_equiv_pos_site_id
 _symmetry_equiv_pos_as_xyz
  1  'x, y, z'
loop_
 _atom_site_type_symbol
 _atom_site_label
 _atom_site_symmetry_multiplicity
 _atom_site_fract_x
 _atom_site_fract_y
 _atom_site_fract_z
 _atom_site_occupancy
  Zr  Zr0  1  0.711692  0.288299  0.288316  1
  Zr  Zr1  1  0.288307  0.711705  0.711682  1
  Zr  Zr2  1  0.288322  0.711692  0.288316  1
  Zr  Zr3  1  0.711681  0.288307  0.711685  1
  Zr  Zr4  1  0.288350  0.288328  0.711662  1
  Zr  Zr5  1  0.711650  0.711675  0.288335  1
  Zn  Zn6  1  0.120592  0.120591  0.120555  1
  Zn  Zn7  1  0.879409  0.879408  0.879446  1
  Zn  Zn8  1  0.120589  0.120599  0.638264  1
  Zn  Zn9  1  0.120555  0.638265  0.120595  1
  Zn  Zn10  1  0.879409  0.879398  0.361743  1
  Zn  Zn11  1  0.879448  0.361733  0.879404  1
  Zn  Zn12  1  0.638256  0.120559  0.120594  1
  Zn  Zn13  1  0.361741  0.879440  0.879407  1
  Zn  Zn14  1  0.333437  0.333413  0.333426  1
  Zn  Zn15  1  0.666564  0.666587  0.666572  1
  Zn  Zn16  1  0.333424  0.333423  0.999726  1
  Zn  Zn17  1  0.333423  0.999731  0.333428  1
  Zn  Zn18  1  0.666576  0.666579  0.000271  1
  Zn  Zn19  1  0.666577  0.000269  0.666572  1
  Zn  Zn20  1  0.999733  0.333415  0.333421  1
  Zn  Zn21  1  0.000269  0.666585  0.666578  1
  Ni  Ni22  1  0.500000  0.999999  0.000001  1
  Ni  Ni23  1  0.000001  0.500000  0.499999  1
  Ni  Ni24  1  0.000000  0.500002  0.000000  1
  Ni  Ni25  1  0.500000  0.999999  0.500000  1
  Ni  Ni26  1  0.000000  0.000000  0.500002  1
  Ni  Ni27  1  0.499999  0.500000  0.000000  1
  Ni  Ni28  1  0.999998  0.999997  0.000004  1
  P  P29  1  0.499999  0.500003  0.499996  1
