# generated using pymatgen
data_Pr5OsRh
_symmetry_space_group_name_H-M   'P 1'
_cell_length_a   9.06651059
_cell_length_b   9.06650974
_cell_length_c   7.42699864
_cell_angle_alpha   83.75433694
_cell_angle_beta   83.75433598
_cell_angle_gamma   43.30689263
_symmetry_Int_Tables_number   1
_chemical_formula_structural   Pr5OsRh
_chemical_formula_sum   'Pr10 Os2 Rh2'
_cell_volume   415.87466438
_cell_formula_units_Z   2
loop_
 _symmetry_equiv_pos_site_id
 _symmetry_equiv_pos_as_xyz
  1  'x, y, z'
loop_
 _atom_site_type_symbol
 _atom_site_label
 _atom_site_symmetry_multiplicity
 _atom_site_fract_x
 _atom_site_fract_y
 _atom_site_fract_z
 _atom_site_occupancy
  Pr  Pr0  1  0.019423  0.797426  0.914323  1
  Pr  Pr1  1  0.202574  0.980577  0.585677  1
  Pr  Pr2  1  0.987446  0.199325  0.081967  1
  Pr  Pr3  1  0.800675  0.012554  0.418033  1
  Pr  Pr4  1  0.353947  0.210111  0.814126  1
  Pr  Pr5  1  0.789889  0.646053  0.685874  1
  Pr  Pr6  1  0.640210  0.790541  0.183848  1
  Pr  Pr7  1  0.209459  0.359790  0.316152  1
  Pr  Pr8  1  0.570277  0.429723  0.750000  1
  Pr  Pr9  1  0.429950  0.570050  0.250000  1
  Os  Os10  1  0.178855  0.599288  0.573167  1
  Os  Os11  1  0.400712  0.821145  0.926833  1
  Rh  Rh12  1  0.820519  0.403933  0.424665  1
  Rh  Rh13  1  0.596067  0.179481  0.075335  1
