# generated using pymatgen
data_TaZn3(GaCo2)4
_symmetry_space_group_name_H-M   'P 1'
_cell_length_a   5.79664110
_cell_length_b   5.79760305
_cell_length_c   5.79172909
_cell_angle_alpha   90.00951105
_cell_angle_beta   90.01835260
_cell_angle_gamma   90.01118735
_symmetry_Int_Tables_number   1
_chemical_formula_structural   TaZn3(GaCo2)4
_chemical_formula_sum   'Ta1 Zn3 Ga4 Co8'
_cell_volume   194.64044629
_cell_formula_units_Z   1
loop_
 _symmetry_equiv_pos_site_id
 _symmetry_equiv_pos_as_xyz
  1  'x, y, z'
loop_
 _atom_site_type_symbol
 _atom_site_label
 _atom_site_symmetry_multiplicity
 _atom_site_fract_x
 _atom_site_fract_y
 _atom_site_fract_z
 _atom_site_occupancy
  Ta  Ta0  1  0.750046  0.250066  0.999984  1
  Zn  Zn1  1  0.249679  0.750002  0.000027  1
  Zn  Zn2  1  0.250061  0.749992  0.499970  1
  Zn  Zn3  1  0.749814  0.249999  0.499985  1
  Ga  Ga4  1  0.249889  0.249987  0.000037  1
  Ga  Ga5  1  0.750298  0.749978  0.000025  1
  Ga  Ga6  1  0.750017  0.750020  0.499942  1
  Ga  Ga7  1  0.250020  0.249999  0.499940  1
  Co  Co8  1  0.498895  0.998821  0.251484  1
  Co  Co9  1  0.498838  0.501208  0.251517  1
  Co  Co10  1  0.001200  0.998840  0.251878  1
  Co  Co11  1  0.001196  0.501133  0.251847  1
  Co  Co12  1  0.001184  0.998892  0.748153  1
  Co  Co13  1  0.001120  0.501079  0.748191  1
  Co  Co14  1  0.498852  0.998802  0.748496  1
  Co  Co15  1  0.498891  0.501172  0.748523  1
