# generated using pymatgen
data_Er5Ta3(ReB6)4
_symmetry_space_group_name_H-M   'P 1'
_cell_length_a   3.57494900
_cell_length_b   8.95986351
_cell_length_c   11.33254457
_cell_angle_alpha   89.91164089
_cell_angle_beta   90.00000000
_cell_angle_gamma   90.00000000
_symmetry_Int_Tables_number   1
_chemical_formula_structural   Er5Ta3(ReB6)4
_chemical_formula_sum   'Er5 Ta3 Re4 B24'
_cell_volume   362.99292782
_cell_formula_units_Z   1
loop_
 _symmetry_equiv_pos_site_id
 _symmetry_equiv_pos_as_xyz
  1  'x, y, z'
loop_
 _atom_site_type_symbol
 _atom_site_label
 _atom_site_symmetry_multiplicity
 _atom_site_fract_x
 _atom_site_fract_y
 _atom_site_fract_z
 _atom_site_occupancy
  Er  Er0  1  0.000000  0.321942  0.414202  1
  Er  Er1  1  0.000000  0.676940  0.587438  1
  Er  Er2  1  0.000000  0.822466  0.086014  1
  Er  Er3  1  0.000000  0.177405  0.912493  1
  Er  Er4  1  0.000000  0.945486  0.373839  1
  Ta  Ta5  1  0.000000  0.055439  0.628432  1
  Ta  Ta6  1  0.000000  0.445760  0.123297  1
  Ta  Ta7  1  0.000000  0.555335  0.875956  1
  Re  Re8  1  0.000000  0.634587  0.314590  1
  Re  Re9  1  0.000000  0.358201  0.684321  1
  Re  Re10  1  0.000000  0.148151  0.177533  1
  Re  Re11  1  0.000000  0.856835  0.820060  1
  B  B12  1  0.500000  0.551010  0.433446  1
  B  B13  1  0.500000  0.444601  0.567086  1
  B  B14  1  0.500000  0.055523  0.065166  1
  B  B15  1  0.500000  0.945893  0.933732  1
  B  B16  1  0.500000  0.748395  0.417685  1
  B  B17  1  0.500000  0.245549  0.583779  1
  B  B18  1  0.500000  0.256001  0.079505  1
  B  B19  1  0.500000  0.745431  0.918786  1
  B  B20  1  0.500000  0.793364  0.262457  1
  B  B21  1  0.500000  0.203825  0.738508  1
  B  B22  1  0.500000  0.297495  0.234239  1
  B  B23  1  0.500000  0.703384  0.763391  1
  B  B24  1  0.500000  0.628325  0.181129  1
  B  B25  1  0.500000  0.371335  0.818833  1
  B  B26  1  0.500000  0.133662  0.315388  1
  B  B27  1  0.500000  0.870757  0.682866  1
  B  B28  1  0.500000  0.984280  0.211078  1
  B  B29  1  0.500000  0.018729  0.787674  1
  B  B30  1  0.500000  0.479545  0.285540  1
  B  B31  1  0.500000  0.519538  0.713548  1
  B  B32  1  0.500000  0.599506  0.025549  1
  B  B33  1  0.500000  0.401979  0.972644  1
  B  B34  1  0.500000  0.102150  0.478247  1
  B  B35  1  0.500000  0.901176  0.531547  1
