# generated using pymatgen
data_Er5Pb3O
_symmetry_space_group_name_H-M   'P 1'
_cell_length_a   9.02663793
_cell_length_b   9.02663783
_cell_length_c   9.02663748
_cell_angle_alpha   125.69652137
_cell_angle_beta   125.69651688
_cell_angle_gamma   80.38750765
_symmetry_Int_Tables_number   1
_chemical_formula_structural   Er5Pb3O
_chemical_formula_sum   'Er10 Pb6 O2'
_cell_volume   468.00330235
_cell_formula_units_Z   2
loop_
 _symmetry_equiv_pos_site_id
 _symmetry_equiv_pos_as_xyz
  1  'x, y, z'
loop_
 _atom_site_type_symbol
 _atom_site_label
 _atom_site_symmetry_multiplicity
 _atom_site_fract_x
 _atom_site_fract_y
 _atom_site_fract_z
 _atom_site_occupancy
  Er  Er0  1  0.998212  0.199391  0.500000  1
  Er  Er1  1  0.800609  0.300609  0.798822  1
  Er  Er2  1  0.498212  0.998212  0.798822  1
  Er  Er3  1  0.501788  0.001788  0.201178  1
  Er  Er4  1  0.001788  0.800609  0.500000  1
  Er  Er5  1  0.500000  0.500000  0.000000  1
  Er  Er6  1  0.199391  0.699391  0.201178  1
  Er  Er7  1  0.699391  0.498212  0.500000  1
  Er  Er8  1  0.300609  0.501788  0.500000  1
  Er  Er9  1  0.000000  0.000000  0.000000  1
  Pb  Pb10  1  0.851742  0.351742  0.203485  1
  Pb  Pb11  1  0.148258  0.648258  0.796515  1
  Pb  Pb12  1  0.351742  0.148258  0.500000  1
  Pb  Pb13  1  0.750000  0.750000  0.000000  1
  Pb  Pb14  1  0.648258  0.851742  0.500000  1
  Pb  Pb15  1  0.250000  0.250000  0.000000  1
  O  O16  1  0.750000  0.250000  0.500000  1
  O  O17  1  0.250000  0.750000  0.500000  1
