# generated using pymatgen
data_Ho9U5O28
_symmetry_space_group_name_H-M   'P 1'
_cell_length_a   6.53110089
_cell_length_b   7.59571696
_cell_length_c   11.88079400
_cell_angle_alpha   73.00405996
_cell_angle_beta   80.17593888
_cell_angle_gamma   73.80645359
_symmetry_Int_Tables_number   1
_chemical_formula_structural   Ho9U5O28
_chemical_formula_sum   'Ho9 U5 O28'
_cell_volume   538.72958797
_cell_formula_units_Z   1
loop_
 _symmetry_equiv_pos_site_id
 _symmetry_equiv_pos_as_xyz
  1  'x, y, z'
loop_
 _atom_site_type_symbol
 _atom_site_label
 _atom_site_symmetry_multiplicity
 _atom_site_fract_x
 _atom_site_fract_y
 _atom_site_fract_z
 _atom_site_occupancy
  Ho  Ho0  1  0.782469  0.215188  0.930337  1
  Ho  Ho1  1  0.217531  0.784812  0.069663  1
  Ho  Ho2  1  0.642642  0.856835  0.213903  1
  Ho  Ho3  1  0.068582  0.430610  0.356802  1
  Ho  Ho4  1  0.642357  0.356723  0.215471  1
  Ho  Ho5  1  0.500000  0.000000  0.500000  1
  Ho  Ho6  1  0.931418  0.569390  0.643198  1
  Ho  Ho7  1  0.357643  0.643277  0.784529  1
  Ho  Ho8  1  0.357358  0.143165  0.786097  1
  U  U9  1  0.781076  0.715455  0.929975  1
  U  U10  1  0.218924  0.284545  0.070025  1
  U  U11  1  0.070082  0.927317  0.354996  1
  U  U12  1  0.500000  0.500000  0.500000  1
  U  U13  1  0.929918  0.072683  0.645004  1
  O  O14  1  0.146556  0.115636  0.972893  1
  O  O15  1  0.869715  0.396580  0.038464  1
  O  O16  1  0.853444  0.884364  0.027107  1
  O  O17  1  0.130285  0.603420  0.961536  1
  O  O18  1  0.277010  0.456016  0.170537  1
  O  O19  1  0.579757  0.673682  0.101543  1
  O  O20  1  0.007856  0.240726  0.245659  1
  O  O21  1  0.558624  0.177871  0.107381  1
  O  O22  1  0.279189  0.971406  0.181523  1
  O  O23  1  0.007321  0.757879  0.252050  1
  O  O24  1  0.731892  0.030429  0.327206  1
  O  O25  1  0.138967  0.623251  0.460477  1
  O  O26  1  0.423721  0.328339  0.403105  1
  O  O27  1  0.703162  0.538765  0.333066  1
  O  O28  1  0.131038  0.102741  0.459652  1
  O  O29  1  0.861033  0.376749  0.539523  1
  O  O30  1  0.408604  0.825806  0.390226  1
  O  O31  1  0.868962  0.897259  0.540348  1
  O  O32  1  0.268108  0.969571  0.672794  1
  O  O33  1  0.576279  0.671661  0.596895  1
  O  O34  1  0.992679  0.242121  0.747950  1
  O  O35  1  0.591396  0.174194  0.609774  1
  O  O36  1  0.296838  0.461235  0.666934  1
  O  O37  1  0.992144  0.759274  0.754341  1
  O  O38  1  0.441376  0.822129  0.892619  1
  O  O39  1  0.720811  0.028594  0.818477  1
  O  O40  1  0.420243  0.326318  0.898457  1
  O  O41  1  0.722990  0.543984  0.829463  1
