# generated using pymatgen
data_Sm3Al3CuIr2
_symmetry_space_group_name_H-M   'P 1'
_cell_length_a   7.21863600
_cell_length_b   7.21863586
_cell_length_c   4.05816200
_cell_angle_alpha   90.00000000
_cell_angle_beta   90.00000000
_cell_angle_gamma   120.00000062
_symmetry_Int_Tables_number   1
_chemical_formula_structural   Sm3Al3CuIr2
_chemical_formula_sum   'Sm3 Al3 Cu1 Ir2'
_cell_volume   183.13455049
_cell_formula_units_Z   1
loop_
 _symmetry_equiv_pos_site_id
 _symmetry_equiv_pos_as_xyz
  1  'x, y, z'
loop_
 _atom_site_type_symbol
 _atom_site_label
 _atom_site_symmetry_multiplicity
 _atom_site_fract_x
 _atom_site_fract_y
 _atom_site_fract_z
 _atom_site_occupancy
  Sm  Sm0  1  0.578736  0.994465  0.500000  1
  Sm  Sm1  1  0.005535  0.584271  0.500000  1
  Sm  Sm2  1  0.415729  0.421264  0.500000  1
  Al  Al3  1  0.225286  0.987465  0.000000  1
  Al  Al4  1  0.012535  0.237821  0.000000  1
  Al  Al5  1  0.762179  0.774714  0.000000  1
  Cu  Cu6  1  0.666667  0.333333  0.000000  1
  Ir  Ir7  1  0.000000  0.000000  0.500000  1
  Ir  Ir8  1  0.333333  0.666667  0.000000  1
