# generated using pymatgen
data_Mg4MnAs6(IrRu2)2
_symmetry_space_group_name_H-M   'P 1'
_cell_length_a   7.05975301
_cell_length_b   7.04388985
_cell_length_c   7.04388985
_cell_angle_alpha   109.57323279
_cell_angle_beta   109.52719664
_cell_angle_gamma   109.52719640
_symmetry_Int_Tables_number   1
_chemical_formula_structural   Mg4MnAs6(IrRu2)2
_chemical_formula_sum   'Mg4 Mn1 As6 Ir2 Ru4'
_cell_volume   268.93079612
_cell_formula_units_Z   1
loop_
 _symmetry_equiv_pos_site_id
 _symmetry_equiv_pos_as_xyz
  1  'x, y, z'
loop_
 _atom_site_type_symbol
 _atom_site_label
 _atom_site_symmetry_multiplicity
 _atom_site_fract_x
 _atom_site_fract_y
 _atom_site_fract_z
 _atom_site_occupancy
  Mg  Mg0  1  0.011909  0.005307  0.506477  1
  Mg  Mg1  1  0.500000  0.006460  0.993540  1
  Mg  Mg2  1  0.988091  0.493523  0.994693  1
  Mg  Mg3  1  0.500000  0.494669  0.505331  1
  Mn  Mn4  1  0.500000  0.750938  0.249062  1
  As  As5  1  0.688550  0.685884  0.990991  1
  As  As6  1  0.305766  0.303551  0.991375  1
  As  As7  1  0.998874  0.685109  0.694339  1
  As  As8  1  0.001126  0.305661  0.314891  1
  As  As9  1  0.694234  0.008625  0.696449  1
  As  As10  1  0.311450  0.009009  0.314116  1
  Ir  Ir11  1  0.748358  0.519518  0.264927  1
  Ir  Ir12  1  0.251642  0.735073  0.480482  1
  Ru  Ru13  1  0.000000  0.999690  0.000310  1
  Ru  Ru14  1  0.255297  0.517524  0.769614  1
  Ru  Ru15  1  0.744703  0.230386  0.482476  1
  Ru  Ru16  1  0.500000  0.249070  0.750930  1
