# generated using pymatgen
data_Tb8Al2IrRh
_symmetry_space_group_name_H-M   'P 1'
_cell_length_a   9.58479296
_cell_length_b   9.59702408
_cell_length_c   9.58479303
_cell_angle_alpha   59.95778885
_cell_angle_beta   59.90514777
_cell_angle_gamma   59.95778550
_symmetry_Int_Tables_number   1
_chemical_formula_structural   Tb8Al2IrRh
_chemical_formula_sum   'Tb16 Al4 Ir2 Rh2'
_cell_volume   622.58374143
_cell_formula_units_Z   2
loop_
 _symmetry_equiv_pos_site_id
 _symmetry_equiv_pos_as_xyz
  1  'x, y, z'
loop_
 _atom_site_type_symbol
 _atom_site_label
 _atom_site_symmetry_multiplicity
 _atom_site_fract_x
 _atom_site_fract_y
 _atom_site_fract_z
 _atom_site_occupancy
  Tb  Tb0  1  0.808293  0.806197  0.193150  1
  Tb  Tb1  1  0.807157  0.192843  0.807157  1
  Tb  Tb2  1  0.193150  0.192360  0.808293  1
  Tb  Tb3  1  0.647672  0.055125  0.647672  1
  Tb  Tb4  1  0.061890  0.062517  0.438384  1
  Tb  Tb5  1  0.438384  0.437208  0.061890  1
  Tb  Tb6  1  0.647672  0.649531  0.647672  1
  Tb  Tb7  1  0.808293  0.192360  0.193150  1
  Tb  Tb8  1  0.193150  0.806197  0.808293  1
  Tb  Tb9  1  0.058137  0.648067  0.645731  1
  Tb  Tb10  1  0.438384  0.062517  0.061890  1
  Tb  Tb11  1  0.436237  0.063763  0.436237  1
  Tb  Tb12  1  0.060850  0.439150  0.060850  1
  Tb  Tb13  1  0.645731  0.648067  0.058137  1
  Tb  Tb14  1  0.192765  0.807235  0.192765  1
  Tb  Tb15  1  0.061890  0.437208  0.438384  1
  Al  Al16  1  0.423149  0.422034  0.423149  1
  Al  Al17  1  0.423466  0.422731  0.731070  1
  Al  Al18  1  0.423149  0.731667  0.423149  1
  Al  Al19  1  0.731070  0.422731  0.423466  1
  Ir  Ir20  1  0.857223  0.428278  0.857223  1
  Ir  Ir21  1  0.857223  0.857278  0.857223  1
  Rh  Rh22  1  0.857718  0.857470  0.427344  1
  Rh  Rh23  1  0.427344  0.857470  0.857718  1
