# generated using pymatgen
data_BaSnHgSe4
_symmetry_space_group_name_H-M   'P 1'
_cell_length_a   6.74485959
_cell_length_b   6.74486012
_cell_length_c   11.60735900
_cell_angle_alpha   90.00000000
_cell_angle_beta   90.00000000
_cell_angle_gamma   117.62758998
_symmetry_Int_Tables_number   1
_chemical_formula_structural   BaSnHgSe4
_chemical_formula_sum   'Ba2 Sn2 Hg2 Se8'
_cell_volume   467.84649853
_cell_formula_units_Z   2
loop_
 _symmetry_equiv_pos_site_id
 _symmetry_equiv_pos_as_xyz
  1  'x, y, z'
loop_
 _atom_site_type_symbol
 _atom_site_label
 _atom_site_symmetry_multiplicity
 _atom_site_fract_x
 _atom_site_fract_y
 _atom_site_fract_z
 _atom_site_occupancy
  Ba  Ba0  1  0.949148  0.949148  0.500000  1
  Ba  Ba1  1  0.949148  0.949148  0.000000  1
  Sn  Sn2  1  0.249900  0.674350  0.750000  1
  Sn  Sn3  1  0.674350  0.249900  0.250000  1
  Hg  Hg4  1  0.677035  0.336128  0.750000  1
  Hg  Hg5  1  0.336128  0.677035  0.250000  1
  Se  Se6  1  0.995473  0.465586  0.578035  1
  Se  Se7  1  0.465586  0.995473  0.421965  1
  Se  Se8  1  0.656074  0.757040  0.750000  1
  Se  Se9  1  0.757040  0.656074  0.250000  1
  Se  Se10  1  0.995473  0.465586  0.921965  1
  Se  Se11  1  0.465586  0.995473  0.078035  1
  Se  Se12  1  0.249224  0.060634  0.750000  1
  Se  Se13  1  0.060634  0.249224  0.250000  1
