# generated using pymatgen
data_Ti3Nb(As2Pd)4
_symmetry_space_group_name_H-M   'P 1'
_cell_length_a   5.81298655
_cell_length_b   3.56825700
_cell_length_c   12.92232123
_cell_angle_alpha   90.00000000
_cell_angle_beta   90.04983997
_cell_angle_gamma   90.00000000
_symmetry_Int_Tables_number   1
_chemical_formula_structural   Ti3Nb(As2Pd)4
_chemical_formula_sum   'Ti3 Nb1 As8 Pd4'
_cell_volume   268.03765684
_cell_formula_units_Z   1
loop_
 _symmetry_equiv_pos_site_id
 _symmetry_equiv_pos_as_xyz
  1  'x, y, z'
loop_
 _atom_site_type_symbol
 _atom_site_label
 _atom_site_symmetry_multiplicity
 _atom_site_fract_x
 _atom_site_fract_y
 _atom_site_fract_z
 _atom_site_occupancy
  Ti  Ti0  1  0.979406  0.750001  0.170580  1
  Ti  Ti1  1  0.480289  0.750001  0.329199  1
  Ti  Ti2  1  0.517820  0.249999  0.670628  1
  Nb  Nb3  1  0.016441  0.249999  0.829054  1
  As  As4  1  0.171945  0.249999  0.037831  1
  As  As5  1  0.666666  0.249999  0.207055  1
  As  As6  1  0.165494  0.249999  0.293593  1
  As  As7  1  0.669064  0.249999  0.463945  1
  As  As8  1  0.331983  0.750001  0.535226  1
  As  As9  1  0.833578  0.750001  0.701782  1
  As  As10  1  0.340522  0.750001  0.794452  1
  As  As11  1  0.828260  0.750001  0.965671  1
  Pd  Pd12  1  0.474869  0.750001  0.092556  1
  Pd  Pd13  1  0.975945  0.750001  0.408561  1
  Pd  Pd14  1  0.025536  0.249999  0.590393  1
  Pd  Pd15  1  0.522183  0.249999  0.909477  1
