# generated using pymatgen
data_Nd11YCoRh3
_symmetry_space_group_name_H-M   'P 1'
_cell_length_a   6.45597277
_cell_length_b   7.29499469
_cell_length_c   9.95712910
_cell_angle_alpha   90.11237285
_cell_angle_beta   92.62764067
_cell_angle_gamma   90.04069076
_symmetry_Int_Tables_number   1
_chemical_formula_structural   Nd11YCoRh3
_chemical_formula_sum   'Nd11 Y1 Co1 Rh3'
_cell_volume   468.44969774
_cell_formula_units_Z   1
loop_
 _symmetry_equiv_pos_site_id
 _symmetry_equiv_pos_as_xyz
  1  'x, y, z'
loop_
 _atom_site_type_symbol
 _atom_site_label
 _atom_site_symmetry_multiplicity
 _atom_site_fract_x
 _atom_site_fract_y
 _atom_site_fract_z
 _atom_site_occupancy
  Nd  Nd0  1  0.641012  0.043456  0.254323  1
  Nd  Nd1  1  0.356179  0.964699  0.745144  1
  Nd  Nd2  1  0.142427  0.464465  0.751862  1
  Nd  Nd3  1  0.847875  0.532301  0.247913  1
  Nd  Nd4  1  0.177742  0.185233  0.069059  1
  Nd  Nd5  1  0.829038  0.819461  0.935752  1
  Nd  Nd6  1  0.662134  0.325574  0.927750  1
  Nd  Nd7  1  0.837844  0.828355  0.567080  1
  Nd  Nd8  1  0.341449  0.667269  0.073412  1
  Nd  Nd9  1  0.167410  0.177123  0.429589  1
  Nd  Nd10  1  0.327164  0.672783  0.433693  1
  Y  Y11  1  0.670106  0.320528  0.562769  1
  Co  Co12  1  0.441893  0.380934  0.276008  1
  Rh  Rh13  1  0.563756  0.616571  0.729557  1
  Rh  Rh14  1  0.932692  0.119176  0.764237  1
  Rh  Rh15  1  0.061279  0.882072  0.231850  1
