# generated using pymatgen
data_Y8Cd2PdRu
_symmetry_space_group_name_H-M   'P 1'
_cell_length_a   9.69771063
_cell_length_b   9.69182772
_cell_length_c   9.69771054
_cell_angle_alpha   60.02006756
_cell_angle_beta   60.28624323
_cell_angle_gamma   60.02006627
_symmetry_Int_Tables_number   1
_chemical_formula_structural   Y8Cd2PdRu
_chemical_formula_sum   'Y16 Cd4 Pd2 Ru2'
_cell_volume   646.08857425
_cell_formula_units_Z   2
loop_
 _symmetry_equiv_pos_site_id
 _symmetry_equiv_pos_as_xyz
  1  'x, y, z'
loop_
 _atom_site_type_symbol
 _atom_site_label
 _atom_site_symmetry_multiplicity
 _atom_site_fract_x
 _atom_site_fract_y
 _atom_site_fract_z
 _atom_site_occupancy
  Y  Y0  1  0.437606  0.435763  0.066387  1
  Y  Y1  1  0.066387  0.060244  0.437606  1
  Y  Y2  1  0.437606  0.060244  0.066387  1
  Y  Y3  1  0.850413  0.845667  0.850413  1
  Y  Y4  1  0.689703  0.316110  0.304381  1
  Y  Y5  1  0.066387  0.435763  0.437606  1
  Y  Y6  1  0.304381  0.689806  0.689703  1
  Y  Y7  1  0.304381  0.316110  0.689703  1
  Y  Y8  1  0.858381  0.848299  0.445022  1
  Y  Y9  1  0.689703  0.689806  0.304381  1
  Y  Y10  1  0.445022  0.848299  0.858381  1
  Y  Y11  1  0.062425  0.437575  0.062425  1
  Y  Y12  1  0.850413  0.453506  0.850413  1
  Y  Y13  1  0.435971  0.064029  0.435971  1
  Y  Y14  1  0.311888  0.688112  0.311888  1
  Y  Y15  1  0.691322  0.308678  0.691322  1
  Cd  Cd16  1  0.081038  0.757043  0.081038  1
  Cd  Cd17  1  0.080449  0.080856  0.757838  1
  Cd  Cd18  1  0.757838  0.080856  0.080449  1
  Cd  Cd19  1  0.081038  0.080881  0.081038  1
  Pd  Pd20  1  0.641475  0.071937  0.641475  1
  Pd  Pd21  1  0.641475  0.645112  0.641475  1
  Ru  Ru22  1  0.641605  0.642651  0.073092  1
  Ru  Ru23  1  0.073092  0.642651  0.641605  1
