# generated using pymatgen
data_Tb2Si14IrRh5
_symmetry_space_group_name_H-M   'P 1'
_cell_length_a   8.00021088
_cell_length_b   8.00870425
_cell_length_c   8.00870500
_cell_angle_alpha   56.97383303
_cell_angle_beta   56.96696439
_cell_angle_gamma   56.96696612
_symmetry_Int_Tables_number   1
_chemical_formula_structural   Tb2Si14IrRh5
_chemical_formula_sum   'Tb2 Si14 Ir1 Rh5'
_cell_volume   337.47690797
_cell_formula_units_Z   1
loop_
 _symmetry_equiv_pos_site_id
 _symmetry_equiv_pos_as_xyz
  1  'x, y, z'
loop_
 _atom_site_type_symbol
 _atom_site_label
 _atom_site_symmetry_multiplicity
 _atom_site_fract_x
 _atom_site_fract_y
 _atom_site_fract_z
 _atom_site_occupancy
  Tb  Tb0  1  0.999916  0.999837  0.000576  1
  Tb  Tb1  1  0.500084  0.499424  0.500163  1
  Si  Si2  1  0.750000  0.748776  0.751224  1
  Si  Si3  1  0.250000  0.250197  0.249803  1
  Si  Si4  1  0.851718  0.067089  0.671631  1
  Si  Si5  1  0.673017  0.851383  0.063739  1
  Si  Si6  1  0.064219  0.673869  0.850334  1
  Si  Si7  1  0.648282  0.828369  0.432911  1
  Si  Si8  1  0.435781  0.649666  0.826131  1
  Si  Si9  1  0.826983  0.436261  0.648617  1
  Si  Si10  1  0.173913  0.562735  0.351403  1
  Si  Si11  1  0.563401  0.351238  0.171913  1
  Si  Si12  1  0.351126  0.170742  0.567683  1
  Si  Si13  1  0.936599  0.328087  0.148762  1
  Si  Si14  1  0.326087  0.148597  0.937265  1
  Si  Si15  1  0.148874  0.932317  0.329258  1
  Ir  Ir16  1  0.750000  0.069557  0.430443  1
  Rh  Rh17  1  0.069789  0.429707  0.750561  1
  Rh  Rh18  1  0.250000  0.931478  0.568522  1
  Rh  Rh19  1  0.569812  0.250400  0.929165  1
  Rh  Rh20  1  0.930188  0.570835  0.249600  1
  Rh  Rh21  1  0.430211  0.749439  0.070293  1
