# generated using pymatgen
data_AgCl30
_symmetry_space_group_name_H-M   'P 1'
_cell_length_a   13.64955810
_cell_length_b   13.64955835
_cell_length_c   16.13494440
_cell_angle_alpha   83.39974761
_cell_angle_beta   83.39974633
_cell_angle_gamma   123.33948790
_symmetry_Int_Tables_number   1
_chemical_formula_structural   AgCl30
_chemical_formula_sum   'Ag1 Cl30'
_cell_volume   2436.61006789
_cell_formula_units_Z   1
loop_
 _symmetry_equiv_pos_site_id
 _symmetry_equiv_pos_as_xyz
  1  'x, y, z'
loop_
 _atom_site_type_symbol
 _atom_site_label
 _atom_site_symmetry_multiplicity
 _atom_site_fract_x
 _atom_site_fract_y
 _atom_site_fract_z
 _atom_site_occupancy
  Ag  Ag0  1  0.000000  0.000000  0.000000  1
  Cl  Cl1  1  0.943621  0.943621  0.159194  1
  Cl  Cl2  1  0.056379  0.056379  0.840806  1
  Cl  Cl3  1  0.059614  0.196154  0.005458  1
  Cl  Cl4  1  0.940386  0.803846  0.994542  1
  Cl  Cl5  1  0.196154  0.059614  0.005458  1
  Cl  Cl6  1  0.803846  0.940386  0.994542  1
  Cl  Cl7  1  0.203766  0.742779  0.063463  1
  Cl  Cl8  1  0.796234  0.257221  0.936537  1
  Cl  Cl9  1  0.702708  0.075402  0.263919  1
  Cl  Cl10  1  0.257221  0.796234  0.936537  1
  Cl  Cl11  1  0.297292  0.924598  0.736081  1
  Cl  Cl12  1  0.742779  0.203766  0.063463  1
  Cl  Cl13  1  0.978641  0.195529  0.785339  1
  Cl  Cl14  1  0.924598  0.297292  0.736081  1
  Cl  Cl15  1  0.021359  0.804471  0.214661  1
  Cl  Cl16  1  0.075402  0.702708  0.263919  1
  Cl  Cl17  1  0.804471  0.021359  0.214661  1
  Cl  Cl18  1  0.195529  0.978641  0.785339  1
  Cl  Cl19  1  0.464546  0.547458  0.259623  1
  Cl  Cl20  1  0.535454  0.452542  0.740377  1
  Cl  Cl21  1  0.507704  0.205982  0.451001  1
  Cl  Cl22  1  0.452542  0.535454  0.740377  1
  Cl  Cl23  1  0.492296  0.794018  0.548999  1
  Cl  Cl24  1  0.547458  0.464546  0.259623  1
  Cl  Cl25  1  0.239894  0.429053  0.544370  1
  Cl  Cl26  1  0.794018  0.492296  0.548999  1
  Cl  Cl27  1  0.760106  0.570947  0.455630  1
  Cl  Cl28  1  0.205982  0.507704  0.451001  1
  Cl  Cl29  1  0.570947  0.760106  0.455630  1
  Cl  Cl30  1  0.429053  0.239894  0.544370  1
