# generated using pymatgen
data_La8Bi3O8
_symmetry_space_group_name_H-M   'P 1'
_cell_length_a   7.38616740
_cell_length_b   7.38616808
_cell_length_c   15.95470096
_cell_angle_alpha   73.53044841
_cell_angle_beta   73.53044656
_cell_angle_gamma   31.77065199
_symmetry_Int_Tables_number   1
_chemical_formula_structural   La8Bi3O8
_chemical_formula_sum   'La8 Bi3 O8'
_cell_volume   437.93028353
_cell_formula_units_Z   1
loop_
 _symmetry_equiv_pos_site_id
 _symmetry_equiv_pos_as_xyz
  1  'x, y, z'
loop_
 _atom_site_type_symbol
 _atom_site_label
 _atom_site_symmetry_multiplicity
 _atom_site_fract_x
 _atom_site_fract_y
 _atom_site_fract_z
 _atom_site_occupancy
  La  La0  1  0.715010  0.724279  0.911291  1
  La  La1  1  0.275721  0.284990  0.088709  1
  La  La2  1  0.641737  0.641888  0.567333  1
  La  La3  1  0.358112  0.358263  0.432667  1
  La  La4  1  0.878806  0.880188  0.652286  1
  La  La5  1  0.119812  0.121194  0.347714  1
  La  La6  1  0.450411  0.456857  0.831127  1
  La  La7  1  0.543143  0.549589  0.168873  1
  Bi  Bi8  1  0.171367  0.172363  0.733436  1
  Bi  Bi9  1  0.827637  0.828633  0.266564  1
  Bi  Bi10  1  0.988662  0.011338  0.000000  1
  O  O11  1  0.468279  0.469793  0.633031  1
  O  O12  1  0.530207  0.531721  0.366969  1
  O  O13  1  0.879297  0.886249  0.799797  1
  O  O14  1  0.113751  0.120703  0.200203  1
  O  O15  1  0.164834  0.165172  0.486980  1
  O  O16  1  0.834828  0.835166  0.513020  1
  O  O17  1  0.290938  0.300553  0.933681  1
  O  O18  1  0.699447  0.709062  0.066319  1
