# generated using pymatgen
data_Y2Lu14TlIn5Co2
_symmetry_space_group_name_H-M   'P 1'
_cell_length_a   10.13155413
_cell_length_b   10.13155554
_cell_length_c   6.97024868
_cell_angle_alpha   89.95620169
_cell_angle_beta   90.04379603
_cell_angle_gamma   120.07882409
_symmetry_Int_Tables_number   1
_chemical_formula_structural   Y2Lu14TlIn5Co2
_chemical_formula_sum   'Y2 Lu14 Tl1 In5 Co2'
_cell_volume   619.13511053
_cell_formula_units_Z   1
loop_
 _symmetry_equiv_pos_site_id
 _symmetry_equiv_pos_as_xyz
  1  'x, y, z'
loop_
 _atom_site_type_symbol
 _atom_site_label
 _atom_site_symmetry_multiplicity
 _atom_site_fract_x
 _atom_site_fract_y
 _atom_site_fract_z
 _atom_site_occupancy
  Y  Y0  1  0.999579  0.000421  0.495989  1
  Y  Y1  1  0.999250  0.000750  0.994935  1
  Lu  Lu2  1  0.464593  0.535407  0.481716  1
  Lu  Lu3  1  0.071194  0.536178  0.482807  1
  Lu  Lu4  1  0.463822  0.928806  0.482807  1
  Lu  Lu5  1  0.535474  0.464526  0.982057  1
  Lu  Lu6  1  0.928054  0.462884  0.980975  1
  Lu  Lu7  1  0.537116  0.071946  0.980975  1
  Lu  Lu8  1  0.819525  0.180475  0.277866  1
  Lu  Lu9  1  0.360231  0.179954  0.276922  1
  Lu  Lu10  1  0.820046  0.639769  0.276922  1
  Lu  Lu11  1  0.180530  0.819470  0.780200  1
  Lu  Lu12  1  0.639379  0.819295  0.777158  1
  Lu  Lu13  1  0.180705  0.360621  0.777158  1
  Lu  Lu14  1  0.333653  0.666347  0.090857  1
  Lu  Lu15  1  0.666315  0.333685  0.590612  1
  Tl  Tl16  1  0.163404  0.836596  0.232371  1
  In  In17  1  0.673627  0.836938  0.233993  1
  In  In18  1  0.163062  0.326373  0.233993  1
  In  In19  1  0.836923  0.163077  0.733101  1
  In  In20  1  0.326603  0.163061  0.733293  1
  In  In21  1  0.836939  0.673397  0.733293  1
  Co  Co22  1  0.333353  0.666647  0.707486  1
  Co  Co23  1  0.666621  0.333379  0.207066  1
