# generated using pymatgen
data_Y3Ho7In8PdRh2Au
_symmetry_space_group_name_H-M   'P 1'
_cell_length_a   3.61343300
_cell_length_b   8.12459087
_cell_length_c   18.26493500
_cell_angle_alpha   89.94410470
_cell_angle_beta   90.00000000
_cell_angle_gamma   90.00000000
_symmetry_Int_Tables_number   1
_chemical_formula_structural   Y3Ho7In8PdRh2Au
_chemical_formula_sum   'Y3 Ho7 In8 Pd1 Rh2 Au1'
_cell_volume   536.21558320
_cell_formula_units_Z   1
loop_
 _symmetry_equiv_pos_site_id
 _symmetry_equiv_pos_as_xyz
  1  'x, y, z'
loop_
 _atom_site_type_symbol
 _atom_site_label
 _atom_site_symmetry_multiplicity
 _atom_site_fract_x
 _atom_site_fract_y
 _atom_site_fract_z
 _atom_site_occupancy
  Y  Y0  1  0.000000  0.500337  0.499926  1
  Y  Y1  1  0.000000  0.999513  0.000261  1
  Y  Y2  1  0.000000  0.731538  0.278477  1
  Ho  Ho3  1  0.000000  0.277399  0.722281  1
  Ho  Ho4  1  0.000000  0.742152  0.781754  1
  Ho  Ho5  1  0.000000  0.252090  0.219743  1
  Ho  Ho6  1  0.000000  0.614266  0.086598  1
  Ho  Ho7  1  0.000000  0.385931  0.913950  1
  Ho  Ho8  1  0.000000  0.880922  0.580579  1
  Ho  Ho9  1  0.000000  0.116214  0.415439  1
  In  In10  1  0.500000  0.708258  0.932016  1
  In  In11  1  0.500000  0.291109  0.068366  1
  In  In12  1  0.500000  0.791278  0.431585  1
  In  In13  1  0.500000  0.209676  0.566860  1
  In  In14  1  0.500000  0.576711  0.649222  1
  In  In15  1  0.500000  0.421659  0.350450  1
  In  In16  1  0.500000  0.921923  0.150174  1
  In  In17  1  0.500000  0.081176  0.851478  1
  Pd  Pd18  1  0.500000  0.023722  0.303667  1
  Rh  Rh19  1  0.500000  0.518953  0.194070  1
  Rh  Rh20  1  0.500000  0.477641  0.805155  1
  Au  Au21  1  0.500000  0.977531  0.697947  1
