# generated using pymatgen
data_K3In4AgI16
_symmetry_space_group_name_H-M   'P 1'
_cell_length_a   8.60320490
_cell_length_b   9.11539302
_cell_length_c   16.82347800
_cell_angle_alpha   86.93257918
_cell_angle_beta   89.74546092
_cell_angle_gamma   90.11504458
_symmetry_Int_Tables_number   1
_chemical_formula_structural   K3In4AgI16
_chemical_formula_sum   'K3 In4 Ag1 I16'
_cell_volume   1317.41737693
_cell_formula_units_Z   1
loop_
 _symmetry_equiv_pos_site_id
 _symmetry_equiv_pos_as_xyz
  1  'x, y, z'
loop_
 _atom_site_type_symbol
 _atom_site_label
 _atom_site_symmetry_multiplicity
 _atom_site_fract_x
 _atom_site_fract_y
 _atom_site_fract_z
 _atom_site_occupancy
  K  K0  1  0.998941  0.835108  0.369957  1
  K  K1  1  0.499548  0.161980  0.130228  1
  K  K2  1  0.007775  0.157699  0.633002  1
  In  In3  1  0.203602  0.708242  0.608938  1
  In  In4  1  0.684378  0.295406  0.895468  1
  In  In5  1  0.800990  0.293100  0.397290  1
  In  In6  1  0.311392  0.711034  0.095579  1
  Ag  Ag7  1  0.502438  0.846237  0.880941  1
  I  I8  1  0.337013  0.684189  0.461220  1
  I  I9  1  0.831176  0.322072  0.039068  1
  I  I10  1  0.668842  0.320168  0.544379  1
  I  I11  1  0.215140  0.697642  0.939071  1
  I  I12  1  0.109682  0.208057  0.419644  1
  I  I13  1  0.617412  0.800217  0.064695  1
  I  I14  1  0.896320  0.793988  0.581350  1
  I  I15  1  0.386387  0.175380  0.920008  1
  I  I16  1  0.348047  0.925813  0.693019  1
  I  I17  1  0.804547  0.047287  0.823820  1
  I  I18  1  0.658448  0.059015  0.324709  1
  I  I19  1  0.159091  0.936598  0.170428  1
  I  I20  1  0.217407  0.454589  0.704613  1
  I  I21  1  0.686583  0.562154  0.810812  1
  I  I22  1  0.777082  0.539057  0.296580  1
  I  I23  1  0.277756  0.464967  0.195181  1
