# generated using pymatgen
data_SmLuAl20Os3Rh
_symmetry_space_group_name_H-M   'P 1'
_cell_length_a   6.86944743
_cell_length_b   6.86231004
_cell_length_c   9.15654106
_cell_angle_alpha   90.29763858
_cell_angle_beta   90.37339220
_cell_angle_gamma   96.56832411
_symmetry_Int_Tables_number   1
_chemical_formula_structural   SmLuAl20Os3Rh
_chemical_formula_sum   'Sm1 Lu1 Al20 Os3 Rh1'
_cell_volume   428.79188987
_cell_formula_units_Z   1
loop_
 _symmetry_equiv_pos_site_id
 _symmetry_equiv_pos_as_xyz
  1  'x, y, z'
loop_
 _atom_site_type_symbol
 _atom_site_label
 _atom_site_symmetry_multiplicity
 _atom_site_fract_x
 _atom_site_fract_y
 _atom_site_fract_z
 _atom_site_occupancy
  Sm  Sm0  1  0.874015  0.128617  0.749830  1
  Lu  Lu1  1  0.129505  0.866003  0.251385  1
  Al  Al2  1  0.516656  0.779734  0.747458  1
  Al  Al3  1  0.782932  0.518382  0.249189  1
  Al  Al4  1  0.481175  0.218921  0.252390  1
  Al  Al5  1  0.217997  0.483397  0.750489  1
  Al  Al6  1  0.624072  0.379420  0.952288  1
  Al  Al7  1  0.375494  0.621862  0.050407  1
  Al  Al8  1  0.623367  0.377223  0.545186  1
  Al  Al9  1  0.376039  0.623425  0.452042  1
  Al  Al10  1  0.413701  0.146973  0.749605  1
  Al  Al11  1  0.147302  0.416913  0.250449  1
  Al  Al12  1  0.580041  0.851212  0.250045  1
  Al  Al13  1  0.854615  0.588323  0.749497  1
  Al  Al14  1  0.844363  0.154661  0.397980  1
  Al  Al15  1  0.156963  0.844011  0.599927  1
  Al  Al16  1  0.845261  0.156506  0.103674  1
  Al  Al17  1  0.157063  0.842455  0.898453  1
  Al  Al18  1  0.775252  0.774399  0.002682  1
  Al  Al19  1  0.776716  0.776631  0.496290  1
  Al  Al20  1  0.225497  0.225296  0.001940  1
  Al  Al21  1  0.222797  0.223051  0.499338  1
  Os  Os22  1  0.000409  0.501209  0.001347  1
  Os  Os23  1  0.498879  0.000002  0.498667  1
  Os  Os24  1  0.000157  0.501348  0.498489  1
  Rh  Rh25  1  0.499734  0.000026  0.000954  1
