# generated using pymatgen
data_Ca3Ni8Pt
_symmetry_space_group_name_H-M   'P 1'
_cell_length_a   5.02934611
_cell_length_b   5.02934644
_cell_length_c   8.74056825
_cell_angle_alpha   73.27960530
_cell_angle_beta   73.27960471
_cell_angle_gamma   59.99999695
_symmetry_Int_Tables_number   1
_chemical_formula_structural   Ca3Ni8Pt
_chemical_formula_sum   'Ca3 Ni8 Pt1'
_cell_volume   180.59254719
_cell_formula_units_Z   1
loop_
 _symmetry_equiv_pos_site_id
 _symmetry_equiv_pos_as_xyz
  1  'x, y, z'
loop_
 _atom_site_type_symbol
 _atom_site_label
 _atom_site_symmetry_multiplicity
 _atom_site_fract_x
 _atom_site_fract_y
 _atom_site_fract_z
 _atom_site_occupancy
  Ca  Ca0  1  0.139401  0.139401  0.581797  1
  Ca  Ca1  1  0.860599  0.860599  0.418203  1
  Ca  Ca2  1  0.000000  0.000000  0.000000  1
  Ni  Ni3  1  0.077323  0.579456  0.763765  1
  Ni  Ni4  1  0.579456  0.579456  0.763765  1
  Ni  Ni5  1  0.579456  0.077323  0.763765  1
  Ni  Ni6  1  0.922677  0.420544  0.236235  1
  Ni  Ni7  1  0.420544  0.420544  0.236235  1
  Ni  Ni8  1  0.420544  0.922677  0.236235  1
  Ni  Ni9  1  0.332665  0.332665  0.002004  1
  Ni  Ni10  1  0.667335  0.667335  0.997996  1
  Pt  Pt11  1  0.500000  0.500000  0.500000  1
