# generated using pymatgen
data_CsUBr4O
_symmetry_space_group_name_H-M   'P 1'
_cell_length_a   7.74615970
_cell_length_b   7.74616052
_cell_length_c   8.80959377
_cell_angle_alpha   109.25644067
_cell_angle_beta   109.25644389
_cell_angle_gamma   31.27039026
_symmetry_Int_Tables_number   1
_chemical_formula_structural   CsUBr4O
_chemical_formula_sum   'Cs1 U1 Br4 O1'
_cell_volume   257.79306506
_cell_formula_units_Z   1
loop_
 _symmetry_equiv_pos_site_id
 _symmetry_equiv_pos_as_xyz
  1  'x, y, z'
loop_
 _atom_site_type_symbol
 _atom_site_label
 _atom_site_symmetry_multiplicity
 _atom_site_fract_x
 _atom_site_fract_y
 _atom_site_fract_z
 _atom_site_occupancy
  Cs  Cs0  1  0.994405  0.005596  0.000000  1
  U  U1  1  0.503408  0.496592  0.500000  1
  Br  Br2  1  0.361514  0.361097  0.197551  1
  Br  Br3  1  0.634208  0.635276  0.352351  1
  Br  Br4  1  0.364723  0.365792  0.647649  1
  Br  Br5  1  0.638903  0.638486  0.802448  1
  O  O6  1  0.002280  0.997720  0.500000  1
