# generated using pymatgen
data_Ho14Er2Cd4Ir3Os
_symmetry_space_group_name_H-M   'P 1'
_cell_length_a   9.62407749
_cell_length_b   9.62407792
_cell_length_c   9.62378212
_cell_angle_alpha   59.56718492
_cell_angle_beta   59.56718612
_cell_angle_gamma   59.56842396
_symmetry_Int_Tables_number   1
_chemical_formula_structural   Ho14Er2Cd4Ir3Os
_chemical_formula_sum   'Ho14 Er2 Cd4 Ir3 Os1'
_cell_volume   624.10666427
_cell_formula_units_Z   1
loop_
 _symmetry_equiv_pos_site_id
 _symmetry_equiv_pos_as_xyz
  1  'x, y, z'
loop_
 _atom_site_type_symbol
 _atom_site_label
 _atom_site_symmetry_multiplicity
 _atom_site_fract_x
 _atom_site_fract_y
 _atom_site_fract_z
 _atom_site_occupancy
  Ho  Ho0  1  0.598767  0.205699  0.598786  1
  Ho  Ho1  1  0.205699  0.598767  0.598786  1
  Ho  Ho2  1  0.061461  0.439020  0.439008  1
  Ho  Ho3  1  0.438064  0.059780  0.059895  1
  Ho  Ho4  1  0.439020  0.061461  0.439008  1
  Ho  Ho5  1  0.059780  0.438064  0.059895  1
  Ho  Ho6  1  0.439062  0.439062  0.061509  1
  Ho  Ho7  1  0.059885  0.059885  0.437984  1
  Ho  Ho8  1  0.188394  0.811729  0.811790  1
  Ho  Ho9  1  0.807461  0.189214  0.189223  1
  Ho  Ho10  1  0.811729  0.188394  0.811790  1
  Ho  Ho11  1  0.189214  0.807461  0.189223  1
  Ho  Ho12  1  0.811664  0.811664  0.188530  1
  Ho  Ho13  1  0.189127  0.189127  0.807589  1
  Er  Er14  1  0.599242  0.599242  0.599203  1
  Er  Er15  1  0.598736  0.598736  0.205767  1
  Cd  Cd16  1  0.830093  0.830093  0.830223  1
  Cd  Cd17  1  0.830577  0.830577  0.506694  1
  Cd  Cd18  1  0.830547  0.506705  0.830647  1
  Cd  Cd19  1  0.506705  0.830547  0.830647  1
  Ir  Ir20  1  0.393327  0.393327  0.826327  1
  Ir  Ir21  1  0.393588  0.826045  0.393084  1
  Ir  Ir22  1  0.826045  0.393588  0.393084  1
  Os  Os23  1  0.391812  0.391812  0.391305  1
