# generated using pymatgen
data_BeFe4SiB2
_symmetry_space_group_name_H-M   'P 1'
_cell_length_a   5.36380874
_cell_length_b   5.36380927
_cell_length_c   6.35453712
_cell_angle_alpha   114.96380032
_cell_angle_beta   114.96380312
_cell_angle_gamma   89.99999801
_symmetry_Int_Tables_number   1
_chemical_formula_structural   BeFe4SiB2
_chemical_formula_sum   'Be2 Fe8 Si2 B4'
_cell_volume   146.68673950
_cell_formula_units_Z   2
loop_
 _symmetry_equiv_pos_site_id
 _symmetry_equiv_pos_as_xyz
  1  'x, y, z'
loop_
 _atom_site_type_symbol
 _atom_site_label
 _atom_site_symmetry_multiplicity
 _atom_site_fract_x
 _atom_site_fract_y
 _atom_site_fract_z
 _atom_site_occupancy
  Be  Be0  1  0.500000  0.500000  0.000000  1
  Be  Be1  1  0.000000  0.000000  0.000000  1
  Fe  Fe2  1  0.042136  0.542136  0.736821  1
  Fe  Fe3  1  0.694685  0.194685  0.736821  1
  Fe  Fe4  1  0.194685  0.042136  0.736821  1
  Fe  Fe5  1  0.542136  0.694685  0.736821  1
  Fe  Fe6  1  0.957864  0.457864  0.263179  1
  Fe  Fe7  1  0.305315  0.805315  0.263179  1
  Fe  Fe8  1  0.805315  0.957864  0.263179  1
  Fe  Fe9  1  0.457864  0.305315  0.263179  1
  Si  Si10  1  0.250000  0.250000  0.500000  1
  Si  Si11  1  0.750000  0.750000  0.500000  1
  B  B12  1  0.380435  0.880435  0.000000  1
  B  B13  1  0.619565  0.119565  0.000000  1
  B  B14  1  0.119565  0.380435  0.000000  1
  B  B15  1  0.880435  0.619565  0.000000  1
