# generated using pymatgen
data_YbSm3Pt3RhO14
_symmetry_space_group_name_H-M   'P 1'
_cell_length_a   7.30979177
_cell_length_b   7.36009534
_cell_length_c   7.34829000
_cell_angle_alpha   60.05303561
_cell_angle_beta   59.82561756
_cell_angle_gamma   59.93013597
_symmetry_Int_Tables_number   1
_chemical_formula_structural   YbSm3Pt3RhO14
_chemical_formula_sum   'Yb1 Sm3 Pt3 Rh1 O14'
_cell_volume   279.14381236
_cell_formula_units_Z   1
loop_
 _symmetry_equiv_pos_site_id
 _symmetry_equiv_pos_as_xyz
  1  'x, y, z'
loop_
 _atom_site_type_symbol
 _atom_site_label
 _atom_site_symmetry_multiplicity
 _atom_site_fract_x
 _atom_site_fract_y
 _atom_site_fract_z
 _atom_site_occupancy
  Yb  Yb0  1  0.625000  0.125000  0.125000  1
  Sm  Sm1  1  0.125000  0.125000  0.125000  1
  Sm  Sm2  1  0.125000  0.625000  0.125000  1
  Sm  Sm3  1  0.125000  0.125000  0.625000  1
  Pt  Pt4  1  0.625000  0.625000  0.125000  1
  Pt  Pt5  1  0.625000  0.625000  0.625000  1
  Pt  Pt6  1  0.125000  0.625000  0.625000  1
  Rh  Rh7  1  0.625000  0.125000  0.625000  1
  O  O8  1  0.707157  0.293288  0.294389  1
  O  O9  1  0.707157  0.293288  0.705165  1
  O  O10  1  0.999424  0.000807  0.999885  1
  O  O11  1  0.287135  0.712467  0.288383  1
  O  O12  1  0.710080  0.710438  0.289741  1
  O  O13  1  0.962865  0.537533  0.537985  1
  O  O14  1  0.287135  0.712467  0.712015  1
  O  O15  1  0.250576  0.249193  0.250115  1
  O  O16  1  0.962865  0.537533  0.961617  1
  O  O17  1  0.542843  0.956712  0.544835  1
  O  O18  1  0.539920  0.539562  0.960259  1
  O  O19  1  0.959536  0.958312  0.541076  1
  O  O20  1  0.542843  0.956712  0.955611  1
  O  O21  1  0.290464  0.291688  0.708924  1
