# generated using pymatgen
data_LaTh(AlCu)5
_symmetry_space_group_name_H-M   'P 1'
_cell_length_a   4.12783000
_cell_length_b   5.38149000
_cell_length_c   9.28736600
_cell_angle_alpha   90.00000000
_cell_angle_beta   90.00000000
_cell_angle_gamma   90.00000000
_symmetry_Int_Tables_number   1
_chemical_formula_structural   LaTh(AlCu)5
_chemical_formula_sum   'La1 Th1 Al5 Cu5'
_cell_volume   206.30839545
_cell_formula_units_Z   1
loop_
 _symmetry_equiv_pos_site_id
 _symmetry_equiv_pos_as_xyz
  1  'x, y, z'
loop_
 _atom_site_type_symbol
 _atom_site_label
 _atom_site_symmetry_multiplicity
 _atom_site_fract_x
 _atom_site_fract_y
 _atom_site_fract_z
 _atom_site_occupancy
  La  La0  1  0.000000  0.999078  0.000000  1
  Th  Th1  1  0.000000  0.501200  0.500000  1
  Al  Al2  1  0.500000  0.499723  0.000000  1
  Al  Al3  1  0.500000  0.748623  0.261361  1
  Al  Al4  1  0.500000  0.251579  0.738441  1
  Al  Al5  1  0.500000  0.251579  0.261559  1
  Al  Al6  1  0.500000  0.748623  0.738639  1
  Cu  Cu7  1  0.000000  0.001305  0.338779  1
  Cu  Cu8  1  0.000000  0.498787  0.831258  1
  Cu  Cu9  1  0.000000  0.498787  0.168742  1
  Cu  Cu10  1  0.000000  0.001305  0.661221  1
  Cu  Cu11  1  0.500000  0.999614  0.500000  1
