# generated using pymatgen
data_Dy4GeSb5Rh7
_symmetry_space_group_name_H-M   'P 1'
_cell_length_a   7.56874109
_cell_length_b   7.56874143
_cell_length_c   7.56874100
_cell_angle_alpha   108.43241054
_cell_angle_beta   109.99310780
_cell_angle_gamma   109.99311292
_symmetry_Int_Tables_number   1
_chemical_formula_structural   Dy4GeSb5Rh7
_chemical_formula_sum   'Dy4 Ge1 Sb5 Rh7'
_cell_volume   333.68924707
_cell_formula_units_Z   1
loop_
 _symmetry_equiv_pos_site_id
 _symmetry_equiv_pos_as_xyz
  1  'x, y, z'
loop_
 _atom_site_type_symbol
 _atom_site_label
 _atom_site_symmetry_multiplicity
 _atom_site_fract_x
 _atom_site_fract_y
 _atom_site_fract_z
 _atom_site_occupancy
  Dy  Dy0  1  0.000000  0.991900  0.517017  1
  Dy  Dy1  1  0.000000  0.517017  0.991900  1
  Dy  Dy2  1  0.474884  0.991900  0.991900  1
  Dy  Dy3  1  0.525116  0.517017  0.517017  1
  Ge  Ge4  1  0.000000  0.663551  0.663551  1
  Sb  Sb5  1  0.684108  0.690748  0.006640  1
  Sb  Sb6  1  0.315892  0.006640  0.322532  1
  Sb  Sb7  1  0.000000  0.313434  0.313434  1
  Sb  Sb8  1  0.315892  0.322532  0.006640  1
  Sb  Sb9  1  0.684108  0.006640  0.690748  1
  Rh  Rh10  1  0.752743  0.255169  0.502427  1
  Rh  Rh11  1  0.752743  0.502427  0.255169  1
  Rh  Rh12  1  0.500000  0.254370  0.754370  1
  Rh  Rh13  1  0.247257  0.502427  0.749684  1
  Rh  Rh14  1  0.247257  0.749684  0.502427  1
  Rh  Rh15  1  0.500000  0.754370  0.254370  1
  Rh  Rh16  1  0.000000  0.960174  0.960174  1
