# generated using pymatgen
data_La6Cr2N7
_symmetry_space_group_name_H-M   'P 1'
_cell_length_a   6.26700951
_cell_length_b   6.26701024
_cell_length_c   6.26700900
_cell_angle_alpha   95.17360458
_cell_angle_beta   95.17360518
_cell_angle_gamma   95.17361229
_symmetry_Int_Tables_number   1
_chemical_formula_structural   La6Cr2N7
_chemical_formula_sum   'La6 Cr2 N7'
_cell_volume   242.93588486
_cell_formula_units_Z   1
loop_
 _symmetry_equiv_pos_site_id
 _symmetry_equiv_pos_as_xyz
  1  'x, y, z'
loop_
 _atom_site_type_symbol
 _atom_site_label
 _atom_site_symmetry_multiplicity
 _atom_site_fract_x
 _atom_site_fract_y
 _atom_site_fract_z
 _atom_site_occupancy
  La  La0  1  0.647699  0.106789  0.793185  1
  La  La1  1  0.106789  0.793185  0.647699  1
  La  La2  1  0.793185  0.647699  0.106789  1
  La  La3  1  0.352301  0.893211  0.206815  1
  La  La4  1  0.893211  0.206815  0.352301  1
  La  La5  1  0.206815  0.352301  0.893211  1
  Cr  Cr6  1  0.615375  0.615375  0.615375  1
  Cr  Cr7  1  0.384625  0.384625  0.384625  1
  N  N8  1  0.000000  0.000000  0.000000  1
  N  N9  1  0.721867  0.845097  0.476328  1
  N  N10  1  0.845097  0.476328  0.721867  1
  N  N11  1  0.476328  0.721867  0.845097  1
  N  N12  1  0.278133  0.154903  0.523672  1
  N  N13  1  0.154903  0.523672  0.278133  1
  N  N14  1  0.523672  0.278133  0.154903  1
