# generated using pymatgen
data_Tm3Lu3Al24(NiOs3)2
_symmetry_space_group_name_H-M   'P 1'
_cell_length_a   8.80805555
_cell_length_b   8.73235913
_cell_length_c   9.46251600
_cell_angle_alpha   90.00000000
_cell_angle_beta   90.00000000
_cell_angle_gamma   120.21951334
_symmetry_Int_Tables_number   1
_chemical_formula_structural   Tm3Lu3Al24(NiOs3)2
_chemical_formula_sum   'Tm3 Lu3 Al24 Ni2 Os6'
_cell_volume   628.90347305
_cell_formula_units_Z   1
loop_
 _symmetry_equiv_pos_site_id
 _symmetry_equiv_pos_as_xyz
  1  'x, y, z'
loop_
 _atom_site_type_symbol
 _atom_site_label
 _atom_site_symmetry_multiplicity
 _atom_site_fract_x
 _atom_site_fract_y
 _atom_site_fract_z
 _atom_site_occupancy
  Tm  Tm0  1  0.386861  0.203535  0.750000  1
  Tm  Tm1  1  0.183603  0.796237  0.250000  1
  Tm  Tm2  1  0.816516  0.203813  0.750000  1
  Lu  Lu3  1  0.197577  0.394696  0.250000  1
  Lu  Lu4  1  0.802853  0.605611  0.750000  1
  Lu  Lu5  1  0.611506  0.795012  0.250000  1
  Al  Al6  1  0.336427  0.672250  0.024342  1
  Al  Al7  1  0.664032  0.328052  0.976030  1
  Al  Al8  1  0.664032  0.328052  0.523970  1
  Al  Al9  1  0.336427  0.672250  0.475658  1
  Al  Al10  1  0.165253  0.330073  0.574452  1
  Al  Al11  1  0.834600  0.670083  0.425360  1
  Al  Al12  1  0.672889  0.838374  0.576786  1
  Al  Al13  1  0.834600  0.670083  0.074640  1
  Al  Al14  1  0.327144  0.161579  0.422810  1
  Al  Al15  1  0.165253  0.330073  0.925548  1
  Al  Al16  1  0.165434  0.838435  0.576737  1
  Al  Al17  1  0.327144  0.161579  0.077190  1
  Al  Al18  1  0.834395  0.161249  0.423056  1
  Al  Al19  1  0.672889  0.838374  0.923214  1
  Al  Al20  1  0.834395  0.161249  0.076944  1
  Al  Al21  1  0.165434  0.838435  0.923263  1
  Al  Al22  1  0.555392  0.110127  0.250000  1
  Al  Al23  1  0.444701  0.889284  0.750000  1
  Al  Al24  1  0.872197  0.432480  0.250000  1
  Al  Al25  1  0.127721  0.567495  0.750000  1
  Al  Al26  1  0.560423  0.433011  0.250000  1
  Al  Al27  1  0.439777  0.567665  0.750000  1
  Al  Al28  1  0.998039  0.997277  0.250000  1
  Al  Al29  1  0.001255  0.002375  0.750000  1
  Ni  Ni30  1  0.500089  0.000002  0.000029  1
  Ni  Ni31  1  0.500089  0.000002  0.499971  1
  Os  Os32  1  0.000205  0.500061  0.000051  1
  Os  Os33  1  0.500205  0.500469  0.000348  1
  Os  Os34  1  0.000205  0.500061  0.499949  1
  Os  Os35  1  0.500205  0.500469  0.499652  1
  Os  Os36  1  0.000116  0.000063  0.000011  1
  Os  Os37  1  0.000116  0.000063  0.499989  1
