# generated using pymatgen
data_Ac3(SiAu)4
_symmetry_space_group_name_H-M   'P 1'
_cell_length_a   4.53632966
_cell_length_b   4.45592368
_cell_length_c   13.10919621
_cell_angle_alpha   80.21485500
_cell_angle_beta   80.03649652
_cell_angle_gamma   90.00000403
_symmetry_Int_Tables_number   1
_chemical_formula_structural   Ac3(SiAu)4
_chemical_formula_sum   'Ac3 Si4 Au4'
_cell_volume   257.07191135
_cell_formula_units_Z   1
loop_
 _symmetry_equiv_pos_site_id
 _symmetry_equiv_pos_as_xyz
  1  'x, y, z'
loop_
 _atom_site_type_symbol
 _atom_site_label
 _atom_site_symmetry_multiplicity
 _atom_site_fract_x
 _atom_site_fract_y
 _atom_site_fract_z
 _atom_site_occupancy
  Ac  Ac0  1  0.000000  0.000000  0.000000  1
  Ac  Ac1  1  0.850981  0.350981  0.298039  1
  Ac  Ac2  1  0.149019  0.649019  0.701961  1
  Si  Si3  1  0.695585  0.195585  0.608831  1
  Si  Si4  1  0.304415  0.804415  0.391169  1
  Si  Si5  1  0.451896  0.451896  0.096208  1
  Si  Si6  1  0.548104  0.548104  0.903792  1
  Au  Au7  1  0.596358  0.096358  0.807283  1
  Au  Au8  1  0.403642  0.903642  0.192717  1
  Au  Au9  1  0.249747  0.249747  0.500507  1
  Au  Au10  1  0.750253  0.750253  0.499493  1
