# generated using pymatgen
data_K2Pu(SeO5)2
_symmetry_space_group_name_H-M   'P 1'
_cell_length_a   6.91425636
_cell_length_b   7.57314330
_cell_length_c   11.18138700
_cell_angle_alpha   76.12011819
_cell_angle_beta   73.67424915
_cell_angle_gamma   75.39702580
_symmetry_Int_Tables_number   1
_chemical_formula_structural   K2Pu(SeO5)2
_chemical_formula_sum   'K4 Pu2 Se4 O20'
_cell_volume   534.64799133
_cell_formula_units_Z   2
loop_
 _symmetry_equiv_pos_site_id
 _symmetry_equiv_pos_as_xyz
  1  'x, y, z'
loop_
 _atom_site_type_symbol
 _atom_site_label
 _atom_site_symmetry_multiplicity
 _atom_site_fract_x
 _atom_site_fract_y
 _atom_site_fract_z
 _atom_site_occupancy
  K  K0  1  0.211382  0.272665  0.086524  1
  K  K1  1  0.788618  0.727335  0.913476  1
  K  K2  1  0.724732  0.273205  0.577230  1
  K  K3  1  0.275268  0.726795  0.422770  1
  Pu  Pu4  1  0.246048  0.009401  0.748997  1
  Pu  Pu5  1  0.753952  0.990599  0.251003  1
  Se  Se6  1  0.729859  0.757858  0.582095  1
  Se  Se7  1  0.270141  0.242142  0.417905  1
  Se  Se8  1  0.238281  0.759924  0.075537  1
  Se  Se9  1  0.761719  0.240076  0.924463  1
  O  O10  1  0.084254  0.648023  0.048443  1
  O  O11  1  0.915746  0.351977  0.951557  1
  O  O12  1  0.574201  0.648494  0.554230  1
  O  O13  1  0.425799  0.351506  0.445770  1
  O  O14  1  0.298640  0.934992  0.949306  1
  O  O15  1  0.701360  0.065008  0.050694  1
  O  O16  1  0.812610  0.917122  0.450929  1
  O  O17  1  0.187390  0.082878  0.549071  1
  O  O18  1  0.107338  0.889239  0.190791  1
  O  O19  1  0.892662  0.110761  0.809209  1
  O  O20  1  0.598304  0.904150  0.686792  1
  O  O21  1  0.401696  0.095850  0.313208  1
  O  O22  1  0.450188  0.632638  0.113104  1
  O  O23  1  0.549812  0.367362  0.886896  1
  O  O24  1  0.929803  0.624597  0.631932  1
  O  O25  1  0.070197  0.375403  0.368068  1
  O  O26  1  0.193160  0.786674  0.763982  1
  O  O27  1  0.806840  0.213326  0.236018  1
  O  O28  1  0.699827  0.768269  0.267124  1
  O  O29  1  0.300173  0.231731  0.732876  1
