# generated using pymatgen
data_Tb2MnFeBr
_symmetry_space_group_name_H-M   'P 1'
_cell_length_a   3.86992600
_cell_length_b   3.86992567
_cell_length_c   16.91573900
_cell_angle_alpha   90.00000000
_cell_angle_beta   90.00000000
_cell_angle_gamma   119.99996863
_symmetry_Int_Tables_number   1
_chemical_formula_structural   Tb2MnFeBr
_chemical_formula_sum   'Tb4 Mn2 Fe2 Br2'
_cell_volume   219.39515302
_cell_formula_units_Z   2
loop_
 _symmetry_equiv_pos_site_id
 _symmetry_equiv_pos_as_xyz
  1  'x, y, z'
loop_
 _atom_site_type_symbol
 _atom_site_label
 _atom_site_symmetry_multiplicity
 _atom_site_fract_x
 _atom_site_fract_y
 _atom_site_fract_z
 _atom_site_occupancy
  Tb  Tb0  1  0.000000  0.000000  0.110066  1
  Tb  Tb1  1  0.000000  0.000000  0.615475  1
  Tb  Tb2  1  0.000000  0.000000  0.384525  1
  Tb  Tb3  1  0.000000  0.000000  0.889934  1
  Mn  Mn4  1  0.666667  0.333333  0.509600  1
  Mn  Mn5  1  0.333333  0.666667  0.490400  1
  Fe  Fe6  1  0.666667  0.333333  0.994854  1
  Fe  Fe7  1  0.333333  0.666667  0.005146  1
  Br  Br8  1  0.666667  0.333333  0.249095  1
  Br  Br9  1  0.333333  0.666667  0.750905  1
