# generated using pymatgen
data_YbLuPdPtO7
_symmetry_space_group_name_H-M   'P 1'
_cell_length_a   7.17749513
_cell_length_b   7.20509795
_cell_length_c   7.20509639
_cell_angle_alpha   60.07050296
_cell_angle_beta   60.12664959
_cell_angle_gamma   60.12665180
_symmetry_Int_Tables_number   1
_chemical_formula_structural   YbLuPdPtO7
_chemical_formula_sum   'Yb2 Lu2 Pd2 Pt2 O14'
_cell_volume   264.11804786
_cell_formula_units_Z   2
loop_
 _symmetry_equiv_pos_site_id
 _symmetry_equiv_pos_as_xyz
  1  'x, y, z'
loop_
 _atom_site_type_symbol
 _atom_site_label
 _atom_site_symmetry_multiplicity
 _atom_site_fract_x
 _atom_site_fract_y
 _atom_site_fract_z
 _atom_site_occupancy
  Yb  Yb0  1  0.625000  0.625000  0.125000  1
  Yb  Yb1  1  0.625000  0.125000  0.625000  1
  Lu  Lu2  1  0.625000  0.625000  0.625000  1
  Lu  Lu3  1  0.125000  0.625000  0.625000  1
  Pd  Pd4  1  0.125000  0.125000  0.625000  1
  Pd  Pd5  1  0.125000  0.625000  0.125000  1
  Pt  Pt6  1  0.125000  0.125000  0.125000  1
  Pt  Pt7  1  0.625000  0.125000  0.125000  1
  O  O8  1  0.034747  0.465253  0.465253  1
  O  O9  1  0.786912  0.788392  0.220027  1
  O  O10  1  0.790813  0.209187  0.209187  1
  O  O11  1  0.463088  0.029973  0.461608  1
  O  O12  1  0.758353  0.741647  0.741647  1
  O  O13  1  0.045331  0.461608  0.029973  1
  O  O14  1  0.045331  0.029973  0.461608  1
  O  O15  1  0.204669  0.788392  0.220027  1
  O  O16  1  0.204669  0.220027  0.788392  1
  O  O17  1  0.786912  0.220027  0.788392  1
  O  O18  1  0.491647  0.508353  0.508353  1
  O  O19  1  0.459187  0.040813  0.040813  1
  O  O20  1  0.463088  0.461608  0.029973  1
  O  O21  1  0.215253  0.784747  0.784747  1
