# generated using pymatgen
data_Y2HoZr(Al3Rh)6
_symmetry_space_group_name_H-M   'P 1'
_cell_length_a   7.53565603
_cell_length_b   7.52263369
_cell_length_c   9.41514200
_cell_angle_alpha   90.00000000
_cell_angle_beta   90.00000000
_cell_angle_gamma   119.47723859
_symmetry_Int_Tables_number   1
_chemical_formula_structural   Y2HoZr(Al3Rh)6
_chemical_formula_sum   'Y2 Ho1 Zr1 Al18 Rh6'
_cell_volume   464.63529634
_cell_formula_units_Z   1
loop_
 _symmetry_equiv_pos_site_id
 _symmetry_equiv_pos_as_xyz
  1  'x, y, z'
loop_
 _atom_site_type_symbol
 _atom_site_label
 _atom_site_symmetry_multiplicity
 _atom_site_fract_x
 _atom_site_fract_y
 _atom_site_fract_z
 _atom_site_occupancy
  Y  Y0  1  0.006114  0.327221  0.750000  1
  Y  Y1  1  0.328356  0.006552  0.750000  1
  Ho  Ho2  1  0.671990  0.995527  0.250000  1
  Zr  Zr3  1  0.996310  0.672455  0.250000  1
  Al  Al4  1  0.124366  0.122044  0.250000  1
  Al  Al5  1  0.871145  0.869441  0.750000  1
  Al  Al6  1  0.999909  0.338618  0.080164  1
  Al  Al7  1  0.999406  0.664796  0.929243  1
  Al  Al8  1  0.999406  0.664796  0.570757  1
  Al  Al9  1  0.332568  0.997638  0.419839  1
  Al  Al10  1  0.999909  0.338618  0.419836  1
  Al  Al11  1  0.664228  0.998069  0.574879  1
  Al  Al12  1  0.664228  0.998069  0.925121  1
  Al  Al13  1  0.332568  0.997638  0.080161  1
  Al  Al14  1  0.333761  0.333786  0.546613  1
  Al  Al15  1  0.669669  0.667560  0.444032  1
  Al  Al16  1  0.669669  0.667560  0.055968  1
  Al  Al17  1  0.333761  0.333786  0.953387  1
  Al  Al18  1  0.336210  0.551701  0.250000  1
  Al  Al19  1  0.660796  0.450802  0.750000  1
  Al  Al20  1  0.557039  0.344723  0.250000  1
  Al  Al21  1  0.449278  0.658754  0.750000  1
  Rh  Rh22  1  0.672781  0.328184  0.001373  1
  Rh  Rh23  1  0.327735  0.672601  0.001956  1
  Rh  Rh24  1  0.327735  0.672601  0.498044  1
  Rh  Rh25  1  0.672781  0.328184  0.498627  1
  Rh  Rh26  1  0.999143  0.999139  0.001363  1
  Rh  Rh27  1  0.999143  0.999139  0.498637  1
