# generated using pymatgen
data_Sr(HoSe2)2
_symmetry_space_group_name_H-M   'P 1'
_cell_length_a   4.12835100
_cell_length_b   12.70340400
_cell_length_c   14.94450600
_cell_angle_alpha   90.00000000
_cell_angle_beta   90.00000000
_cell_angle_gamma   90.00000000
_symmetry_Int_Tables_number   1
_chemical_formula_structural   Sr(HoSe2)2
_chemical_formula_sum   'Sr4 Ho8 Se16'
_cell_volume   783.75132563
_cell_formula_units_Z   4
loop_
 _symmetry_equiv_pos_site_id
 _symmetry_equiv_pos_as_xyz
  1  'x, y, z'
loop_
 _atom_site_type_symbol
 _atom_site_label
 _atom_site_symmetry_multiplicity
 _atom_site_fract_x
 _atom_site_fract_y
 _atom_site_fract_z
 _atom_site_occupancy
  Sr  Sr0  1  0.250000  0.759836  0.333896  1
  Sr  Sr1  1  0.250000  0.259836  0.166104  1
  Sr  Sr2  1  0.750000  0.240164  0.666104  1
  Sr  Sr3  1  0.750000  0.740164  0.833896  1
  Ho  Ho4  1  0.250000  0.438328  0.389377  1
  Ho  Ho5  1  0.250000  0.938328  0.110623  1
  Ho  Ho6  1  0.750000  0.561672  0.610623  1
  Ho  Ho7  1  0.750000  0.061672  0.889377  1
  Ho  Ho8  1  0.250000  0.417225  0.902116  1
  Ho  Ho9  1  0.250000  0.917225  0.597884  1
  Ho  Ho10  1  0.750000  0.582775  0.097884  1
  Ho  Ho11  1  0.750000  0.082775  0.402116  1
  Se  Se12  1  0.250000  0.204648  0.828583  1
  Se  Se13  1  0.250000  0.704648  0.671417  1
  Se  Se14  1  0.750000  0.795352  0.171417  1
  Se  Se15  1  0.750000  0.295352  0.328583  1
  Se  Se16  1  0.250000  0.128704  0.529933  1
  Se  Se17  1  0.250000  0.628704  0.970067  1
  Se  Se18  1  0.750000  0.871296  0.470067  1
  Se  Se19  1  0.750000  0.371296  0.029933  1
  Se  Se20  1  0.250000  0.027540  0.284349  1
  Se  Se21  1  0.250000  0.527540  0.215651  1
  Se  Se22  1  0.750000  0.972460  0.715651  1
  Se  Se23  1  0.750000  0.472460  0.784349  1
  Se  Se24  1  0.250000  0.410408  0.577181  1
  Se  Se25  1  0.250000  0.910408  0.922819  1
  Se  Se26  1  0.750000  0.589592  0.422819  1
  Se  Se27  1  0.750000  0.089592  0.077181  1
