# generated using pymatgen
data_Ho15Er5(SnPb)8
_symmetry_space_group_name_H-M   'P 1'
_cell_length_a   8.10166504
_cell_length_b   8.17167401
_cell_length_c   15.50786808
_cell_angle_alpha   89.99642368
_cell_angle_beta   90.01142621
_cell_angle_gamma   90.00366887
_symmetry_Int_Tables_number   1
_chemical_formula_structural   Ho15Er5(SnPb)8
_chemical_formula_sum   'Ho15 Er5 Sn8 Pb8'
_cell_volume   1026.68544329
_cell_formula_units_Z   1
loop_
 _symmetry_equiv_pos_site_id
 _symmetry_equiv_pos_as_xyz
  1  'x, y, z'
loop_
 _atom_site_type_symbol
 _atom_site_label
 _atom_site_symmetry_multiplicity
 _atom_site_fract_x
 _atom_site_fract_y
 _atom_site_fract_z
 _atom_site_occupancy
  Ho  Ho0  1  0.378117  0.839866  0.876994  1
  Ho  Ho1  1  0.878147  0.660171  0.623007  1
  Ho  Ho2  1  0.621861  0.160165  0.376993  1
  Ho  Ho3  1  0.121839  0.339803  0.122969  1
  Ho  Ho4  1  0.621832  0.160197  0.123006  1
  Ho  Ho5  1  0.121854  0.339825  0.376996  1
  Ho  Ho6  1  0.378139  0.839839  0.623009  1
  Ho  Ho7  1  0.878163  0.660150  0.877000  1
  Ho  Ho8  1  0.535092  0.323403  0.897430  1
  Ho  Ho9  1  0.035085  0.176555  0.602555  1
  Ho  Ho10  1  0.464919  0.676571  0.397430  1
  Ho  Ho11  1  0.964897  0.823433  0.102554  1
  Ho  Ho12  1  0.464903  0.676552  0.102571  1
  Ho  Ho13  1  0.964911  0.823422  0.397427  1
  Ho  Ho14  1  0.535085  0.323408  0.602582  1
  Er  Er15  1  0.035076  0.176616  0.897412  1
  Er  Er16  1  0.209218  0.503815  0.750020  1
  Er  Er17  1  0.709324  0.996191  0.750027  1
  Er  Er18  1  0.790751  0.496152  0.249989  1
  Er  Er19  1  0.290772  0.003854  0.249996  1
  Sn  Sn20  1  0.574341  0.623191  0.750006  1
  Sn  Sn21  1  0.074350  0.876894  0.750014  1
  Sn  Sn22  1  0.425642  0.376820  0.250005  1
  Sn  Sn23  1  0.925644  0.123165  0.249989  1
  Sn  Sn24  1  0.343542  0.149488  0.750028  1
  Sn  Sn25  1  0.843695  0.350390  0.750079  1
  Sn  Sn26  1  0.656407  0.850511  0.250001  1
  Sn  Sn27  1  0.156410  0.649479  0.249994  1
  Pb  Pb28  1  0.281708  0.033418  0.041749  1
  Pb  Pb29  1  0.781811  0.466647  0.458192  1
  Pb  Pb30  1  0.718208  0.966641  0.541809  1
  Pb  Pb31  1  0.218136  0.533264  0.958178  1
  Pb  Pb32  1  0.718341  0.966742  0.958173  1
  Pb  Pb33  1  0.218200  0.533360  0.541814  1
  Pb  Pb34  1  0.281790  0.033356  0.458182  1
  Pb  Pb35  1  0.781792  0.466646  0.041818  1
