# generated using pymatgen
data_Tb7NdHf12Si15Au
_symmetry_space_group_name_H-M   'P 1'
_cell_length_a   7.30371954
_cell_length_b   7.36497485
_cell_length_c   13.48606676
_cell_angle_alpha   89.85899332
_cell_angle_beta   89.87237897
_cell_angle_gamma   90.05234306
_symmetry_Int_Tables_number   1
_chemical_formula_structural   Tb7NdHf12Si15Au
_chemical_formula_sum   'Tb7 Nd1 Hf12 Si15 Au1'
_cell_volume   725.43429931
_cell_formula_units_Z   1
loop_
 _symmetry_equiv_pos_site_id
 _symmetry_equiv_pos_as_xyz
  1  'x, y, z'
loop_
 _atom_site_type_symbol
 _atom_site_label
 _atom_site_symmetry_multiplicity
 _atom_site_fract_x
 _atom_site_fract_y
 _atom_site_fract_z
 _atom_site_occupancy
  Tb  Tb0  1  0.004597  0.655055  0.715293  1
  Tb  Tb1  1  0.155145  0.499013  0.467207  1
  Tb  Tb2  1  0.504003  0.842833  0.032795  1
  Tb  Tb3  1  0.844019  0.502538  0.964207  1
  Tb  Tb4  1  0.497205  0.153734  0.538251  1
  Tb  Tb5  1  0.343359  0.997847  0.784833  1
  Tb  Tb6  1  0.661145  0.996887  0.283920  1
  Nd  Nd7  1  0.989055  0.344773  0.214772  1
  Hf  Hf8  1  0.175295  0.175957  0.998372  1
  Hf  Hf9  1  0.826069  0.825130  0.501170  1
  Hf  Hf10  1  0.326103  0.681418  0.248897  1
  Hf  Hf11  1  0.675576  0.324394  0.750356  1
  Hf  Hf12  1  0.148125  0.996966  0.375549  1
  Hf  Hf13  1  0.851599  0.003608  0.873659  1
  Hf  Hf14  1  0.504902  0.650129  0.625074  1
  Hf  Hf15  1  0.351677  0.494975  0.874319  1
  Hf  Hf16  1  0.494020  0.350412  0.120872  1
  Hf  Hf17  1  0.651944  0.512219  0.381518  1
  Hf  Hf18  1  0.995563  0.148481  0.626974  1
  Hf  Hf19  1  0.001521  0.848283  0.123329  1
  Si  Si20  1  0.637407  0.706042  0.817943  1
  Si  Si21  1  0.204470  0.862820  0.568047  1
  Si  Si22  1  0.137766  0.795786  0.931671  1
  Si  Si23  1  0.793022  0.134533  0.063821  1
  Si  Si24  1  0.860407  0.199808  0.436648  1
  Si  Si25  1  0.296006  0.363044  0.682995  1
  Si  Si26  1  0.701081  0.640672  0.182103  1
  Si  Si27  1  0.293242  0.043862  0.181471  1
  Si  Si28  1  0.705667  0.950331  0.685967  1
  Si  Si29  1  0.448383  0.795342  0.435940  1
  Si  Si30  1  0.206862  0.552149  0.062501  1
  Si  Si31  1  0.548360  0.204807  0.934036  1
  Si  Si32  1  0.794412  0.449492  0.567143  1
  Si  Si33  1  0.048377  0.295141  0.814769  1
  Si  Si34  1  0.950569  0.708424  0.314613  1
  Au  Au35  1  0.373049  0.293093  0.318964  1
