# generated using pymatgen
data_Tm4Re2MoRu5
_symmetry_space_group_name_H-M   'P 1'
_cell_length_a   5.45385464
_cell_length_b   5.13209185
_cell_length_c   9.01577900
_cell_angle_alpha   90.00000000
_cell_angle_beta   90.00000000
_cell_angle_gamma   120.75348095
_symmetry_Int_Tables_number   1
_chemical_formula_structural   Tm4Re2MoRu5
_chemical_formula_sum   'Tm4 Re2 Mo1 Ru5'
_cell_volume   216.86233362
_cell_formula_units_Z   1
loop_
 _symmetry_equiv_pos_site_id
 _symmetry_equiv_pos_as_xyz
  1  'x, y, z'
loop_
 _atom_site_type_symbol
 _atom_site_label
 _atom_site_symmetry_multiplicity
 _atom_site_fract_x
 _atom_site_fract_y
 _atom_site_fract_z
 _atom_site_occupancy
  Tm  Tm0  1  0.673516  0.344051  0.564973  1
  Tm  Tm1  1  0.328199  0.664338  0.434332  1
  Tm  Tm2  1  0.328199  0.664338  0.065668  1
  Tm  Tm3  1  0.673516  0.344051  0.935027  1
  Re  Re4  1  0.838122  0.660546  0.250000  1
  Re  Re5  1  0.834665  0.169894  0.250000  1
  Mo  Mo6  1  0.166230  0.324175  0.750000  1
  Ru  Ru7  1  0.990402  0.006459  0.499562  1
  Ru  Ru8  1  0.990402  0.006459  0.000438  1
  Ru  Ru9  1  0.173327  0.819435  0.750000  1
  Ru  Ru10  1  0.653193  0.822092  0.750000  1
  Ru  Ru11  1  0.350231  0.174162  0.250000  1
