# generated using pymatgen
data_Sc4MnCoRu6
_symmetry_space_group_name_H-M   'P 1'
_cell_length_a   5.12757818
_cell_length_b   5.02112467
_cell_length_c   8.58664300
_cell_angle_alpha   90.00000000
_cell_angle_beta   90.00000000
_cell_angle_gamma   120.49846976
_symmetry_Int_Tables_number   1
_chemical_formula_structural   Sc4MnCoRu6
_chemical_formula_sum   'Sc4 Mn1 Co1 Ru6'
_cell_volume   190.48637729
_cell_formula_units_Z   1
loop_
 _symmetry_equiv_pos_site_id
 _symmetry_equiv_pos_as_xyz
  1  'x, y, z'
loop_
 _atom_site_type_symbol
 _atom_site_label
 _atom_site_symmetry_multiplicity
 _atom_site_fract_x
 _atom_site_fract_y
 _atom_site_fract_z
 _atom_site_occupancy
  Sc  Sc0  1  0.332073  0.663570  0.068427  1
  Sc  Sc1  1  0.668390  0.334043  0.564871  1
  Sc  Sc2  1  0.668390  0.334043  0.935129  1
  Sc  Sc3  1  0.332073  0.663570  0.431573  1
  Mn  Mn4  1  0.167859  0.339479  0.750000  1
  Co  Co5  1  0.830892  0.171201  0.250000  1
  Ru  Ru6  1  0.001377  0.007730  0.000984  1
  Ru  Ru7  1  0.001377  0.007730  0.499016  1
  Ru  Ru8  1  0.831670  0.658877  0.250000  1
  Ru  Ru9  1  0.167559  0.824955  0.750000  1
  Ru  Ru10  1  0.649437  0.821369  0.750000  1
  Ru  Ru11  1  0.348904  0.173431  0.250000  1
