# generated using pymatgen
data_Nd6ErTm9(CdIr)4
_symmetry_space_group_name_H-M   'P 1'
_cell_length_a   9.68660828
_cell_length_b   9.68660862
_cell_length_c   9.68660900
_cell_angle_alpha   59.99851289
_cell_angle_beta   59.99851121
_cell_angle_gamma   59.99851229
_symmetry_Int_Tables_number   1
_chemical_formula_structural   Nd6ErTm9(CdIr)4
_chemical_formula_sum   'Nd6 Er1 Tm9 Cd4 Ir4'
_cell_volume   642.66642517
_cell_formula_units_Z   1
loop_
 _symmetry_equiv_pos_site_id
 _symmetry_equiv_pos_as_xyz
  1  'x, y, z'
loop_
 _atom_site_type_symbol
 _atom_site_label
 _atom_site_symmetry_multiplicity
 _atom_site_fract_x
 _atom_site_fract_y
 _atom_site_fract_z
 _atom_site_occupancy
  Nd  Nd0  1  0.941127  0.558846  0.558846  1
  Nd  Nd1  1  0.558788  0.941228  0.941228  1
  Nd  Nd2  1  0.558846  0.941127  0.558846  1
  Nd  Nd3  1  0.941228  0.558788  0.941228  1
  Nd  Nd4  1  0.558846  0.558846  0.941127  1
  Nd  Nd5  1  0.941228  0.941228  0.558788  1
  Er  Er6  1  0.346951  0.346951  0.346951  1
  Tm  Tm7  1  0.346832  0.346832  0.959467  1
  Tm  Tm8  1  0.346832  0.959467  0.346832  1
  Tm  Tm9  1  0.959467  0.346832  0.346832  1
  Tm  Tm10  1  0.813500  0.186555  0.186555  1
  Tm  Tm11  1  0.186604  0.813403  0.813403  1
  Tm  Tm12  1  0.186555  0.813500  0.186555  1
  Tm  Tm13  1  0.813403  0.186604  0.813403  1
  Tm  Tm14  1  0.186555  0.186555  0.813500  1
  Tm  Tm15  1  0.813403  0.813403  0.186604  1
  Cd  Cd16  1  0.579319  0.579319  0.579319  1
  Cd  Cd17  1  0.579355  0.579355  0.262019  1
  Cd  Cd18  1  0.579355  0.262019  0.579355  1
  Cd  Cd19  1  0.262019  0.579355  0.579355  1
  Ir  Ir20  1  0.141234  0.141234  0.141234  1
  Ir  Ir21  1  0.141011  0.141011  0.576531  1
  Ir  Ir22  1  0.141011  0.576531  0.141011  1
  Ir  Ir23  1  0.576531  0.141011  0.141011  1
