# generated using pymatgen
data_Tb7Ho3(Ga2Sn)2
_symmetry_space_group_name_H-M   'P 1'
_cell_length_a   8.80075934
_cell_length_b   8.80076020
_cell_length_c   8.82758500
_cell_angle_alpha   127.03768941
_cell_angle_beta   127.03769363
_cell_angle_gamma   77.97306307
_symmetry_Int_Tables_number   1
_chemical_formula_structural   Tb7Ho3(Ga2Sn)2
_chemical_formula_sum   'Tb7 Ho3 Ga4 Sn2'
_cell_volume   422.66993364
_cell_formula_units_Z   1
loop_
 _symmetry_equiv_pos_site_id
 _symmetry_equiv_pos_as_xyz
  1  'x, y, z'
loop_
 _atom_site_type_symbol
 _atom_site_label
 _atom_site_symmetry_multiplicity
 _atom_site_fract_x
 _atom_site_fract_y
 _atom_site_fract_z
 _atom_site_occupancy
  Tb  Tb0  1  0.190857  0.690856  0.170310  1
  Tb  Tb1  1  0.022097  0.190404  0.500218  1
  Tb  Tb2  1  0.690403  0.522094  0.500217  1
  Tb  Tb3  1  0.479535  0.979533  0.171621  1
  Tb  Tb4  1  0.809478  0.309476  0.830432  1
  Tb  Tb5  1  0.978851  0.808621  0.499575  1
  Tb  Tb6  1  0.308622  0.478849  0.499574  1
  Ho  Ho7  1  0.499306  0.499573  0.999499  1
  Ho  Ho8  1  0.999573  0.999304  0.999498  1
  Ho  Ho9  1  0.521452  0.021456  0.828441  1
  Ga  Ga10  1  0.870419  0.370420  0.241474  1
  Ga  Ga11  1  0.128277  0.628277  0.757080  1
  Ga  Ga12  1  0.372266  0.128427  0.501032  1
  Ga  Ga13  1  0.628428  0.872265  0.501032  1
  Sn  Sn14  1  0.251487  0.248959  0.000004  1
  Sn  Sn15  1  0.748950  0.751486  0.999995  1
