# generated using pymatgen
data_Hf5Zr5Zn2(SnSb2)2
_symmetry_space_group_name_H-M   'P 1'
_cell_length_a   8.65204912
_cell_length_b   8.65350152
_cell_length_c   5.82783200
_cell_angle_alpha   90.00000000
_cell_angle_beta   90.00000000
_cell_angle_gamma   120.04308802
_symmetry_Int_Tables_number   1
_chemical_formula_structural   Hf5Zr5Zn2(SnSb2)2
_chemical_formula_sum   'Hf5 Zr5 Zn2 Sn2 Sb4'
_cell_volume   377.71112703
_cell_formula_units_Z   1
loop_
 _symmetry_equiv_pos_site_id
 _symmetry_equiv_pos_as_xyz
  1  'x, y, z'
loop_
 _atom_site_type_symbol
 _atom_site_label
 _atom_site_symmetry_multiplicity
 _atom_site_fract_x
 _atom_site_fract_y
 _atom_site_fract_z
 _atom_site_occupancy
  Hf  Hf0  1  0.269733  0.270076  0.750000  1
  Hf  Hf1  1  0.332896  0.666151  0.500182  1
  Hf  Hf2  1  0.666794  0.333476  0.999872  1
  Hf  Hf3  1  0.666794  0.333476  0.500128  1
  Hf  Hf4  1  0.332896  0.666151  0.999818  1
  Zr  Zr5  1  0.730834  0.730669  0.250000  1
  Zr  Zr6  1  0.730768  0.000199  0.750000  1
  Zr  Zr7  1  0.999971  0.270105  0.250000  1
  Zr  Zr8  1  0.999673  0.729393  0.750000  1
  Zr  Zr9  1  0.269441  0.999834  0.250000  1
  Zn  Zn10  1  0.001895  0.001227  0.999418  1
  Zn  Zn11  1  0.001895  0.001227  0.500582  1
  Sn  Sn12  1  0.384254  0.000897  0.750000  1
  Sn  Sn13  1  0.384325  0.383917  0.250000  1
  Sb  Sb14  1  0.000268  0.614816  0.250000  1
  Sb  Sb15  1  0.000876  0.385345  0.750000  1
  Sb  Sb16  1  0.613085  0.613204  0.750000  1
  Sb  Sb17  1  0.613604  0.999838  0.250000  1
