# generated using pymatgen
data_YTm2HfAl16(GaIr3)2
_symmetry_space_group_name_H-M   'P 1'
_cell_length_a   7.52752600
_cell_length_b   7.52085511
_cell_length_c   9.38314400
_cell_angle_alpha   90.00000000
_cell_angle_beta   90.00000000
_cell_angle_gamma   119.60944369
_symmetry_Int_Tables_number   1
_chemical_formula_structural   YTm2HfAl16(GaIr3)2
_chemical_formula_sum   'Y1 Tm2 Hf1 Al16 Ga2 Ir6'
_cell_volume   461.84287659
_cell_formula_units_Z   1
loop_
 _symmetry_equiv_pos_site_id
 _symmetry_equiv_pos_as_xyz
  1  'x, y, z'
loop_
 _atom_site_type_symbol
 _atom_site_label
 _atom_site_symmetry_multiplicity
 _atom_site_fract_x
 _atom_site_fract_y
 _atom_site_fract_z
 _atom_site_occupancy
  Y  Y0  1  0.997325  0.676555  0.250000  1
  Tm  Tm1  1  0.670674  0.989904  0.250000  1
  Tm  Tm2  1  0.327578  0.001908  0.750000  1
  Hf  Hf3  1  0.002011  0.326446  0.750000  1
  Al  Al4  1  0.872797  0.875168  0.750000  1
  Al  Al5  1  0.000375  0.334567  0.069777  1
  Al  Al6  1  0.999736  0.661752  0.919436  1
  Al  Al7  1  0.999736  0.661752  0.580564  1
  Al  Al8  1  0.336633  0.003476  0.426159  1
  Al  Al9  1  0.000375  0.334567  0.430223  1
  Al  Al10  1  0.666565  0.002164  0.579542  1
  Al  Al11  1  0.666565  0.002164  0.920458  1
  Al  Al12  1  0.336633  0.003476  0.073841  1
  Al  Al13  1  0.330340  0.332318  0.563335  1
  Al  Al14  1  0.665704  0.665595  0.453176  1
  Al  Al15  1  0.665704  0.665595  0.046824  1
  Al  Al16  1  0.330340  0.332318  0.936665  1
  Al  Al17  1  0.663783  0.449174  0.750000  1
  Al  Al18  1  0.551613  0.341038  0.250000  1
  Al  Al19  1  0.444945  0.657088  0.750000  1
  Ga  Ga20  1  0.131244  0.134511  0.250000  1
  Ga  Ga21  1  0.342536  0.547133  0.250000  1
  Ir  Ir22  1  0.671093  0.327184  0.998451  1
  Ir  Ir23  1  0.326652  0.672038  0.996744  1
  Ir  Ir24  1  0.326652  0.672038  0.503256  1
  Ir  Ir25  1  0.671093  0.327184  0.501549  1
  Ir  Ir26  1  0.000648  0.001443  0.996149  1
  Ir  Ir27  1  0.000648  0.001443  0.503851  1
