# generated using pymatgen
data_Y5ScAl16Os6Rh
_symmetry_space_group_name_H-M   'P 1'
_cell_length_a   8.94233912
_cell_length_b   8.94233931
_cell_length_c   8.90643200
_cell_angle_alpha   60.13274798
_cell_angle_beta   60.13274728
_cell_angle_gamma   59.73451395
_symmetry_Int_Tables_number   1
_chemical_formula_structural   Y5ScAl16Os6Rh
_chemical_formula_sum   'Y5 Sc1 Al16 Os6 Rh1'
_cell_volume   503.59002512
_cell_formula_units_Z   1
loop_
 _symmetry_equiv_pos_site_id
 _symmetry_equiv_pos_as_xyz
  1  'x, y, z'
loop_
 _atom_site_type_symbol
 _atom_site_label
 _atom_site_symmetry_multiplicity
 _atom_site_fract_x
 _atom_site_fract_y
 _atom_site_fract_z
 _atom_site_occupancy
  Y  Y0  1  0.711602  0.288821  0.288398  1
  Y  Y1  1  0.711602  0.288821  0.711179  1
  Y  Y2  1  0.712515  0.712515  0.287485  1
  Y  Y3  1  0.288821  0.711602  0.711179  1
  Y  Y4  1  0.288821  0.711602  0.288398  1
  Sc  Sc5  1  0.284901  0.284901  0.715099  1
  Al  Al6  1  0.629470  0.123774  0.123377  1
  Al  Al7  1  0.123774  0.629470  0.123377  1
  Al  Al8  1  0.124588  0.124588  0.632787  1
  Al  Al9  1  0.124588  0.124588  0.118035  1
  Al  Al10  1  0.367213  0.881965  0.875412  1
  Al  Al11  1  0.881965  0.367213  0.875412  1
  Al  Al12  1  0.876623  0.876623  0.370530  1
  Al  Al13  1  0.876623  0.876623  0.876226  1
  Al  Al14  1  0.001292  0.332306  0.333202  1
  Al  Al15  1  0.332306  0.001292  0.333202  1
  Al  Al16  1  0.333436  0.333436  0.996171  1
  Al  Al17  1  0.333436  0.333436  0.336957  1
  Al  Al18  1  0.003829  0.663043  0.666564  1
  Al  Al19  1  0.663043  0.003829  0.666564  1
  Al  Al20  1  0.666798  0.666798  0.998708  1
  Al  Al21  1  0.666798  0.666798  0.667694  1
  Os  Os22  1  0.498353  0.000687  0.999313  1
  Os  Os23  1  0.498353  0.000687  0.501647  1
  Os  Os24  1  0.499261  0.499261  0.000739  1
  Os  Os25  1  0.000687  0.498353  0.501647  1
  Os  Os26  1  0.000687  0.498353  0.999313  1
  Os  Os27  1  0.999261  0.999261  0.500739  1
  Rh  Rh28  1  0.999354  0.999354  0.000646  1
