# generated using pymatgen
data_Sc5(Ga2Co)2
_symmetry_space_group_name_H-M   'P 1'
_cell_length_a   3.23186800
_cell_length_b   7.22658100
_cell_length_c   16.47357900
_cell_angle_alpha   90.00000000
_cell_angle_beta   90.00000000
_cell_angle_gamma   90.00000000
_symmetry_Int_Tables_number   1
_chemical_formula_structural   Sc5(Ga2Co)2
_chemical_formula_sum   'Sc10 Ga8 Co4'
_cell_volume   384.74630022
_cell_formula_units_Z   2
loop_
 _symmetry_equiv_pos_site_id
 _symmetry_equiv_pos_as_xyz
  1  'x, y, z'
loop_
 _atom_site_type_symbol
 _atom_site_label
 _atom_site_symmetry_multiplicity
 _atom_site_fract_x
 _atom_site_fract_y
 _atom_site_fract_z
 _atom_site_occupancy
  Sc  Sc0  1  0.500000  0.500000  0.500000  1
  Sc  Sc1  1  0.500000  0.000000  0.000000  1
  Sc  Sc2  1  0.500000  0.877981  0.415393  1
  Sc  Sc3  1  0.500000  0.122019  0.584607  1
  Sc  Sc4  1  0.500000  0.622019  0.915393  1
  Sc  Sc5  1  0.500000  0.377981  0.084607  1
  Sc  Sc6  1  0.500000  0.253338  0.280921  1
  Sc  Sc7  1  0.500000  0.746662  0.719079  1
  Sc  Sc8  1  0.500000  0.246662  0.780921  1
  Sc  Sc9  1  0.500000  0.753338  0.219079  1
  Ga  Ga10  1  0.000000  0.203888  0.430102  1
  Ga  Ga11  1  0.000000  0.796112  0.569898  1
  Ga  Ga12  1  0.000000  0.296112  0.930102  1
  Ga  Ga13  1  0.000000  0.703888  0.069898  1
  Ga  Ga14  1  0.000000  0.571845  0.347756  1
  Ga  Ga15  1  0.000000  0.428155  0.652244  1
  Ga  Ga16  1  0.000000  0.928155  0.847756  1
  Ga  Ga17  1  0.000000  0.071845  0.152244  1
  Co  Co18  1  0.000000  0.971788  0.305016  1
  Co  Co19  1  0.000000  0.028212  0.694984  1
  Co  Co20  1  0.000000  0.528212  0.805016  1
  Co  Co21  1  0.000000  0.471788  0.194984  1
