# generated using pymatgen
data_HoErBi2(Ir2O7)2
_symmetry_space_group_name_H-M   'P 1'
_cell_length_a   7.26545981
_cell_length_b   7.29709235
_cell_length_c   7.29709110
_cell_angle_alpha   60.28801757
_cell_angle_beta   60.11662162
_cell_angle_gamma   60.11662677
_symmetry_Int_Tables_number   1
_chemical_formula_structural   HoErBi2(Ir2O7)2
_chemical_formula_sum   'Ho1 Er1 Bi2 Ir4 O14'
_cell_volume   274.63177821
_cell_formula_units_Z   1
loop_
 _symmetry_equiv_pos_site_id
 _symmetry_equiv_pos_as_xyz
  1  'x, y, z'
loop_
 _atom_site_type_symbol
 _atom_site_label
 _atom_site_symmetry_multiplicity
 _atom_site_fract_x
 _atom_site_fract_y
 _atom_site_fract_z
 _atom_site_occupancy
  Ho  Ho0  1  0.125000  0.125000  0.125000  1
  Er  Er1  1  0.625000  0.125000  0.125000  1
  Bi  Bi2  1  0.125000  0.625000  0.125000  1
  Bi  Bi3  1  0.125000  0.125000  0.625000  1
  Ir  Ir4  1  0.125000  0.625000  0.625000  1
  Ir  Ir5  1  0.625000  0.125000  0.625000  1
  Ir  Ir6  1  0.625000  0.625000  0.125000  1
  Ir  Ir7  1  0.625000  0.625000  0.625000  1
  O  O8  1  0.703813  0.718365  0.288645  1
  O  O9  1  0.289336  0.288913  0.717727  1
  O  O10  1  0.703813  0.288645  0.718365  1
  O  O11  1  0.289336  0.717727  0.288913  1
  O  O12  1  0.293032  0.706871  0.706871  1
  O  O13  1  0.711261  0.288306  0.288306  1
  O  O14  1  0.546187  0.531635  0.961355  1
  O  O15  1  0.960664  0.961087  0.532273  1
  O  O16  1  0.546187  0.961355  0.531635  1
  O  O17  1  0.960664  0.532273  0.961087  1
  O  O18  1  0.956968  0.543129  0.543129  1
  O  O19  1  0.538739  0.961694  0.961694  1
  O  O20  1  0.257908  0.242931  0.242931  1
  O  O21  1  0.992092  0.007069  0.007069  1
