# generated using pymatgen
data_MgZr2Co6(NiB2)3
_symmetry_space_group_name_H-M   'P 1'
_cell_length_a   5.71953867
_cell_length_b   5.71953962
_cell_length_c   5.71953929
_cell_angle_alpha   95.38041959
_cell_angle_beta   95.38041927
_cell_angle_gamma   95.38042974
_symmetry_Int_Tables_number   1
_chemical_formula_structural   MgZr2Co6(NiB2)3
_chemical_formula_sum   'Mg1 Zr2 Co6 Ni3 B6'
_cell_volume   184.46347199
_cell_formula_units_Z   1
loop_
 _symmetry_equiv_pos_site_id
 _symmetry_equiv_pos_as_xyz
  1  'x, y, z'
loop_
 _atom_site_type_symbol
 _atom_site_label
 _atom_site_symmetry_multiplicity
 _atom_site_fract_x
 _atom_site_fract_y
 _atom_site_fract_z
 _atom_site_occupancy
  Mg  Mg0  1  0.000000  0.000000  0.000000  1
  Zr  Zr1  1  0.671361  0.671361  0.671361  1
  Zr  Zr2  1  0.328639  0.328639  0.328639  1
  Co  Co3  1  0.701256  0.202750  0.701256  1
  Co  Co4  1  0.701256  0.701256  0.202750  1
  Co  Co5  1  0.202750  0.701256  0.701256  1
  Co  Co6  1  0.298744  0.797250  0.298744  1
  Co  Co7  1  0.298744  0.298744  0.797250  1
  Co  Co8  1  0.797250  0.298744  0.298744  1
  Ni  Ni9  1  0.000000  0.000000  0.500000  1
  Ni  Ni10  1  0.500000  0.000000  0.000000  1
  Ni  Ni11  1  0.000000  0.500000  0.000000  1
  B  B12  1  0.614334  0.385666  0.000000  1
  B  B13  1  0.000000  0.614334  0.385666  1
  B  B14  1  0.385666  0.000000  0.614334  1
  B  B15  1  0.000000  0.385666  0.614334  1
  B  B16  1  0.614334  0.000000  0.385666  1
  B  B17  1  0.385666  0.614334  0.000000  1
