# generated using pymatgen
data_Ho2InGa2
_symmetry_space_group_name_H-M   'P 1'
_cell_length_a   7.20982500
_cell_length_b   7.20982500
_cell_length_c   4.43103400
_cell_angle_alpha   90.00000000
_cell_angle_beta   90.00000000
_cell_angle_gamma   90.00000000
_symmetry_Int_Tables_number   1
_chemical_formula_structural   Ho2InGa2
_chemical_formula_sum   'Ho4 In2 Ga4'
_cell_volume   230.33213298
_cell_formula_units_Z   2
loop_
 _symmetry_equiv_pos_site_id
 _symmetry_equiv_pos_as_xyz
  1  'x, y, z'
loop_
 _atom_site_type_symbol
 _atom_site_label
 _atom_site_symmetry_multiplicity
 _atom_site_fract_x
 _atom_site_fract_y
 _atom_site_fract_z
 _atom_site_occupancy
  Ho  Ho0  1  0.327562  0.827562  0.500000  1
  Ho  Ho1  1  0.827562  0.672438  0.500000  1
  Ho  Ho2  1  0.172438  0.327562  0.500000  1
  Ho  Ho3  1  0.672438  0.172438  0.500000  1
  In  In4  1  0.000000  0.000000  0.000000  1
  In  In5  1  0.500000  0.500000  0.000000  1
  Ga  Ga6  1  0.125626  0.625626  0.000000  1
  Ga  Ga7  1  0.625626  0.874374  0.000000  1
  Ga  Ga8  1  0.374374  0.125626  0.000000  1
  Ga  Ga9  1  0.874374  0.374374  0.000000  1
