# generated using pymatgen
data_Zr2Pa2TlInNi4
_symmetry_space_group_name_H-M   'P 1'
_cell_length_a   7.46217004
_cell_length_b   7.29191104
_cell_length_c   3.43768700
_cell_angle_alpha   90.00000000
_cell_angle_beta   90.00000000
_cell_angle_gamma   90.01170029
_symmetry_Int_Tables_number   1
_chemical_formula_structural   Zr2Pa2TlInNi4
_chemical_formula_sum   'Zr2 Pa2 Tl1 In1 Ni4'
_cell_volume   187.05650918
_cell_formula_units_Z   1
loop_
 _symmetry_equiv_pos_site_id
 _symmetry_equiv_pos_as_xyz
  1  'x, y, z'
loop_
 _atom_site_type_symbol
 _atom_site_label
 _atom_site_symmetry_multiplicity
 _atom_site_fract_x
 _atom_site_fract_y
 _atom_site_fract_z
 _atom_site_occupancy
  Zr  Zr0  1  0.326882  0.175547  0.500000  1
  Zr  Zr1  1  0.821389  0.329166  0.500000  1
  Pa  Pa2  1  0.172677  0.665004  0.500000  1
  Pa  Pa3  1  0.670464  0.832367  0.500000  1
  Tl  Tl4  1  0.005567  0.018082  0.000000  1
  In  In5  1  0.505484  0.482670  0.000000  1
  Ni  Ni6  1  0.124319  0.387323  0.000000  1
  Ni  Ni7  1  0.379610  0.861823  0.000000  1
  Ni  Ni8  1  0.619914  0.115852  0.000000  1
  Ni  Ni9  1  0.873693  0.632165  0.000000  1
