# generated using pymatgen
data_TbLuU2As6Ru7
_symmetry_space_group_name_H-M   'P 1'
_cell_length_a   7.18309724
_cell_length_b   7.19724946
_cell_length_c   7.24706349
_cell_angle_alpha   109.40460303
_cell_angle_beta   109.32564879
_cell_angle_gamma   109.36463020
_symmetry_Int_Tables_number   1
_chemical_formula_structural   TbLuU2As6Ru7
_chemical_formula_sum   'Tb1 Lu1 U2 As6 Ru7'
_cell_volume   289.54443423
_cell_formula_units_Z   1
loop_
 _symmetry_equiv_pos_site_id
 _symmetry_equiv_pos_as_xyz
  1  'x, y, z'
loop_
 _atom_site_type_symbol
 _atom_site_label
 _atom_site_symmetry_multiplicity
 _atom_site_fract_x
 _atom_site_fract_y
 _atom_site_fract_z
 _atom_site_occupancy
  Tb  Tb0  1  0.500000  0.000000  0.000000  1
  Lu  Lu1  1  0.000000  0.500000  0.000000  1
  U  U2  1  0.000000  0.000000  0.500000  1
  U  U3  1  0.500000  0.500000  0.500000  1
  As  As4  1  0.311960  0.994751  0.309088  1
  As  As5  1  0.997127  0.314336  0.309088  1
  As  As6  1  0.002873  0.685664  0.690912  1
  As  As7  1  0.312265  0.314230  0.000000  1
  As  As8  1  0.687735  0.685770  0.000000  1
  As  As9  1  0.688040  0.005249  0.690912  1
  Ru  Ru10  1  0.751770  0.507801  0.256680  1
  Ru  Ru11  1  0.504909  0.748879  0.256680  1
  Ru  Ru12  1  0.495091  0.251121  0.743320  1
  Ru  Ru13  1  0.751704  0.251704  0.503409  1
  Ru  Ru14  1  0.248296  0.748296  0.496591  1
  Ru  Ru15  1  0.248230  0.492199  0.743320  1
  Ru  Ru16  1  0.000000  0.000000  0.000000  1
