# generated using pymatgen
data_La3Nd2Mg(P2Ru3)6
_symmetry_space_group_name_H-M   'P 1'
_cell_length_a   12.77395820
_cell_length_b   12.62065271
_cell_length_c   4.03009000
_cell_angle_alpha   90.00000000
_cell_angle_beta   90.00000000
_cell_angle_gamma   119.60379100
_symmetry_Int_Tables_number   1
_chemical_formula_structural   La3Nd2Mg(P2Ru3)6
_chemical_formula_sum   'La3 Nd2 Mg1 P12 Ru18'
_cell_volume   564.90156794
_cell_formula_units_Z   1
loop_
 _symmetry_equiv_pos_site_id
 _symmetry_equiv_pos_as_xyz
  1  'x, y, z'
loop_
 _atom_site_type_symbol
 _atom_site_label
 _atom_site_symmetry_multiplicity
 _atom_site_fract_x
 _atom_site_fract_y
 _atom_site_fract_z
 _atom_site_occupancy
  La  La0  1  0.000000  0.179468  0.500000  1
  La  La1  1  0.816403  0.816074  0.500000  1
  La  La2  1  0.183597  0.999672  0.500000  1
  Nd  Nd3  1  0.660320  0.329232  0.000000  1
  Nd  Nd4  1  0.339680  0.668913  0.000000  1
  Mg  Mg5  1  0.000000  0.562010  0.000000  1
  P  P6  1  0.000000  0.806650  0.000000  1
  P  P7  1  0.188226  0.188597  0.000000  1
  P  P8  1  0.811774  0.000370  0.000000  1
  P  P9  1  0.692428  0.171727  0.500000  1
  P  P10  1  0.817878  0.520189  0.500000  1
  P  P11  1  0.473668  0.305376  0.500000  1
  P  P12  1  0.182122  0.702311  0.500000  1
  P  P13  1  0.526332  0.831708  0.500000  1
  P  P14  1  0.307572  0.479299  0.500000  1
  P  P15  1  0.000000  0.363777  0.000000  1
  P  P16  1  0.621567  0.622901  0.000000  1
  P  P17  1  0.378433  0.001334  0.000000  1
  Ru  Ru18  1  0.443928  0.444887  0.000000  1
  Ru  Ru19  1  0.556072  0.000960  0.000000  1
  Ru  Ru20  1  0.000000  0.711246  0.500000  1
  Ru  Ru21  1  0.285235  0.287052  0.500000  1
  Ru  Ru22  1  0.714765  0.001816  0.500000  1
  Ru  Ru23  1  0.803317  0.185093  0.000000  1
  Ru  Ru24  1  0.813097  0.617743  0.000000  1
  Ru  Ru25  1  0.376538  0.192694  0.000000  1
  Ru  Ru26  1  0.186903  0.804646  0.000000  1
  Ru  Ru27  1  0.623462  0.816156  0.000000  1
  Ru  Ru28  1  0.196683  0.381776  0.000000  1
  Ru  Ru29  1  0.876206  0.367233  0.500000  1
  Ru  Ru30  1  0.629585  0.509337  0.500000  1
  Ru  Ru31  1  0.492199  0.127006  0.500000  1
  Ru  Ru32  1  0.370415  0.879751  0.500000  1
  Ru  Ru33  1  0.507801  0.634807  0.500000  1
  Ru  Ru34  1  0.123794  0.491027  0.500000  1
  Ru  Ru35  1  0.000000  0.997159  0.000000  1
