# generated using pymatgen
data_Er3Lu5(Nb3Si4)4
_symmetry_space_group_name_H-M   'P 1'
_cell_length_a   7.03044778
_cell_length_b   7.03162124
_cell_length_c   12.94239901
_cell_angle_alpha   89.99854065
_cell_angle_beta   90.02832244
_cell_angle_gamma   89.96224179
_symmetry_Int_Tables_number   1
_chemical_formula_structural   Er3Lu5(Nb3Si4)4
_chemical_formula_sum   'Er3 Lu5 Nb12 Si16'
_cell_volume   639.81304961
_cell_formula_units_Z   1
loop_
 _symmetry_equiv_pos_site_id
 _symmetry_equiv_pos_as_xyz
  1  'x, y, z'
loop_
 _atom_site_type_symbol
 _atom_site_label
 _atom_site_symmetry_multiplicity
 _atom_site_fract_x
 _atom_site_fract_y
 _atom_site_fract_z
 _atom_site_occupancy
  Er  Er0  1  0.657323  0.997509  0.967819  1
  Er  Er1  1  0.002626  0.342651  0.532035  1
  Er  Er2  1  0.997491  0.657303  0.032188  1
  Lu  Lu3  1  0.343050  0.001624  0.467936  1
  Lu  Lu4  1  0.498225  0.842778  0.717924  1
  Lu  Lu5  1  0.501582  0.157530  0.218322  1
  Lu  Lu6  1  0.842644  0.498371  0.282080  1
  Lu  Lu7  1  0.157512  0.501555  0.781750  1
  Nb  Nb8  1  0.327939  0.327918  0.999952  1
  Nb  Nb9  1  0.172025  0.828198  0.250296  1
  Nb  Nb10  1  0.827961  0.171896  0.749842  1
  Nb  Nb11  1  0.672097  0.672429  0.499960  1
  Nb  Nb12  1  0.152199  0.005637  0.873983  1
  Nb  Nb13  1  0.493622  0.651446  0.124512  1
  Nb  Nb14  1  0.505799  0.348358  0.623844  1
  Nb  Nb15  1  0.651444  0.493611  0.875570  1
  Nb  Nb16  1  0.348586  0.506351  0.375868  1
  Nb  Nb17  1  0.848046  0.994406  0.374264  1
  Nb  Nb18  1  0.005750  0.152084  0.126174  1
  Nb  Nb19  1  0.994343  0.848150  0.625488  1
  Si  Si20  1  0.205099  0.134423  0.681510  1
  Si  Si21  1  0.364906  0.703764  0.930861  1
  Si  Si22  1  0.634575  0.295565  0.430749  1
  Si  Si23  1  0.703810  0.364909  0.069198  1
  Si  Si24  1  0.296390  0.636129  0.568943  1
  Si  Si25  1  0.795050  0.865537  0.182040  1
  Si  Si26  1  0.135496  0.204209  0.318826  1
  Si  Si27  1  0.865497  0.795069  0.817973  1
  Si  Si28  1  0.294547  0.953823  0.064417  1
  Si  Si29  1  0.546555  0.795414  0.314181  1
  Si  Si30  1  0.452979  0.205183  0.813597  1
  Si  Si31  1  0.794740  0.546933  0.686153  1
  Si  Si32  1  0.205275  0.452848  0.186428  1
  Si  Si33  1  0.704345  0.046101  0.564192  1
  Si  Si34  1  0.953782  0.294482  0.935543  1
  Si  Si35  1  0.046695  0.705806  0.435579  1
