# generated using pymatgen
data_HoTmSiP4O15
_symmetry_space_group_name_H-M   'P 1'
_cell_length_a   5.54931900
_cell_length_b   7.04876235
_cell_length_c   16.50627000
_cell_angle_alpha   89.79221101
_cell_angle_beta   90.00000000
_cell_angle_gamma   90.00000000
_symmetry_Int_Tables_number   1
_chemical_formula_structural   HoTmSiP4O15
_chemical_formula_sum   'Ho2 Tm2 Si2 P8 O30'
_cell_volume   645.65221945
_cell_formula_units_Z   2
loop_
 _symmetry_equiv_pos_site_id
 _symmetry_equiv_pos_as_xyz
  1  'x, y, z'
loop_
 _atom_site_type_symbol
 _atom_site_label
 _atom_site_symmetry_multiplicity
 _atom_site_fract_x
 _atom_site_fract_y
 _atom_site_fract_z
 _atom_site_occupancy
  Ho  Ho0  1  0.133704  0.095412  0.281799  1
  Ho  Ho1  1  0.133704  0.904588  0.718201  1
  Tm  Tm2  1  0.865051  0.404532  0.782799  1
  Tm  Tm3  1  0.865051  0.595468  0.217201  1
  Si  Si4  1  0.459877  0.500000  0.500000  1
  Si  Si5  1  0.541249  0.000000  0.000000  1
  P  P6  1  0.691680  0.909282  0.830927  1
  P  P7  1  0.691680  0.090718  0.169073  1
  P  P8  1  0.307546  0.589918  0.329370  1
  P  P9  1  0.307546  0.410082  0.670630  1
  P  P10  1  0.643232  0.136864  0.425376  1
  P  P11  1  0.643232  0.863136  0.574624  1
  P  P12  1  0.357884  0.364358  0.924840  1
  P  P13  1  0.357884  0.635642  0.075160  1
  O  O14  1  0.646356  0.337120  0.468526  1
  O  O15  1  0.646356  0.662880  0.531474  1
  O  O16  1  0.355292  0.162656  0.967368  1
  O  O17  1  0.355292  0.837344  0.032632  1
  O  O18  1  0.718519  0.076926  0.072074  1
  O  O19  1  0.718519  0.923074  0.927926  1
  O  O20  1  0.284507  0.425887  0.573450  1
  O  O21  1  0.284507  0.574113  0.426550  1
  O  O22  1  0.835220  0.077372  0.793840  1
  O  O23  1  0.835220  0.922628  0.206160  1
  O  O24  1  0.160598  0.424326  0.292375  1
  O  O25  1  0.160598  0.575674  0.707625  1
  O  O26  1  0.424234  0.908928  0.812140  1
  O  O27  1  0.424234  0.091072  0.187860  1
  O  O28  1  0.574169  0.590014  0.309057  1
  O  O29  1  0.574169  0.409986  0.690943  1
  O  O30  1  0.833609  0.733125  0.802588  1
  O  O31  1  0.833609  0.266875  0.197412  1
  O  O32  1  0.164641  0.766441  0.301641  1
  O  O33  1  0.164641  0.233559  0.698359  1
  O  O34  1  0.427339  0.118677  0.371407  1
  O  O35  1  0.427339  0.881323  0.628593  1
  O  O36  1  0.577411  0.386463  0.872693  1
  O  O37  1  0.577411  0.613537  0.127307  1
  O  O38  1  0.885512  0.103158  0.388186  1
  O  O39  1  0.885512  0.896842  0.611814  1
  O  O40  1  0.117656  0.396371  0.885686  1
  O  O41  1  0.117656  0.603629  0.114314  1
  O  O42  1  0.597318  0.000000  0.500000  1
  O  O43  1  0.393233  0.500000  0.000000  1
