# generated using pymatgen
data_Li8Nd8HgPt7
_symmetry_space_group_name_H-M   'P 1'
_cell_length_a   4.11062900
_cell_length_b   7.41421223
_cell_length_c   16.92323000
_cell_angle_alpha   89.67235363
_cell_angle_beta   90.00000000
_cell_angle_gamma   90.00000000
_symmetry_Int_Tables_number   1
_chemical_formula_structural   Li8Nd8HgPt7
_chemical_formula_sum   'Li8 Nd8 Hg1 Pt7'
_cell_volume   515.76213019
_cell_formula_units_Z   1
loop_
 _symmetry_equiv_pos_site_id
 _symmetry_equiv_pos_as_xyz
  1  'x, y, z'
loop_
 _atom_site_type_symbol
 _atom_site_label
 _atom_site_symmetry_multiplicity
 _atom_site_fract_x
 _atom_site_fract_y
 _atom_site_fract_z
 _atom_site_occupancy
  Li  Li0  1  0.250000  0.633073  0.346759  1
  Li  Li1  1  0.750000  0.380324  0.659187  1
  Li  Li2  1  0.750000  0.868821  0.856341  1
  Li  Li3  1  0.250000  0.125463  0.147769  1
  Li  Li4  1  0.250000  0.491365  0.058266  1
  Li  Li5  1  0.750000  0.510456  0.941909  1
  Li  Li6  1  0.750000  0.996500  0.561325  1
  Li  Li7  1  0.250000  0.987611  0.432514  1
  Nd  Nd8  1  0.250000  0.550973  0.787912  1
  Nd  Nd9  1  0.750000  0.450412  0.209668  1
  Nd  Nd10  1  0.750000  0.948835  0.282786  1
  Nd  Nd11  1  0.250000  0.039495  0.726596  1
  Nd  Nd12  1  0.250000  0.671992  0.560636  1
  Nd  Nd13  1  0.750000  0.346859  0.425720  1
  Nd  Nd14  1  0.750000  0.837256  0.061211  1
  Nd  Nd15  1  0.250000  0.164733  0.940194  1
  Hg  Hg16  1  0.250000  0.242327  0.563875  1
  Pt  Pt17  1  0.250000  0.748223  0.187153  1
  Pt  Pt18  1  0.750000  0.254093  0.814820  1
  Pt  Pt19  1  0.750000  0.753138  0.690591  1
  Pt  Pt20  1  0.250000  0.248127  0.307259  1
  Pt  Pt21  1  0.250000  0.754911  0.939073  1
  Pt  Pt22  1  0.750000  0.246178  0.061072  1
  Pt  Pt23  1  0.750000  0.748838  0.437366  1
