# generated using pymatgen
data_CaNd9AlSi5
_symmetry_space_group_name_H-M   'P 1'
_cell_length_a   9.05595971
_cell_length_b   9.05596003
_cell_length_c   9.05596018
_cell_angle_alpha   129.10956780
_cell_angle_beta   129.10957553
_cell_angle_gamma   74.83433276
_symmetry_Int_Tables_number   1
_chemical_formula_structural   CaNd9AlSi5
_chemical_formula_sum   'Ca1 Nd9 Al1 Si5'
_cell_volume   435.54846008
_cell_formula_units_Z   1
loop_
 _symmetry_equiv_pos_site_id
 _symmetry_equiv_pos_as_xyz
  1  'x, y, z'
loop_
 _atom_site_type_symbol
 _atom_site_label
 _atom_site_symmetry_multiplicity
 _atom_site_fract_x
 _atom_site_fract_y
 _atom_site_fract_z
 _atom_site_occupancy
  Ca  Ca0  1  0.488955  0.488955  0.000000  1
  Nd  Nd1  1  0.540591  0.027062  0.854237  1
  Nd  Nd2  1  0.172824  0.686353  0.145763  1
  Nd  Nd3  1  0.027062  0.172824  0.486471  1
  Nd  Nd4  1  0.686353  0.540591  0.513529  1
  Nd  Nd5  1  0.473484  0.957340  0.144646  1
  Nd  Nd6  1  0.812695  0.328839  0.855354  1
  Nd  Nd7  1  0.957340  0.812695  0.483856  1
  Nd  Nd8  1  0.328839  0.473484  0.516144  1
  Nd  Nd9  1  0.016045  0.016045  0.000000  1
  Al  Al10  1  0.246989  0.246989  0.000000  1
  Si  Si11  1  0.751936  0.751936  0.000000  1
  Si  Si12  1  0.886103  0.384015  0.271676  1
  Si  Si13  1  0.112340  0.614427  0.728324  1
  Si  Si14  1  0.384015  0.112340  0.497913  1
  Si  Si15  1  0.614427  0.886103  0.502087  1
