# generated using pymatgen
data_Ce3Pa(CdIr2)2
_symmetry_space_group_name_H-M   'P 1'
_cell_length_a   7.75213489
_cell_length_b   7.75213489
_cell_length_c   3.66849400
_cell_angle_alpha   90.00000000
_cell_angle_beta   90.00000000
_cell_angle_gamma   88.92851578
_symmetry_Int_Tables_number   1
_chemical_formula_structural   Ce3Pa(CdIr2)2
_chemical_formula_sum   'Ce3 Pa1 Cd2 Ir4'
_cell_volume   220.42178170
_cell_formula_units_Z   1
loop_
 _symmetry_equiv_pos_site_id
 _symmetry_equiv_pos_as_xyz
  1  'x, y, z'
loop_
 _atom_site_type_symbol
 _atom_site_label
 _atom_site_symmetry_multiplicity
 _atom_site_fract_x
 _atom_site_fract_y
 _atom_site_fract_z
 _atom_site_occupancy
  Ce  Ce0  1  0.832051  0.334107  0.500001  1
  Ce  Ce1  1  0.165892  0.667948  0.500001  1
  Ce  Ce2  1  0.668731  0.831268  0.500001  1
  Pa  Pa3  1  0.335743  0.164256  0.500001  1
  Cd  Cd4  1  0.996168  0.000765  0.000000  1
  Cd  Cd5  1  0.499235  0.503832  0.000000  1
  Ir  Ir6  1  0.624044  0.139639  0.000000  1
  Ir  Ir7  1  0.147612  0.352388  0.000000  1
  Ir  Ir8  1  0.870162  0.629838  0.000000  1
  Ir  Ir9  1  0.360361  0.875956  0.000000  1
