# generated using pymatgen
data_Ac4Tc3OsI2
_symmetry_space_group_name_H-M   'P 1'
_cell_length_a   4.32426900
_cell_length_b   4.32426942
_cell_length_c   19.43445000
_cell_angle_alpha   90.00000000
_cell_angle_beta   90.00000000
_cell_angle_gamma   120.00000446
_symmetry_Int_Tables_number   1
_chemical_formula_structural   Ac4Tc3OsI2
_chemical_formula_sum   'Ac4 Tc3 Os1 I2'
_cell_volume   314.72287740
_cell_formula_units_Z   1
loop_
 _symmetry_equiv_pos_site_id
 _symmetry_equiv_pos_as_xyz
  1  'x, y, z'
loop_
 _atom_site_type_symbol
 _atom_site_label
 _atom_site_symmetry_multiplicity
 _atom_site_fract_x
 _atom_site_fract_y
 _atom_site_fract_z
 _atom_site_occupancy
  Ac  Ac0  1  0.000000  0.000000  0.108536  1
  Ac  Ac1  1  0.000000  0.000000  0.891590  1
  Ac  Ac2  1  0.000000  0.000000  0.610863  1
  Ac  Ac3  1  0.000000  0.000000  0.389011  1
  Tc  Tc4  1  0.333333  0.666667  0.513043  1
  Tc  Tc5  1  0.666667  0.333333  0.486805  1
  Tc  Tc6  1  0.666667  0.333333  0.010135  1
  Os  Os7  1  0.333333  0.666667  0.989891  1
  I  I8  1  0.333333  0.666667  0.249478  1
  I  I9  1  0.666667  0.333333  0.750648  1
