# generated using pymatgen
data_K2Zn3GaAg6
_symmetry_space_group_name_H-M   'P 1'
_cell_length_a   5.51533000
_cell_length_b   7.11401105
_cell_length_c   14.00593700
_cell_angle_alpha   90.00000000
_cell_angle_beta   90.00000000
_cell_angle_gamma   89.80140632
_symmetry_Int_Tables_number   1
_chemical_formula_structural   K2Zn3GaAg6
_chemical_formula_sum   'K4 Zn6 Ga2 Ag12'
_cell_volume   549.53530401
_cell_formula_units_Z   2
loop_
 _symmetry_equiv_pos_site_id
 _symmetry_equiv_pos_as_xyz
  1  'x, y, z'
loop_
 _atom_site_type_symbol
 _atom_site_label
 _atom_site_symmetry_multiplicity
 _atom_site_fract_x
 _atom_site_fract_y
 _atom_site_fract_z
 _atom_site_occupancy
  K  K0  1  0.249926  0.126226  0.081855  1
  K  K1  1  0.250074  0.373774  0.581855  1
  K  K2  1  0.750241  0.874435  0.918095  1
  K  K3  1  0.749759  0.625565  0.418095  1
  Zn  Zn4  1  0.999453  0.864033  0.646143  1
  Zn  Zn5  1  0.500547  0.635967  0.146143  1
  Zn  Zn6  1  0.501447  0.135289  0.353410  1
  Zn  Zn7  1  0.998553  0.364711  0.853410  1
  Zn  Zn8  1  0.998871  0.134834  0.353768  1
  Zn  Zn9  1  0.501129  0.365166  0.853768  1
  Ga  Ga10  1  0.501937  0.863475  0.645704  1
  Ga  Ga11  1  0.998063  0.636525  0.145704  1
  Ag  Ag12  1  0.250438  0.074243  0.781536  1
  Ag  Ag13  1  0.249562  0.425757  0.281536  1
  Ag  Ag14  1  0.750147  0.926320  0.218766  1
  Ag  Ag15  1  0.749853  0.573680  0.718766  1
  Ag  Ag16  1  0.247699  0.666594  0.782944  1
  Ag  Ag17  1  0.252301  0.833406  0.282944  1
  Ag  Ag18  1  0.750959  0.332254  0.218394  1
  Ag  Ag19  1  0.749041  0.167746  0.718394  1
  Ag  Ag20  1  0.249448  0.570437  0.985356  1
  Ag  Ag21  1  0.250552  0.929563  0.485356  1
  Ag  Ag22  1  0.749003  0.429097  0.014030  1
  Ag  Ag23  1  0.750997  0.070903  0.514030  1
