# generated using pymatgen
data_Lu16In3HgIr3Rh
_symmetry_space_group_name_H-M   'P 1'
_cell_length_a   9.44420889
_cell_length_b   9.46038434
_cell_length_c   9.46038536
_cell_angle_alpha   59.99127926
_cell_angle_beta   59.93584422
_cell_angle_gamma   59.93583794
_symmetry_Int_Tables_number   1
_chemical_formula_structural   Lu16In3HgIr3Rh
_chemical_formula_sum   'Lu16 In3 Hg1 Ir3 Rh1'
_cell_volume   597.05972296
_cell_formula_units_Z   1
loop_
 _symmetry_equiv_pos_site_id
 _symmetry_equiv_pos_as_xyz
  1  'x, y, z'
loop_
 _atom_site_type_symbol
 _atom_site_label
 _atom_site_symmetry_multiplicity
 _atom_site_fract_x
 _atom_site_fract_y
 _atom_site_fract_z
 _atom_site_occupancy
  Lu  Lu0  1  0.597527  0.598500  0.598500  1
  Lu  Lu1  1  0.601570  0.602119  0.197525  1
  Lu  Lu2  1  0.601570  0.197525  0.602119  1
  Lu  Lu3  1  0.197852  0.601782  0.601782  1
  Lu  Lu4  1  0.058944  0.440301  0.440301  1
  Lu  Lu5  1  0.438996  0.059863  0.059863  1
  Lu  Lu6  1  0.440482  0.058454  0.440730  1
  Lu  Lu7  1  0.060275  0.438829  0.060032  1
  Lu  Lu8  1  0.440482  0.440730  0.058454  1
  Lu  Lu9  1  0.060275  0.060032  0.438829  1
  Lu  Lu10  1  0.186454  0.811669  0.811669  1
  Lu  Lu11  1  0.810281  0.189139  0.189139  1
  Lu  Lu12  1  0.811644  0.185832  0.812949  1
  Lu  Lu13  1  0.189947  0.810308  0.190009  1
  Lu  Lu14  1  0.811644  0.812949  0.185832  1
  Lu  Lu15  1  0.189947  0.190009  0.810308  1
  In  In16  1  0.833212  0.833130  0.500735  1
  In  In17  1  0.833212  0.500735  0.833130  1
  In  In18  1  0.500888  0.833109  0.833109  1
  Hg  Hg19  1  0.837037  0.837259  0.837259  1
  Ir  Ir20  1  0.392471  0.392196  0.392196  1
  Ir  Ir21  1  0.390576  0.390389  0.824638  1
  Ir  Ir22  1  0.390576  0.824638  0.390389  1
  Rh  Rh23  1  0.824140  0.390505  0.390505  1
