# generated using pymatgen
data_MnV17(Si6Tc)2
_symmetry_space_group_name_H-M   'P 1'
_cell_length_a   7.03447560
_cell_length_b   7.03447597
_cell_length_c   13.24167700
_cell_angle_alpha   90.00000000
_cell_angle_beta   90.00000000
_cell_angle_gamma   140.40945254
_symmetry_Int_Tables_number   1
_chemical_formula_structural   MnV17(Si6Tc)2
_chemical_formula_sum   'Mn1 V17 Si12 Tc2'
_cell_volume   417.58822982
_cell_formula_units_Z   1
loop_
 _symmetry_equiv_pos_site_id
 _symmetry_equiv_pos_as_xyz
  1  'x, y, z'
loop_
 _atom_site_type_symbol
 _atom_site_label
 _atom_site_symmetry_multiplicity
 _atom_site_fract_x
 _atom_site_fract_y
 _atom_site_fract_z
 _atom_site_occupancy
  Mn  Mn0  1  0.001887  0.001887  0.000000  1
  V  V1  1  0.070748  0.421391  0.399129  1
  V  V2  1  0.574647  0.927137  0.901237  1
  V  V3  1  0.421391  0.070748  0.600871  1
  V  V4  1  0.927137  0.574647  0.098763  1
  V  V5  1  0.850863  0.650908  0.676265  1
  V  V6  1  0.351325  0.153146  0.175006  1
  V  V7  1  0.650908  0.850863  0.323735  1
  V  V8  1  0.153146  0.351325  0.824994  1
  V  V9  1  0.650908  0.850863  0.676265  1
  V  V10  1  0.153146  0.351325  0.175006  1
  V  V11  1  0.850863  0.650908  0.323735  1
  V  V12  1  0.351325  0.153146  0.824994  1
  V  V13  1  0.421391  0.070748  0.399129  1
  V  V14  1  0.927137  0.574647  0.901237  1
  V  V15  1  0.070748  0.421391  0.600871  1
  V  V16  1  0.574647  0.927137  0.098763  1
  V  V17  1  0.997218  0.997218  0.500000  1
  Si  Si18  1  0.250438  0.749751  0.751027  1
  Si  Si19  1  0.749751  0.250438  0.248973  1
  Si  Si20  1  0.749751  0.250438  0.751027  1
  Si  Si21  1  0.250438  0.749751  0.248973  1
  Si  Si22  1  0.245140  0.245140  0.667361  1
  Si  Si23  1  0.762953  0.762953  0.164638  1
  Si  Si24  1  0.245140  0.245140  0.332639  1
  Si  Si25  1  0.762953  0.762953  0.835362  1
  Si  Si26  1  0.583382  0.919074  0.500000  1
  Si  Si27  1  0.075872  0.405532  0.000000  1
  Si  Si28  1  0.919074  0.583382  0.500000  1
  Si  Si29  1  0.405532  0.075872  0.000000  1
  Tc  Tc30  1  0.501926  0.501926  0.000000  1
  Tc  Tc31  1  0.498210  0.498210  0.500000  1
