# generated using pymatgen
data_Er3Tm5(OsI4)2
_symmetry_space_group_name_H-M   'P 1'
_cell_length_a   11.30969499
_cell_length_b   11.31123376
_cell_length_c   6.12020100
_cell_angle_alpha   89.27922089
_cell_angle_beta   89.33923164
_cell_angle_gamma   88.70052820
_symmetry_Int_Tables_number   1
_chemical_formula_structural   Er3Tm5(OsI4)2
_chemical_formula_sum   'Er3 Tm5 Os2 I8'
_cell_volume   782.62369915
_cell_formula_units_Z   1
loop_
 _symmetry_equiv_pos_site_id
 _symmetry_equiv_pos_as_xyz
  1  'x, y, z'
loop_
 _atom_site_type_symbol
 _atom_site_label
 _atom_site_symmetry_multiplicity
 _atom_site_fract_x
 _atom_site_fract_y
 _atom_site_fract_z
 _atom_site_occupancy
  Er  Er0  1  0.196892  0.917252  0.996278  1
  Er  Er1  1  0.803099  0.083110  0.003621  1
  Er  Er2  1  0.082836  0.803128  0.504001  1
  Tm  Tm3  1  0.917925  0.195093  0.495802  1
  Tm  Tm4  1  0.806770  0.922037  0.506308  1
  Tm  Tm5  1  0.193259  0.077906  0.493591  1
  Tm  Tm6  1  0.077713  0.193436  0.993433  1
  Tm  Tm7  1  0.921954  0.806788  0.006454  1
  Os  Os8  1  0.000112  0.999922  0.249859  1
  Os  Os9  1  0.999787  0.000284  0.750009  1
  I  I10  1  0.355807  0.849655  0.509429  1
  I  I11  1  0.644970  0.151022  0.490616  1
  I  I12  1  0.150349  0.644182  0.990606  1
  I  I13  1  0.849635  0.356005  0.010038  1
  I  I14  1  0.351164  0.145116  0.996377  1
  I  I15  1  0.648777  0.855064  0.003586  1
  I  I16  1  0.855012  0.648936  0.503594  1
  I  I17  1  0.143938  0.351065  0.496399  1
