# generated using pymatgen
data_La12Nd8Si15Ru
_symmetry_space_group_name_H-M   'P 1'
_cell_length_a   8.00223749
_cell_length_b   8.01863008
_cell_length_c   15.24584900
_cell_angle_alpha   89.96245842
_cell_angle_beta   89.49771452
_cell_angle_gamma   90.12556692
_symmetry_Int_Tables_number   1
_chemical_formula_structural   La12Nd8Si15Ru
_chemical_formula_sum   'La12 Nd8 Si15 Ru1'
_cell_volume   978.23995950
_cell_formula_units_Z   1
loop_
 _symmetry_equiv_pos_site_id
 _symmetry_equiv_pos_as_xyz
  1  'x, y, z'
loop_
 _atom_site_type_symbol
 _atom_site_label
 _atom_site_symmetry_multiplicity
 _atom_site_fract_x
 _atom_site_fract_y
 _atom_site_fract_z
 _atom_site_occupancy
  La  La0  1  0.990294  0.622906  0.051322  1
  La  La1  1  0.016133  0.379450  0.545209  1
  La  La2  1  0.626798  0.987121  0.952048  1
  La  La3  1  0.127934  0.510564  0.799925  1
  La  La4  1  0.868337  0.485746  0.300331  1
  La  La5  1  0.507524  0.123289  0.198433  1
  La  La6  1  0.494359  0.876296  0.698922  1
  La  La7  1  0.376480  0.012510  0.452459  1
  La  La8  1  0.705909  0.695422  0.496764  1
  La  La9  1  0.811842  0.188307  0.749504  1
  La  La10  1  0.180109  0.799649  0.265525  1
  La  La11  1  0.302227  0.307288  0.998975  1
  Nd  Nd12  1  0.368555  0.487765  0.377732  1
  Nd  Nd13  1  0.867260  0.015704  0.372926  1
  Nd  Nd14  1  0.983906  0.129068  0.125041  1
  Nd  Nd15  1  0.023409  0.869928  0.621830  1
  Nd  Nd16  1  0.630423  0.514896  0.874778  1
  Nd  Nd17  1  0.489317  0.374922  0.625829  1
  Nd  Nd18  1  0.510791  0.628134  0.125196  1
  Nd  Nd19  1  0.127208  0.984259  0.876265  1
  Si  Si20  1  0.919721  0.289037  0.940993  1
  Si  Si21  1  0.711211  0.081308  0.559089  1
  Si  Si22  1  0.215020  0.418732  0.192201  1
  Si  Si23  1  0.793591  0.579757  0.691465  1
  Si  Si24  1  0.425057  0.210970  0.808587  1
  Si  Si25  1  0.573201  0.790636  0.307099  1
  Si  Si26  1  0.286519  0.920297  0.060362  1
  Si  Si27  1  0.838048  0.799453  0.802438  1
  Si  Si28  1  0.164198  0.202158  0.302787  1
  Si  Si29  1  0.792543  0.836579  0.194486  1
  Si  Si30  1  0.303381  0.668603  0.549631  1
  Si  Si31  1  0.698726  0.335568  0.051337  1
  Si  Si32  1  0.663168  0.300867  0.449632  1
  Si  Si33  1  0.333724  0.698576  0.949512  1
  Si  Si34  1  0.204928  0.165253  0.697247  1
  Ru  Ru35  1  0.068149  0.708987  0.434124  1
