# generated using pymatgen
data_Zr8Co2PtW
_symmetry_space_group_name_H-M   'P 1'
_cell_length_a   8.72734644
_cell_length_b   8.72732358
_cell_length_c   8.72145100
_cell_angle_alpha   60.02248790
_cell_angle_beta   60.02258204
_cell_angle_gamma   59.97337761
_symmetry_Int_Tables_number   1
_chemical_formula_structural   Zr8Co2PtW
_chemical_formula_sum   'Zr16 Co4 Pt2 W2'
_cell_volume   469.78307987
_cell_formula_units_Z   2
loop_
 _symmetry_equiv_pos_site_id
 _symmetry_equiv_pos_as_xyz
  1  'x, y, z'
loop_
 _atom_site_type_symbol
 _atom_site_label
 _atom_site_symmetry_multiplicity
 _atom_site_fract_x
 _atom_site_fract_y
 _atom_site_fract_z
 _atom_site_occupancy
  Zr  Zr0  1  0.046637  0.648945  0.652200  1
  Zr  Zr1  1  0.648950  0.046642  0.652200  1
  Zr  Zr2  1  0.649547  0.649533  0.050715  1
  Zr  Zr3  1  0.649506  0.649596  0.650255  1
  Zr  Zr4  1  0.796853  0.796813  0.203186  1
  Zr  Zr5  1  0.203765  0.203862  0.796157  1
  Zr  Zr6  1  0.799518  0.197666  0.804002  1
  Zr  Zr7  1  0.197520  0.799596  0.198726  1
  Zr  Zr8  1  0.197623  0.799555  0.804070  1
  Zr  Zr9  1  0.799585  0.197530  0.198768  1
  Zr  Zr10  1  0.437630  0.437498  0.062436  1
  Zr  Zr11  1  0.063680  0.063744  0.436269  1
  Zr  Zr12  1  0.436212  0.072179  0.433436  1
  Zr  Zr13  1  0.072106  0.436232  0.057991  1
  Zr  Zr14  1  0.072165  0.436159  0.433626  1
  Zr  Zr15  1  0.436237  0.072133  0.058095  1
  Co  Co16  1  0.420688  0.857859  0.860800  1
  Co  Co17  1  0.857870  0.420581  0.860855  1
  Co  Co18  1  0.858259  0.858276  0.419278  1
  Co  Co19  1  0.858227  0.858199  0.864293  1
  Pt  Pt20  1  0.749202  0.412567  0.419122  1
  Pt  Pt21  1  0.412557  0.749109  0.419182  1
  W  W22  1  0.417851  0.417838  0.744943  1
  W  W23  1  0.417810  0.417888  0.419394  1
