# generated using pymatgen
data_Hf11Zr3(Pt9Au)2
_symmetry_space_group_name_H-M   'P 1'
_cell_length_a   8.18945047
_cell_length_b   8.18945004
_cell_length_c   9.71167327
_cell_angle_alpha   90.06583166
_cell_angle_beta   90.06581728
_cell_angle_gamma   107.25305830
_symmetry_Int_Tables_number   1
_chemical_formula_structural   Hf11Zr3(Pt9Au)2
_chemical_formula_sum   'Hf11 Zr3 Pt18 Au2'
_cell_volume   622.02521411
_cell_formula_units_Z   1
loop_
 _symmetry_equiv_pos_site_id
 _symmetry_equiv_pos_as_xyz
  1  'x, y, z'
loop_
 _atom_site_type_symbol
 _atom_site_label
 _atom_site_symmetry_multiplicity
 _atom_site_fract_x
 _atom_site_fract_y
 _atom_site_fract_z
 _atom_site_occupancy
  Hf  Hf0  1  0.190884  0.809116  0.500000  1
  Hf  Hf1  1  0.000093  0.999907  0.000000  1
  Hf  Hf2  1  0.500564  0.499436  0.500000  1
  Hf  Hf3  1  0.000553  0.502428  0.250781  1
  Hf  Hf4  1  0.999681  0.497838  0.749241  1
  Hf  Hf5  1  0.497572  0.999447  0.749219  1
  Hf  Hf6  1  0.502162  0.000319  0.250759  1
  Hf  Hf7  1  0.310471  0.310579  0.191183  1
  Hf  Hf8  1  0.689421  0.689529  0.808817  1
  Hf  Hf9  1  0.175426  0.175315  0.675318  1
  Hf  Hf10  1  0.824685  0.824574  0.324681  1
  Zr  Zr11  1  0.696520  0.303480  0.000000  1
  Zr  Zr12  1  0.303501  0.696499  0.000000  1
  Zr  Zr13  1  0.809076  0.190924  0.500000  1
  Pt  Pt14  1  0.852380  0.142592  0.208461  1
  Pt  Pt15  1  0.148164  0.857480  0.790522  1
  Pt  Pt16  1  0.649998  0.358767  0.707580  1
  Pt  Pt17  1  0.641232  0.350002  0.292420  1
  Pt  Pt18  1  0.349626  0.642170  0.292842  1
  Pt  Pt19  1  0.357829  0.650374  0.707158  1
  Pt  Pt20  1  0.857408  0.147620  0.791539  1
  Pt  Pt21  1  0.142519  0.851836  0.209478  1
  Pt  Pt22  1  0.936304  0.645828  0.996188  1
  Pt  Pt23  1  0.063966  0.354954  0.003809  1
  Pt  Pt24  1  0.561935  0.853597  0.498110  1
  Pt  Pt25  1  0.146403  0.438065  0.501890  1
  Pt  Pt26  1  0.436311  0.144442  0.502287  1
  Pt  Pt27  1  0.855558  0.563690  0.497713  1
  Pt  Pt28  1  0.354172  0.063695  0.003812  1
  Pt  Pt29  1  0.645046  0.936034  0.996191  1
  Pt  Pt30  1  0.107454  0.106421  0.393877  1
  Pt  Pt31  1  0.893579  0.892546  0.606123  1
  Au  Au32  1  0.390448  0.390943  0.889861  1
  Au  Au33  1  0.609057  0.609552  0.110139  1
