# generated using pymatgen
data_Yb(CoO2)6
_symmetry_space_group_name_H-M   'P 1'
_cell_length_a   7.66973287
_cell_length_b   7.66973361
_cell_length_c   8.78996162
_cell_angle_alpha   57.66477362
_cell_angle_beta   57.66477069
_cell_angle_gamma   67.55878926
_symmetry_Int_Tables_number   1
_chemical_formula_structural   Yb(CoO2)6
_chemical_formula_sum   'Yb2 Co12 O24'
_cell_volume   365.81293372
_cell_formula_units_Z   2
loop_
 _symmetry_equiv_pos_site_id
 _symmetry_equiv_pos_as_xyz
  1  'x, y, z'
loop_
 _atom_site_type_symbol
 _atom_site_label
 _atom_site_symmetry_multiplicity
 _atom_site_fract_x
 _atom_site_fract_y
 _atom_site_fract_z
 _atom_site_occupancy
  Yb  Yb0  1  0.228845  0.771155  0.000000  1
  Yb  Yb1  1  0.771155  0.228845  0.000000  1
  Co  Co2  1  0.976989  0.309005  0.530389  1
  Co  Co3  1  0.839307  0.839307  0.822917  1
  Co  Co4  1  0.160693  0.160693  0.177083  1
  Co  Co5  1  0.495183  0.827054  0.180342  1
  Co  Co6  1  0.023011  0.690995  0.469611  1
  Co  Co7  1  0.359551  0.359551  0.464044  1
  Co  Co8  1  0.309005  0.976989  0.530389  1
  Co  Co9  1  0.640449  0.640449  0.535956  1
  Co  Co10  1  0.504817  0.172946  0.819658  1
  Co  Co11  1  0.172946  0.504817  0.819658  1
  Co  Co12  1  0.827054  0.495183  0.180342  1
  Co  Co13  1  0.690995  0.023011  0.469611  1
  O  O14  1  0.166140  0.166140  0.651844  1
  O  O15  1  0.876711  0.541203  0.927713  1
  O  O16  1  0.130080  0.130080  0.408462  1
  O  O17  1  0.869920  0.869920  0.591538  1
  O  O18  1  0.202583  0.535858  0.589456  1
  O  O19  1  0.123289  0.458797  0.072287  1
  O  O20  1  0.458797  0.123289  0.072287  1
  O  O21  1  0.875454  0.208348  0.245469  1
  O  O22  1  0.208348  0.875454  0.245469  1
  O  O23  1  0.543570  0.543570  0.256731  1
  O  O24  1  0.492801  0.830455  0.658790  1
  O  O25  1  0.830455  0.492801  0.658790  1
  O  O26  1  0.833860  0.833860  0.348156  1
  O  O27  1  0.169545  0.507199  0.341210  1
  O  O28  1  0.791652  0.124546  0.754531  1
  O  O29  1  0.124546  0.791652  0.754531  1
  O  O30  1  0.456430  0.456430  0.743269  1
  O  O31  1  0.541203  0.876711  0.927713  1
  O  O32  1  0.207234  0.207234  0.927166  1
  O  O33  1  0.464142  0.797417  0.410544  1
  O  O34  1  0.797417  0.464142  0.410544  1
  O  O35  1  0.535858  0.202583  0.589456  1
  O  O36  1  0.792766  0.792766  0.072834  1
  O  O37  1  0.507199  0.169545  0.341210  1
