# generated using pymatgen
data_PmAl3Au2
_symmetry_space_group_name_H-M   'P 1'
_cell_length_a   5.59360004
_cell_length_b   5.59360070
_cell_length_c   4.30536600
_cell_angle_alpha   90.00000000
_cell_angle_beta   90.00000000
_cell_angle_gamma   59.99324358
_symmetry_Int_Tables_number   1
_chemical_formula_structural   PmAl3Au2
_chemical_formula_sum   'Pm1 Al3 Au2'
_cell_volume   116.65248831
_cell_formula_units_Z   1
loop_
 _symmetry_equiv_pos_site_id
 _symmetry_equiv_pos_as_xyz
  1  'x, y, z'
loop_
 _atom_site_type_symbol
 _atom_site_label
 _atom_site_symmetry_multiplicity
 _atom_site_fract_x
 _atom_site_fract_y
 _atom_site_fract_z
 _atom_site_occupancy
  Pm  Pm0  1  0.000000  0.000000  0.000000  1
  Al  Al1  1  0.500415  0.999999  0.499999  1
  Al  Al2  1  0.000001  0.499584  0.499999  1
  Al  Al3  1  0.499579  0.500420  0.499999  1
  Au  Au4  1  0.333351  0.333351  0.000000  1
  Au  Au5  1  0.666649  0.666649  0.000000  1
