# generated using pymatgen
data_NaYb2Mn3N5
_symmetry_space_group_name_H-M   'P 1'
_cell_length_a   5.41884581
_cell_length_b   6.88888461
_cell_length_c   8.12760894
_cell_angle_alpha   108.08629075
_cell_angle_beta   104.28293864
_cell_angle_gamma   95.05665397
_symmetry_Int_Tables_number   1
_chemical_formula_structural   NaYb2Mn3N5
_chemical_formula_sum   'Na2 Yb4 Mn6 N10'
_cell_volume   274.99090186
_cell_formula_units_Z   2
loop_
 _symmetry_equiv_pos_site_id
 _symmetry_equiv_pos_as_xyz
  1  'x, y, z'
loop_
 _atom_site_type_symbol
 _atom_site_label
 _atom_site_symmetry_multiplicity
 _atom_site_fract_x
 _atom_site_fract_y
 _atom_site_fract_z
 _atom_site_occupancy
  Na  Na0  1  0.801218  0.426065  0.602768  1
  Na  Na1  1  0.198782  0.573935  0.397232  1
  Yb  Yb2  1  0.674441  0.867045  0.882541  1
  Yb  Yb3  1  0.325559  0.132955  0.117459  1
  Yb  Yb4  1  0.662067  0.669521  0.209384  1
  Yb  Yb5  1  0.337933  0.330479  0.790616  1
  Mn  Mn6  1  0.903693  0.322711  0.969480  1
  Mn  Mn7  1  0.096307  0.677289  0.030520  1
  Mn  Mn8  1  0.701383  0.964201  0.574212  1
  Mn  Mn9  1  0.298617  0.035799  0.425788  1
  Mn  Mn10  1  0.112905  0.883313  0.703660  1
  Mn  Mn11  1  0.887095  0.116687  0.296340  1
  N  N12  1  0.956377  0.112962  0.791412  1
  N  N13  1  0.043623  0.887038  0.208588  1
  N  N14  1  0.829644  0.726628  0.520610  1
  N  N15  1  0.170356  0.273372  0.479390  1
  N  N16  1  0.753276  0.537477  0.915189  1
  N  N17  1  0.246724  0.462523  0.084811  1
  N  N18  1  0.386478  0.943400  0.622667  1
  N  N19  1  0.613522  0.056600  0.377333  1
  N  N20  1  0.213996  0.782865  0.884766  1
  N  N21  1  0.786004  0.217135  0.115234  1
