# generated using pymatgen
data_Nd8YTmSn6
_symmetry_space_group_name_H-M   'P 1'
_cell_length_a   9.22962400
_cell_length_b   9.22962413
_cell_length_c   6.77809000
_cell_angle_alpha   90.00000000
_cell_angle_beta   90.00000000
_cell_angle_gamma   119.99999954
_symmetry_Int_Tables_number   1
_chemical_formula_structural   Nd8YTmSn6
_chemical_formula_sum   'Nd8 Y1 Tm1 Sn6'
_cell_volume   500.04143032
_cell_formula_units_Z   1
loop_
 _symmetry_equiv_pos_site_id
 _symmetry_equiv_pos_as_xyz
  1  'x, y, z'
loop_
 _atom_site_type_symbol
 _atom_site_label
 _atom_site_symmetry_multiplicity
 _atom_site_fract_x
 _atom_site_fract_y
 _atom_site_fract_z
 _atom_site_occupancy
  Nd  Nd0  1  0.758557  0.758696  0.248438  1
  Nd  Nd1  1  0.000139  0.241443  0.248438  1
  Nd  Nd2  1  0.758557  0.999861  0.751562  1
  Nd  Nd3  1  0.333333  0.666667  0.500000  1
  Nd  Nd4  1  0.241304  0.999861  0.248438  1
  Nd  Nd5  1  0.666667  0.333333  0.500000  1
  Nd  Nd6  1  0.000139  0.758696  0.751562  1
  Nd  Nd7  1  0.241304  0.241443  0.751562  1
  Y  Y8  1  0.666667  0.333333  0.000000  1
  Tm  Tm9  1  0.333333  0.666667  0.000000  1
  Sn  Sn10  1  0.602608  0.603147  0.757255  1
  Sn  Sn11  1  0.396853  0.999461  0.757255  1
  Sn  Sn12  1  0.602608  0.999461  0.242745  1
  Sn  Sn13  1  0.000539  0.397392  0.757255  1
  Sn  Sn14  1  0.396853  0.397392  0.242745  1
  Sn  Sn15  1  0.000539  0.603147  0.242745  1
