# generated using pymatgen
data_Tm3Hg3PtAu
_symmetry_space_group_name_H-M   'P 1'
_cell_length_a   7.74763600
_cell_length_b   7.74763535
_cell_length_c   3.59649000
_cell_angle_alpha   90.00000000
_cell_angle_beta   90.00000000
_cell_angle_gamma   119.99998569
_symmetry_Int_Tables_number   1
_chemical_formula_structural   Tm3Hg3PtAu
_chemical_formula_sum   'Tm3 Hg3 Pt1 Au1'
_cell_volume   186.95966961
_cell_formula_units_Z   1
loop_
 _symmetry_equiv_pos_site_id
 _symmetry_equiv_pos_as_xyz
  1  'x, y, z'
loop_
 _atom_site_type_symbol
 _atom_site_label
 _atom_site_symmetry_multiplicity
 _atom_site_fract_x
 _atom_site_fract_y
 _atom_site_fract_z
 _atom_site_occupancy
  Tm  Tm0  1  0.579305  0.986815  0.500001  1
  Tm  Tm1  1  0.407509  0.420694  0.500001  1
  Tm  Tm2  1  0.013185  0.592490  0.500001  1
  Hg  Hg3  1  0.232064  0.001928  0.000000  1
  Hg  Hg4  1  0.998072  0.230135  0.000000  1
  Hg  Hg5  1  0.769865  0.767937  0.000000  1
  Pt  Pt6  1  0.333333  0.666667  0.000000  1
  Au  Au7  1  0.666667  0.333333  0.000000  1
