# generated using pymatgen
data_Zr12CdTe16
_symmetry_space_group_name_H-M   'P 1'
_cell_length_a   7.93937839
_cell_length_b   11.17271047
_cell_length_c   11.83365249
_cell_angle_alpha   118.10353556
_cell_angle_beta   109.56583697
_cell_angle_gamma   90.02118820
_symmetry_Int_Tables_number   1
_chemical_formula_structural   Zr12CdTe16
_chemical_formula_sum   'Zr12 Cd1 Te16'
_cell_volume   856.53489093
_cell_formula_units_Z   1
loop_
 _symmetry_equiv_pos_site_id
 _symmetry_equiv_pos_as_xyz
  1  'x, y, z'
loop_
 _atom_site_type_symbol
 _atom_site_label
 _atom_site_symmetry_multiplicity
 _atom_site_fract_x
 _atom_site_fract_y
 _atom_site_fract_z
 _atom_site_occupancy
  Zr  Zr0  1  0.120522  0.126642  0.490439  1
  Zr  Zr1  1  0.620636  0.126899  0.491579  1
  Zr  Zr2  1  0.311186  0.364667  0.873484  1
  Zr  Zr3  1  0.811362  0.364863  0.873903  1
  Zr  Zr4  1  0.192219  0.508679  0.634338  1
  Zr  Zr5  1  0.692665  0.509551  0.635192  1
  Zr  Zr6  1  0.379364  0.873101  0.508421  1
  Zr  Zr7  1  0.879478  0.873358  0.509561  1
  Zr  Zr8  1  0.188638  0.635137  0.126097  1
  Zr  Zr9  1  0.688814  0.635333  0.126516  1
  Zr  Zr10  1  0.307335  0.490449  0.364808  1
  Zr  Zr11  1  0.807781  0.491321  0.365662  1
  Cd  Cd12  1  0.500000  0.000000  0.000000  1
  Te  Te13  1  0.729075  0.055095  0.709334  1
  Te  Te14  1  0.230188  0.054871  0.709183  1
  Te  Te15  1  0.847383  0.654444  0.944967  1
  Te  Te16  1  0.348124  0.655060  0.944941  1
  Te  Te17  1  0.547936  0.289913  0.344693  1
  Te  Te18  1  0.047001  0.289985  0.344688  1
  Te  Te19  1  0.769812  0.945129  0.290817  1
  Te  Te20  1  0.270925  0.944905  0.290666  1
  Te  Te21  1  0.651876  0.344940  0.055059  1
  Te  Te22  1  0.152617  0.345556  0.055033  1
  Te  Te23  1  0.952999  0.710015  0.655312  1
  Te  Te24  1  0.452064  0.710087  0.655307  1
  Te  Te25  1  0.958356  0.333261  0.666683  1
  Te  Te26  1  0.458472  0.333728  0.666967  1
  Te  Te27  1  0.541528  0.666272  0.333033  1
  Te  Te28  1  0.041644  0.666739  0.333317  1
