# generated using pymatgen
data_Ag6BiNO11
_symmetry_space_group_name_H-M   'P 1'
_cell_length_a   7.13848687
_cell_length_b   7.13848750
_cell_length_c   7.13848661
_cell_angle_alpha   61.65515787
_cell_angle_beta   61.65515860
_cell_angle_gamma   61.65514699
_symmetry_Int_Tables_number   1
_chemical_formula_structural   Ag6BiNO11
_chemical_formula_sum   'Ag6 Bi1 N1 O11'
_cell_volume   266.76555863
_cell_formula_units_Z   1
loop_
 _symmetry_equiv_pos_site_id
 _symmetry_equiv_pos_as_xyz
  1  'x, y, z'
loop_
 _atom_site_type_symbol
 _atom_site_label
 _atom_site_symmetry_multiplicity
 _atom_site_fract_x
 _atom_site_fract_y
 _atom_site_fract_z
 _atom_site_occupancy
  Ag  Ag0  1  0.498378  0.000912  0.000912  1
  Ag  Ag1  1  0.500343  0.500343  0.000289  1
  Ag  Ag2  1  0.500343  0.000289  0.500343  1
  Ag  Ag3  1  0.000912  0.000912  0.498378  1
  Ag  Ag4  1  0.000289  0.500343  0.500343  1
  Ag  Ag5  1  0.000912  0.498378  0.000912  1
  Bi  Bi6  1  0.998966  0.998966  0.998966  1
  N  N7  1  0.500060  0.500060  0.500060  1
  O  O8  1  0.575357  0.146801  0.146801  1
  O  O9  1  0.146801  0.575357  0.146801  1
  O  O10  1  0.141389  0.141389  0.141389  1
  O  O11  1  0.146801  0.146801  0.575357  1
  O  O12  1  0.599949  0.599949  0.300274  1
  O  O13  1  0.599949  0.300274  0.599949  1
  O  O14  1  0.300274  0.599949  0.599949  1
  O  O15  1  0.854027  0.854027  0.422756  1
  O  O16  1  0.854027  0.422756  0.854027  1
  O  O17  1  0.858464  0.858464  0.858464  1
  O  O18  1  0.422756  0.854027  0.854027  1
