# generated using pymatgen
data_NaDyCr2O8
_symmetry_space_group_name_H-M   'P 1'
_cell_length_a   6.01392348
_cell_length_b   6.01392346
_cell_length_c   6.01392360
_cell_angle_alpha   105.56193793
_cell_angle_beta   105.56194276
_cell_angle_gamma   117.60931795
_symmetry_Int_Tables_number   1
_chemical_formula_structural   NaDyCr2O8
_chemical_formula_sum   'Na1 Dy1 Cr2 O8'
_cell_volume   164.87041474
_cell_formula_units_Z   1
loop_
 _symmetry_equiv_pos_site_id
 _symmetry_equiv_pos_as_xyz
  1  'x, y, z'
loop_
 _atom_site_type_symbol
 _atom_site_label
 _atom_site_symmetry_multiplicity
 _atom_site_fract_x
 _atom_site_fract_y
 _atom_site_fract_z
 _atom_site_occupancy
  Na  Na0  1  0.750000  0.250000  0.500000  1
  Dy  Dy1  1  0.500000  0.500000  0.000000  1
  Cr  Cr2  1  0.250000  0.750000  0.500000  1
  Cr  Cr3  1  0.000000  0.000000  0.000000  1
  O  O4  1  0.829827  0.006572  0.176745  1
  O  O5  1  0.907882  0.594265  0.313618  1
  O  O6  1  0.280647  0.594265  0.686382  1
  O  O7  1  0.829827  0.653081  0.823255  1
  O  O8  1  0.346919  0.170173  0.176745  1
  O  O9  1  0.405735  0.719353  0.313618  1
  O  O10  1  0.405735  0.092118  0.686382  1
  O  O11  1  0.993428  0.170173  0.823255  1
