# generated using pymatgen
data_Dy8HoEr(BiAu2)2
_symmetry_space_group_name_H-M   'P 1'
_cell_length_a   8.72791103
_cell_length_b   8.72791064
_cell_length_c   8.72791116
_cell_angle_alpha   124.25390889
_cell_angle_beta   124.25390706
_cell_angle_gamma   82.77750979
_symmetry_Int_Tables_number   1
_chemical_formula_structural   Dy8HoEr(BiAu2)2
_chemical_formula_sum   'Dy8 Ho1 Er1 Bi2 Au4'
_cell_volume   436.09476199
_cell_formula_units_Z   1
loop_
 _symmetry_equiv_pos_site_id
 _symmetry_equiv_pos_as_xyz
  1  'x, y, z'
loop_
 _atom_site_type_symbol
 _atom_site_label
 _atom_site_symmetry_multiplicity
 _atom_site_fract_x
 _atom_site_fract_y
 _atom_site_fract_z
 _atom_site_occupancy
  Dy  Dy0  1  0.514128  0.014251  0.809149  1
  Dy  Dy1  1  0.205101  0.704978  0.190851  1
  Dy  Dy2  1  0.014251  0.205101  0.500124  1
  Dy  Dy3  1  0.704978  0.514128  0.499876  1
  Dy  Dy4  1  0.485872  0.985749  0.190851  1
  Dy  Dy5  1  0.794899  0.295022  0.809149  1
  Dy  Dy6  1  0.985749  0.794899  0.499876  1
  Dy  Dy7  1  0.295022  0.485872  0.500124  1
  Ho  Ho8  1  0.000000  0.000000  0.000000  1
  Er  Er9  1  0.500000  0.500000  0.000000  1
  Bi  Bi10  1  0.250072  0.250072  0.000000  1
  Bi  Bi11  1  0.749928  0.749928  0.000000  1
  Au  Au12  1  0.139080  0.638938  0.778018  1
  Au  Au13  1  0.860920  0.361062  0.221982  1
  Au  Au14  1  0.638938  0.860920  0.499858  1
  Au  Au15  1  0.361062  0.139080  0.500142  1
