# generated using pymatgen
data_Ho4LuOsRh2
_symmetry_space_group_name_H-M   'P 1'
_cell_length_a   10.79067700
_cell_length_b   10.79067700
_cell_length_c   6.37416400
_cell_angle_alpha   90.00000000
_cell_angle_beta   90.00000000
_cell_angle_gamma   90.00000000
_symmetry_Int_Tables_number   1
_chemical_formula_structural   Ho4LuOsRh2
_chemical_formula_sum   'Ho16 Lu4 Os4 Rh8'
_cell_volume   742.19943424
_cell_formula_units_Z   4
loop_
 _symmetry_equiv_pos_site_id
 _symmetry_equiv_pos_as_xyz
  1  'x, y, z'
loop_
 _atom_site_type_symbol
 _atom_site_label
 _atom_site_symmetry_multiplicity
 _atom_site_fract_x
 _atom_site_fract_y
 _atom_site_fract_z
 _atom_site_occupancy
  Ho  Ho0  1  0.293399  0.086052  0.376334  1
  Ho  Ho1  1  0.293399  0.913948  0.876334  1
  Ho  Ho2  1  0.706601  0.086052  0.876334  1
  Ho  Ho3  1  0.706601  0.913948  0.376334  1
  Ho  Ho4  1  0.586052  0.793399  0.876334  1
  Ho  Ho5  1  0.586052  0.206601  0.376334  1
  Ho  Ho6  1  0.413948  0.793399  0.376334  1
  Ho  Ho7  1  0.413948  0.206601  0.876334  1
  Ho  Ho8  1  0.206601  0.413948  0.623666  1
  Ho  Ho9  1  0.206601  0.586052  0.123666  1
  Ho  Ho10  1  0.793399  0.413948  0.123666  1
  Ho  Ho11  1  0.793399  0.586052  0.623666  1
  Ho  Ho12  1  0.913948  0.706601  0.123666  1
  Ho  Ho13  1  0.913948  0.293399  0.623666  1
  Ho  Ho14  1  0.086052  0.706601  0.623666  1
  Ho  Ho15  1  0.086052  0.293399  0.123666  1
  Lu  Lu16  1  0.000000  0.000000  0.500000  1
  Lu  Lu17  1  0.000000  0.000000  0.000000  1
  Lu  Lu18  1  0.500000  0.500000  0.000000  1
  Lu  Lu19  1  0.500000  0.500000  0.500000  1
  Os  Os20  1  0.500000  0.000000  0.123297  1
  Os  Os21  1  0.500000  0.000000  0.623297  1
  Os  Os22  1  0.000000  0.500000  0.876703  1
  Os  Os23  1  0.000000  0.500000  0.376703  1
  Rh  Rh24  1  0.849624  0.150376  0.250000  1
  Rh  Rh25  1  0.849624  0.849624  0.750000  1
  Rh  Rh26  1  0.150376  0.150376  0.750000  1
  Rh  Rh27  1  0.150376  0.849624  0.250000  1
  Rh  Rh28  1  0.650376  0.349624  0.750000  1
  Rh  Rh29  1  0.650376  0.650376  0.250000  1
  Rh  Rh30  1  0.349624  0.349624  0.250000  1
  Rh  Rh31  1  0.349624  0.650376  0.750000  1
