# generated using pymatgen
data_Th4Ti(TcN4)3
_symmetry_space_group_name_H-M   'P 1'
_cell_length_a   5.55111305
_cell_length_b   5.63729862
_cell_length_c   7.89600719
_cell_angle_alpha   89.95780418
_cell_angle_beta   90.04704117
_cell_angle_gamma   90.19262487
_symmetry_Int_Tables_number   1
_chemical_formula_structural   Th4Ti(TcN4)3
_chemical_formula_sum   'Th4 Ti1 Tc3 N12'
_cell_volume   247.09043296
_cell_formula_units_Z   1
loop_
 _symmetry_equiv_pos_site_id
 _symmetry_equiv_pos_as_xyz
  1  'x, y, z'
loop_
 _atom_site_type_symbol
 _atom_site_label
 _atom_site_symmetry_multiplicity
 _atom_site_fract_x
 _atom_site_fract_y
 _atom_site_fract_z
 _atom_site_occupancy
  Th  Th0  1  0.504269  0.547584  0.247374  1
  Th  Th1  1  0.997498  0.048452  0.246630  1
  Th  Th2  1  0.495731  0.452416  0.752626  1
  Th  Th3  1  0.002502  0.951548  0.753370  1
  Ti  Ti4  1  0.000000  0.500000  0.000000  1
  Tc  Tc5  1  0.500000  0.000000  0.500000  1
  Tc  Tc6  1  0.000000  0.500000  0.500000  1
  Tc  Tc7  1  0.500000  0.000000  0.000000  1
  N  N8  1  0.429803  0.983765  0.248200  1
  N  N9  1  0.077877  0.479357  0.249657  1
  N  N10  1  0.570197  0.016235  0.751800  1
  N  N11  1  0.922123  0.520643  0.750343  1
  N  N12  1  0.804332  0.805107  0.038751  1
  N  N13  1  0.703925  0.295722  0.462786  1
  N  N14  1  0.200982  0.205117  0.538733  1
  N  N15  1  0.305013  0.697419  0.961254  1
  N  N16  1  0.195668  0.194893  0.961249  1
  N  N17  1  0.296075  0.704278  0.537214  1
  N  N18  1  0.799018  0.794883  0.461267  1
  N  N19  1  0.694987  0.302581  0.038746  1
