# generated using pymatgen
data_Nd16Al3Rh4Au
_symmetry_space_group_name_H-M   'P 1'
_cell_length_a   9.85004782
_cell_length_b   9.85004761
_cell_length_c   9.85004792
_cell_angle_alpha   59.89743640
_cell_angle_beta   59.89743630
_cell_angle_gamma   59.89743454
_symmetry_Int_Tables_number   1
_chemical_formula_structural   Nd16Al3Rh4Au
_chemical_formula_sum   'Nd16 Al3 Rh4 Au1'
_cell_volume   674.19927898
_cell_formula_units_Z   1
loop_
 _symmetry_equiv_pos_site_id
 _symmetry_equiv_pos_as_xyz
  1  'x, y, z'
loop_
 _atom_site_type_symbol
 _atom_site_label
 _atom_site_symmetry_multiplicity
 _atom_site_fract_x
 _atom_site_fract_y
 _atom_site_fract_z
 _atom_site_occupancy
  Nd  Nd0  1  0.600095  0.600095  0.600095  1
  Nd  Nd1  1  0.603154  0.603154  0.191764  1
  Nd  Nd2  1  0.603154  0.191764  0.603154  1
  Nd  Nd3  1  0.191764  0.603154  0.603154  1
  Nd  Nd4  1  0.056557  0.443802  0.443802  1
  Nd  Nd5  1  0.442839  0.057054  0.057054  1
  Nd  Nd6  1  0.443802  0.056557  0.443802  1
  Nd  Nd7  1  0.057054  0.442839  0.057054  1
  Nd  Nd8  1  0.443802  0.443802  0.056557  1
  Nd  Nd9  1  0.057054  0.057054  0.442839  1
  Nd  Nd10  1  0.188171  0.812254  0.812254  1
  Nd  Nd11  1  0.810652  0.189070  0.189070  1
  Nd  Nd12  1  0.812254  0.188171  0.812254  1
  Nd  Nd13  1  0.189070  0.810652  0.189070  1
  Nd  Nd14  1  0.812254  0.812254  0.188171  1
  Nd  Nd15  1  0.189070  0.189070  0.810652  1
  Al  Al16  1  0.823979  0.823979  0.525672  1
  Al  Al17  1  0.823979  0.525672  0.823979  1
  Al  Al18  1  0.525672  0.823979  0.823979  1
  Rh  Rh19  1  0.392706  0.392706  0.392706  1
  Rh  Rh20  1  0.391761  0.391761  0.822316  1
  Rh  Rh21  1  0.391761  0.822316  0.391761  1
  Rh  Rh22  1  0.822316  0.391761  0.391761  1
  Au  Au23  1  0.827079  0.827079  0.827079  1
