# generated using pymatgen
data_UP2AuF12
_symmetry_space_group_name_H-M   'P 1'
_cell_length_a   8.64238721
_cell_length_b   9.35479000
_cell_length_c   8.71660720
_cell_angle_alpha   90.00000000
_cell_angle_beta   120.02204545
_cell_angle_gamma   90.00000000
_symmetry_Int_Tables_number   1
_chemical_formula_structural   UP2AuF12
_chemical_formula_sum   'U2 P4 Au2 F24'
_cell_volume   610.16789276
_cell_formula_units_Z   2
loop_
 _symmetry_equiv_pos_site_id
 _symmetry_equiv_pos_as_xyz
  1  'x, y, z'
loop_
 _atom_site_type_symbol
 _atom_site_label
 _atom_site_symmetry_multiplicity
 _atom_site_fract_x
 _atom_site_fract_y
 _atom_site_fract_z
 _atom_site_occupancy
  U  U0  1  0.000000  0.500000  0.500000  1
  U  U1  1  0.000000  0.000000  0.000000  1
  P  P2  1  0.695130  0.027546  0.350565  1
  P  P3  1  0.304870  0.527546  0.149435  1
  P  P4  1  0.304870  0.972454  0.649435  1
  P  P5  1  0.695130  0.472454  0.850565  1
  Au  Au6  1  0.000000  0.000000  0.500000  1
  Au  Au7  1  0.000000  0.500000  0.000000  1
  F  F8  1  0.176242  0.420247  0.751516  1
  F  F9  1  0.823758  0.920247  0.748484  1
  F  F10  1  0.823758  0.579753  0.248484  1
  F  F11  1  0.176242  0.079753  0.251516  1
  F  F12  1  0.152844  0.410715  0.400234  1
  F  F13  1  0.847156  0.910715  0.099766  1
  F  F14  1  0.847156  0.589285  0.599766  1
  F  F15  1  0.152844  0.089285  0.900234  1
  F  F16  1  0.154097  0.687534  0.564040  1
  F  F17  1  0.845903  0.187534  0.935960  1
  F  F18  1  0.845903  0.312466  0.435960  1
  F  F19  1  0.154097  0.812466  0.064040  1
  F  F20  1  0.606589  0.109421  0.441579  1
  F  F21  1  0.393411  0.609421  0.058421  1
  F  F22  1  0.393411  0.890579  0.558421  1
  F  F23  1  0.606589  0.390579  0.941579  1
  F  F24  1  0.610438  0.102731  0.167117  1
  F  F25  1  0.389562  0.602731  0.332883  1
  F  F26  1  0.389562  0.897269  0.832883  1
  F  F27  1  0.610438  0.397269  0.667117  1
  F  F28  1  0.589064  0.884197  0.301397  1
  F  F29  1  0.410936  0.384197  0.198603  1
  F  F30  1  0.410936  0.115803  0.698603  1
  F  F31  1  0.589064  0.615803  0.801397  1
