# generated using pymatgen
data_Dy5YAl21Si3Os8
_symmetry_space_group_name_H-M   'P 1'
_cell_length_a   8.72047500
_cell_length_b   8.72047485
_cell_length_c   9.64384400
_cell_angle_alpha   90.00000000
_cell_angle_beta   90.00000000
_cell_angle_gamma   119.99999677
_symmetry_Int_Tables_number   1
_chemical_formula_structural   Dy5YAl21Si3Os8
_chemical_formula_sum   'Dy5 Y1 Al21 Si3 Os8'
_cell_volume   635.12776375
_cell_formula_units_Z   1
loop_
 _symmetry_equiv_pos_site_id
 _symmetry_equiv_pos_as_xyz
  1  'x, y, z'
loop_
 _atom_site_type_symbol
 _atom_site_label
 _atom_site_symmetry_multiplicity
 _atom_site_fract_x
 _atom_site_fract_y
 _atom_site_fract_z
 _atom_site_occupancy
  Dy  Dy0  1  0.804313  0.608626  0.752781  1
  Dy  Dy1  1  0.609753  0.804877  0.247454  1
  Dy  Dy2  1  0.391374  0.195687  0.752781  1
  Dy  Dy3  1  0.195123  0.804877  0.247454  1
  Dy  Dy4  1  0.804313  0.195687  0.752781  1
  Y  Y5  1  0.195123  0.390247  0.247454  1
  Al  Al6  1  0.333333  0.666667  0.477373  1
  Al  Al7  1  0.164087  0.328176  0.574402  1
  Al  Al8  1  0.835211  0.670422  0.423478  1
  Al  Al9  1  0.671824  0.835913  0.574402  1
  Al  Al10  1  0.835005  0.670008  0.076920  1
  Al  Al11  1  0.329578  0.164789  0.423478  1
  Al  Al12  1  0.165226  0.330452  0.922687  1
  Al  Al13  1  0.164087  0.835913  0.574402  1
  Al  Al14  1  0.329992  0.164995  0.076920  1
  Al  Al15  1  0.835211  0.164789  0.423478  1
  Al  Al16  1  0.669548  0.834774  0.922687  1
  Al  Al17  1  0.835005  0.164995  0.076920  1
  Al  Al18  1  0.165226  0.834774  0.922687  1
  Al  Al19  1  0.563487  0.126974  0.248798  1
  Al  Al20  1  0.436842  0.873684  0.748803  1
  Al  Al21  1  0.873026  0.436513  0.248798  1
  Al  Al22  1  0.126316  0.563158  0.748803  1
  Al  Al23  1  0.563487  0.436513  0.248798  1
  Al  Al24  1  0.436842  0.563158  0.748803  1
  Al  Al25  1  0.000000  0.000000  0.249066  1
  Al  Al26  1  0.000000  0.000000  0.749731  1
  Si  Si27  1  0.333333  0.666667  0.037963  1
  Si  Si28  1  0.666667  0.333333  0.962889  1
  Si  Si29  1  0.666667  0.333333  0.537996  1
  Os  Os30  1  0.499936  0.999873  0.998796  1
  Os  Os31  1  0.000127  0.500064  0.998796  1
  Os  Os32  1  0.504243  0.008486  0.501286  1
  Os  Os33  1  0.499936  0.500064  0.998796  1
  Os  Os34  1  0.991514  0.495757  0.501286  1
  Os  Os35  1  0.504243  0.495757  0.501286  1
  Os  Os36  1  0.000000  0.000000  0.999212  1
  Os  Os37  1  0.000000  0.000000  0.499553  1
