# generated using pymatgen
data_Ca2NdAl3Si2Pd
_symmetry_space_group_name_H-M   'P 1'
_cell_length_a   6.95951800
_cell_length_b   7.00947031
_cell_length_c   4.37700500
_cell_angle_alpha   90.00000000
_cell_angle_beta   90.00000000
_cell_angle_gamma   119.76453915
_symmetry_Int_Tables_number   1
_chemical_formula_structural   Ca2NdAl3Si2Pd
_chemical_formula_sum   'Ca2 Nd1 Al3 Si2 Pd1'
_cell_volume   185.35213310
_cell_formula_units_Z   1
loop_
 _symmetry_equiv_pos_site_id
 _symmetry_equiv_pos_as_xyz
  1  'x, y, z'
loop_
 _atom_site_type_symbol
 _atom_site_label
 _atom_site_symmetry_multiplicity
 _atom_site_fract_x
 _atom_site_fract_y
 _atom_site_fract_z
 _atom_site_occupancy
  Ca  Ca0  1  0.000852  0.423875  0.000000  1
  Ca  Ca1  1  0.576976  0.576125  0.000000  1
  Nd  Nd2  1  0.424324  0.000000  0.000000  1
  Al  Al3  1  0.765750  0.000000  0.500000  1
  Al  Al4  1  0.236695  0.236052  0.500000  1
  Al  Al5  1  0.000642  0.763948  0.500000  1
  Si  Si6  1  0.665931  0.334558  0.500000  1
  Si  Si7  1  0.331373  0.665442  0.500000  1
  Pd  Pd8  1  0.997456  0.000000  0.000000  1
