# generated using pymatgen
data_Rb8Li4AlIn3As8
_symmetry_space_group_name_H-M   'P 1'
_cell_length_a   10.53567122
_cell_length_b   10.53568947
_cell_length_c   6.52655203
_cell_angle_alpha   90.03456613
_cell_angle_beta   89.96541831
_cell_angle_gamma   103.18615458
_symmetry_Int_Tables_number   1
_chemical_formula_structural   Rb8Li4AlIn3As8
_chemical_formula_sum   'Rb8 Li4 Al1 In3 As8'
_cell_volume   705.34988914
_cell_formula_units_Z   1
loop_
 _symmetry_equiv_pos_site_id
 _symmetry_equiv_pos_as_xyz
  1  'x, y, z'
loop_
 _atom_site_type_symbol
 _atom_site_label
 _atom_site_symmetry_multiplicity
 _atom_site_fract_x
 _atom_site_fract_y
 _atom_site_fract_z
 _atom_site_occupancy
  Rb  Rb0  1  0.077974  0.422110  0.746178  1
  Rb  Rb1  1  0.668572  0.327901  0.776882  1
  Rb  Rb2  1  0.327900  0.668572  0.223119  1
  Rb  Rb3  1  0.576853  0.924742  0.751272  1
  Rb  Rb4  1  0.422111  0.077976  0.253823  1
  Rb  Rb5  1  0.924742  0.576854  0.248726  1
  Rb  Rb6  1  0.829442  0.171209  0.280266  1
  Rb  Rb7  1  0.171210  0.829443  0.719735  1
  Li  Li8  1  0.120463  0.120463  0.500000  1
  Li  Li9  1  0.881123  0.881123  0.500000  1
  Li  Li10  1  0.376285  0.376285  0.000000  1
  Li  Li11  1  0.620578  0.620579  0.999999  1
  Al  Al12  1  0.129442  0.129442  0.000000  1
  In  In13  1  0.871522  0.871522  0.000000  1
  In  In14  1  0.365260  0.365260  0.500000  1
  In  In15  1  0.631368  0.631368  0.500000  1
  As  As16  1  0.845647  0.656063  0.750110  1
  As  As17  1  0.097264  0.920704  0.219551  1
  As  As18  1  0.407413  0.591509  0.728440  1
  As  As19  1  0.591512  0.407412  0.271559  1
  As  As20  1  0.656063  0.845647  0.249890  1
  As  As21  1  0.154575  0.331978  0.235336  1
  As  As22  1  0.331978  0.154575  0.764664  1
  As  As23  1  0.920704  0.097264  0.780449  1
