# generated using pymatgen
data_EuP12(OsRh)2
_symmetry_space_group_name_H-M   'P 1'
_cell_length_a   7.03544309
_cell_length_b   7.04224887
_cell_length_c   7.03544451
_cell_angle_alpha   109.52347608
_cell_angle_beta   109.33810402
_cell_angle_gamma   109.51286612
_symmetry_Int_Tables_number   1
_chemical_formula_structural   EuP12(OsRh)2
_chemical_formula_sum   'Eu1 P12 Os2 Rh2'
_cell_volume   268.46112725
_cell_formula_units_Z   1
loop_
 _symmetry_equiv_pos_site_id
 _symmetry_equiv_pos_as_xyz
  1  'x, y, z'
loop_
 _atom_site_type_symbol
 _atom_site_label
 _atom_site_symmetry_multiplicity
 _atom_site_fract_x
 _atom_site_fract_y
 _atom_site_fract_z
 _atom_site_occupancy
  Eu  Eu0  1  0.000000  0.000000  0.000000  1
  P  P1  1  0.355881  0.213169  0.857288  1
  P  P2  1  0.644119  0.786831  0.142712  1
  P  P3  1  0.642459  0.501215  0.858755  1
  P  P4  1  0.357541  0.498785  0.141245  1
  P  P5  1  0.214725  0.859626  0.358089  1
  P  P6  1  0.785275  0.140374  0.641911  1
  P  P7  1  0.501537  0.859626  0.644900  1
  P  P8  1  0.498463  0.140374  0.355100  1
  P  P9  1  0.856035  0.354791  0.214450  1
  P  P10  1  0.143965  0.645209  0.785550  1
  P  P11  1  0.859659  0.645209  0.501243  1
  P  P12  1  0.140341  0.354791  0.498757  1
  Os  Os13  1  0.000000  0.000000  0.500000  1
  Os  Os14  1  0.500000  0.000000  0.000000  1
  Rh  Rh15  1  0.000000  0.500000  0.000000  1
  Rh  Rh16  1  0.500000  0.500000  0.500000  1
