# generated using pymatgen
data_TbEr(Al5Os)4
_symmetry_space_group_name_H-M   'P 1'
_cell_length_a   6.86346634
_cell_length_b   6.86346625
_cell_length_c   9.16409000
_cell_angle_alpha   90.00000000
_cell_angle_beta   90.00000000
_cell_angle_gamma   96.53521849
_symmetry_Int_Tables_number   1
_chemical_formula_structural   TbEr(Al5Os)4
_chemical_formula_sum   'Tb1 Er1 Al20 Os4'
_cell_volume   428.88922790
_cell_formula_units_Z   1
loop_
 _symmetry_equiv_pos_site_id
 _symmetry_equiv_pos_as_xyz
  1  'x, y, z'
loop_
 _atom_site_type_symbol
 _atom_site_label
 _atom_site_symmetry_multiplicity
 _atom_site_fract_x
 _atom_site_fract_y
 _atom_site_fract_z
 _atom_site_occupancy
  Tb  Tb0  1  0.371051  0.628949  0.250000  1
  Er  Er1  1  0.629814  0.370186  0.750000  1
  Al  Al2  1  0.281703  0.019396  0.750000  1
  Al  Al3  1  0.018985  0.281533  0.250000  1
  Al  Al4  1  0.718467  0.981015  0.250000  1
  Al  Al5  1  0.980604  0.718297  0.750000  1
  Al  Al6  1  0.876324  0.123676  0.952580  1
  Al  Al7  1  0.123366  0.876634  0.045452  1
  Al  Al8  1  0.876324  0.123676  0.547420  1
  Al  Al9  1  0.123366  0.876634  0.454548  1
  Al  Al10  1  0.646070  0.916524  0.750000  1
  Al  Al11  1  0.914755  0.645989  0.250000  1
  Al  Al12  1  0.354011  0.085245  0.250000  1
  Al  Al13  1  0.083476  0.353930  0.750000  1
  Al  Al14  1  0.344297  0.655703  0.898565  1
  Al  Al15  1  0.656554  0.343446  0.100895  1
  Al  Al16  1  0.344297  0.655703  0.601435  1
  Al  Al17  1  0.656554  0.343446  0.399105  1
  Al  Al18  1  0.723914  0.723795  0.999454  1
  Al  Al19  1  0.723914  0.723795  0.500546  1
  Al  Al20  1  0.276205  0.276086  0.999454  1
  Al  Al21  1  0.276205  0.276086  0.500546  1
  Os  Os22  1  0.500038  0.000165  0.999772  1
  Os  Os23  1  0.999835  0.499962  0.999772  1
  Os  Os24  1  0.500038  0.000165  0.500228  1
  Os  Os25  1  0.999835  0.499962  0.500228  1
