# generated using pymatgen
data_PrY7(P7Ir8)2
_symmetry_space_group_name_H-M   'P 1'
_cell_length_a   3.94533500
_cell_length_b   12.73454914
_cell_length_c   13.16650716
_cell_angle_alpha   80.71888016
_cell_angle_beta   90.00000000
_cell_angle_gamma   90.00000000
_symmetry_Int_Tables_number   1
_chemical_formula_structural   PrY7(P7Ir8)2
_chemical_formula_sum   'Pr1 Y7 P14 Ir16'
_cell_volume   652.85255839
_cell_formula_units_Z   1
loop_
 _symmetry_equiv_pos_site_id
 _symmetry_equiv_pos_as_xyz
  1  'x, y, z'
loop_
 _atom_site_type_symbol
 _atom_site_label
 _atom_site_symmetry_multiplicity
 _atom_site_fract_x
 _atom_site_fract_y
 _atom_site_fract_z
 _atom_site_occupancy
  Pr  Pr0  1  0.250000  0.278684  0.102749  1
  Y  Y1  1  0.750000  0.791219  0.561292  1
  Y  Y2  1  0.250000  0.208749  0.439288  1
  Y  Y3  1  0.750000  0.479152  0.705361  1
  Y  Y4  1  0.250000  0.521472  0.294921  1
  Y  Y5  1  0.750000  0.720782  0.897741  1
  Y  Y6  1  0.250000  0.103359  0.788330  1
  Y  Y7  1  0.750000  0.896624  0.212110  1
  P  P8  1  0.250000  0.907105  0.411714  1
  P  P9  1  0.750000  0.473691  0.129432  1
  P  P10  1  0.250000  0.527664  0.870233  1
  P  P11  1  0.750000  0.092595  0.588745  1
  P  P12  1  0.250000  0.741640  0.079289  1
  P  P13  1  0.750000  0.256558  0.917498  1
  P  P14  1  0.750000  0.157719  0.283920  1
  P  P15  1  0.250000  0.842573  0.717509  1
  P  P16  1  0.250000  0.047899  0.101297  1
  P  P17  1  0.750000  0.947929  0.898783  1
  P  P18  1  0.250000  0.312261  0.688908  1
  P  P19  1  0.750000  0.687929  0.310744  1
  P  P20  1  0.250000  0.607878  0.566583  1
  P  P21  1  0.750000  0.392920  0.434604  1
  Ir  Ir22  1  0.250000  0.990642  0.576641  1
  Ir  Ir23  1  0.750000  0.009084  0.424110  1
  Ir  Ir24  1  0.250000  0.662288  0.730509  1
  Ir  Ir25  1  0.750000  0.339576  0.271943  1
  Ir  Ir26  1  0.250000  0.554097  0.046350  1
  Ir  Ir27  1  0.750000  0.450244  0.950902  1
  Ir  Ir28  1  0.250000  0.060251  0.273300  1
  Ir  Ir29  1  0.750000  0.938490  0.727343  1
  Ir  Ir30  1  0.250000  0.422060  0.524459  1
  Ir  Ir31  1  0.750000  0.578708  0.476083  1
  Ir  Ir32  1  0.250000  0.913950  0.996693  1
  Ir  Ir33  1  0.750000  0.083507  0.001584  1
  Ir  Ir34  1  0.250000  0.729896  0.394489  1
  Ir  Ir35  1  0.750000  0.270063  0.605476  1
  Ir  Ir36  1  0.250000  0.341566  0.857005  1
  Ir  Ir37  1  0.750000  0.659176  0.142062  1
