# generated using pymatgen
data_Tm3Cd3Ga2Hg
_symmetry_space_group_name_H-M   'P 1'
_cell_length_a   7.26327900
_cell_length_b   7.26327864
_cell_length_c   4.45740200
_cell_angle_alpha   90.00000000
_cell_angle_beta   90.00000000
_cell_angle_gamma   119.99999709
_symmetry_Int_Tables_number   1
_chemical_formula_structural   Tm3Cd3Ga2Hg
_chemical_formula_sum   'Tm3 Cd3 Ga2 Hg1'
_cell_volume   203.64693587
_cell_formula_units_Z   1
loop_
 _symmetry_equiv_pos_site_id
 _symmetry_equiv_pos_as_xyz
  1  'x, y, z'
loop_
 _atom_site_type_symbol
 _atom_site_label
 _atom_site_symmetry_multiplicity
 _atom_site_fract_x
 _atom_site_fract_y
 _atom_site_fract_z
 _atom_site_occupancy
  Tm  Tm0  1  0.000000  0.571527  0.000000  1
  Tm  Tm1  1  0.428473  0.428473  0.000000  1
  Tm  Tm2  1  0.571527  0.000000  0.000000  1
  Cd  Cd3  1  0.000000  0.254905  0.500000  1
  Cd  Cd4  1  0.745095  0.745095  0.500000  1
  Cd  Cd5  1  0.254905  0.000000  0.500000  1
  Ga  Ga6  1  0.666667  0.333333  0.500000  1
  Ga  Ga7  1  0.333333  0.666667  0.500000  1
  Hg  Hg8  1  0.000000  0.000000  0.000000  1
