# generated using pymatgen
data_Sc4MnFeRu6
_symmetry_space_group_name_H-M   'P 1'
_cell_length_a   5.10381977
_cell_length_b   5.00459713
_cell_length_c   8.61189300
_cell_angle_alpha   90.00000000
_cell_angle_beta   90.00000000
_cell_angle_gamma   119.46232157
_symmetry_Int_Tables_number   1
_chemical_formula_structural   Sc4MnFeRu6
_chemical_formula_sum   'Sc4 Mn1 Fe1 Ru6'
_cell_volume   191.52316612
_cell_formula_units_Z   1
loop_
 _symmetry_equiv_pos_site_id
 _symmetry_equiv_pos_as_xyz
  1  'x, y, z'
loop_
 _atom_site_type_symbol
 _atom_site_label
 _atom_site_symmetry_multiplicity
 _atom_site_fract_x
 _atom_site_fract_y
 _atom_site_fract_z
 _atom_site_occupancy
  Sc  Sc0  1  0.330910  0.664470  0.066609  1
  Sc  Sc1  1  0.669081  0.333293  0.565335  1
  Sc  Sc2  1  0.669081  0.333293  0.934665  1
  Sc  Sc3  1  0.330910  0.664470  0.433391  1
  Mn  Mn4  1  0.169333  0.340087  0.750000  1
  Fe  Fe5  1  0.832235  0.170116  0.250000  1
  Ru  Ru6  1  0.999521  0.006925  0.999751  1
  Ru  Ru7  1  0.999521  0.006925  0.500249  1
  Ru  Ru8  1  0.831493  0.658183  0.250000  1
  Ru  Ru9  1  0.168120  0.825965  0.750000  1
  Ru  Ru10  1  0.651076  0.823098  0.750000  1
  Ru  Ru11  1  0.348720  0.173175  0.250000  1
