# generated using pymatgen
data_MgScInB2Rh5
_symmetry_space_group_name_H-M   'P 1'
_cell_length_a   9.62864689
_cell_length_b   9.62864689
_cell_length_c   3.03431500
_cell_angle_alpha   90.00000000
_cell_angle_beta   90.00000000
_cell_angle_gamma   90.07179938
_symmetry_Int_Tables_number   1
_chemical_formula_structural   MgScInB2Rh5
_chemical_formula_sum   'Mg2 Sc2 In2 B4 Rh10'
_cell_volume   281.31367443
_cell_formula_units_Z   2
loop_
 _symmetry_equiv_pos_site_id
 _symmetry_equiv_pos_as_xyz
  1  'x, y, z'
loop_
 _atom_site_type_symbol
 _atom_site_label
 _atom_site_symmetry_multiplicity
 _atom_site_fract_x
 _atom_site_fract_y
 _atom_site_fract_z
 _atom_site_occupancy
  Mg  Mg0  1  0.176642  0.323358  0.000000  1
  Mg  Mg1  1  0.823358  0.676642  0.000000  1
  Sc  Sc2  1  0.677126  0.177126  0.000000  1
  Sc  Sc3  1  0.322874  0.822874  0.000000  1
  In  In4  1  0.000000  0.000000  0.000000  1
  In  In5  1  0.500000  0.500000  0.000000  1
  B  B6  1  0.122359  0.622359  0.000000  1
  B  B7  1  0.877641  0.377641  0.000000  1
  B  B8  1  0.624474  0.875526  0.000000  1
  B  B9  1  0.375526  0.124474  0.000000  1
  Rh  Rh10  1  0.500000  0.000000  0.500000  1
  Rh  Rh11  1  0.000000  0.500000  0.500000  1
  Rh  Rh12  1  0.225848  0.068102  0.500000  1
  Rh  Rh13  1  0.774152  0.931898  0.500000  1
  Rh  Rh14  1  0.073212  0.776157  0.500000  1
  Rh  Rh15  1  0.723843  0.426788  0.500000  1
  Rh  Rh16  1  0.926788  0.223843  0.500000  1
  Rh  Rh17  1  0.276157  0.573212  0.500000  1
  Rh  Rh18  1  0.568102  0.725848  0.500000  1
  Rh  Rh19  1  0.431898  0.274152  0.500000  1
