# generated using pymatgen
data_ThPa3I16
_symmetry_space_group_name_H-M   'P 1'
_cell_length_a   8.07325115
_cell_length_b   8.25163909
_cell_length_c   14.39909907
_cell_angle_alpha   67.99248063
_cell_angle_beta   89.98348710
_cell_angle_gamma   89.90161384
_symmetry_Int_Tables_number   1
_chemical_formula_structural   ThPa3I16
_chemical_formula_sum   'Th1 Pa3 I16'
_cell_volume   889.33659532
_cell_formula_units_Z   1
loop_
 _symmetry_equiv_pos_site_id
 _symmetry_equiv_pos_as_xyz
  1  'x, y, z'
loop_
 _atom_site_type_symbol
 _atom_site_label
 _atom_site_symmetry_multiplicity
 _atom_site_fract_x
 _atom_site_fract_y
 _atom_site_fract_z
 _atom_site_occupancy
  Th  Th0  1  0.986621  0.004799  0.817975  1
  Pa  Pa1  1  0.513546  0.004211  0.314964  1
  Pa  Pa2  1  0.013720  0.996145  0.185117  1
  Pa  Pa3  1  0.485637  0.995380  0.681590  1
  I  I4  1  0.858135  0.144693  0.347100  1
  I  I5  1  0.358502  0.854999  0.153304  1
  I  I6  1  0.141564  0.855977  0.651502  1
  I  I7  1  0.637626  0.145489  0.847400  1
  I  I8  1  0.087218  0.233376  0.947494  1
  I  I9  1  0.585437  0.769185  0.553476  1
  I  I10  1  0.914565  0.769076  0.055912  1
  I  I11  1  0.414656  0.229841  0.445602  1
  I  I12  1  0.745086  0.703547  0.813719  1
  I  I13  1  0.247126  0.297082  0.684452  1
  I  I14  1  0.254125  0.294742  0.186649  1
  I  I15  1  0.755098  0.705155  0.314508  1
  I  I16  1  0.312140  0.789724  0.898467  1
  I  I17  1  0.807786  0.206697  0.600687  1
  I  I18  1  0.690491  0.205383  0.102056  1
  I  I19  1  0.190921  0.794499  0.398026  1
