# generated using pymatgen
data_SmY5C3Cl5
_symmetry_space_group_name_H-M   'P 1'
_cell_length_a   3.68105892
_cell_length_b   8.37519278
_cell_length_c   10.37662363
_cell_angle_alpha   85.47700709
_cell_angle_beta   79.72734440
_cell_angle_gamma   77.32265211
_symmetry_Int_Tables_number   1
_chemical_formula_structural   SmY5C3Cl5
_chemical_formula_sum   'Sm1 Y5 C3 Cl5'
_cell_volume   306.84201321
_cell_formula_units_Z   1
loop_
 _symmetry_equiv_pos_site_id
 _symmetry_equiv_pos_as_xyz
  1  'x, y, z'
loop_
 _atom_site_type_symbol
 _atom_site_label
 _atom_site_symmetry_multiplicity
 _atom_site_fract_x
 _atom_site_fract_y
 _atom_site_fract_z
 _atom_site_occupancy
  Sm  Sm0  1  0.573879  0.073152  0.781387  1
  Y  Y1  1  0.960417  0.428581  0.653931  1
  Y  Y2  1  0.684523  0.179622  0.454363  1
  Y  Y3  1  0.045811  0.569576  0.342292  1
  Y  Y4  1  0.322155  0.818169  0.541563  1
  Y  Y5  1  0.430097  0.923600  0.220923  1
  C  C6  1  0.128873  0.122542  0.622852  1
  C  C7  1  0.877109  0.875528  0.373737  1
  C  C8  1  0.502939  0.498897  0.498088  1
  Cl  Cl9  1  0.756918  0.742081  0.749557  1
  Cl  Cl10  1  0.377986  0.385315  0.863026  1
  Cl  Cl11  1  0.251308  0.252677  0.245798  1
  Cl  Cl12  1  0.624690  0.618358  0.135235  1
  Cl  Cl13  1  0.000516  0.995489  0.006560  1
