# generated using pymatgen
data_Sr4NdU7Se20
_symmetry_space_group_name_H-M   'P 1'
_cell_length_a   7.81855007
_cell_length_b   8.57309174
_cell_length_c   12.31267200
_cell_angle_alpha   90.42285059
_cell_angle_beta   90.05078433
_cell_angle_gamma   89.86612800
_symmetry_Int_Tables_number   1
_chemical_formula_structural   Sr4NdU7Se20
_chemical_formula_sum   'Sr4 Nd1 U7 Se20'
_cell_volume   825.28286204
_cell_formula_units_Z   1
loop_
 _symmetry_equiv_pos_site_id
 _symmetry_equiv_pos_as_xyz
  1  'x, y, z'
loop_
 _atom_site_type_symbol
 _atom_site_label
 _atom_site_symmetry_multiplicity
 _atom_site_fract_x
 _atom_site_fract_y
 _atom_site_fract_z
 _atom_site_occupancy
  Sr  Sr0  1  0.040528  0.007089  0.326910  1
  Sr  Sr1  1  0.541494  0.996413  0.172019  1
  Sr  Sr2  1  0.957952  0.995794  0.673547  1
  Sr  Sr3  1  0.457421  0.004832  0.828089  1
  Nd  Nd4  1  0.025845  0.501240  0.320387  1
  U  U5  1  0.522449  0.499809  0.179581  1
  U  U6  1  0.979144  0.500165  0.681007  1
  U  U7  1  0.478590  0.500577  0.819755  1
  U  U8  1  0.070025  0.746547  0.009191  1
  U  U9  1  0.571911  0.250599  0.492606  1
  U  U10  1  0.928048  0.251772  0.991579  1
  U  U11  1  0.428026  0.747836  0.507530  1
  Se  Se12  1  0.168262  0.452730  0.091710  1
  Se  Se13  1  0.659284  0.541925  0.403040  1
  Se  Se14  1  0.835779  0.544992  0.901588  1
  Se  Se15  1  0.335703  0.454875  0.598475  1
  Se  Se16  1  0.454991  0.720937  0.000177  1
  Se  Se17  1  0.951989  0.275509  0.504066  1
  Se  Se18  1  0.545112  0.281255  0.996784  1
  Se  Se19  1  0.046993  0.725704  0.507050  1
  Se  Se20  1  0.340440  0.267854  0.311804  1
  Se  Se21  1  0.827608  0.729114  0.181867  1
  Se  Se22  1  0.664156  0.724889  0.687308  1
  Se  Se23  1  0.164482  0.274266  0.812305  1
  Se  Se24  1  0.673918  0.956766  0.419320  1
  Se  Se25  1  0.173418  0.042423  0.080042  1
  Se  Se26  1  0.329450  0.042503  0.584140  1
  Se  Se27  1  0.826815  0.958497  0.916901  1
  Se  Se28  1  0.311767  0.740613  0.283062  1
  Se  Se29  1  0.806496  0.261887  0.213188  1
  Se  Se30  1  0.690370  0.266192  0.718221  1
  Se  Se31  1  0.191537  0.734394  0.786751  1
