# generated using pymatgen
data_Tb3YAl8
_symmetry_space_group_name_H-M   'P 1'
_cell_length_a   9.66743558
_cell_length_b   9.66743567
_cell_length_c   9.66743619
_cell_angle_alpha   33.53738933
_cell_angle_beta   33.53739021
_cell_angle_gamma   33.53738821
_symmetry_Int_Tables_number   1
_chemical_formula_structural   Tb3YAl8
_chemical_formula_sum   'Tb3 Y1 Al8'
_cell_volume   245.63901443
_cell_formula_units_Z   1
loop_
 _symmetry_equiv_pos_site_id
 _symmetry_equiv_pos_as_xyz
  1  'x, y, z'
loop_
 _atom_site_type_symbol
 _atom_site_label
 _atom_site_symmetry_multiplicity
 _atom_site_fract_x
 _atom_site_fract_y
 _atom_site_fract_z
 _atom_site_occupancy
  Tb  Tb0  1  0.187463  0.187463  0.187463  1
  Tb  Tb1  1  0.812642  0.812642  0.812642  1
  Tb  Tb2  1  0.312486  0.312486  0.312486  1
  Y  Y3  1  0.687394  0.687394  0.687394  1
  Al  Al4  1  0.000035  0.000035  0.000035  1
  Al  Al5  1  0.500005  0.500005  0.500005  1
  Al  Al6  1  0.750065  0.249874  0.249874  1
  Al  Al7  1  0.250176  0.749992  0.749992  1
  Al  Al8  1  0.249874  0.750065  0.249874  1
  Al  Al9  1  0.749992  0.250176  0.749992  1
  Al  Al10  1  0.249874  0.249874  0.750065  1
  Al  Al11  1  0.749992  0.749992  0.250176  1
