# generated using pymatgen
data_DyHoCo12SiP6
_symmetry_space_group_name_H-M   'P 1'
_cell_length_a   9.00099400
_cell_length_b   9.00099446
_cell_length_c   3.57798600
_cell_angle_alpha   90.00000000
_cell_angle_beta   90.00000000
_cell_angle_gamma   119.99999829
_symmetry_Int_Tables_number   1
_chemical_formula_structural   DyHoCo12SiP6
_chemical_formula_sum   'Dy1 Ho1 Co12 Si1 P6'
_cell_volume   251.04422938
_cell_formula_units_Z   1
loop_
 _symmetry_equiv_pos_site_id
 _symmetry_equiv_pos_as_xyz
  1  'x, y, z'
loop_
 _atom_site_type_symbol
 _atom_site_label
 _atom_site_symmetry_multiplicity
 _atom_site_fract_x
 _atom_site_fract_y
 _atom_site_fract_z
 _atom_site_occupancy
  Dy  Dy0  1  0.333333  0.666667  0.000000  1
  Ho  Ho1  1  0.666667  0.333333  0.500000  1
  Co  Co2  1  0.122119  0.841089  0.000000  1
  Co  Co3  1  0.385734  0.435378  0.500000  1
  Co  Co4  1  0.718970  0.877881  0.000000  1
  Co  Co5  1  0.564622  0.950355  0.500000  1
  Co  Co6  1  0.230412  0.100682  0.500000  1
  Co  Co7  1  0.870271  0.769588  0.500000  1
  Co  Co8  1  0.899318  0.129729  0.500000  1
  Co  Co9  1  0.939500  0.373300  0.000000  1
  Co  Co10  1  0.626700  0.566202  0.000000  1
  Co  Co11  1  0.433798  0.060500  0.000000  1
  Co  Co12  1  0.049645  0.614266  0.500000  1
  Co  Co13  1  0.158911  0.281030  0.000000  1
  Si  Si14  1  0.000000  0.000000  0.000000  1
  P  P15  1  0.598352  0.709884  0.500000  1
  P  P16  1  0.706126  0.112914  0.000000  1
  P  P17  1  0.887086  0.593213  0.000000  1
  P  P18  1  0.406787  0.293874  0.000000  1
  P  P19  1  0.290116  0.888468  0.500000  1
  P  P20  1  0.111532  0.401648  0.500000  1
