# generated using pymatgen
data_GeI27
_symmetry_space_group_name_H-M   'P 1'
_cell_length_a   12.52961230
_cell_length_b   12.36111872
_cell_length_c   16.33120540
_cell_angle_alpha   128.38594377
_cell_angle_beta   83.41251834
_cell_angle_gamma   109.25358841
_symmetry_Int_Tables_number   1
_chemical_formula_structural   GeI27
_chemical_formula_sum   'Ge1 I27'
_cell_volume   1857.84252411
_cell_formula_units_Z   1
loop_
 _symmetry_equiv_pos_site_id
 _symmetry_equiv_pos_as_xyz
  1  'x, y, z'
loop_
 _atom_site_type_symbol
 _atom_site_label
 _atom_site_symmetry_multiplicity
 _atom_site_fract_x
 _atom_site_fract_y
 _atom_site_fract_z
 _atom_site_occupancy
  Ge  Ge0  1  0.314228  0.853393  0.940343  1
  I  I1  1  0.666173  0.121117  0.066909  1
  I  I2  1  0.356699  0.646518  0.957903  1
  I  I3  1  0.614785  0.363227  0.005542  1
  I  I4  1  0.562266  0.782428  0.380426  1
  I  I5  1  0.438425  0.227274  0.615190  1
  I  I6  1  0.744496  0.707675  0.034544  1
  I  I7  1  0.260029  0.293481  0.982747  1
  I  I8  1  0.729835  0.971840  0.207804  1
  I  I9  1  0.282524  0.016420  0.855879  1
  I  I10  1  0.431100  0.114450  0.145676  1
  I  I11  1  0.562171  0.873492  0.853337  1
  I  I12  1  0.224619  0.640566  0.702122  1
  I  I13  1  0.772710  0.366979  0.294086  1
  I  I14  1  0.102454  0.833417  0.009234  1
  I  I15  1  0.897981  0.153682  0.002401  1
  I  I16  1  0.096728  0.113993  0.233627  1
  I  I17  1  0.903001  0.883989  0.774573  1
  I  I18  1  0.286992  0.929603  0.458188  1
  I  I19  1  0.727339  0.079700  0.530124  1
  I  I20  1  0.331707  0.429572  0.650359  1
  I  I21  1  0.670755  0.584521  0.340533  1
  I  I22  1  0.875312  0.376751  0.685990  1
  I  I23  1  0.149583  0.624085  0.293272  1
  I  I24  1  0.943887  0.659993  0.576093  1
  I  I25  1  0.062032  0.349049  0.428998  1
  I  I26  1  0.248646  0.627076  0.118419  1
  I  I27  1  0.743519  0.375707  0.855682  1
