# generated using pymatgen
data_Tb6YScO12
_symmetry_space_group_name_H-M   'P 1'
_cell_length_a   6.70290931
_cell_length_b   6.70291064
_cell_length_c   6.70291009
_cell_angle_alpha   92.59783366
_cell_angle_beta   92.59783568
_cell_angle_gamma   92.59783876
_symmetry_Int_Tables_number   1
_chemical_formula_structural   Tb6YScO12
_chemical_formula_sum   'Tb6 Y1 Sc1 O12'
_cell_volume   300.19746696
_cell_formula_units_Z   1
loop_
 _symmetry_equiv_pos_site_id
 _symmetry_equiv_pos_as_xyz
  1  'x, y, z'
loop_
 _atom_site_type_symbol
 _atom_site_label
 _atom_site_symmetry_multiplicity
 _atom_site_fract_x
 _atom_site_fract_y
 _atom_site_fract_z
 _atom_site_occupancy
  Tb  Tb0  1  0.742447  0.930066  0.439674  1
  Tb  Tb1  1  0.439674  0.742447  0.930066  1
  Tb  Tb2  1  0.069934  0.560326  0.257553  1
  Tb  Tb3  1  0.930066  0.439674  0.742447  1
  Tb  Tb4  1  0.560326  0.257553  0.069934  1
  Tb  Tb5  1  0.257553  0.069934  0.560326  1
  Y  Y6  1  0.000000  0.000000  0.000000  1
  Sc  Sc7  1  0.500000  0.500000  0.500000  1
  O  O8  1  0.068175  0.905960  0.317187  1
  O  O9  1  0.682813  0.931825  0.094040  1
  O  O10  1  0.464443  0.804585  0.592282  1
  O  O11  1  0.094040  0.682813  0.931825  1
  O  O12  1  0.804585  0.592282  0.464443  1
  O  O13  1  0.407718  0.535557  0.195415  1
  O  O14  1  0.592282  0.464443  0.804585  1
  O  O15  1  0.195415  0.407718  0.535557  1
  O  O16  1  0.905960  0.317187  0.068175  1
  O  O17  1  0.535557  0.195415  0.407718  1
  O  O18  1  0.317187  0.068175  0.905960  1
  O  O19  1  0.931825  0.094040  0.682813  1
