# generated using pymatgen
data_Hf2Pa(CoCu2)2
_symmetry_space_group_name_H-M   'P 1'
_cell_length_a   6.81852500
_cell_length_b   6.89058227
_cell_length_c   3.43983900
_cell_angle_alpha   90.00000000
_cell_angle_beta   90.00000000
_cell_angle_gamma   120.35019739
_symmetry_Int_Tables_number   1
_chemical_formula_structural   Hf2Pa(CoCu2)2
_chemical_formula_sum   'Hf2 Pa1 Co2 Cu4'
_cell_volume   139.46708304
_cell_formula_units_Z   1
loop_
 _symmetry_equiv_pos_site_id
 _symmetry_equiv_pos_as_xyz
  1  'x, y, z'
loop_
 _atom_site_type_symbol
 _atom_site_label
 _atom_site_symmetry_multiplicity
 _atom_site_fract_x
 _atom_site_fract_y
 _atom_site_fract_z
 _atom_site_occupancy
  Hf  Hf0  1  0.411208  0.409500  0.500000  1
  Hf  Hf1  1  0.588792  0.998292  0.500000  1
  Pa  Pa2  1  0.000000  0.573653  0.500000  1
  Co  Co3  1  0.690918  0.353502  0.000000  1
  Co  Co4  1  0.309082  0.662585  0.000000  1
  Cu  Cu5  1  0.000000  0.994611  0.500000  1
  Cu  Cu6  1  0.274758  0.022892  0.000000  1
  Cu  Cu7  1  0.725242  0.748133  0.000000  1
  Cu  Cu8  1  0.000000  0.236833  0.000000  1
