# generated using pymatgen
data_AcTh3(Ga3Ir)6
_symmetry_space_group_name_H-M   'P 1'
_cell_length_a   7.75555302
_cell_length_b   7.76105002
_cell_length_c   9.56815000
_cell_angle_alpha   90.00000000
_cell_angle_beta   90.00000000
_cell_angle_gamma   119.80229394
_symmetry_Int_Tables_number   1
_chemical_formula_structural   AcTh3(Ga3Ir)6
_chemical_formula_sum   'Ac1 Th3 Ga18 Ir6'
_cell_volume   499.75094814
_cell_formula_units_Z   1
loop_
 _symmetry_equiv_pos_site_id
 _symmetry_equiv_pos_as_xyz
  1  'x, y, z'
loop_
 _atom_site_type_symbol
 _atom_site_label
 _atom_site_symmetry_multiplicity
 _atom_site_fract_x
 _atom_site_fract_y
 _atom_site_fract_z
 _atom_site_occupancy
  Ac  Ac0  1  0.996638  0.668722  0.250000  1
  Th  Th1  1  0.003625  0.331441  0.750000  1
  Th  Th2  1  0.668653  0.997060  0.250000  1
  Th  Th3  1  0.331053  0.003310  0.750000  1
  Ga  Ga4  1  0.132083  0.134054  0.250000  1
  Ga  Ga5  1  0.868068  0.868575  0.750000  1
  Ga  Ga6  1  0.003399  0.332381  0.076503  1
  Ga  Ga7  1  0.996460  0.665636  0.919541  1
  Ga  Ga8  1  0.996460  0.665636  0.580459  1
  Ga  Ga9  1  0.336296  0.005263  0.423562  1
  Ga  Ga10  1  0.003399  0.332381  0.423497  1
  Ga  Ga11  1  0.665798  0.996905  0.578709  1
  Ga  Ga12  1  0.665798  0.996905  0.921291  1
  Ga  Ga13  1  0.336296  0.005263  0.076438  1
  Ga  Ga14  1  0.336153  0.336103  0.562049  1
  Ga  Ga15  1  0.662142  0.663723  0.440600  1
  Ga  Ga16  1  0.662142  0.663723  0.059400  1
  Ga  Ga17  1  0.336153  0.336103  0.937951  1
  Ga  Ga18  1  0.341170  0.542496  0.250000  1
  Ga  Ga19  1  0.660402  0.456811  0.750000  1
  Ga  Ga20  1  0.539599  0.336279  0.250000  1
  Ga  Ga21  1  0.457260  0.660814  0.750000  1
  Ir  Ir22  1  0.670647  0.325914  0.997660  1
  Ir  Ir23  1  0.329252  0.672137  0.997552  1
  Ir  Ir24  1  0.329252  0.672137  0.502448  1
  Ir  Ir25  1  0.670647  0.325914  0.502340  1
  Ir  Ir26  1  0.000579  0.002157  0.997496  1
  Ir  Ir27  1  0.000579  0.002157  0.502504  1
