# generated using pymatgen
data_Ho7LuInPb3Au8
_symmetry_space_group_name_H-M   'P 1'
_cell_length_a   8.09345271
_cell_length_b   8.09292774
_cell_length_c   7.28495403
_cell_angle_alpha   90.00997612
_cell_angle_beta   89.99901583
_cell_angle_gamma   89.84180138
_symmetry_Int_Tables_number   1
_chemical_formula_structural   Ho7LuInPb3Au8
_chemical_formula_sum   'Ho7 Lu1 In1 Pb3 Au8'
_cell_volume   477.16068114
_cell_formula_units_Z   1
loop_
 _symmetry_equiv_pos_site_id
 _symmetry_equiv_pos_as_xyz
  1  'x, y, z'
loop_
 _atom_site_type_symbol
 _atom_site_label
 _atom_site_symmetry_multiplicity
 _atom_site_fract_x
 _atom_site_fract_y
 _atom_site_fract_z
 _atom_site_occupancy
  Ho  Ho0  1  0.847154  0.156999  0.497735  1
  Ho  Ho1  1  0.152835  0.842959  0.497739  1
  Ho  Ho2  1  0.343018  0.346958  0.002212  1
  Ho  Ho3  1  0.657185  0.652792  0.002244  1
  Ho  Ho4  1  0.681808  0.679063  0.498540  1
  Ho  Ho5  1  0.318162  0.320963  0.498542  1
  Ho  Ho6  1  0.178885  0.818349  0.001462  1
  Lu  Lu7  1  0.821623  0.181415  0.001562  1
  In  In8  1  0.999913  0.499869  0.249828  1
  Pb  Pb9  1  0.500148  0.000090  0.249818  1
  Pb  Pb10  1  0.999893  0.499876  0.750157  1
  Pb  Pb11  1  0.500105  0.000113  0.750170  1
  Au  Au12  1  0.631962  0.374658  0.275777  1
  Au  Au13  1  0.368681  0.624634  0.276732  1
  Au  Au14  1  0.126893  0.126468  0.778032  1
  Au  Au15  1  0.872097  0.874528  0.778041  1
  Au  Au16  1  0.373860  0.627584  0.722536  1
  Au  Au17  1  0.626818  0.371759  0.723417  1
  Au  Au18  1  0.875062  0.869296  0.222775  1
  Au  Au19  1  0.123901  0.131628  0.222682  1
