# generated using pymatgen
data_TbHo5Al16Os7
_symmetry_space_group_name_H-M   'P 1'
_cell_length_a   8.95012335
_cell_length_b   8.94386625
_cell_length_c   8.94386519
_cell_angle_alpha   60.04628122
_cell_angle_beta   59.97685115
_cell_angle_gamma   59.97685089
_symmetry_Int_Tables_number   1
_chemical_formula_structural   TbHo5Al16Os7
_chemical_formula_sum   'Tb1 Ho5 Al16 Os7'
_cell_volume   506.24888893
_cell_formula_units_Z   1
loop_
 _symmetry_equiv_pos_site_id
 _symmetry_equiv_pos_as_xyz
  1  'x, y, z'
loop_
 _atom_site_type_symbol
 _atom_site_label
 _atom_site_symmetry_multiplicity
 _atom_site_fract_x
 _atom_site_fract_y
 _atom_site_fract_z
 _atom_site_occupancy
  Tb  Tb0  1  0.211453  0.788547  0.788547  1
  Ho  Ho1  1  0.788246  0.211754  0.211754  1
  Ho  Ho2  1  0.788067  0.211933  0.788162  1
  Ho  Ho3  1  0.788067  0.788162  0.211933  1
  Ho  Ho4  1  0.211838  0.788162  0.211933  1
  Ho  Ho5  1  0.211838  0.211933  0.788162  1
  Al  Al6  1  0.832014  0.832466  0.832466  1
  Al  Al7  1  0.832423  0.832523  0.502631  1
  Al  Al8  1  0.503054  0.832466  0.832466  1
  Al  Al9  1  0.832423  0.502631  0.832523  1
  Al  Al10  1  0.167477  0.167577  0.167577  1
  Al  Al11  1  0.167534  0.167986  0.496946  1
  Al  Al12  1  0.167534  0.496946  0.167986  1
  Al  Al13  1  0.497369  0.167577  0.167577  1
  Al  Al14  1  0.621204  0.620637  0.620637  1
  Al  Al15  1  0.620839  0.620712  0.137610  1
  Al  Al16  1  0.137521  0.620637  0.620637  1
  Al  Al17  1  0.620839  0.137610  0.620712  1
  Al  Al18  1  0.379288  0.379161  0.379161  1
  Al  Al19  1  0.379363  0.378796  0.862479  1
  Al  Al20  1  0.379363  0.862479  0.378796  1
  Al  Al21  1  0.862390  0.379161  0.379161  1
  Os  Os22  1  0.500075  0.499925  0.499925  1
  Os  Os23  1  0.999955  0.500045  0.500045  1
  Os  Os24  1  0.499955  0.000045  0.000045  1
  Os  Os25  1  0.500308  0.000373  0.499692  1
  Os  Os26  1  0.500308  0.499692  0.000373  1
  Os  Os27  1  0.999627  0.499692  0.000373  1
  Os  Os28  1  0.999627  0.000373  0.499692  1
