# generated using pymatgen
data_La8Tm12Si15Hg
_symmetry_space_group_name_H-M   'P 1'
_cell_length_a   7.51307748
_cell_length_b   7.78291732
_cell_length_c   14.78387600
_cell_angle_alpha   89.99691543
_cell_angle_beta   89.65087316
_cell_angle_gamma   90.24177364
_symmetry_Int_Tables_number   1
_chemical_formula_structural   La8Tm12Si15Hg
_chemical_formula_sum   'La8 Tm12 Si15 Hg1'
_cell_volume   864.44360301
_cell_formula_units_Z   1
loop_
 _symmetry_equiv_pos_site_id
 _symmetry_equiv_pos_as_xyz
  1  'x, y, z'
loop_
 _atom_site_type_symbol
 _atom_site_label
 _atom_site_symmetry_multiplicity
 _atom_site_fract_x
 _atom_site_fract_y
 _atom_site_fract_z
 _atom_site_occupancy
  La  La0  1  0.010869  0.170369  0.397948  1
  La  La1  1  0.515591  0.324326  0.397399  1
  La  La2  1  0.483769  0.673875  0.902531  1
  La  La3  1  0.492557  0.681124  0.601136  1
  La  La4  1  0.985597  0.831809  0.599503  1
  La  La5  1  0.983929  0.825982  0.903137  1
  La  La6  1  0.515176  0.325261  0.097570  1
  La  La7  1  0.016009  0.174674  0.098353  1
  Tm  Tm8  1  0.334115  0.168937  0.627933  1
  Tm  Tm9  1  0.670360  0.824918  0.374302  1
  Tm  Tm10  1  0.661978  0.994165  0.752174  1
  Tm  Tm11  1  0.173038  0.676211  0.372551  1
  Tm  Tm12  1  0.823391  0.323237  0.877644  1
  Tm  Tm13  1  0.821975  0.327229  0.624646  1
  Tm  Tm14  1  0.840057  0.494927  0.250184  1
  Tm  Tm15  1  0.341099  0.004062  0.248230  1
  Tm  Tm16  1  0.324541  0.174357  0.877030  1
  Tm  Tm17  1  0.174035  0.675721  0.123659  1
  Tm  Tm18  1  0.675230  0.824678  0.122983  1
  Tm  Tm19  1  0.159218  0.504895  0.753862  1
  Si  Si20  1  0.282514  0.876877  0.751901  1
  Si  Si21  1  0.469060  0.620607  0.247760  1
  Si  Si22  1  0.030006  0.124298  0.752071  1
  Si  Si23  1  0.531399  0.381081  0.752152  1
  Si  Si24  1  0.968435  0.879789  0.248665  1
  Si  Si25  1  0.715458  0.121897  0.247520  1
  Si  Si26  1  0.852079  0.533661  0.039154  1
  Si  Si27  1  0.351042  0.966232  0.039638  1
  Si  Si28  1  0.147250  0.465403  0.961990  1
  Si  Si29  1  0.649790  0.037208  0.537320  1
  Si  Si30  1  0.349209  0.964377  0.460485  1
  Si  Si31  1  0.840121  0.538696  0.457756  1
  Si  Si32  1  0.785641  0.622091  0.752216  1
  Si  Si33  1  0.215922  0.376471  0.248392  1
  Si  Si34  1  0.647356  0.032539  0.960673  1
  Hg  Hg35  1  0.162184  0.458012  0.539534  1
