# generated using pymatgen
data_Er2Lu3Mn2O12
_symmetry_space_group_name_H-M   'P 1'
_cell_length_a   6.71686556
_cell_length_b   6.71686579
_cell_length_c   7.09940099
_cell_angle_alpha   74.49532993
_cell_angle_beta   74.49533126
_cell_angle_gamma   50.03685230
_symmetry_Int_Tables_number   1
_chemical_formula_structural   Er2Lu3Mn2O12
_chemical_formula_sum   'Er2 Lu3 Mn2 O12'
_cell_volume   234.57043080
_cell_formula_units_Z   1
loop_
 _symmetry_equiv_pos_site_id
 _symmetry_equiv_pos_as_xyz
  1  'x, y, z'
loop_
 _atom_site_type_symbol
 _atom_site_label
 _atom_site_symmetry_multiplicity
 _atom_site_fract_x
 _atom_site_fract_y
 _atom_site_fract_z
 _atom_site_occupancy
  Er  Er0  1  0.692589  0.692589  0.165140  1
  Er  Er1  1  0.999785  0.999785  0.500508  1
  Lu  Lu2  1  0.304208  0.304208  0.358203  1
  Lu  Lu3  1  0.695700  0.695700  0.643406  1
  Lu  Lu4  1  0.307693  0.307693  0.834334  1
  Mn  Mn5  1  0.753911  0.246224  0.999524  1
  Mn  Mn6  1  0.246224  0.753911  0.999524  1
  O  O7  1  0.903831  0.423639  0.914787  1
  O  O8  1  0.423639  0.903831  0.914787  1
  O  O9  1  0.100673  0.572940  0.082405  1
  O  O10  1  0.572940  0.100673  0.082405  1
  O  O11  1  0.097498  0.595209  0.574811  1
  O  O12  1  0.595209  0.097498  0.574811  1
  O  O13  1  0.904329  0.402914  0.427988  1
  O  O14  1  0.402914  0.904329  0.427988  1
  O  O15  1  0.999175  0.999175  0.819201  1
  O  O16  1  0.000328  0.000328  0.180971  1
  O  O17  1  0.500228  0.500228  0.813920  1
  O  O18  1  0.499125  0.499125  0.185284  1
