# generated using pymatgen
data_YHo5H18
_symmetry_space_group_name_H-M   'P 1'
_cell_length_a   6.29424800
_cell_length_b   6.29438754
_cell_length_c   6.58802008
_cell_angle_alpha   89.98863417
_cell_angle_beta   90.00569483
_cell_angle_gamma   120.00071915
_symmetry_Int_Tables_number   1
_chemical_formula_structural   YHo5H18
_chemical_formula_sum   'Y1 Ho5 H18'
_cell_volume   226.03709640
_cell_formula_units_Z   1
loop_
 _symmetry_equiv_pos_site_id
 _symmetry_equiv_pos_as_xyz
  1  'x, y, z'
loop_
 _atom_site_type_symbol
 _atom_site_label
 _atom_site_symmetry_multiplicity
 _atom_site_fract_x
 _atom_site_fract_y
 _atom_site_fract_z
 _atom_site_occupancy
  Y  Y0  1  0.000000  0.670190  0.250167  1
  Ho  Ho1  1  0.670172  0.670351  0.750113  1
  Ho  Ho2  1  0.329828  0.000180  0.750113  1
  Ho  Ho3  1  0.000000  0.329454  0.750038  1
  Ho  Ho4  1  0.329662  0.329684  0.250079  1
  Ho  Ho5  1  0.670338  0.000021  0.250079  1
  H  H6  1  0.304461  0.304446  0.592081  1
  H  H7  1  0.695539  0.999986  0.592081  1
  H  H8  1  0.000000  0.695692  0.593641  1
  H  H9  1  0.694241  0.695573  0.091546  1
  H  H10  1  0.305759  0.001332  0.091546  1
  H  H11  1  0.000000  0.303664  0.091847  1
  H  H12  1  0.355683  0.355692  0.907812  1
  H  H13  1  0.644317  0.000009  0.907812  1
  H  H14  1  0.000000  0.644196  0.906280  1
  H  H15  1  0.643363  0.644315  0.408140  1
  H  H16  1  0.356637  0.000952  0.408140  1
  H  H17  1  0.000000  0.354219  0.408420  1
  H  H18  1  0.000000  0.999951  0.819225  1
  H  H19  1  0.000000  0.001848  0.319643  1
  H  H20  1  0.333284  0.666681  0.704420  1
  H  H21  1  0.666716  0.333396  0.704420  1
  H  H22  1  0.664806  0.331487  0.204187  1
  H  H23  1  0.335194  0.666682  0.204187  1
