# generated using pymatgen
data_CePa(ZnRh)2
_symmetry_space_group_name_H-M   'P 1'
_cell_length_a   3.96541800
_cell_length_b   7.06683950
_cell_length_c   8.35548217
_cell_angle_alpha   90.81951654
_cell_angle_beta   90.00000000
_cell_angle_gamma   90.00000000
_symmetry_Int_Tables_number   1
_chemical_formula_structural   CePa(ZnRh)2
_chemical_formula_sum   'Ce2 Pa2 Zn4 Rh4'
_cell_volume   234.12149700
_cell_formula_units_Z   2
loop_
 _symmetry_equiv_pos_site_id
 _symmetry_equiv_pos_as_xyz
  1  'x, y, z'
loop_
 _atom_site_type_symbol
 _atom_site_label
 _atom_site_symmetry_multiplicity
 _atom_site_fract_x
 _atom_site_fract_y
 _atom_site_fract_z
 _atom_site_occupancy
  Ce  Ce0  1  0.750000  0.948928  0.686085  1
  Ce  Ce1  1  0.250000  0.051072  0.313915  1
  Pa  Pa2  1  0.250000  0.549984  0.187318  1
  Pa  Pa3  1  0.750000  0.450016  0.812682  1
  Zn  Zn4  1  0.250000  0.627415  0.556551  1
  Zn  Zn5  1  0.750000  0.372585  0.443449  1
  Zn  Zn6  1  0.750000  0.878291  0.057324  1
  Zn  Zn7  1  0.250000  0.121709  0.942676  1
  Rh  Rh8  1  0.250000  0.719377  0.877984  1
  Rh  Rh9  1  0.750000  0.280623  0.122016  1
  Rh  Rh10  1  0.750000  0.747415  0.356026  1
  Rh  Rh11  1  0.250000  0.252585  0.643974  1
