# generated using pymatgen
data_Ho3Tm7(In2Bi)2
_symmetry_space_group_name_H-M   'P 1'
_cell_length_a   6.56792000
_cell_length_b   8.95479271
_cell_length_c   8.91027000
_cell_angle_alpha   119.83291998
_cell_angle_beta   89.99988066
_cell_angle_gamma   90.00004663
_symmetry_Int_Tables_number   1
_chemical_formula_structural   Ho3Tm7(In2Bi)2
_chemical_formula_sum   'Ho3 Tm7 In4 Bi2'
_cell_volume   454.60437397
_cell_formula_units_Z   1
loop_
 _symmetry_equiv_pos_site_id
 _symmetry_equiv_pos_as_xyz
  1  'x, y, z'
loop_
 _atom_site_type_symbol
 _atom_site_label
 _atom_site_symmetry_multiplicity
 _atom_site_fract_x
 _atom_site_fract_y
 _atom_site_fract_z
 _atom_site_occupancy
  Ho  Ho0  1  0.749996  0.228849  0.990652  1
  Ho  Ho1  1  0.750014  0.771032  0.761752  1
  Ho  Ho2  1  0.749991  0.999986  0.238276  1
  Tm  Tm3  1  0.492362  0.328664  0.667350  1
  Tm  Tm4  1  0.492354  0.671340  0.338685  1
  Tm  Tm5  1  0.007641  0.671331  0.338678  1
  Tm  Tm6  1  0.007643  0.328670  0.667357  1
  Tm  Tm7  1  0.250008  0.765711  0.000767  1
  Tm  Tm8  1  0.249993  0.234384  0.235111  1
  Tm  Tm9  1  0.249995  0.000024  0.763457  1
  In  In10  1  0.750002  0.000004  0.595156  1
  In  In11  1  0.249998  0.398522  0.003535  1
  In  In12  1  0.250000  0.601537  0.605038  1
  In  In13  1  0.250002  0.999994  0.397728  1
  Bi  Bi14  1  0.750000  0.603154  0.999839  1
  Bi  Bi15  1  0.749997  0.396799  0.396622  1
