# generated using pymatgen
data_Ca4TbDy(Si3Ru)8
_symmetry_space_group_name_H-M   'P 1'
_cell_length_a   10.17517150
_cell_length_b   10.17517073
_cell_length_c   8.15254872
_cell_angle_alpha   90.01603347
_cell_angle_beta   89.98396414
_cell_angle_gamma   132.76877142
_symmetry_Int_Tables_number   1
_chemical_formula_structural   Ca4TbDy(Si3Ru)8
_chemical_formula_sum   'Ca4 Tb1 Dy1 Si24 Ru8'
_cell_volume   619.62951512
_cell_formula_units_Z   1
loop_
 _symmetry_equiv_pos_site_id
 _symmetry_equiv_pos_as_xyz
  1  'x, y, z'
loop_
 _atom_site_type_symbol
 _atom_site_label
 _atom_site_symmetry_multiplicity
 _atom_site_fract_x
 _atom_site_fract_y
 _atom_site_fract_z
 _atom_site_occupancy
  Ca  Ca0  1  0.500072  0.499927  0.500038  1
  Ca  Ca1  1  0.999927  0.000072  0.999962  1
  Ca  Ca2  1  0.500679  0.000679  0.750000  1
  Ca  Ca3  1  0.999246  0.499246  0.250000  1
  Tb  Tb4  1  0.499229  0.999229  0.250000  1
  Dy  Dy5  1  0.000645  0.500645  0.750000  1
  Si  Si6  1  0.795409  0.205123  0.500233  1
  Si  Si7  1  0.294401  0.704961  0.999689  1
  Si  Si8  1  0.204961  0.794401  0.500311  1
  Si  Si9  1  0.705123  0.295409  0.999767  1
  Si  Si10  1  0.332418  0.335035  0.832302  1
  Si  Si11  1  0.664798  0.667840  0.167773  1
  Si  Si12  1  0.167840  0.164798  0.332227  1
  Si  Si13  1  0.835035  0.832418  0.667698  1
  Si  Si14  1  0.122589  0.889904  0.729667  1
  Si  Si15  1  0.110239  0.877416  0.270143  1
  Si  Si16  1  0.607966  0.375255  0.229746  1
  Si  Si17  1  0.624576  0.391999  0.770385  1
  Si  Si18  1  0.875255  0.107966  0.270254  1
  Si  Si19  1  0.891999  0.124576  0.729615  1
  Si  Si20  1  0.389904  0.622589  0.770333  1
  Si  Si21  1  0.377416  0.610239  0.229857  1
  Si  Si22  1  0.346526  0.112998  0.505584  1
  Si  Si23  1  0.887237  0.653990  0.494530  1
  Si  Si24  1  0.386506  0.153508  0.008653  1
  Si  Si25  1  0.846049  0.613211  0.991190  1
  Si  Si26  1  0.653508  0.886506  0.491347  1
  Si  Si27  1  0.113211  0.346049  0.508810  1
  Si  Si28  1  0.612998  0.846526  0.994416  1
  Si  Si29  1  0.153990  0.387237  0.005470  1
  Ru  Ru30  1  0.671062  0.329603  0.500241  1
  Ru  Ru31  1  0.169700  0.829617  0.999643  1
  Ru  Ru32  1  0.329617  0.669700  0.500357  1
  Ru  Ru33  1  0.829603  0.171062  0.999759  1
  Ru  Ru34  1  0.126776  0.126479  0.624778  1
  Ru  Ru35  1  0.873549  0.873461  0.375093  1
  Ru  Ru36  1  0.373461  0.373549  0.124907  1
  Ru  Ru37  1  0.626479  0.626776  0.875222  1
