# generated using pymatgen
data_LaPrInPd2
_symmetry_space_group_name_H-M   'P 1'
_cell_length_a   7.95852900
_cell_length_b   7.95277600
_cell_length_c   3.94129900
_cell_angle_alpha   90.00000000
_cell_angle_beta   90.00000000
_cell_angle_gamma   90.00000000
_symmetry_Int_Tables_number   1
_chemical_formula_structural   LaPrInPd2
_chemical_formula_sum   'La2 Pr2 In2 Pd4'
_cell_volume   249.45426663
_cell_formula_units_Z   2
loop_
 _symmetry_equiv_pos_site_id
 _symmetry_equiv_pos_as_xyz
  1  'x, y, z'
loop_
 _atom_site_type_symbol
 _atom_site_label
 _atom_site_symmetry_multiplicity
 _atom_site_fract_x
 _atom_site_fract_y
 _atom_site_fract_z
 _atom_site_occupancy
  La  La0  1  0.324364  0.825316  0.500000  1
  La  La1  1  0.824364  0.674684  0.500000  1
  Pr  Pr2  1  0.175021  0.324108  0.500000  1
  Pr  Pr3  1  0.675021  0.175892  0.500000  1
  In  In4  1  0.999726  0.001226  0.000000  1
  In  In5  1  0.499726  0.498774  0.000000  1
  Pd  Pd6  1  0.373809  0.125680  0.000000  1
  Pd  Pd7  1  0.873809  0.374320  0.000000  1
  Pd  Pd8  1  0.127080  0.627510  0.000000  1
  Pd  Pd9  1  0.627080  0.872490  0.000000  1
