# generated using pymatgen
data_HoTmLu4ReBi2
_symmetry_space_group_name_H-M   'P 1'
_cell_length_a   8.14831622
_cell_length_b   8.13701056
_cell_length_c   4.30702500
_cell_angle_alpha   90.00000000
_cell_angle_beta   90.00000000
_cell_angle_gamma   119.92882768
_symmetry_Int_Tables_number   1
_chemical_formula_structural   HoTmLu4ReBi2
_chemical_formula_sum   'Ho1 Tm1 Lu4 Re1 Bi2'
_cell_volume   247.48666280
_cell_formula_units_Z   1
loop_
 _symmetry_equiv_pos_site_id
 _symmetry_equiv_pos_as_xyz
  1  'x, y, z'
loop_
 _atom_site_type_symbol
 _atom_site_label
 _atom_site_symmetry_multiplicity
 _atom_site_fract_x
 _atom_site_fract_y
 _atom_site_fract_z
 _atom_site_occupancy
  Ho  Ho0  1  0.385376  0.385515  0.000000  1
  Tm  Tm1  1  0.617570  0.000339  0.000000  1
  Lu  Lu2  1  0.229929  0.999272  0.500000  1
  Lu  Lu3  1  0.999776  0.229964  0.500000  1
  Lu  Lu4  1  0.768462  0.767952  0.500000  1
  Lu  Lu5  1  0.000201  0.619162  0.000000  1
  Re  Re6  1  0.998444  0.997403  0.000000  1
  Bi  Bi7  1  0.332513  0.667380  0.500000  1
  Bi  Bi8  1  0.667726  0.333012  0.500000  1
