# generated using pymatgen
data_ThCoAs2Pd
_symmetry_space_group_name_H-M   'P 1'
_cell_length_a   4.29868900
_cell_length_b   4.29868900
_cell_length_c   9.62147300
_cell_angle_alpha   90.00000000
_cell_angle_beta   90.00000000
_cell_angle_gamma   90.00000000
_symmetry_Int_Tables_number   1
_chemical_formula_structural   ThCoAs2Pd
_chemical_formula_sum   'Th2 Co2 As4 Pd2'
_cell_volume   177.79257405
_cell_formula_units_Z   2
loop_
 _symmetry_equiv_pos_site_id
 _symmetry_equiv_pos_as_xyz
  1  'x, y, z'
loop_
 _atom_site_type_symbol
 _atom_site_label
 _atom_site_symmetry_multiplicity
 _atom_site_fract_x
 _atom_site_fract_y
 _atom_site_fract_z
 _atom_site_occupancy
  Th  Th0  1  0.000000  0.500000  0.260645  1
  Th  Th1  1  0.500000  0.000000  0.739355  1
  Co  Co2  1  0.000000  0.500000  0.605697  1
  Co  Co3  1  0.500000  0.000000  0.394303  1
  As  As4  1  0.000000  0.000000  0.500000  1
  As  As5  1  0.500000  0.500000  0.500000  1
  As  As6  1  0.000000  0.500000  0.847380  1
  As  As7  1  0.500000  0.000000  0.152620  1
  Pd  Pd8  1  0.000000  0.000000  0.000000  1
  Pd  Pd9  1  0.500000  0.500000  0.000000  1
