# generated using pymatgen
data_Pr4Nd(ThTe4)3
_symmetry_space_group_name_H-M   'P 1'
_cell_length_a   4.45796600
_cell_length_b   11.95669649
_cell_length_c   12.32530203
_cell_angle_alpha   89.55205230
_cell_angle_beta   90.00000000
_cell_angle_gamma   90.00000000
_symmetry_Int_Tables_number   1
_chemical_formula_structural   Pr4Nd(ThTe4)3
_chemical_formula_sum   'Pr4 Nd1 Th3 Te12'
_cell_volume   656.94990562
_cell_formula_units_Z   1
loop_
 _symmetry_equiv_pos_site_id
 _symmetry_equiv_pos_as_xyz
  1  'x, y, z'
loop_
 _atom_site_type_symbol
 _atom_site_label
 _atom_site_symmetry_multiplicity
 _atom_site_fract_x
 _atom_site_fract_y
 _atom_site_fract_z
 _atom_site_occupancy
  Pr  Pr0  1  0.250000  0.497384  0.699254  1
  Pr  Pr1  1  0.750000  0.502118  0.304373  1
  Pr  Pr2  1  0.750000  0.001141  0.800961  1
  Pr  Pr3  1  0.250000  0.000568  0.198050  1
  Nd  Nd4  1  0.250000  0.309858  0.019747  1
  Th  Th5  1  0.250000  0.188903  0.519109  1
  Th  Th6  1  0.750000  0.811194  0.480086  1
  Th  Th7  1  0.750000  0.688573  0.980786  1
  Te  Te8  1  0.250000  0.874904  0.953406  1
  Te  Te9  1  0.750000  0.122457  0.043543  1
  Te  Te10  1  0.750000  0.375597  0.546345  1
  Te  Te11  1  0.250000  0.624096  0.455057  1
  Te  Te12  1  0.250000  0.204216  0.773666  1
  Te  Te13  1  0.750000  0.797165  0.222947  1
  Te  Te14  1  0.750000  0.703570  0.723542  1
  Te  Te15  1  0.250000  0.298221  0.278129  1
  Te  Te16  1  0.250000  0.556901  0.117967  1
  Te  Te17  1  0.750000  0.443972  0.883762  1
  Te  Te18  1  0.750000  0.057586  0.382557  1
  Te  Te19  1  0.250000  0.941576  0.616715  1
