# generated using pymatgen
data_Ba2TbAg5Se6
_symmetry_space_group_name_H-M   'P 1'
_cell_length_a   4.39660600
_cell_length_b   7.62305587
_cell_length_c   11.66332792
_cell_angle_alpha   94.18636112
_cell_angle_beta   90.00000000
_cell_angle_gamma   106.76073594
_symmetry_Int_Tables_number   1
_chemical_formula_structural   Ba2TbAg5Se6
_chemical_formula_sum   'Ba2 Tb1 Ag5 Se6'
_cell_volume   373.20713535
_cell_formula_units_Z   1
loop_
 _symmetry_equiv_pos_site_id
 _symmetry_equiv_pos_as_xyz
  1  'x, y, z'
loop_
 _atom_site_type_symbol
 _atom_site_label
 _atom_site_symmetry_multiplicity
 _atom_site_fract_x
 _atom_site_fract_y
 _atom_site_fract_z
 _atom_site_occupancy
  Ba  Ba0  1  0.253747  0.507493  0.705105  1
  Ba  Ba1  1  0.746253  0.492507  0.294895  1
  Tb  Tb2  1  0.500000  0.000000  0.500000  1
  Ag  Ag3  1  0.019054  0.038107  0.253833  1
  Ag  Ag4  1  0.980946  0.961893  0.746167  1
  Ag  Ag5  1  0.356341  0.712683  0.036730  1
  Ag  Ag6  1  0.643659  0.287317  0.963270  1
  Ag  Ag7  1  0.000000  0.000000  0.000000  1
  Se  Se8  1  0.127261  0.254520  0.453466  1
  Se  Se9  1  0.872739  0.745480  0.546534  1
  Se  Se10  1  0.159614  0.319228  0.100802  1
  Se  Se11  1  0.840386  0.680772  0.899198  1
  Se  Se12  1  0.412809  0.825618  0.264415  1
  Se  Se13  1  0.587191  0.174382  0.735585  1
