# generated using pymatgen
data_Gd4Sb5Rh8
_symmetry_space_group_name_H-M   'P 1'
_cell_length_a   7.77831608
_cell_length_b   7.77831582
_cell_length_c   7.77831700
_cell_angle_alpha   109.13502640
_cell_angle_beta   109.63956713
_cell_angle_gamma   109.63957784
_symmetry_Int_Tables_number   1
_chemical_formula_structural   Gd4Sb5Rh8
_chemical_formula_sum   'Gd4 Sb5 Rh8'
_cell_volume   362.26282493
_cell_formula_units_Z   1
loop_
 _symmetry_equiv_pos_site_id
 _symmetry_equiv_pos_as_xyz
  1  'x, y, z'
loop_
 _atom_site_type_symbol
 _atom_site_label
 _atom_site_symmetry_multiplicity
 _atom_site_fract_x
 _atom_site_fract_y
 _atom_site_fract_z
 _atom_site_occupancy
  Gd  Gd0  1  0.550802  0.033414  0.033414  1
  Gd  Gd1  1  0.000000  0.482613  0.033414  1
  Gd  Gd2  1  0.000000  0.033414  0.482613  1
  Gd  Gd3  1  0.449198  0.482613  0.482613  1
  Sb  Sb4  1  0.681290  0.994114  0.675405  1
  Sb  Sb5  1  0.681290  0.675405  0.994114  1
  Sb  Sb6  1  0.000000  0.669893  0.669893  1
  Sb  Sb7  1  0.318710  0.994114  0.312823  1
  Sb  Sb8  1  0.318710  0.312823  0.994114  1
  Rh  Rh9  1  0.000000  0.307364  0.307364  1
  Rh  Rh10  1  0.000000  0.979641  0.979641  1
  Rh  Rh11  1  0.500000  0.748020  0.248020  1
  Rh  Rh12  1  0.748978  0.509638  0.258617  1
  Rh  Rh13  1  0.251022  0.760660  0.509638  1
  Rh  Rh14  1  0.251022  0.509638  0.760660  1
  Rh  Rh15  1  0.500000  0.248020  0.748020  1
  Rh  Rh16  1  0.748978  0.258617  0.509638  1
