# generated using pymatgen
data_Zr8Fe7Si14Pd
_symmetry_space_group_name_H-M   'P 1'
_cell_length_a   9.57405120
_cell_length_b   9.57405104
_cell_length_c   9.58268003
_cell_angle_alpha   94.09707155
_cell_angle_beta   94.09707271
_cell_angle_gamma   148.77229637
_symmetry_Int_Tables_number   1
_chemical_formula_structural   Zr8Fe7Si14Pd
_chemical_formula_sum   'Zr8 Fe7 Si14 Pd1'
_cell_volume   439.04662590
_cell_formula_units_Z   1
loop_
 _symmetry_equiv_pos_site_id
 _symmetry_equiv_pos_as_xyz
  1  'x, y, z'
loop_
 _atom_site_type_symbol
 _atom_site_label
 _atom_site_symmetry_multiplicity
 _atom_site_fract_x
 _atom_site_fract_y
 _atom_site_fract_z
 _atom_site_occupancy
  Zr  Zr0  1  0.699044  0.502252  0.195011  1
  Zr  Zr1  1  0.496374  0.694020  0.196076  1
  Zr  Zr2  1  0.497748  0.300956  0.804989  1
  Zr  Zr3  1  0.305980  0.503626  0.803924  1
  Zr  Zr4  1  0.864787  0.865603  0.725516  1
  Zr  Zr5  1  0.138175  0.861825  0.000000  1
  Zr  Zr6  1  0.862010  0.137990  0.000000  1
  Zr  Zr7  1  0.134397  0.135213  0.274484  1
  Fe  Fe8  1  0.904942  0.401704  0.802116  1
  Fe  Fe9  1  0.598296  0.095058  0.197884  1
  Fe  Fe10  1  0.100801  0.603287  0.209257  1
  Fe  Fe11  1  0.601927  0.398073  0.500000  1
  Fe  Fe12  1  0.396713  0.899199  0.790743  1
  Fe  Fe13  1  0.899800  0.100200  0.500000  1
  Fe  Fe14  1  0.394013  0.605987  0.500000  1
  Si  Si15  1  0.748888  0.749134  0.999703  1
  Si  Si16  1  0.250866  0.251112  0.000297  1
  Si  Si17  1  0.087197  0.499784  0.594525  1
  Si  Si18  1  0.546106  0.130267  0.597224  1
  Si  Si19  1  0.500216  0.912803  0.405475  1
  Si  Si20  1  0.869733  0.453894  0.402776  1
  Si  Si21  1  0.705951  0.006663  0.701457  1
  Si  Si22  1  0.985009  0.682510  0.704741  1
  Si  Si23  1  0.687764  0.691770  0.419195  1
  Si  Si24  1  0.288995  0.711005  0.000000  1
  Si  Si25  1  0.317490  0.014991  0.295259  1
  Si  Si26  1  0.711248  0.288752  0.000000  1
  Si  Si27  1  0.308230  0.312236  0.580805  1
  Si  Si28  1  0.993337  0.294049  0.298543  1
  Pd  Pd29  1  0.103965  0.896035  0.500000  1
