# generated using pymatgen
data_Ti3BeN
_symmetry_space_group_name_H-M   'P 1'
_cell_length_a   5.34699875
_cell_length_b   5.34699908
_cell_length_c   8.07071800
_cell_angle_alpha   90.00000000
_cell_angle_beta   90.00000000
_cell_angle_gamma   146.68108668
_symmetry_Int_Tables_number   1
_chemical_formula_structural   Ti3BeN
_chemical_formula_sum   'Ti6 Be2 N2'
_cell_volume   126.74794494
_cell_formula_units_Z   2
loop_
 _symmetry_equiv_pos_site_id
 _symmetry_equiv_pos_as_xyz
  1  'x, y, z'
loop_
 _atom_site_type_symbol
 _atom_site_label
 _atom_site_symmetry_multiplicity
 _atom_site_fract_x
 _atom_site_fract_y
 _atom_site_fract_z
 _atom_site_occupancy
  Ti  Ti0  1  0.630459  0.369541  0.550172  1
  Ti  Ti1  1  0.369541  0.630459  0.050172  1
  Ti  Ti2  1  0.369541  0.630459  0.449828  1
  Ti  Ti3  1  0.630459  0.369541  0.949828  1
  Ti  Ti4  1  0.945590  0.054410  0.750000  1
  Ti  Ti5  1  0.054410  0.945590  0.250000  1
  Be  Be6  1  0.253941  0.746059  0.750000  1
  Be  Be7  1  0.746059  0.253941  0.250000  1
  N  N8  1  0.000000  0.000000  0.500000  1
  N  N9  1  0.000000  0.000000  0.000000  1
