# generated using pymatgen
data_ErPa(CoP)4
_symmetry_space_group_name_H-M   'P 1'
_cell_length_a   3.94549000
_cell_length_b   3.94549000
_cell_length_c   8.96673900
_cell_angle_alpha   90.00000000
_cell_angle_beta   90.00000000
_cell_angle_gamma   90.00000000
_symmetry_Int_Tables_number   1
_chemical_formula_structural   ErPa(CoP)4
_chemical_formula_sum   'Er1 Pa1 Co4 P4'
_cell_volume   139.58425169
_cell_formula_units_Z   1
loop_
 _symmetry_equiv_pos_site_id
 _symmetry_equiv_pos_as_xyz
  1  'x, y, z'
loop_
 _atom_site_type_symbol
 _atom_site_label
 _atom_site_symmetry_multiplicity
 _atom_site_fract_x
 _atom_site_fract_y
 _atom_site_fract_z
 _atom_site_occupancy
  Er  Er0  1  0.000000  0.500000  0.250503  1
  Pa  Pa1  1  0.500000  0.000000  0.751313  1
  Co  Co2  1  0.500000  0.500000  0.995375  1
  Co  Co3  1  0.000000  0.000000  0.995375  1
  Co  Co4  1  0.500000  0.000000  0.389598  1
  Co  Co5  1  0.000000  0.500000  0.616126  1
  P  P6  1  0.500000  0.000000  0.136898  1
  P  P7  1  0.000000  0.500000  0.867773  1
  P  P8  1  0.500000  0.500000  0.498520  1
  P  P9  1  0.000000  0.000000  0.498520  1
