# generated using pymatgen
data_Al12Co7Si4Os
_symmetry_space_group_name_H-M   'P 1'
_cell_length_a   7.64495565
_cell_length_b   7.64495527
_cell_length_c   7.64495510
_cell_angle_alpha   60.02113863
_cell_angle_beta   60.02113993
_cell_angle_gamma   60.02113923
_symmetry_Int_Tables_number   1
_chemical_formula_structural   Al12Co7Si4Os
_chemical_formula_sum   'Al12 Co7 Si4 Os1'
_cell_volume   316.09522183
_cell_formula_units_Z   1
loop_
 _symmetry_equiv_pos_site_id
 _symmetry_equiv_pos_as_xyz
  1  'x, y, z'
loop_
 _atom_site_type_symbol
 _atom_site_label
 _atom_site_symmetry_multiplicity
 _atom_site_fract_x
 _atom_site_fract_y
 _atom_site_fract_z
 _atom_site_occupancy
  Al  Al0  1  0.797858  0.797858  0.208961  1
  Al  Al1  1  0.199882  0.199882  0.800583  1
  Al  Al2  1  0.797858  0.208961  0.797858  1
  Al  Al3  1  0.199882  0.800583  0.199882  1
  Al  Al4  1  0.208961  0.797858  0.797858  1
  Al  Al5  1  0.800583  0.199882  0.199882  1
  Al  Al6  1  0.449732  0.449732  0.050692  1
  Al  Al7  1  0.052145  0.052145  0.446262  1
  Al  Al8  1  0.449732  0.050692  0.449732  1
  Al  Al9  1  0.052145  0.446262  0.052145  1
  Al  Al10  1  0.050692  0.449732  0.449732  1
  Al  Al11  1  0.446262  0.052145  0.052145  1
  Co  Co12  1  0.778574  0.406989  0.406989  1
  Co  Co13  1  0.406989  0.778574  0.406989  1
  Co  Co14  1  0.406989  0.406989  0.778574  1
  Co  Co15  1  0.407829  0.407829  0.407829  1
  Co  Co16  1  0.471487  0.841753  0.841753  1
  Co  Co17  1  0.841753  0.471487  0.841753  1
  Co  Co18  1  0.841753  0.841753  0.471487  1
  Si  Si19  1  0.130514  0.620716  0.620716  1
  Si  Si20  1  0.620716  0.130514  0.620716  1
  Si  Si21  1  0.620716  0.620716  0.130514  1
  Si  Si22  1  0.623951  0.623951  0.623951  1
  Os  Os23  1  0.842992  0.842992  0.842992  1
