# generated using pymatgen
data_Er20Zn3Cd3Co2
_symmetry_space_group_name_H-M   'P 1'
_cell_length_a   9.40276300
_cell_length_b   9.40276308
_cell_length_c   9.52634300
_cell_angle_alpha   90.00000000
_cell_angle_beta   90.00000000
_cell_angle_gamma   119.99999622
_symmetry_Int_Tables_number   1
_chemical_formula_structural   Er20Zn3Cd3Co2
_chemical_formula_sum   'Er20 Zn3 Cd3 Co2'
_cell_volume   729.40350446
_cell_formula_units_Z   1
loop_
 _symmetry_equiv_pos_site_id
 _symmetry_equiv_pos_as_xyz
  1  'x, y, z'
loop_
 _atom_site_type_symbol
 _atom_site_label
 _atom_site_symmetry_multiplicity
 _atom_site_fract_x
 _atom_site_fract_y
 _atom_site_fract_z
 _atom_site_occupancy
  Er  Er0  1  0.000000  0.000000  0.476227  1
  Er  Er1  1  0.000000  0.000000  0.023773  1
  Er  Er2  1  0.542555  0.457445  0.250000  1
  Er  Er3  1  0.542555  0.085112  0.250000  1
  Er  Er4  1  0.914888  0.457445  0.250000  1
  Er  Er5  1  0.457988  0.542012  0.750000  1
  Er  Er6  1  0.457988  0.915975  0.750000  1
  Er  Er7  1  0.084025  0.542012  0.750000  1
  Er  Er8  1  0.210249  0.789751  0.435730  1
  Er  Er9  1  0.210249  0.420499  0.435730  1
  Er  Er10  1  0.579501  0.789751  0.435730  1
  Er  Er11  1  0.789125  0.210875  0.560451  1
  Er  Er12  1  0.789125  0.578249  0.560451  1
  Er  Er13  1  0.421751  0.210875  0.560451  1
  Er  Er14  1  0.789125  0.210875  0.939549  1
  Er  Er15  1  0.789125  0.578249  0.939549  1
  Er  Er16  1  0.421751  0.210875  0.939549  1
  Er  Er17  1  0.210249  0.789751  0.064270  1
  Er  Er18  1  0.210249  0.420499  0.064270  1
  Er  Er19  1  0.579501  0.789751  0.064270  1
  Zn  Zn20  1  0.879090  0.120910  0.250000  1
  Zn  Zn21  1  0.879090  0.758180  0.250000  1
  Zn  Zn22  1  0.241820  0.120910  0.250000  1
  Cd  Cd23  1  0.110209  0.889791  0.750000  1
  Cd  Cd24  1  0.110209  0.220418  0.750000  1
  Cd  Cd25  1  0.779582  0.889791  0.750000  1
  Co  Co26  1  0.333333  0.666667  0.250000  1
  Co  Co27  1  0.666667  0.333333  0.750000  1
