# generated using pymatgen
data_KRb5Tb2F12
_symmetry_space_group_name_H-M   'P 1'
_cell_length_a   6.86102552
_cell_length_b   6.62412674
_cell_length_c   11.48032338
_cell_angle_alpha   55.32203797
_cell_angle_beta   89.82097003
_cell_angle_gamma   90.18662055
_symmetry_Int_Tables_number   1
_chemical_formula_structural   KRb5Tb2F12
_chemical_formula_sum   'K1 Rb5 Tb2 F12'
_cell_volume   429.06694956
_cell_formula_units_Z   1
loop_
 _symmetry_equiv_pos_site_id
 _symmetry_equiv_pos_as_xyz
  1  'x, y, z'
loop_
 _atom_site_type_symbol
 _atom_site_label
 _atom_site_symmetry_multiplicity
 _atom_site_fract_x
 _atom_site_fract_y
 _atom_site_fract_z
 _atom_site_occupancy
  K  K0  1  0.000000  0.500000  0.500000  1
  Rb  Rb1  1  0.500000  0.500000  0.000000  1
  Rb  Rb2  1  0.048740  0.736223  0.750046  1
  Rb  Rb3  1  0.951260  0.263777  0.249954  1
  Rb  Rb4  1  0.550824  0.271281  0.744059  1
  Rb  Rb5  1  0.449176  0.728719  0.255941  1
  Tb  Tb6  1  0.500000  0.000000  0.500000  1
  Tb  Tb7  1  0.000000  0.000000  0.000000  1
  F  F8  1  0.762796  0.764470  0.561671  1
  F  F9  1  0.237204  0.235530  0.438329  1
  F  F10  1  0.266209  0.228175  0.935675  1
  F  F11  1  0.733791  0.771825  0.064325  1
  F  F12  1  0.450204  0.884863  0.718913  1
  F  F13  1  0.549796  0.115137  0.281087  1
  F  F14  1  0.952681  0.124522  0.776848  1
  F  F15  1  0.047319  0.875478  0.223152  1
  F  F16  1  0.317026  0.687356  0.542742  1
  F  F17  1  0.682974  0.312644  0.457258  1
  F  F18  1  0.828804  0.317540  0.954450  1
  F  F19  1  0.171196  0.682460  0.045550  1
