# generated using pymatgen
data_LaPrSi3Rh
_symmetry_space_group_name_H-M   'P 1'
_cell_length_a   8.32068273
_cell_length_b   8.29264728
_cell_length_c   4.28363000
_cell_angle_alpha   90.00000000
_cell_angle_beta   90.00000000
_cell_angle_gamma   119.88860884
_symmetry_Int_Tables_number   1
_chemical_formula_structural   LaPrSi3Rh
_chemical_formula_sum   'La2 Pr2 Si6 Rh2'
_cell_volume   256.26017578
_cell_formula_units_Z   2
loop_
 _symmetry_equiv_pos_site_id
 _symmetry_equiv_pos_as_xyz
  1  'x, y, z'
loop_
 _atom_site_type_symbol
 _atom_site_label
 _atom_site_symmetry_multiplicity
 _atom_site_fract_x
 _atom_site_fract_y
 _atom_site_fract_z
 _atom_site_occupancy
  La  La0  1  0.500000  0.500000  0.500000  1
  La  La1  1  0.500000  0.000000  0.500000  1
  Pr  Pr2  1  0.000000  0.000000  0.500000  1
  Pr  Pr3  1  0.000000  0.500000  0.500000  1
  Si  Si4  1  0.165489  0.332121  0.000000  1
  Si  Si5  1  0.668531  0.834266  0.000000  1
  Si  Si6  1  0.331469  0.165734  0.000000  1
  Si  Si7  1  0.165489  0.833368  0.000000  1
  Si  Si8  1  0.834511  0.667879  0.000000  1
  Si  Si9  1  0.834511  0.166632  0.000000  1
  Rh  Rh10  1  0.333621  0.666811  0.000000  1
  Rh  Rh11  1  0.666379  0.333189  0.000000  1
