# generated using pymatgen
data_ScAs(SeI)2
_symmetry_space_group_name_H-M   'P 1'
_cell_length_a   8.21036194
_cell_length_b   8.29954827
_cell_length_c   8.29954932
_cell_angle_alpha   60.17815245
_cell_angle_beta   60.35483867
_cell_angle_gamma   60.35483963
_symmetry_Int_Tables_number   1
_chemical_formula_structural   ScAs(SeI)2
_chemical_formula_sum   'Sc2 As2 Se4 I4'
_cell_volume   402.58017373
_cell_formula_units_Z   2
loop_
 _symmetry_equiv_pos_site_id
 _symmetry_equiv_pos_as_xyz
  1  'x, y, z'
loop_
 _atom_site_type_symbol
 _atom_site_label
 _atom_site_symmetry_multiplicity
 _atom_site_fract_x
 _atom_site_fract_y
 _atom_site_fract_z
 _atom_site_occupancy
  Sc  Sc0  1  0.099765  0.632476  0.632476  1
  Sc  Sc1  1  0.635283  0.632476  0.632476  1
  As  As2  1  0.653135  0.635754  0.057975  1
  As  As3  1  0.653135  0.057975  0.635754  1
  Se  Se4  1  0.862586  0.868029  0.406798  1
  Se  Se5  1  0.862586  0.406798  0.868029  1
  Se  Se6  1  0.413600  0.862794  0.862794  1
  Se  Se7  1  0.860810  0.862794  0.862794  1
  I  I8  1  0.873357  0.386132  0.386132  1
  I  I9  1  0.354377  0.386132  0.386132  1
  I  I10  1  0.365681  0.874262  0.394373  1
  I  I11  1  0.365681  0.394373  0.874262  1
