# generated using pymatgen
data_ScTa5Si7Ni16
_symmetry_space_group_name_H-M   'P 1'
_cell_length_a   7.96553257
_cell_length_b   7.97405735
_cell_length_c   7.96553157
_cell_angle_alpha   59.96459968
_cell_angle_beta   60.07082394
_cell_angle_gamma   59.96459696
_symmetry_Int_Tables_number   1
_chemical_formula_structural   ScTa5Si7Ni16
_chemical_formula_sum   'Sc1 Ta5 Si7 Ni16'
_cell_volume   357.76101087
_cell_formula_units_Z   1
loop_
 _symmetry_equiv_pos_site_id
 _symmetry_equiv_pos_as_xyz
  1  'x, y, z'
loop_
 _atom_site_type_symbol
 _atom_site_label
 _atom_site_symmetry_multiplicity
 _atom_site_fract_x
 _atom_site_fract_y
 _atom_site_fract_z
 _atom_site_occupancy
  Sc  Sc0  1  0.796650  0.203350  0.796650  1
  Ta  Ta1  1  0.204747  0.202393  0.797608  1
  Ta  Ta2  1  0.797608  0.795254  0.204747  1
  Ta  Ta3  1  0.797608  0.202392  0.204746  1
  Ta  Ta4  1  0.204746  0.795254  0.797608  1
  Ta  Ta5  1  0.200059  0.799941  0.200060  1
  Si  Si6  1  0.502321  0.497679  0.502321  1
  Si  Si7  1  0.499755  0.500245  0.001156  1
  Si  Si8  1  0.001156  0.998844  0.499755  1
  Si  Si9  1  0.499795  0.000205  0.499795  1
  Si  Si10  1  0.001156  0.500245  0.499755  1
  Si  Si11  1  0.499755  0.998844  0.001156  1
  Si  Si12  1  0.999795  0.500205  0.999795  1
  Ni  Ni13  1  0.501823  0.832292  0.833592  1
  Ni  Ni14  1  0.832823  0.502087  0.832823  1
  Ni  Ni15  1  0.833592  0.832292  0.501823  1
  Ni  Ni16  1  0.167708  0.498177  0.167708  1
  Ni  Ni17  1  0.167733  0.167177  0.497913  1
  Ni  Ni18  1  0.497913  0.167177  0.167733  1
  Ni  Ni19  1  0.832823  0.832267  0.832823  1
  Ni  Ni20  1  0.383127  0.383917  0.383127  1
  Ni  Ni21  1  0.150172  0.616873  0.616083  1
  Ni  Ni22  1  0.615054  0.147477  0.615054  1
  Ni  Ni23  1  0.616083  0.616873  0.150172  1
  Ni  Ni24  1  0.383127  0.849828  0.383127  1
  Ni  Ni25  1  0.377586  0.384946  0.852523  1
  Ni  Ni26  1  0.852523  0.384946  0.377586  1
  Ni  Ni27  1  0.615054  0.622414  0.615054  1
  Ni  Ni28  1  0.167708  0.166408  0.167708  1
