# generated using pymatgen
data_Th5Ta3(P3Ru4)4
_symmetry_space_group_name_H-M   'P 1'
_cell_length_a   12.86382700
_cell_length_b   12.86382591
_cell_length_c   3.99287700
_cell_angle_alpha   90.00000000
_cell_angle_beta   90.00000000
_cell_angle_gamma   120.00000024
_symmetry_Int_Tables_number   1
_chemical_formula_structural   Th5Ta3(P3Ru4)4
_chemical_formula_sum   'Th5 Ta3 P12 Ru16'
_cell_volume   572.21192909
_cell_formula_units_Z   1
loop_
 _symmetry_equiv_pos_site_id
 _symmetry_equiv_pos_as_xyz
  1  'x, y, z'
loop_
 _atom_site_type_symbol
 _atom_site_label
 _atom_site_symmetry_multiplicity
 _atom_site_fract_x
 _atom_site_fract_y
 _atom_site_fract_z
 _atom_site_occupancy
  Th  Th0  1  0.186889  0.186889  0.500000  1
  Th  Th1  1  0.813111  0.000000  0.500000  1
  Th  Th2  1  0.000000  0.813111  0.500000  1
  Th  Th3  1  0.333333  0.666667  0.000000  1
  Th  Th4  1  0.666667  0.333333  0.000000  1
  Ta  Ta5  1  0.564061  0.564061  0.000000  1
  Ta  Ta6  1  0.435939  0.000000  0.000000  1
  Ta  Ta7  1  0.000000  0.435939  0.000000  1
  P  P8  1  0.815530  0.815530  0.000000  1
  P  P9  1  0.184470  0.000000  0.000000  1
  P  P10  1  0.000000  0.184470  0.000000  1
  P  P11  1  0.167363  0.476437  0.500000  1
  P  P12  1  0.523563  0.690927  0.500000  1
  P  P13  1  0.309073  0.832637  0.500000  1
  P  P14  1  0.690927  0.523563  0.500000  1
  P  P15  1  0.832637  0.309073  0.500000  1
  P  P16  1  0.476437  0.167363  0.500000  1
  P  P17  1  0.365981  0.365981  0.000000  1
  P  P18  1  0.634019  0.000000  0.000000  1
  P  P19  1  0.000000  0.634019  0.000000  1
  Ru  Ru20  1  0.719721  0.719721  0.500000  1
  Ru  Ru21  1  0.280279  0.000000  0.500000  1
  Ru  Ru22  1  0.000000  0.280279  0.500000  1
  Ru  Ru23  1  0.182388  0.376563  0.000000  1
  Ru  Ru24  1  0.623437  0.805825  0.000000  1
  Ru  Ru25  1  0.194175  0.817612  0.000000  1
  Ru  Ru26  1  0.805825  0.623437  0.000000  1
  Ru  Ru27  1  0.817612  0.194175  0.000000  1
  Ru  Ru28  1  0.376563  0.182388  0.000000  1
  Ru  Ru29  1  0.362744  0.488599  0.500000  1
  Ru  Ru30  1  0.511401  0.874145  0.500000  1
  Ru  Ru31  1  0.125855  0.637256  0.500000  1
  Ru  Ru32  1  0.874145  0.511401  0.500000  1
  Ru  Ru33  1  0.637256  0.125855  0.500000  1
  Ru  Ru34  1  0.488599  0.362744  0.500000  1
  Ru  Ru35  1  0.000000  0.000000  0.000000  1
