# generated using pymatgen
data_YbHo3(Sc3Pt4)2
_symmetry_space_group_name_H-M   'P 1'
_cell_length_a   7.29877703
_cell_length_b   7.34020655
_cell_length_c   13.87777800
_cell_angle_alpha   90.22570370
_cell_angle_beta   90.31460812
_cell_angle_gamma   89.83333579
_symmetry_Int_Tables_number   1
_chemical_formula_structural   YbHo3(Sc3Pt4)2
_chemical_formula_sum   'Yb2 Ho6 Sc12 Pt16'
_cell_volume   743.47537099
_cell_formula_units_Z   2
loop_
 _symmetry_equiv_pos_site_id
 _symmetry_equiv_pos_as_xyz
  1  'x, y, z'
loop_
 _atom_site_type_symbol
 _atom_site_label
 _atom_site_symmetry_multiplicity
 _atom_site_fract_x
 _atom_site_fract_y
 _atom_site_fract_z
 _atom_site_occupancy
  Yb  Yb0  1  0.004270  0.176713  0.093296  1
  Yb  Yb1  1  0.995730  0.823287  0.906704  1
  Ho  Ho2  1  0.494052  0.676466  0.906209  1
  Ho  Ho3  1  0.993813  0.822441  0.594416  1
  Ho  Ho4  1  0.505948  0.323534  0.093791  1
  Ho  Ho5  1  0.006187  0.177559  0.405584  1
  Ho  Ho6  1  0.507574  0.322350  0.405766  1
  Ho  Ho7  1  0.492426  0.677650  0.594234  1
  Sc  Sc8  1  0.164600  0.500459  0.749961  1
  Sc  Sc9  1  0.835400  0.499541  0.250039  1
  Sc  Sc10  1  0.332590  0.000968  0.249867  1
  Sc  Sc11  1  0.667410  0.999032  0.750133  1
  Sc  Sc12  1  0.333819  0.164494  0.623635  1
  Sc  Sc13  1  0.666181  0.835506  0.376365  1
  Sc  Sc14  1  0.166048  0.664102  0.376009  1
  Sc  Sc15  1  0.666162  0.835579  0.124369  1
  Sc  Sc16  1  0.833952  0.335898  0.623991  1
  Sc  Sc17  1  0.333838  0.164421  0.875631  1
  Sc  Sc18  1  0.835003  0.335729  0.876061  1
  Sc  Sc19  1  0.164997  0.664271  0.123939  1
  Pt  Pt20  1  0.029948  0.123561  0.749268  1
  Pt  Pt21  1  0.970052  0.876439  0.250732  1
  Pt  Pt22  1  0.471276  0.623936  0.249346  1
  Pt  Pt23  1  0.528724  0.376064  0.750654  1
  Pt  Pt24  1  0.298633  0.855092  0.749346  1
  Pt  Pt25  1  0.701367  0.144908  0.250654  1
  Pt  Pt26  1  0.204043  0.356377  0.251487  1
  Pt  Pt27  1  0.795957  0.643623  0.748513  1
  Pt  Pt28  1  0.176146  0.458332  0.542787  1
  Pt  Pt29  1  0.823854  0.541668  0.457213  1
  Pt  Pt30  1  0.323599  0.958309  0.457056  1
  Pt  Pt31  1  0.821310  0.541936  0.043525  1
  Pt  Pt32  1  0.676401  0.041691  0.542944  1
  Pt  Pt33  1  0.178690  0.458064  0.956475  1
  Pt  Pt34  1  0.667087  0.045796  0.954479  1
  Pt  Pt35  1  0.332913  0.954204  0.045521  1
