# generated using pymatgen
data_Yb2Ga9CoRh2
_symmetry_space_group_name_H-M   'P 1'
_cell_length_a   7.47739993
_cell_length_b   7.47739949
_cell_length_c   9.62505700
_cell_angle_alpha   90.00000000
_cell_angle_beta   90.00000000
_cell_angle_gamma   119.79364697
_symmetry_Int_Tables_number   1
_chemical_formula_structural   Yb2Ga9CoRh2
_chemical_formula_sum   'Yb4 Ga18 Co2 Rh4'
_cell_volume   467.01887742
_cell_formula_units_Z   2
loop_
 _symmetry_equiv_pos_site_id
 _symmetry_equiv_pos_as_xyz
  1  'x, y, z'
loop_
 _atom_site_type_symbol
 _atom_site_label
 _atom_site_symmetry_multiplicity
 _atom_site_fract_x
 _atom_site_fract_y
 _atom_site_fract_z
 _atom_site_occupancy
  Yb  Yb0  1  0.997387  0.662499  0.250000  1
  Yb  Yb1  1  0.002613  0.337501  0.750000  1
  Yb  Yb2  1  0.662499  0.997387  0.250000  1
  Yb  Yb3  1  0.337501  0.002613  0.750000  1
  Ga  Ga4  1  0.113787  0.113787  0.250000  1
  Ga  Ga5  1  0.886213  0.886213  0.750000  1
  Ga  Ga6  1  0.002904  0.326188  0.073660  1
  Ga  Ga7  1  0.997096  0.673812  0.926340  1
  Ga  Ga8  1  0.997096  0.673812  0.573660  1
  Ga  Ga9  1  0.326188  0.002904  0.426340  1
  Ga  Ga10  1  0.002904  0.326188  0.426340  1
  Ga  Ga11  1  0.673812  0.997096  0.573660  1
  Ga  Ga12  1  0.673812  0.997096  0.926340  1
  Ga  Ga13  1  0.326188  0.002904  0.073660  1
  Ga  Ga14  1  0.326587  0.326587  0.560661  1
  Ga  Ga15  1  0.673413  0.673413  0.439339  1
  Ga  Ga16  1  0.673413  0.673413  0.060661  1
  Ga  Ga17  1  0.326587  0.326587  0.939339  1
  Ga  Ga18  1  0.336520  0.544595  0.250000  1
  Ga  Ga19  1  0.663480  0.455405  0.750000  1
  Ga  Ga20  1  0.544595  0.336520  0.250000  1
  Ga  Ga21  1  0.455405  0.663480  0.750000  1
  Co  Co22  1  0.000000  0.000000  0.000000  1
  Co  Co23  1  0.000000  0.000000  0.500000  1
  Rh  Rh24  1  0.672579  0.327421  0.000000  1
  Rh  Rh25  1  0.327421  0.672579  0.000000  1
  Rh  Rh26  1  0.327421  0.672579  0.500000  1
  Rh  Rh27  1  0.672579  0.327421  0.500000  1
