# generated using pymatgen
data_KHoSiS4
_symmetry_space_group_name_H-M   'P 1'
_cell_length_a   6.63456500
_cell_length_b   6.40805980
_cell_length_c   8.69526160
_cell_angle_alpha   72.10575538
_cell_angle_beta   90.00000000
_cell_angle_gamma   90.00000000
_symmetry_Int_Tables_number   1
_chemical_formula_structural   KHoSiS4
_chemical_formula_sum   'K2 Ho2 Si2 S8'
_cell_volume   351.79335269
_cell_formula_units_Z   2
loop_
 _symmetry_equiv_pos_site_id
 _symmetry_equiv_pos_as_xyz
  1  'x, y, z'
loop_
 _atom_site_type_symbol
 _atom_site_label
 _atom_site_symmetry_multiplicity
 _atom_site_fract_x
 _atom_site_fract_y
 _atom_site_fract_z
 _atom_site_occupancy
  K  K0  1  0.978096  0.729959  0.064666  1
  K  K1  1  0.478096  0.270041  0.935334  1
  Ho  Ho2  1  0.499249  0.230421  0.450628  1
  Ho  Ho3  1  0.999249  0.769579  0.549372  1
  Si  Si4  1  0.462454  0.781091  0.326225  1
  Si  Si5  1  0.962454  0.218909  0.673775  1
  S  S6  1  0.463710  0.584196  0.171218  1
  S  S7  1  0.229796  0.023377  0.280465  1
  S  S8  1  0.727832  0.979584  0.299795  1
  S  S9  1  0.905865  0.422409  0.432755  1
  S  S10  1  0.405865  0.577591  0.567245  1
  S  S11  1  0.227832  0.020416  0.700205  1
  S  S12  1  0.729796  0.976623  0.719535  1
  S  S13  1  0.963710  0.415804  0.828782  1
