# generated using pymatgen
data_Tb5Mg(Si3Pt2)4
_symmetry_space_group_name_H-M   'P 1'
_cell_length_a   4.25510800
_cell_length_b   8.47341020
_cell_length_c   12.86369900
_cell_angle_alpha   80.18851223
_cell_angle_beta   90.00000000
_cell_angle_gamma   90.00000000
_symmetry_Int_Tables_number   1
_chemical_formula_structural   Tb5Mg(Si3Pt2)4
_chemical_formula_sum   'Tb5 Mg1 Si12 Pt8'
_cell_volume   457.02049629
_cell_formula_units_Z   1
loop_
 _symmetry_equiv_pos_site_id
 _symmetry_equiv_pos_as_xyz
  1  'x, y, z'
loop_
 _atom_site_type_symbol
 _atom_site_label
 _atom_site_symmetry_multiplicity
 _atom_site_fract_x
 _atom_site_fract_y
 _atom_site_fract_z
 _atom_site_occupancy
  Tb  Tb0  1  0.250000  0.584377  0.186464  1
  Tb  Tb1  1  0.750000  0.233877  0.559541  1
  Tb  Tb2  1  0.750000  0.414400  0.812687  1
  Tb  Tb3  1  0.750000  0.928939  0.815924  1
  Tb  Tb4  1  0.250000  0.072670  0.186185  1
  Mg  Mg5  1  0.250000  0.768917  0.426312  1
  Si  Si6  1  0.750000  0.592490  0.568623  1
  Si  Si7  1  0.750000  0.127086  0.004219  1
  Si  Si8  1  0.750000  0.868791  0.572620  1
  Si  Si9  1  0.250000  0.696738  0.713834  1
  Si  Si10  1  0.750000  0.302574  0.289799  1
  Si  Si11  1  0.750000  0.805375  0.276929  1
  Si  Si12  1  0.250000  0.874147  0.995696  1
  Si  Si13  1  0.250000  0.194676  0.722074  1
  Si  Si14  1  0.250000  0.378755  0.004092  1
  Si  Si15  1  0.250000  0.125800  0.427030  1
  Si  Si16  1  0.750000  0.619040  0.999458  1
  Si  Si17  1  0.250000  0.414346  0.430205  1
  Pt  Pt18  1  0.750000  0.349286  0.102621  1
  Pt  Pt19  1  0.250000  0.968474  0.623087  1
  Pt  Pt20  1  0.750000  0.848559  0.088499  1
  Pt  Pt21  1  0.750000  0.021820  0.380253  1
  Pt  Pt22  1  0.250000  0.647970  0.901061  1
  Pt  Pt23  1  0.250000  0.152750  0.911198  1
  Pt  Pt24  1  0.750000  0.536765  0.379254  1
  Pt  Pt25  1  0.250000  0.471377  0.622335  1
