# generated using pymatgen
data_Ce9Ho(OsPb3)2
_symmetry_space_group_name_H-M   'P 1'
_cell_length_a   9.66233813
_cell_length_b   9.66233764
_cell_length_c   6.35342000
_cell_angle_alpha   90.00000000
_cell_angle_beta   90.00000000
_cell_angle_gamma   119.56652412
_symmetry_Int_Tables_number   1
_chemical_formula_structural   Ce9Ho(OsPb3)2
_chemical_formula_sum   'Ce9 Ho1 Os2 Pb6'
_cell_volume   515.92088424
_cell_formula_units_Z   1
loop_
 _symmetry_equiv_pos_site_id
 _symmetry_equiv_pos_as_xyz
  1  'x, y, z'
loop_
 _atom_site_type_symbol
 _atom_site_label
 _atom_site_symmetry_multiplicity
 _atom_site_fract_x
 _atom_site_fract_y
 _atom_site_fract_z
 _atom_site_occupancy
  Ce  Ce0  1  0.756837  0.756837  0.250000  1
  Ce  Ce1  1  0.239282  0.999791  0.250000  1
  Ce  Ce2  1  0.762157  0.999024  0.750000  1
  Ce  Ce3  1  0.332928  0.667369  0.500026  1
  Ce  Ce4  1  0.667369  0.332928  0.500026  1
  Ce  Ce5  1  0.999791  0.239282  0.250000  1
  Ce  Ce6  1  0.999024  0.762157  0.750000  1
  Ce  Ce7  1  0.332928  0.667369  0.999974  1
  Ce  Ce8  1  0.667369  0.332928  0.999974  1
  Ho  Ho9  1  0.245353  0.245353  0.750000  1
  Os  Os10  1  0.999924  0.999924  0.001539  1
  Os  Os11  1  0.999924  0.999924  0.498461  1
  Pb  Pb12  1  0.395444  0.395444  0.250000  1
  Pb  Pb13  1  0.601217  0.601217  0.750000  1
  Pb  Pb14  1  0.002386  0.395687  0.750000  1
  Pb  Pb15  1  0.602464  0.999916  0.250000  1
  Pb  Pb16  1  0.395687  0.002386  0.750000  1
  Pb  Pb17  1  0.999916  0.602464  0.250000  1
