# generated using pymatgen
data_Li3Sn(BiRh3)2
_symmetry_space_group_name_H-M   'P 1'
_cell_length_a   4.45904200
_cell_length_b   6.27027300
_cell_length_c   13.45222700
_cell_angle_alpha   90.00049375
_cell_angle_beta   89.99994229
_cell_angle_gamma   89.99987179
_symmetry_Int_Tables_number   1
_chemical_formula_structural   Li3Sn(BiRh3)2
_chemical_formula_sum   'Li6 Sn2 Bi4 Rh12'
_cell_volume   376.11633911
_cell_formula_units_Z   2
loop_
 _symmetry_equiv_pos_site_id
 _symmetry_equiv_pos_as_xyz
  1  'x, y, z'
loop_
 _atom_site_type_symbol
 _atom_site_label
 _atom_site_symmetry_multiplicity
 _atom_site_fract_x
 _atom_site_fract_y
 _atom_site_fract_z
 _atom_site_occupancy
  Li  Li0  1  0.999999  0.500125  0.996264  1
  Li  Li1  1  0.499824  0.999850  0.165553  1
  Li  Li2  1  0.999831  0.500139  0.334400  1
  Li  Li3  1  0.499998  0.999872  0.503766  1
  Li  Li4  1  0.000144  0.500093  0.668992  1
  Li  Li5  1  0.500152  0.999915  0.831032  1
  Sn  Sn6  1  0.000210  0.999983  0.669067  1
  Sn  Sn7  1  0.500138  0.500007  0.830933  1
  Bi  Bi8  1  0.000007  0.000043  0.995641  1
  Bi  Bi9  1  0.499853  0.499948  0.165072  1
  Bi  Bi10  1  0.999849  0.000043  0.334930  1
  Bi  Bi11  1  0.500003  0.499951  0.504356  1
  Rh  Rh12  1  0.499979  0.253371  0.997623  1
  Rh  Rh13  1  0.499973  0.746581  0.997535  1
  Rh  Rh14  1  0.999841  0.247704  0.166207  1
  Rh  Rh15  1  0.999851  0.752314  0.166222  1
  Rh  Rh16  1  0.499830  0.252292  0.333749  1
  Rh  Rh17  1  0.499840  0.747692  0.333814  1
  Rh  Rh18  1  0.999995  0.246658  0.502441  1
  Rh  Rh19  1  0.999995  0.753382  0.502417  1
  Rh  Rh20  1  0.500185  0.246366  0.668585  1
  Rh  Rh21  1  0.500164  0.753729  0.668708  1
  Rh  Rh22  1  0.000178  0.253618  0.831346  1
  Rh  Rh23  1  0.000162  0.746321  0.831346  1
