# generated using pymatgen
data_Pr2ErSn2Hg3
_symmetry_space_group_name_H-M   'P 1'
_cell_length_a   6.44100916
_cell_length_b   6.44100883
_cell_length_c   10.64293800
_cell_angle_alpha   90.00000000
_cell_angle_beta   90.00000000
_cell_angle_gamma   102.54699301
_symmetry_Int_Tables_number   1
_chemical_formula_structural   Pr2ErSn2Hg3
_chemical_formula_sum   'Pr4 Er2 Sn4 Hg6'
_cell_volume   430.99450786
_cell_formula_units_Z   2
loop_
 _symmetry_equiv_pos_site_id
 _symmetry_equiv_pos_as_xyz
  1  'x, y, z'
loop_
 _atom_site_type_symbol
 _atom_site_label
 _atom_site_symmetry_multiplicity
 _atom_site_fract_x
 _atom_site_fract_y
 _atom_site_fract_z
 _atom_site_occupancy
  Pr  Pr0  1  0.201406  0.798594  0.500000  1
  Pr  Pr1  1  0.201406  0.798594  0.000000  1
  Pr  Pr2  1  0.798594  0.201406  0.500000  1
  Pr  Pr3  1  0.798594  0.201406  0.000000  1
  Er  Er4  1  0.635033  0.635033  0.250000  1
  Er  Er5  1  0.364967  0.364967  0.750000  1
  Sn  Sn6  1  0.318560  0.318560  0.045496  1
  Sn  Sn7  1  0.681440  0.681440  0.954504  1
  Sn  Sn8  1  0.318560  0.318560  0.454504  1
  Sn  Sn9  1  0.681440  0.681440  0.545496  1
  Hg  Hg10  1  0.011289  0.011289  0.250000  1
  Hg  Hg11  1  0.988711  0.988711  0.750000  1
  Hg  Hg12  1  0.508387  0.071911  0.250000  1
  Hg  Hg13  1  0.928089  0.491613  0.750000  1
  Hg  Hg14  1  0.491613  0.928089  0.750000  1
  Hg  Hg15  1  0.071911  0.508387  0.250000  1
