# generated using pymatgen
data_K4NdUO6
_symmetry_space_group_name_H-M   'P 1'
_cell_length_a   6.31538503
_cell_length_b   6.31539074
_cell_length_c   6.65326049
_cell_angle_alpha   99.26490750
_cell_angle_beta   99.26509731
_cell_angle_gamma   119.90937135
_symmetry_Int_Tables_number   1
_chemical_formula_structural   K4NdUO6
_chemical_formula_sum   'K4 Nd1 U1 O6'
_cell_volume   217.80107697
_cell_formula_units_Z   1
loop_
 _symmetry_equiv_pos_site_id
 _symmetry_equiv_pos_as_xyz
  1  'x, y, z'
loop_
 _atom_site_type_symbol
 _atom_site_label
 _atom_site_symmetry_multiplicity
 _atom_site_fract_x
 _atom_site_fract_y
 _atom_site_fract_z
 _atom_site_occupancy
  K  K0  1  0.499442  0.500560  0.000000  1
  K  K1  1  0.005904  0.994093  0.499999  1
  K  K2  1  0.657787  0.342216  0.500001  1
  K  K3  1  0.340822  0.659181  0.500001  1
  Nd  Nd4  1  0.832205  0.167798  0.000001  1
  U  U5  1  0.166572  0.833431  0.000001  1
  O  O6  1  0.964086  0.592737  0.192593  1
  O  O7  1  0.538574  0.937812  0.193866  1
  O  O8  1  0.193996  0.168837  0.193345  1
  O  O9  1  0.831167  0.806006  0.806658  1
  O  O10  1  0.062190  0.461428  0.806136  1
  O  O11  1  0.407264  0.035912  0.807407  1
