# generated using pymatgen
data_DyEr3(Pa2Ga5)4
_symmetry_space_group_name_H-M   'P 1'
_cell_length_a   6.08311103
_cell_length_b   9.50299400
_cell_length_c   11.67358105
_cell_angle_alpha   90.00000000
_cell_angle_beta   89.98899364
_cell_angle_gamma   90.00000000
_symmetry_Int_Tables_number   1
_chemical_formula_structural   DyEr3(Pa2Ga5)4
_chemical_formula_sum   'Dy1 Er3 Pa8 Ga20'
_cell_volume   674.82364818
_cell_formula_units_Z   1
loop_
 _symmetry_equiv_pos_site_id
 _symmetry_equiv_pos_as_xyz
  1  'x, y, z'
loop_
 _atom_site_type_symbol
 _atom_site_label
 _atom_site_symmetry_multiplicity
 _atom_site_fract_x
 _atom_site_fract_y
 _atom_site_fract_z
 _atom_site_occupancy
  Dy  Dy0  1  0.858085  0.750000  0.072264  1
  Er  Er1  1  0.642408  0.750000  0.572494  1
  Er  Er2  1  0.142399  0.250000  0.927433  1
  Er  Er3  1  0.357758  0.250000  0.427458  1
  Pa  Pa4  1  0.880916  0.503365  0.352053  1
  Pa  Pa5  1  0.619047  0.996808  0.851677  1
  Pa  Pa6  1  0.119081  0.003410  0.648059  1
  Pa  Pa7  1  0.380737  0.496388  0.148161  1
  Pa  Pa8  1  0.119081  0.496590  0.648059  1
  Pa  Pa9  1  0.380737  0.003612  0.148161  1
  Pa  Pa10  1  0.880916  0.996635  0.352053  1
  Pa  Pa11  1  0.619047  0.503192  0.851677  1
  Ga  Ga12  1  0.870557  0.053014  0.091143  1
  Ga  Ga13  1  0.629342  0.448170  0.590919  1
  Ga  Ga14  1  0.129729  0.551620  0.908754  1
  Ga  Ga15  1  0.370644  0.948174  0.409097  1
  Ga  Ga16  1  0.129729  0.948380  0.908754  1
  Ga  Ga17  1  0.370644  0.551826  0.409097  1
  Ga  Ga18  1  0.870557  0.446986  0.091143  1
  Ga  Ga19  1  0.629342  0.051830  0.590919  1
  Ga  Ga20  1  0.157512  0.750000  0.264374  1
  Ga  Ga21  1  0.343404  0.750000  0.763552  1
  Ga  Ga22  1  0.843421  0.250000  0.736310  1
  Ga  Ga23  1  0.656635  0.250000  0.236315  1
  Ga  Ga24  1  0.389325  0.750000  0.994390  1
  Ga  Ga25  1  0.109433  0.750000  0.494657  1
  Ga  Ga26  1  0.609160  0.250000  0.005350  1
  Ga  Ga27  1  0.890564  0.250000  0.505446  1
  Ga  Ga28  1  0.594994  0.750000  0.293156  1
  Ga  Ga29  1  0.904684  0.750000  0.792190  1
  Ga  Ga30  1  0.404691  0.250000  0.707397  1
  Ga  Ga31  1  0.095419  0.250000  0.207488  1
