# generated using pymatgen
data_Lu5(SiB4)2
_symmetry_space_group_name_H-M   'P 1'
_cell_length_a   7.11168900
_cell_length_b   7.11168900
_cell_length_c   7.88065000
_cell_angle_alpha   90.00000000
_cell_angle_beta   90.00000000
_cell_angle_gamma   90.00000000
_symmetry_Int_Tables_number   1
_chemical_formula_structural   Lu5(SiB4)2
_chemical_formula_sum   'Lu10 Si4 B16'
_cell_volume   398.57270349
_cell_formula_units_Z   2
loop_
 _symmetry_equiv_pos_site_id
 _symmetry_equiv_pos_as_xyz
  1  'x, y, z'
loop_
 _atom_site_type_symbol
 _atom_site_label
 _atom_site_symmetry_multiplicity
 _atom_site_fract_x
 _atom_site_fract_y
 _atom_site_fract_z
 _atom_site_occupancy
  Lu  Lu0  1  0.680230  0.180230  0.223553  1
  Lu  Lu1  1  0.319770  0.819770  0.776447  1
  Lu  Lu2  1  0.319770  0.819770  0.223553  1
  Lu  Lu3  1  0.819770  0.680230  0.223553  1
  Lu  Lu4  1  0.819770  0.680230  0.776447  1
  Lu  Lu5  1  0.680230  0.180230  0.776447  1
  Lu  Lu6  1  0.180230  0.319770  0.776447  1
  Lu  Lu7  1  0.180230  0.319770  0.223553  1
  Lu  Lu8  1  0.000000  0.000000  0.500000  1
  Lu  Lu9  1  0.500000  0.500000  0.500000  1
  Si  Si10  1  0.117073  0.617073  0.500000  1
  Si  Si11  1  0.882927  0.382927  0.500000  1
  Si  Si12  1  0.382927  0.117073  0.500000  1
  Si  Si13  1  0.617073  0.882927  0.500000  1
  B  B14  1  0.173085  0.039183  0.000000  1
  B  B15  1  0.826915  0.960817  0.000000  1
  B  B16  1  0.960817  0.173085  0.000000  1
  B  B17  1  0.326915  0.539183  0.000000  1
  B  B18  1  0.039183  0.826915  0.000000  1
  B  B19  1  0.673085  0.460817  0.000000  1
  B  B20  1  0.539183  0.673085  0.000000  1
  B  B21  1  0.460817  0.326915  0.000000  1
  B  B22  1  0.089052  0.589052  0.000000  1
  B  B23  1  0.910948  0.410948  0.000000  1
  B  B24  1  0.410948  0.089052  0.000000  1
  B  B25  1  0.589052  0.910948  0.000000  1
  B  B26  1  0.000000  0.000000  0.167621  1
  B  B27  1  0.000000  0.000000  0.832379  1
  B  B28  1  0.500000  0.500000  0.832379  1
  B  B29  1  0.500000  0.500000  0.167621  1
