# generated using pymatgen
data_Nd6Ho10Cd3InIr4
_symmetry_space_group_name_H-M   'P 1'
_cell_length_a   9.71666500
_cell_length_b   9.71666637
_cell_length_c   9.71666728
_cell_angle_alpha   60.19556936
_cell_angle_beta   60.19556576
_cell_angle_gamma   60.19557032
_symmetry_Int_Tables_number   1
_chemical_formula_structural   Nd6Ho10Cd3InIr4
_chemical_formula_sum   'Nd6 Ho10 Cd3 In1 Ir4'
_cell_volume   651.56221930
_cell_formula_units_Z   1
loop_
 _symmetry_equiv_pos_site_id
 _symmetry_equiv_pos_as_xyz
  1  'x, y, z'
loop_
 _atom_site_type_symbol
 _atom_site_label
 _atom_site_symmetry_multiplicity
 _atom_site_fract_x
 _atom_site_fract_y
 _atom_site_fract_z
 _atom_site_occupancy
  Nd  Nd0  1  0.944181  0.558340  0.558340  1
  Nd  Nd1  1  0.556841  0.943107  0.943107  1
  Nd  Nd2  1  0.558340  0.944181  0.558340  1
  Nd  Nd3  1  0.943107  0.556841  0.943107  1
  Nd  Nd4  1  0.558340  0.558340  0.944181  1
  Nd  Nd5  1  0.943107  0.943107  0.556841  1
  Ho  Ho6  1  0.346895  0.346895  0.346895  1
  Ho  Ho7  1  0.348695  0.348695  0.957133  1
  Ho  Ho8  1  0.348695  0.957133  0.348695  1
  Ho  Ho9  1  0.957133  0.348695  0.348695  1
  Ho  Ho10  1  0.811649  0.187093  0.187093  1
  Ho  Ho11  1  0.184861  0.811367  0.811367  1
  Ho  Ho12  1  0.187093  0.811649  0.187093  1
  Ho  Ho13  1  0.811367  0.184861  0.811367  1
  Ho  Ho14  1  0.187093  0.187093  0.811649  1
  Ho  Ho15  1  0.811367  0.811367  0.184861  1
  Cd  Cd16  1  0.579132  0.579132  0.260895  1
  Cd  Cd17  1  0.579132  0.260895  0.579132  1
  Cd  Cd18  1  0.260895  0.579132  0.579132  1
  In  In19  1  0.579762  0.579762  0.579762  1
  Ir  Ir20  1  0.141889  0.141889  0.141889  1
  Ir  Ir21  1  0.141914  0.141914  0.576599  1
  Ir  Ir22  1  0.141914  0.576599  0.141914  1
  Ir  Ir23  1  0.576599  0.141914  0.141914  1
