# generated using pymatgen
data_Pr3NdPdAu3
_symmetry_space_group_name_H-M   'P 1'
_cell_length_a   4.81490000
_cell_length_b   5.86762667
_cell_length_c   7.48365448
_cell_angle_alpha   88.99815519
_cell_angle_beta   90.00000000
_cell_angle_gamma   90.00000000
_symmetry_Int_Tables_number   1
_chemical_formula_structural   Pr3NdPdAu3
_chemical_formula_sum   'Pr3 Nd1 Pd1 Au3'
_cell_volume   211.39615249
_cell_formula_units_Z   1
loop_
 _symmetry_equiv_pos_site_id
 _symmetry_equiv_pos_as_xyz
  1  'x, y, z'
loop_
 _atom_site_type_symbol
 _atom_site_label
 _atom_site_symmetry_multiplicity
 _atom_site_fract_x
 _atom_site_fract_y
 _atom_site_fract_z
 _atom_site_occupancy
  Pr  Pr0  1  0.250000  0.356459  0.682707  1
  Pr  Pr1  1  0.750000  0.648616  0.318227  1
  Pr  Pr2  1  0.750000  0.853806  0.810466  1
  Nd  Nd3  1  0.250000  0.144738  0.187973  1
  Pd  Pd4  1  0.250000  0.851775  0.538503  1
  Au  Au5  1  0.250000  0.651589  0.041636  1
  Au  Au6  1  0.750000  0.146510  0.458128  1
  Au  Au7  1  0.750000  0.346504  0.962360  1
