# generated using pymatgen
data_K8Ni2O7
_symmetry_space_group_name_H-M   'P 1'
_cell_length_a   17.01525400
_cell_length_b   6.69071309
_cell_length_c   6.67561286
_cell_angle_alpha   61.14761278
_cell_angle_beta   90.00000000
_cell_angle_gamma   90.00000000
_symmetry_Int_Tables_number   1
_chemical_formula_structural   K8Ni2O7
_chemical_formula_sum   'K16 Ni4 O14'
_cell_volume   665.64024344
_cell_formula_units_Z   2
loop_
 _symmetry_equiv_pos_site_id
 _symmetry_equiv_pos_as_xyz
  1  'x, y, z'
loop_
 _atom_site_type_symbol
 _atom_site_label
 _atom_site_symmetry_multiplicity
 _atom_site_fract_x
 _atom_site_fract_y
 _atom_site_fract_z
 _atom_site_occupancy
  K  K0  1  0.709466  0.554649  0.228971  1
  K  K1  1  0.581175  0.003308  0.641814  1
  K  K2  1  0.790534  0.054649  0.228971  1
  K  K3  1  0.290534  0.445351  0.771029  1
  K  K4  1  0.689586  0.451472  0.784197  1
  K  K5  1  0.418825  0.996692  0.358186  1
  K  K6  1  0.310414  0.548528  0.215803  1
  K  K7  1  0.504754  0.548364  0.226306  1
  K  K8  1  0.810414  0.951472  0.784197  1
  K  K9  1  0.995246  0.048364  0.226306  1
  K  K10  1  0.081175  0.496692  0.358186  1
  K  K11  1  0.004754  0.951636  0.773694  1
  K  K12  1  0.495246  0.451636  0.773694  1
  K  K13  1  0.918825  0.503308  0.641814  1
  K  K14  1  0.189586  0.048528  0.215803  1
  K  K15  1  0.209466  0.945351  0.771029  1
  Ni  Ni16  1  0.098659  0.500734  0.853229  1
  Ni  Ni17  1  0.401341  0.000734  0.853229  1
  Ni  Ni18  1  0.598659  0.999266  0.146771  1
  Ni  Ni19  1  0.901341  0.499266  0.146771  1
  O  O20  1  0.320532  0.000245  0.047178  1
  O  O21  1  0.397178  0.267142  0.568164  1
  O  O22  1  0.897178  0.232858  0.431836  1
  O  O23  1  0.102822  0.767142  0.568164  1
  O  O24  1  0.179468  0.500245  0.047178  1
  O  O25  1  0.395462  0.733589  0.827204  1
  O  O26  1  0.895462  0.766411  0.172796  1
  O  O27  1  0.602822  0.732858  0.431836  1
  O  O28  1  0.000000  0.500000  0.000000  1
  O  O29  1  0.604538  0.266411  0.172796  1
  O  O30  1  0.679468  0.999755  0.952822  1
  O  O31  1  0.820532  0.499755  0.952822  1
  O  O32  1  0.500000  0.000000  0.000000  1
  O  O33  1  0.104538  0.233589  0.827204  1
