# generated using pymatgen
data_Nd8Np3PbO24
_symmetry_space_group_name_H-M   'P 1'
_cell_length_a   5.58214363
_cell_length_b   9.50989327
_cell_length_c   10.67533600
_cell_angle_alpha   89.89517942
_cell_angle_beta   90.78927403
_cell_angle_gamma   89.15279557
_symmetry_Int_Tables_number   1
_chemical_formula_structural   Nd8Np3PbO24
_chemical_formula_sum   'Nd8 Np3 Pb1 O24'
_cell_volume   566.58962552
_cell_formula_units_Z   1
loop_
 _symmetry_equiv_pos_site_id
 _symmetry_equiv_pos_as_xyz
  1  'x, y, z'
loop_
 _atom_site_type_symbol
 _atom_site_label
 _atom_site_symmetry_multiplicity
 _atom_site_fract_x
 _atom_site_fract_y
 _atom_site_fract_z
 _atom_site_occupancy
  Nd  Nd0  1  0.469334  0.619300  0.543293  1
  Nd  Nd1  1  0.994082  0.913135  0.465165  1
  Nd  Nd2  1  0.507965  0.092364  0.954785  1
  Nd  Nd3  1  0.026797  0.391451  0.041279  1
  Nd  Nd4  1  0.995758  0.792299  0.836880  1
  Nd  Nd5  1  0.448009  0.715390  0.129512  1
  Nd  Nd6  1  0.049518  0.272455  0.637566  1
  Nd  Nd7  1  0.541104  0.217572  0.382112  1
  Np  Np8  1  0.955322  0.506193  0.352791  1
  Np  Np9  1  0.538738  0.494503  0.855436  1
  Np  Np10  1  0.023341  0.005770  0.147374  1
  Pb  Pb11  1  0.483825  0.991913  0.648001  1
  O  O12  1  0.258356  0.101934  0.502941  1
  O  O13  1  0.747980  0.423073  0.495053  1
  O  O14  1  0.731691  0.573610  0.004338  1
  O  O15  1  0.234821  0.908406  0.005606  1
  O  O16  1  0.759528  0.123591  0.556370  1
  O  O17  1  0.228556  0.390652  0.435863  1
  O  O18  1  0.263064  0.612470  0.937130  1
  O  O19  1  0.749785  0.889679  0.081174  1
  O  O20  1  0.628180  0.836901  0.523342  1
  O  O21  1  0.084716  0.662436  0.456189  1
  O  O22  1  0.405020  0.336966  0.966091  1
  O  O23  1  0.889678  0.156729  0.032404  1
  O  O24  1  0.177599  0.861964  0.259192  1
  O  O25  1  0.687171  0.642820  0.745623  1
  O  O26  1  0.826110  0.354473  0.244166  1
  O  O27  1  0.284666  0.130198  0.770588  1
  O  O28  1  0.821835  0.053681  0.297767  1
  O  O29  1  0.329713  0.459749  0.702096  1
  O  O30  1  0.163631  0.547317  0.199029  1
  O  O31  1  0.710944  0.959005  0.809491  1
  O  O32  1  0.293462  0.138787  0.179829  1
  O  O33  1  0.827112  0.363156  0.827456  1
  O  O34  1  0.663326  0.631182  0.314209  1
  O  O35  1  0.199262  0.828874  0.659854  1
