# generated using pymatgen
data_Sr6Co5CuN6
_symmetry_space_group_name_H-M   'P 1'
_cell_length_a   5.25504077
_cell_length_b   9.16613623
_cell_length_c   13.32813468
_cell_angle_alpha   90.84536029
_cell_angle_beta   91.00136261
_cell_angle_gamma   89.27343904
_symmetry_Int_Tables_number   1
_chemical_formula_structural   Sr6Co5CuN6
_chemical_formula_sum   'Sr12 Co10 Cu2 N12'
_cell_volume   641.77771972
_cell_formula_units_Z   2
loop_
 _symmetry_equiv_pos_site_id
 _symmetry_equiv_pos_as_xyz
  1  'x, y, z'
loop_
 _atom_site_type_symbol
 _atom_site_label
 _atom_site_symmetry_multiplicity
 _atom_site_fract_x
 _atom_site_fract_y
 _atom_site_fract_z
 _atom_site_occupancy
  Sr  Sr0  1  0.015280  0.010779  0.248937  1
  Sr  Sr1  1  0.500904  0.491621  0.751051  1
  Sr  Sr2  1  0.499096  0.508379  0.248949  1
  Sr  Sr3  1  0.984720  0.989221  0.751063  1
  Sr  Sr4  1  0.026377  0.331806  0.084798  1
  Sr  Sr5  1  0.521127  0.166131  0.912249  1
  Sr  Sr6  1  0.973623  0.668194  0.915202  1
  Sr  Sr7  1  0.481214  0.833969  0.414131  1
  Sr  Sr8  1  0.975982  0.665950  0.587269  1
  Sr  Sr9  1  0.024018  0.334050  0.412731  1
  Sr  Sr10  1  0.518786  0.166031  0.585869  1
  Sr  Sr11  1  0.478873  0.833869  0.087751  1
  Co  Co12  1  0.544854  0.161583  0.160095  1
  Co  Co13  1  0.000000  0.000000  0.500000  1
  Co  Co14  1  0.500000  0.500000  0.500000  1
  Co  Co15  1  0.500000  0.500000  0.000000  1
  Co  Co16  1  0.000000  0.000000  0.000000  1
  Co  Co17  1  0.031896  0.339171  0.841116  1
  Co  Co18  1  0.968104  0.660829  0.158884  1
  Co  Co19  1  0.456873  0.840013  0.661874  1
  Co  Co20  1  0.455146  0.838417  0.839905  1
  Co  Co21  1  0.543127  0.159987  0.338126  1
  Cu  Cu22  1  0.027773  0.334098  0.658433  1
  Cu  Cu23  1  0.972227  0.665902  0.341567  1
  N  N24  1  0.732838  0.581619  0.423483  1
  N  N25  1  0.679992  0.758584  0.751220  1
  N  N26  1  0.196258  0.742500  0.245680  1
  N  N27  1  0.803742  0.257500  0.754320  1
  N  N28  1  0.320008  0.241416  0.248780  1
  N  N29  1  0.765990  0.081244  0.422427  1
  N  N30  1  0.267162  0.418381  0.576517  1
  N  N31  1  0.736728  0.579713  0.077856  1
  N  N32  1  0.233128  0.918355  0.923119  1
  N  N33  1  0.234010  0.918756  0.577573  1
  N  N34  1  0.263272  0.420287  0.922144  1
  N  N35  1  0.766872  0.081645  0.076881  1
