# generated using pymatgen
data_Sr3CaPr2U2O12
_symmetry_space_group_name_H-M   'P 1'
_cell_length_a   7.06163349
_cell_length_b   7.02155516
_cell_length_c   7.02739790
_cell_angle_alpha   91.79134001
_cell_angle_beta   91.37398722
_cell_angle_gamma   91.33712554
_symmetry_Int_Tables_number   1
_chemical_formula_structural   Sr3CaPr2U2O12
_chemical_formula_sum   'Sr3 Ca1 Pr2 U2 O12'
_cell_volume   348.07245498
_cell_formula_units_Z   1
loop_
 _symmetry_equiv_pos_site_id
 _symmetry_equiv_pos_as_xyz
  1  'x, y, z'
loop_
 _atom_site_type_symbol
 _atom_site_label
 _atom_site_symmetry_multiplicity
 _atom_site_fract_x
 _atom_site_fract_y
 _atom_site_fract_z
 _atom_site_occupancy
  Sr  Sr0  1  0.549925  0.251022  0.057259  1
  Sr  Sr1  1  0.252631  0.057073  0.556922  1
  Sr  Sr2  1  0.064179  0.554462  0.249186  1
  Ca  Ca3  1  0.446169  0.750024  0.941256  1
  Pr  Pr4  1  0.937970  0.442114  0.747367  1
  Pr  Pr5  1  0.747052  0.939064  0.439051  1
  U  U6  1  0.996049  0.992917  0.995654  1
  U  U7  1  0.499246  0.503504  0.502792  1
  O  O8  1  0.282879  0.049357  0.930272  1
  O  O9  1  0.051165  0.925659  0.290976  1
  O  O10  1  0.927318  0.288352  0.050588  1
  O  O11  1  0.707153  0.928983  0.079840  1
  O  O12  1  0.926032  0.081268  0.697458  1
  O  O13  1  0.072526  0.698562  0.925066  1
  O  O14  1  0.205199  0.416330  0.548969  1
  O  O15  1  0.421869  0.554219  0.213987  1
  O  O16  1  0.473737  0.797225  0.594626  1
  O  O17  1  0.593162  0.467191  0.791681  1
  O  O18  1  0.796869  0.594715  0.470360  1
  O  O19  1  0.548867  0.207956  0.416689  1
