# generated using pymatgen
data_LaCeZn4Ru
_symmetry_space_group_name_H-M   'P 1'
_cell_length_a   7.24517400
_cell_length_b   7.24517400
_cell_length_c   5.23024200
_cell_angle_alpha   90.00000000
_cell_angle_beta   90.00000000
_cell_angle_gamma   90.00000000
_symmetry_Int_Tables_number   1
_chemical_formula_structural   LaCeZn4Ru
_chemical_formula_sum   'La2 Ce2 Zn8 Ru2'
_cell_volume   274.54872029
_cell_formula_units_Z   2
loop_
 _symmetry_equiv_pos_site_id
 _symmetry_equiv_pos_as_xyz
  1  'x, y, z'
loop_
 _atom_site_type_symbol
 _atom_site_label
 _atom_site_symmetry_multiplicity
 _atom_site_fract_x
 _atom_site_fract_y
 _atom_site_fract_z
 _atom_site_occupancy
  La  La0  1  0.000000  0.500000  0.776319  1
  La  La1  1  0.500000  0.000000  0.223681  1
  Ce  Ce2  1  0.000000  0.000000  0.000000  1
  Ce  Ce3  1  0.500000  0.500000  0.000000  1
  Zn  Zn4  1  0.185065  0.685065  0.290001  1
  Zn  Zn5  1  0.814935  0.685065  0.290001  1
  Zn  Zn6  1  0.814935  0.314935  0.290001  1
  Zn  Zn7  1  0.314935  0.185065  0.709999  1
  Zn  Zn8  1  0.185065  0.314935  0.290001  1
  Zn  Zn9  1  0.685065  0.185065  0.709999  1
  Zn  Zn10  1  0.685065  0.814935  0.709999  1
  Zn  Zn11  1  0.314935  0.814935  0.709999  1
  Ru  Ru12  1  0.500000  0.500000  0.500000  1
  Ru  Ru13  1  0.000000  0.000000  0.500000  1
