# generated using pymatgen
data_Y8Tm12(Bi3Sb)3
_symmetry_space_group_name_H-M   'P 1'
_cell_length_a   8.16629040
_cell_length_b   9.40415600
_cell_length_c   11.98668858
_cell_angle_alpha   90.00000000
_cell_angle_beta   90.03577263
_cell_angle_gamma   90.00000000
_symmetry_Int_Tables_number   1
_chemical_formula_structural   Y8Tm12(Bi3Sb)3
_chemical_formula_sum   'Y8 Tm12 Bi9 Sb3'
_cell_volume   920.54236897
_cell_formula_units_Z   1
loop_
 _symmetry_equiv_pos_site_id
 _symmetry_equiv_pos_as_xyz
  1  'x, y, z'
loop_
 _atom_site_type_symbol
 _atom_site_label
 _atom_site_symmetry_multiplicity
 _atom_site_fract_x
 _atom_site_fract_y
 _atom_site_fract_z
 _atom_site_occupancy
  Y  Y0  1  0.183073  0.750000  0.717901  1
  Y  Y1  1  0.682528  0.750000  0.782036  1
  Y  Y2  1  0.812592  0.250000  0.278984  1
  Y  Y3  1  0.318570  0.250000  0.216307  1
  Y  Y4  1  0.352923  0.750000  0.213494  1
  Y  Y5  1  0.853149  0.750000  0.285998  1
  Y  Y6  1  0.646981  0.250000  0.786280  1
  Y  Y7  1  0.147994  0.250000  0.716752  1
  Tm  Tm8  1  0.026775  0.750000  0.989044  1
  Tm  Tm9  1  0.527599  0.750000  0.511453  1
  Tm  Tm10  1  0.973650  0.250000  0.010809  1
  Tm  Tm11  1  0.476696  0.250000  0.489163  1
  Tm  Tm12  1  0.311456  0.436117  0.942336  1
  Tm  Tm13  1  0.808790  0.061548  0.559474  1
  Tm  Tm14  1  0.688704  0.935753  0.057871  1
  Tm  Tm15  1  0.189891  0.567650  0.442044  1
  Tm  Tm16  1  0.688704  0.564247  0.057871  1
  Tm  Tm17  1  0.189891  0.932350  0.442044  1
  Tm  Tm18  1  0.311456  0.063883  0.942336  1
  Tm  Tm19  1  0.808790  0.438452  0.559474  1
  Bi  Bi20  1  0.433566  0.003956  0.672421  1
  Bi  Bi21  1  0.933667  0.496477  0.827931  1
  Bi  Bi22  1  0.565862  0.504298  0.327770  1
  Bi  Bi23  1  0.066214  0.996364  0.172187  1
  Bi  Bi24  1  0.565862  0.995702  0.327770  1
  Bi  Bi25  1  0.066214  0.503636  0.172187  1
  Bi  Bi26  1  0.433566  0.496044  0.672421  1
  Bi  Bi27  1  0.933667  0.003523  0.827931  1
  Bi  Bi28  1  0.093878  0.250000  0.456951  1
  Sb  Sb29  1  0.405955  0.750000  0.958248  1
  Sb  Sb30  1  0.906516  0.750000  0.541446  1
  Sb  Sb31  1  0.594820  0.250000  0.041066  1
