# generated using pymatgen
data_LaTb6Sc3Si8O3
_symmetry_space_group_name_H-M   'P 1'
_cell_length_a   10.31863200
_cell_length_b   10.31863162
_cell_length_c   4.26081300
_cell_angle_alpha   90.00000000
_cell_angle_beta   90.00000000
_cell_angle_gamma   120.00000123
_symmetry_Int_Tables_number   1
_chemical_formula_structural   LaTb6Sc3Si8O3
_chemical_formula_sum   'La1 Tb6 Sc3 Si8 O3'
_cell_volume   392.88670484
_cell_formula_units_Z   1
loop_
 _symmetry_equiv_pos_site_id
 _symmetry_equiv_pos_as_xyz
  1  'x, y, z'
loop_
 _atom_site_type_symbol
 _atom_site_label
 _atom_site_symmetry_multiplicity
 _atom_site_fract_x
 _atom_site_fract_y
 _atom_site_fract_z
 _atom_site_occupancy
  La  La0  1  0.000000  0.000000  0.000000  1
  Tb  Tb1  1  0.213938  0.786062  0.000000  1
  Tb  Tb2  1  0.572125  0.786062  0.000000  1
  Tb  Tb3  1  0.786062  0.572125  0.000000  1
  Tb  Tb4  1  0.213938  0.427875  0.000000  1
  Tb  Tb5  1  0.427875  0.213938  0.000000  1
  Tb  Tb6  1  0.786062  0.213938  0.000000  1
  Sc  Sc7  1  0.000000  0.500000  0.500000  1
  Sc  Sc8  1  0.500000  0.500000  0.500000  1
  Sc  Sc9  1  0.500000  0.000000  0.500000  1
  Si  Si10  1  0.000000  0.768435  0.500000  1
  Si  Si11  1  0.000000  0.231565  0.500000  1
  Si  Si12  1  0.231565  0.231565  0.500000  1
  Si  Si13  1  0.768435  0.000000  0.500000  1
  Si  Si14  1  0.333333  0.666667  0.500000  1
  Si  Si15  1  0.231565  0.000000  0.500000  1
  Si  Si16  1  0.666667  0.333333  0.500000  1
  Si  Si17  1  0.768435  0.768435  0.500000  1
  O  O18  1  0.000000  0.500000  0.000000  1
  O  O19  1  0.500000  0.500000  0.000000  1
  O  O20  1  0.500000  0.000000  0.000000  1
