# generated using pymatgen
data_Y8Al(Pd5Pt3)3
_symmetry_space_group_name_H-M   'P 1'
_cell_length_a   8.38883800
_cell_length_b   8.38715900
_cell_length_c   8.33863500
_cell_angle_alpha   90.00000000
_cell_angle_beta   90.00000000
_cell_angle_gamma   90.00000000
_symmetry_Int_Tables_number   1
_chemical_formula_structural   Y8Al(Pd5Pt3)3
_chemical_formula_sum   'Y8 Al1 Pd15 Pt9'
_cell_volume   586.69400184
_cell_formula_units_Z   1
loop_
 _symmetry_equiv_pos_site_id
 _symmetry_equiv_pos_as_xyz
  1  'x, y, z'
loop_
 _atom_site_type_symbol
 _atom_site_label
 _atom_site_symmetry_multiplicity
 _atom_site_fract_x
 _atom_site_fract_y
 _atom_site_fract_z
 _atom_site_occupancy
  Y  Y0  1  0.250736  0.251582  0.250772  1
  Y  Y1  1  0.749497  0.748406  0.748793  1
  Y  Y2  1  0.749497  0.748406  0.251207  1
  Y  Y3  1  0.749264  0.251582  0.749228  1
  Y  Y4  1  0.250736  0.251582  0.749228  1
  Y  Y5  1  0.250503  0.748406  0.251207  1
  Y  Y6  1  0.250503  0.748406  0.748793  1
  Y  Y7  1  0.749264  0.251582  0.250772  1
  Al  Al8  1  0.000000  0.000360  0.000000  1
  Pd  Pd9  1  0.500000  0.739648  0.000000  1
  Pd  Pd10  1  0.500000  0.999948  0.261350  1
  Pd  Pd11  1  0.260192  0.999942  0.500000  1
  Pd  Pd12  1  0.500000  0.999948  0.738650  1
  Pd  Pd13  1  0.739808  0.999942  0.500000  1
  Pd  Pd14  1  0.000000  0.500036  0.261812  1
  Pd  Pd15  1  0.000000  0.500036  0.738188  1
  Pd  Pd16  1  0.252940  0.500081  0.500000  1
  Pd  Pd17  1  0.747060  0.500081  0.500000  1
  Pd  Pd18  1  0.500000  0.253603  0.500000  1
  Pd  Pd19  1  0.500000  0.746342  0.500000  1
  Pd  Pd20  1  0.500000  0.500005  0.253178  1
  Pd  Pd21  1  0.500000  0.500005  0.746822  1
  Pd  Pd22  1  0.000000  0.999940  0.293173  1
  Pd  Pd23  1  0.000000  0.999940  0.706827  1
  Pt  Pt24  1  0.260738  0.499830  0.000000  1
  Pt  Pt25  1  0.739262  0.499830  0.000000  1
  Pt  Pt26  1  0.000000  0.260273  0.500000  1
  Pt  Pt27  1  0.500000  0.260337  0.000000  1
  Pt  Pt28  1  0.000000  0.739817  0.500000  1
  Pt  Pt29  1  0.290637  0.999899  0.000000  1
  Pt  Pt30  1  0.709363  0.999899  0.000000  1
  Pt  Pt31  1  0.000000  0.291134  0.000000  1
  Pt  Pt32  1  0.000000  0.709173  0.000000  1
