# generated using pymatgen
data_Tb2Si3Tc8P
_symmetry_space_group_name_H-M   'P 1'
_cell_length_a   7.40649951
_cell_length_b   7.40649951
_cell_length_c   4.07732100
_cell_angle_alpha   90.00000000
_cell_angle_beta   90.00000000
_cell_angle_gamma   90.48924938
_symmetry_Int_Tables_number   1
_chemical_formula_structural   Tb2Si3Tc8P
_chemical_formula_sum   'Tb2 Si3 Tc8 P1'
_cell_volume   223.65832438
_cell_formula_units_Z   1
loop_
 _symmetry_equiv_pos_site_id
 _symmetry_equiv_pos_as_xyz
  1  'x, y, z'
loop_
 _atom_site_type_symbol
 _atom_site_label
 _atom_site_symmetry_multiplicity
 _atom_site_fract_x
 _atom_site_fract_y
 _atom_site_fract_z
 _atom_site_occupancy
  Tb  Tb0  1  0.002092  0.002092  0.000000  1
  Tb  Tb1  1  0.499222  0.499222  0.500000  1
  Si  Si2  1  0.709262  0.709262  0.000000  1
  Si  Si3  1  0.789286  0.210595  0.500000  1
  Si  Si4  1  0.210595  0.789286  0.500000  1
  Tc  Tc5  1  0.584392  0.161554  0.000000  1
  Tc  Tc6  1  0.411496  0.840314  0.000000  1
  Tc  Tc7  1  0.654028  0.906729  0.500000  1
  Tc  Tc8  1  0.094105  0.345146  0.500000  1
  Tc  Tc9  1  0.345146  0.094105  0.500000  1
  Tc  Tc10  1  0.906729  0.654028  0.500000  1
  Tc  Tc11  1  0.161554  0.584392  0.000000  1
  Tc  Tc12  1  0.840314  0.411496  0.000000  1
  P  P13  1  0.291779  0.291779  0.000000  1
