# generated using pymatgen
data_Ho9Er(SnSb)3
_symmetry_space_group_name_H-M   'P 1'
_cell_length_a   8.93136582
_cell_length_b   8.92096486
_cell_length_c   6.40744305
_cell_angle_alpha   89.98775576
_cell_angle_beta   89.99957897
_cell_angle_gamma   119.87748724
_symmetry_Int_Tables_number   1
_chemical_formula_structural   Ho9Er(SnSb)3
_chemical_formula_sum   'Ho9 Er1 Sn3 Sb3'
_cell_volume   442.66980799
_cell_formula_units_Z   1
loop_
 _symmetry_equiv_pos_site_id
 _symmetry_equiv_pos_as_xyz
  1  'x, y, z'
loop_
 _atom_site_type_symbol
 _atom_site_label
 _atom_site_symmetry_multiplicity
 _atom_site_fract_x
 _atom_site_fract_y
 _atom_site_fract_z
 _atom_site_occupancy
  Ho  Ho0  1  0.001415  0.759857  0.750041  1
  Ho  Ho1  1  0.001127  0.242652  0.249936  1
  Ho  Ho2  1  0.757338  0.756048  0.249980  1
  Ho  Ho3  1  0.757027  0.000254  0.750080  1
  Ho  Ho4  1  0.243021  0.242031  0.750062  1
  Ho  Ho5  1  0.240034  0.999807  0.249940  1
  Ho  Ho6  1  0.332438  0.666377  0.500274  1
  Ho  Ho7  1  0.666535  0.333365  0.999703  1
  Ho  Ho8  1  0.666576  0.333374  0.500262  1
  Er  Er9  1  0.332417  0.666378  0.999844  1
  Sn  Sn10  1  0.392445  0.999109  0.750398  1
  Sn  Sn11  1  0.391548  0.391989  0.249538  1
  Sn  Sn12  1  0.000259  0.607487  0.249539  1
  Sb  Sb13  1  0.999330  0.391097  0.750369  1
  Sb  Sb14  1  0.609626  0.610062  0.750386  1
  Sb  Sb15  1  0.608863  0.000113  0.249647  1
