# generated using pymatgen
data_Tb5InBi2Se
_symmetry_space_group_name_H-M   'P 1'
_cell_length_a   9.27375610
_cell_length_b   9.25124372
_cell_length_c   6.74743100
_cell_angle_alpha   90.00000000
_cell_angle_beta   90.00000000
_cell_angle_gamma   119.91972669
_symmetry_Int_Tables_number   1
_chemical_formula_structural   Tb5InBi2Se
_chemical_formula_sum   'Tb10 In2 Bi4 Se2'
_cell_volume   501.73639303
_cell_formula_units_Z   2
loop_
 _symmetry_equiv_pos_site_id
 _symmetry_equiv_pos_as_xyz
  1  'x, y, z'
loop_
 _atom_site_type_symbol
 _atom_site_label
 _atom_site_symmetry_multiplicity
 _atom_site_fract_x
 _atom_site_fract_y
 _atom_site_fract_z
 _atom_site_occupancy
  Tb  Tb0  1  0.662358  0.330196  0.496914  1
  Tb  Tb1  1  0.337642  0.667839  0.496914  1
  Tb  Tb2  1  0.337642  0.667839  0.003086  1
  Tb  Tb3  1  0.662358  0.330196  0.003086  1
  Tb  Tb4  1  0.743692  0.749027  0.250000  1
  Tb  Tb5  1  0.256308  0.005335  0.250000  1
  Tb  Tb6  1  0.000000  0.250777  0.250000  1
  Tb  Tb7  1  0.251548  0.251960  0.750000  1
  Tb  Tb8  1  0.748452  0.000413  0.750000  1
  Tb  Tb9  1  0.000000  0.749089  0.750000  1
  In  In10  1  0.394417  0.394452  0.250000  1
  In  In11  1  0.605583  0.000035  0.250000  1
  Bi  Bi12  1  0.000000  0.607580  0.250000  1
  Bi  Bi13  1  0.604489  0.604062  0.750000  1
  Bi  Bi14  1  0.395511  0.999573  0.750000  1
  Bi  Bi15  1  0.000000  0.393727  0.750000  1
  Se  Se16  1  0.000000  0.998949  0.500577  1
  Se  Se17  1  0.000000  0.998949  0.999423  1
