# generated using pymatgen
data_Er16In4IrPt3
_symmetry_space_group_name_H-M   'P 1'
_cell_length_a   9.62411915
_cell_length_b   9.64076188
_cell_length_c   9.62412000
_cell_angle_alpha   60.05709267
_cell_angle_beta   60.00000394
_cell_angle_gamma   60.05709136
_symmetry_Int_Tables_number   1
_chemical_formula_structural   Er16In4IrPt3
_chemical_formula_sum   'Er16 In4 Ir1 Pt3'
_cell_volume   631.96441654
_cell_formula_units_Z   1
loop_
 _symmetry_equiv_pos_site_id
 _symmetry_equiv_pos_as_xyz
  1  'x, y, z'
loop_
 _atom_site_type_symbol
 _atom_site_label
 _atom_site_symmetry_multiplicity
 _atom_site_fract_x
 _atom_site_fract_y
 _atom_site_fract_z
 _atom_site_occupancy
  Er  Er0  1  0.062137  0.061255  0.438304  1
  Er  Er1  1  0.649252  0.052245  0.649252  1
  Er  Er2  1  0.190454  0.809870  0.190454  1
  Er  Er3  1  0.438304  0.061255  0.438304  1
  Er  Er4  1  0.186110  0.193050  0.810420  1
  Er  Er5  1  0.651625  0.646998  0.651625  1
  Er  Er6  1  0.049753  0.646998  0.651625  1
  Er  Er7  1  0.438304  0.061255  0.062137  1
  Er  Er8  1  0.651625  0.646998  0.049753  1
  Er  Er9  1  0.190454  0.809870  0.809222  1
  Er  Er10  1  0.810420  0.193050  0.810420  1
  Er  Er11  1  0.810420  0.193050  0.186110  1
  Er  Er12  1  0.809222  0.809870  0.190454  1
  Er  Er13  1  0.060859  0.437279  0.441004  1
  Er  Er14  1  0.441004  0.437279  0.060859  1
  Er  Er15  1  0.060859  0.437279  0.060859  1
  In  In16  1  0.749599  0.416689  0.416856  1
  In  In17  1  0.416856  0.416689  0.749599  1
  In  In18  1  0.416494  0.750518  0.416494  1
  In  In19  1  0.416856  0.416689  0.416856  1
  Ir  Ir20  1  0.857451  0.427648  0.857451  1
  Pt  Pt21  1  0.857128  0.858056  0.857128  1
  Pt  Pt22  1  0.427690  0.858056  0.857128  1
  Pt  Pt23  1  0.857128  0.858056  0.427690  1
