# generated using pymatgen
data_YTm2Co7(P3Rh)2
_symmetry_space_group_name_H-M   'P 1'
_cell_length_a   3.70773700
_cell_length_b   10.62809200
_cell_length_c   12.34122100
_cell_angle_alpha   90.00000000
_cell_angle_beta   90.00000000
_cell_angle_gamma   90.00000000
_symmetry_Int_Tables_number   1
_chemical_formula_structural   YTm2Co7(P3Rh)2
_chemical_formula_sum   'Y2 Tm4 Co14 P12 Rh4'
_cell_volume   486.32025209
_cell_formula_units_Z   2
loop_
 _symmetry_equiv_pos_site_id
 _symmetry_equiv_pos_as_xyz
  1  'x, y, z'
loop_
 _atom_site_type_symbol
 _atom_site_label
 _atom_site_symmetry_multiplicity
 _atom_site_fract_x
 _atom_site_fract_y
 _atom_site_fract_z
 _atom_site_occupancy
  Y  Y0  1  0.000000  0.500000  0.520555  1
  Y  Y1  1  0.500000  0.000000  0.479445  1
  Tm  Tm2  1  0.500000  0.814048  0.205765  1
  Tm  Tm3  1  0.500000  0.185952  0.205765  1
  Tm  Tm4  1  0.000000  0.685952  0.794235  1
  Tm  Tm5  1  0.000000  0.314048  0.794235  1
  Co  Co6  1  0.000000  0.500000  0.988054  1
  Co  Co7  1  0.500000  0.000000  0.011946  1
  Co  Co8  1  0.500000  0.331838  0.993561  1
  Co  Co9  1  0.500000  0.668162  0.993561  1
  Co  Co10  1  0.000000  0.168162  0.006439  1
  Co  Co11  1  0.000000  0.831838  0.006439  1
  Co  Co12  1  0.500000  0.299817  0.429437  1
  Co  Co13  1  0.500000  0.700183  0.429437  1
  Co  Co14  1  0.000000  0.200183  0.570563  1
  Co  Co15  1  0.000000  0.799817  0.570563  1
  Co  Co16  1  0.500000  0.879597  0.710331  1
  Co  Co17  1  0.500000  0.120403  0.710331  1
  Co  Co18  1  0.000000  0.620403  0.289669  1
  Co  Co19  1  0.000000  0.379597  0.289669  1
  P  P20  1  0.500000  0.500000  0.889664  1
  P  P21  1  0.000000  0.000000  0.110336  1
  P  P22  1  0.500000  0.500000  0.349724  1
  P  P23  1  0.000000  0.000000  0.650276  1
  P  P24  1  0.500000  0.302605  0.614263  1
  P  P25  1  0.500000  0.697395  0.614263  1
  P  P26  1  0.000000  0.197395  0.385737  1
  P  P27  1  0.000000  0.802605  0.385737  1
  P  P28  1  0.500000  0.843895  0.894003  1
  P  P29  1  0.500000  0.156105  0.894003  1
  P  P30  1  0.000000  0.656105  0.105997  1
  P  P31  1  0.000000  0.343895  0.105997  1
  Rh  Rh32  1  0.500000  0.500000  0.159798  1
  Rh  Rh33  1  0.000000  0.000000  0.840202  1
  Rh  Rh34  1  0.500000  0.500000  0.704796  1
  Rh  Rh35  1  0.000000  0.000000  0.295204  1
