# generated using pymatgen
data_Tb4DyIr2Rh
_symmetry_space_group_name_H-M   'P 1'
_cell_length_a   10.91469800
_cell_length_b   10.91469800
_cell_length_c   6.40676700
_cell_angle_alpha   90.00000000
_cell_angle_beta   90.00000000
_cell_angle_gamma   90.00000000
_symmetry_Int_Tables_number   1
_chemical_formula_structural   Tb4DyIr2Rh
_chemical_formula_sum   'Tb16 Dy4 Ir8 Rh4'
_cell_volume   763.24220455
_cell_formula_units_Z   4
loop_
 _symmetry_equiv_pos_site_id
 _symmetry_equiv_pos_as_xyz
  1  'x, y, z'
loop_
 _atom_site_type_symbol
 _atom_site_label
 _atom_site_symmetry_multiplicity
 _atom_site_fract_x
 _atom_site_fract_y
 _atom_site_fract_z
 _atom_site_occupancy
  Tb  Tb0  1  0.290475  0.089052  0.379465  1
  Tb  Tb1  1  0.290475  0.910948  0.879465  1
  Tb  Tb2  1  0.709525  0.089052  0.879465  1
  Tb  Tb3  1  0.709525  0.910948  0.379465  1
  Tb  Tb4  1  0.589052  0.790475  0.879465  1
  Tb  Tb5  1  0.589052  0.209525  0.379465  1
  Tb  Tb6  1  0.410948  0.790475  0.379465  1
  Tb  Tb7  1  0.410948  0.209525  0.879465  1
  Tb  Tb8  1  0.209525  0.410948  0.620535  1
  Tb  Tb9  1  0.209525  0.589052  0.120535  1
  Tb  Tb10  1  0.790475  0.410948  0.120535  1
  Tb  Tb11  1  0.790475  0.589052  0.620535  1
  Tb  Tb12  1  0.910948  0.709525  0.120535  1
  Tb  Tb13  1  0.910948  0.290475  0.620535  1
  Tb  Tb14  1  0.089052  0.709525  0.620535  1
  Tb  Tb15  1  0.089052  0.290475  0.120535  1
  Dy  Dy16  1  0.000000  0.000000  0.500000  1
  Dy  Dy17  1  0.000000  0.000000  0.000000  1
  Dy  Dy18  1  0.500000  0.500000  0.000000  1
  Dy  Dy19  1  0.500000  0.500000  0.500000  1
  Ir  Ir20  1  0.846349  0.153651  0.250000  1
  Ir  Ir21  1  0.846349  0.846349  0.750000  1
  Ir  Ir22  1  0.153651  0.153651  0.750000  1
  Ir  Ir23  1  0.153651  0.846349  0.250000  1
  Ir  Ir24  1  0.653651  0.346349  0.750000  1
  Ir  Ir25  1  0.653651  0.653651  0.250000  1
  Ir  Ir26  1  0.346349  0.346349  0.250000  1
  Ir  Ir27  1  0.346349  0.653651  0.750000  1
  Rh  Rh28  1  0.500000  0.000000  0.123962  1
  Rh  Rh29  1  0.500000  0.000000  0.623962  1
  Rh  Rh30  1  0.000000  0.500000  0.876038  1
  Rh  Rh31  1  0.000000  0.500000  0.376038  1
