# generated using pymatgen
data_Zr3Al3FePd2
_symmetry_space_group_name_H-M   'P 1'
_cell_length_a   7.24918200
_cell_length_b   7.24918133
_cell_length_c   6.85445000
_cell_angle_alpha   90.00000000
_cell_angle_beta   90.00000000
_cell_angle_gamma   120.00000304
_symmetry_Int_Tables_number   1
_chemical_formula_structural   Zr3Al3FePd2
_chemical_formula_sum   'Zr6 Al6 Fe2 Pd4'
_cell_volume   311.94727638
_cell_formula_units_Z   2
loop_
 _symmetry_equiv_pos_site_id
 _symmetry_equiv_pos_as_xyz
  1  'x, y, z'
loop_
 _atom_site_type_symbol
 _atom_site_label
 _atom_site_symmetry_multiplicity
 _atom_site_fract_x
 _atom_site_fract_y
 _atom_site_fract_z
 _atom_site_occupancy
  Zr  Zr0  1  0.754307  0.060601  0.000000  1
  Zr  Zr1  1  0.306293  0.245693  0.000000  1
  Zr  Zr2  1  0.939399  0.693707  0.000000  1
  Zr  Zr3  1  0.307477  0.246185  0.500000  1
  Zr  Zr4  1  0.753815  0.061292  0.500000  1
  Zr  Zr5  1  0.938708  0.692523  0.500000  1
  Al  Al6  1  0.595923  0.662051  0.749952  1
  Al  Al7  1  0.066128  0.404077  0.749952  1
  Al  Al8  1  0.337949  0.933872  0.749952  1
  Al  Al9  1  0.595923  0.662051  0.250048  1
  Al  Al10  1  0.066128  0.404077  0.250048  1
  Al  Al11  1  0.337949  0.933872  0.250048  1
  Fe  Fe12  1  0.000000  0.000000  0.250893  1
  Fe  Fe13  1  0.000000  0.000000  0.749107  1
  Pd  Pd14  1  0.333333  0.666667  0.000000  1
  Pd  Pd15  1  0.333333  0.666667  0.500000  1
  Pd  Pd16  1  0.666667  0.333333  0.751596  1
  Pd  Pd17  1  0.666667  0.333333  0.248404  1
