# generated using pymatgen
data_Ho2Tm2Al24IrPt8
_symmetry_space_group_name_H-M   'P 1'
_cell_length_a   7.51178648
_cell_length_b   7.53600331
_cell_length_c   13.14449626
_cell_angle_alpha   84.63534276
_cell_angle_beta   79.11493841
_cell_angle_gamma   59.91365766
_symmetry_Int_Tables_number   1
_chemical_formula_structural   Ho2Tm2Al24IrPt8
_chemical_formula_sum   'Ho2 Tm2 Al24 Ir1 Pt8'
_cell_volume   632.25895070
_cell_formula_units_Z   1
loop_
 _symmetry_equiv_pos_site_id
 _symmetry_equiv_pos_as_xyz
  1  'x, y, z'
loop_
 _atom_site_type_symbol
 _atom_site_label
 _atom_site_symmetry_multiplicity
 _atom_site_fract_x
 _atom_site_fract_y
 _atom_site_fract_z
 _atom_site_occupancy
  Ho  Ho0  1  0.393669  0.168473  0.808946  1
  Ho  Ho1  1  0.606331  0.831527  0.191054  1
  Tm  Tm2  1  0.734019  0.498443  0.808526  1
  Tm  Tm3  1  0.265981  0.501557  0.191474  1
  Al  Al4  1  0.686709  0.830470  0.945011  1
  Al  Al5  1  0.313291  0.169530  0.054989  1
  Al  Al6  1  0.146590  0.831943  0.561752  1
  Al  Al7  1  0.853410  0.168057  0.438248  1
  Al  Al8  1  0.480243  0.166662  0.559071  1
  Al  Al9  1  0.519757  0.833338  0.440929  1
  Al  Al10  1  0.217584  0.165369  0.327277  1
  Al  Al11  1  0.782416  0.834631  0.672723  1
  Al  Al12  1  0.436460  0.507062  0.672594  1
  Al  Al13  1  0.563540  0.492938  0.327406  1
  Al  Al14  1  0.109114  0.160358  0.670292  1
  Al  Al15  1  0.890886  0.839642  0.329708  1
  Al  Al16  1  0.350378  0.499007  0.945425  1
  Al  Al17  1  0.649622  0.500993  0.054575  1
  Al  Al18  1  0.014956  0.171668  0.954304  1
  Al  Al19  1  0.985044  0.828332  0.045696  1
  Al  Al20  1  0.186628  0.499217  0.441091  1
  Al  Al21  1  0.813372  0.500783  0.558909  1
  Al  Al22  1  0.733912  0.164135  0.182977  1
  Al  Al23  1  0.266088  0.835865  0.817023  1
  Al  Al24  1  0.060641  0.629304  0.817608  1
  Al  Al25  1  0.939359  0.370696  0.182392  1
  Al  Al26  1  0.855706  0.042412  0.816656  1
  Al  Al27  1  0.144294  0.957588  0.183344  1
  Ir  Ir28  1  0.000000  0.500000  0.000000  1
  Pt  Pt29  1  0.119763  0.491820  0.639189  1
  Pt  Pt30  1  0.880237  0.508180  0.360811  1
  Pt  Pt31  1  0.657124  0.171379  0.999886  1
  Pt  Pt32  1  0.342876  0.828621  0.000114  1
  Pt  Pt33  1  0.536994  0.166925  0.361294  1
  Pt  Pt34  1  0.463006  0.833075  0.638706  1
  Pt  Pt35  1  0.778384  0.175569  0.637411  1
  Pt  Pt36  1  0.221616  0.824431  0.362589  1
