# generated using pymatgen
data_Hf6Nb4Ga5Ge
_symmetry_space_group_name_H-M   'P 1'
_cell_length_a   7.94450700
_cell_length_b   7.94178176
_cell_length_c   5.43973700
_cell_angle_alpha   90.00000000
_cell_angle_beta   90.00000000
_cell_angle_gamma   120.01136453
_symmetry_Int_Tables_number   1
_chemical_formula_structural   Hf6Nb4Ga5Ge
_chemical_formula_sum   'Hf6 Nb4 Ga5 Ge1'
_cell_volume   297.19649955
_cell_formula_units_Z   1
loop_
 _symmetry_equiv_pos_site_id
 _symmetry_equiv_pos_as_xyz
  1  'x, y, z'
loop_
 _atom_site_type_symbol
 _atom_site_label
 _atom_site_symmetry_multiplicity
 _atom_site_fract_x
 _atom_site_fract_y
 _atom_site_fract_z
 _atom_site_occupancy
  Hf  Hf0  1  0.751950  0.751375  0.250000  1
  Hf  Hf1  1  0.750874  0.000000  0.750000  1
  Hf  Hf2  1  0.000575  0.248625  0.250000  1
  Hf  Hf3  1  0.247561  0.248377  0.750000  1
  Hf  Hf4  1  0.248269  0.000000  0.250000  1
  Hf  Hf5  1  0.999184  0.751623  0.750000  1
  Nb  Nb6  1  0.666456  0.332369  0.999607  1
  Nb  Nb7  1  0.666456  0.332369  0.500393  1
  Nb  Nb8  1  0.334086  0.667631  0.500393  1
  Nb  Nb9  1  0.334086  0.667631  0.999607  1
  Ga  Ga10  1  0.603137  0.602814  0.750000  1
  Ga  Ga11  1  0.000324  0.397186  0.750000  1
  Ga  Ga12  1  0.000292  0.603297  0.250000  1
  Ga  Ga13  1  0.396995  0.396703  0.250000  1
  Ga  Ga14  1  0.395084  0.000000  0.750000  1
  Ge  Ge15  1  0.604672  0.000000  0.250000  1
