# generated using pymatgen
data_ErPbF7
_symmetry_space_group_name_H-M   'P 1'
_cell_length_a   5.77842000
_cell_length_b   6.10599052
_cell_length_c   8.36109409
_cell_angle_alpha   103.01350083
_cell_angle_beta   90.00000000
_cell_angle_gamma   90.00000000
_symmetry_Int_Tables_number   1
_chemical_formula_structural   ErPbF7
_chemical_formula_sum   'Er2 Pb2 F14'
_cell_volume   287.42771046
_cell_formula_units_Z   2
loop_
 _symmetry_equiv_pos_site_id
 _symmetry_equiv_pos_as_xyz
  1  'x, y, z'
loop_
 _atom_site_type_symbol
 _atom_site_label
 _atom_site_symmetry_multiplicity
 _atom_site_fract_x
 _atom_site_fract_y
 _atom_site_fract_z
 _atom_site_occupancy
  Er  Er0  1  0.697912  0.651990  0.683863  1
  Er  Er1  1  0.197912  0.348010  0.316137  1
  Pb  Pb2  1  0.706539  0.811860  0.227068  1
  Pb  Pb3  1  0.206539  0.188140  0.772932  1
  F  F4  1  0.908392  0.472706  0.483101  1
  F  F5  1  0.408392  0.527294  0.516899  1
  F  F6  1  0.428894  0.913693  0.766797  1
  F  F7  1  0.928894  0.086307  0.233203  1
  F  F8  1  0.940507  0.945745  0.758690  1
  F  F9  1  0.440507  0.054255  0.241310  1
  F  F10  1  0.987932  0.467501  0.794067  1
  F  F11  1  0.487932  0.532499  0.205933  1
  F  F12  1  0.695862  0.759931  0.972900  1
  F  F13  1  0.195862  0.240069  0.027100  1
  F  F14  1  0.698086  0.873800  0.483816  1
  F  F15  1  0.198086  0.126200  0.516184  1
  F  F16  1  0.512237  0.382189  0.782806  1
  F  F17  1  0.012237  0.617811  0.217194  1
