# generated using pymatgen
data_NaLaCuPt3
_symmetry_space_group_name_H-M   'P 1'
_cell_length_a   5.51656713
_cell_length_b   5.51656668
_cell_length_c   5.30163253
_cell_angle_alpha   58.64958875
_cell_angle_beta   58.64959354
_cell_angle_gamma   59.99998852
_symmetry_Int_Tables_number   1
_chemical_formula_structural   NaLaCuPt3
_chemical_formula_sum   'Na1 La1 Cu1 Pt3'
_cell_volume   111.70160995
_cell_formula_units_Z   1
loop_
 _symmetry_equiv_pos_site_id
 _symmetry_equiv_pos_as_xyz
  1  'x, y, z'
loop_
 _atom_site_type_symbol
 _atom_site_label
 _atom_site_symmetry_multiplicity
 _atom_site_fract_x
 _atom_site_fract_y
 _atom_site_fract_z
 _atom_site_occupancy
  Na  Na0  1  0.750398  0.750398  0.748804  1
  La  La1  1  0.501281  0.501281  0.496157  1
  Cu  Cu2  1  0.124172  0.124172  0.627484  1
  Pt  Pt3  1  0.123916  0.123916  0.125852  1
  Pt  Pt4  1  0.626315  0.123916  0.125852  1
  Pt  Pt5  1  0.123916  0.626315  0.125852  1
