# generated using pymatgen
data_Er12Tc3Ag2
_symmetry_space_group_name_H-M   'P 1'
_cell_length_a   8.30199094
_cell_length_b   8.30180314
_cell_length_c   8.30199094
_cell_angle_alpha   110.11407159
_cell_angle_beta   110.12345407
_cell_angle_gamma   108.18466491
_symmetry_Int_Tables_number   1
_chemical_formula_structural   Er12Tc3Ag2
_chemical_formula_sum   'Er12 Tc3 Ag2'
_cell_volume   440.29753155
_cell_formula_units_Z   1
loop_
 _symmetry_equiv_pos_site_id
 _symmetry_equiv_pos_as_xyz
  1  'x, y, z'
loop_
 _atom_site_type_symbol
 _atom_site_label
 _atom_site_symmetry_multiplicity
 _atom_site_fract_x
 _atom_site_fract_y
 _atom_site_fract_z
 _atom_site_occupancy
  Er  Er0  1  0.185517  0.433398  0.247882  1
  Er  Er1  1  0.814483  0.566602  0.752118  1
  Er  Er2  1  0.185553  0.937727  0.752172  1
  Er  Er3  1  0.937558  0.185548  0.752049  1
  Er  Er4  1  0.814447  0.062273  0.247828  1
  Er  Er5  1  0.062442  0.814452  0.247951  1
  Er  Er6  1  0.433497  0.185548  0.247991  1
  Er  Er7  1  0.566503  0.814452  0.752009  1
  Er  Er8  1  0.319577  0.319528  0.639184  1
  Er  Er9  1  0.680423  0.680472  0.360816  1
  Er  Er10  1  0.680344  0.319528  0.999951  1
  Er  Er11  1  0.319656  0.680472  0.000049  1
  Tc  Tc12  1  0.338057  0.338105  0.000048  1
  Tc  Tc13  1  0.661943  0.661895  0.999952  1
  Tc  Tc14  1  0.000000  0.000000  0.000000  1
  Ag  Ag15  1  0.000000  0.500000  0.500000  1
  Ag  Ag16  1  0.500000  0.000000  0.500000  1
