# generated using pymatgen
data_Tb12MgNb7(ReN4)12
_symmetry_space_group_name_H-M   'P 1'
_cell_length_a   11.13261859
_cell_length_b   11.13261951
_cell_length_c   11.17418400
_cell_angle_alpha   109.54686435
_cell_angle_beta   109.54686603
_cell_angle_gamma   109.39547033
_symmetry_Int_Tables_number   1
_chemical_formula_structural   Tb12MgNb7(ReN4)12
_chemical_formula_sum   'Tb12 Mg1 Nb7 Re12 N48'
_cell_volume   1065.08025618
_cell_formula_units_Z   1
loop_
 _symmetry_equiv_pos_site_id
 _symmetry_equiv_pos_as_xyz
  1  'x, y, z'
loop_
 _atom_site_type_symbol
 _atom_site_label
 _atom_site_symmetry_multiplicity
 _atom_site_fract_x
 _atom_site_fract_y
 _atom_site_fract_z
 _atom_site_occupancy
  Tb  Tb0  1  0.374131  0.749526  0.125421  1
  Tb  Tb1  1  0.250105  0.375530  0.125778  1
  Tb  Tb2  1  0.375394  0.125869  0.251289  1
  Tb  Tb3  1  0.875530  0.625425  0.249752  1
  Tb  Tb4  1  0.750474  0.124606  0.375895  1
  Tb  Tb5  1  0.125425  0.249895  0.375673  1
  Tb  Tb6  1  0.874575  0.750105  0.624328  1
  Tb  Tb7  1  0.249526  0.875394  0.624105  1
  Tb  Tb8  1  0.124470  0.374575  0.750248  1
  Tb  Tb9  1  0.624607  0.874131  0.748711  1
  Tb  Tb10  1  0.625869  0.250474  0.874579  1
  Tb  Tb11  1  0.749895  0.624471  0.874222  1
  Mg  Mg12  1  0.500000  0.000000  0.500000  1
  Nb  Nb13  1  0.000000  0.000000  0.000000  1
  Nb  Nb14  1  0.500000  0.000000  0.000000  1
  Nb  Nb15  1  0.000000  0.500000  0.000000  1
  Nb  Nb16  1  0.500000  0.500000  0.000000  1
  Nb  Nb17  1  0.000000  0.000000  0.500000  1
  Nb  Nb18  1  0.000000  0.500000  0.500000  1
  Nb  Nb19  1  0.500000  0.500000  0.500000  1
  Re  Re20  1  0.874719  0.250449  0.126071  1
  Re  Re21  1  0.750450  0.875731  0.124380  1
  Re  Re22  1  0.624270  0.374719  0.248649  1
  Re  Re23  1  0.126935  0.877223  0.251247  1
  Re  Re24  1  0.249712  0.626936  0.375688  1
  Re  Re25  1  0.622777  0.749712  0.374025  1
  Re  Re26  1  0.377223  0.250288  0.625976  1
  Re  Re27  1  0.750288  0.373065  0.624312  1
  Re  Re28  1  0.873065  0.122777  0.748752  1
  Re  Re29  1  0.375731  0.625281  0.751351  1
  Re  Re30  1  0.249549  0.124269  0.875620  1
  Re  Re31  1  0.125281  0.749550  0.873929  1
  N  N32  1  0.313396  0.900957  0.019123  1
  N  N33  1  0.205147  0.118812  0.020640  1
  N  N34  1  0.882036  0.401610  0.087775  1
  N  N35  1  0.705702  0.686333  0.086449  1
  N  N36  1  0.618811  0.413665  0.098172  1
  N  N37  1  0.982124  0.687431  0.100607  1
  N  N38  1  0.019370  0.205703  0.119254  1
  N  N39  1  0.599042  0.912438  0.118166  1
  N  N40  1  0.207327  0.588824  0.185675  1
  N  N41  1  0.478442  0.598054  0.184984  1
  N  N42  1  0.119613  0.021559  0.206543  1
  N  N43  1  0.587561  0.186604  0.205726  1
  N  N44  1  0.308491  0.909199  0.286602  1
  N  N45  1  0.480425  0.382036  0.294261  1
  N  N46  1  0.913665  0.294854  0.315493  1
  N  N47  1  0.901610  0.019575  0.313836  1
  N  N48  1  0.294694  0.482125  0.381518  1
  N  N49  1  0.590801  0.899292  0.377403  1
  N  N50  1  0.813667  0.519370  0.400117  1
  N  N51  1  0.088824  0.881496  0.403149  1
  N  N52  1  0.098054  0.619612  0.413070  1
  N  N53  1  0.812568  0.794693  0.413176  1
  N  N54  1  0.600708  0.191509  0.478111  1
  N  N55  1  0.381496  0.292673  0.478348  1
  N  N56  1  0.618503  0.707327  0.521652  1
  N  N57  1  0.399293  0.808491  0.521890  1
  N  N58  1  0.187431  0.205306  0.586824  1
  N  N59  1  0.901946  0.380388  0.586930  1
  N  N60  1  0.911175  0.118504  0.596850  1
  N  N61  1  0.186333  0.480631  0.599884  1
  N  N62  1  0.409199  0.100708  0.622597  1
  N  N63  1  0.705306  0.517875  0.618481  1
  N  N64  1  0.086335  0.705146  0.684507  1
  N  N65  1  0.098390  0.980424  0.686164  1
  N  N66  1  0.519575  0.617963  0.705739  1
  N  N67  1  0.691509  0.090801  0.713398  1
  N  N68  1  0.880388  0.978442  0.793458  1
  N  N69  1  0.412439  0.813395  0.794273  1
  N  N70  1  0.521559  0.401947  0.815016  1
  N  N71  1  0.792672  0.411176  0.814324  1
  N  N72  1  0.400957  0.087561  0.881834  1
  N  N73  1  0.980631  0.794298  0.880747  1
  N  N74  1  0.017875  0.312569  0.899393  1
  N  N75  1  0.381189  0.586335  0.901828  1
  N  N76  1  0.294298  0.313667  0.913551  1
  N  N77  1  0.117964  0.598389  0.912224  1
  N  N78  1  0.686604  0.099043  0.980876  1
  N  N79  1  0.794854  0.881189  0.979361  1
