# generated using pymatgen
data_YHo(UGa5)3
_symmetry_space_group_name_H-M   'P 1'
_cell_length_a   12.48662601
_cell_length_b   12.48662551
_cell_length_c   12.48662400
_cell_angle_alpha   28.34239255
_cell_angle_beta   28.34238719
_cell_angle_gamma   28.34239071
_symmetry_Int_Tables_number   1
_chemical_formula_structural   YHo(UGa5)3
_chemical_formula_sum   'Y1 Ho1 U3 Ga15'
_cell_volume   387.73351595
_cell_formula_units_Z   1
loop_
 _symmetry_equiv_pos_site_id
 _symmetry_equiv_pos_as_xyz
  1  'x, y, z'
loop_
 _atom_site_type_symbol
 _atom_site_label
 _atom_site_symmetry_multiplicity
 _atom_site_fract_x
 _atom_site_fract_y
 _atom_site_fract_z
 _atom_site_occupancy
  Y  Y0  1  0.999259  0.999259  0.999259  1
  Ho  Ho1  1  0.599665  0.599665  0.599665  1
  U  U2  1  0.130859  0.130859  0.130859  1
  U  U3  1  0.869691  0.869691  0.869691  1
  U  U4  1  0.400374  0.400374  0.400374  1
  Ga  Ga5  1  0.428894  0.884521  0.884521  1
  Ga  Ga6  1  0.884521  0.884521  0.428894  1
  Ga  Ga7  1  0.884521  0.428894  0.884521  1
  Ga  Ga8  1  0.115652  0.568582  0.115652  1
  Ga  Ga9  1  0.115652  0.115652  0.568582  1
  Ga  Ga10  1  0.568582  0.115652  0.115652  1
  Ga  Ga11  1  0.130609  0.636086  0.636086  1
  Ga  Ga12  1  0.636086  0.636086  0.130609  1
  Ga  Ga13  1  0.636086  0.130609  0.636086  1
  Ga  Ga14  1  0.363541  0.873253  0.363541  1
  Ga  Ga15  1  0.363541  0.363541  0.873253  1
  Ga  Ga16  1  0.873253  0.363541  0.363541  1
  Ga  Ga17  1  0.498013  0.498013  0.003191  1
  Ga  Ga18  1  0.498013  0.003191  0.498013  1
  Ga  Ga19  1  0.003191  0.498013  0.498013  1
