# generated using pymatgen
data_Cs3EuV2O8
_symmetry_space_group_name_H-M   'P 1'
_cell_length_a   6.27259900
_cell_length_b   6.27259818
_cell_length_c   8.34608900
_cell_angle_alpha   90.00000000
_cell_angle_beta   90.00000000
_cell_angle_gamma   119.99998851
_symmetry_Int_Tables_number   1
_chemical_formula_structural   Cs3EuV2O8
_chemical_formula_sum   'Cs3 Eu1 V2 O8'
_cell_volume   284.38630969
_cell_formula_units_Z   1
loop_
 _symmetry_equiv_pos_site_id
 _symmetry_equiv_pos_as_xyz
  1  'x, y, z'
loop_
 _atom_site_type_symbol
 _atom_site_label
 _atom_site_symmetry_multiplicity
 _atom_site_fract_x
 _atom_site_fract_y
 _atom_site_fract_z
 _atom_site_occupancy
  Cs  Cs0  1  0.333333  0.666667  0.715991  1
  Cs  Cs1  1  0.666667  0.333333  0.284009  1
  Cs  Cs2  1  0.000000  0.000000  0.000000  1
  Eu  Eu3  1  0.000000  0.000000  0.500000  1
  V  V4  1  0.333333  0.666667  0.270479  1
  V  V5  1  0.666667  0.333333  0.729521  1
  O  O6  1  0.333333  0.666667  0.067910  1
  O  O7  1  0.666667  0.333333  0.932090  1
  O  O8  1  0.178851  0.821149  0.338025  1
  O  O9  1  0.821149  0.178851  0.661975  1
  O  O10  1  0.178851  0.357701  0.338025  1
  O  O11  1  0.821149  0.642299  0.661975  1
  O  O12  1  0.642299  0.821149  0.338025  1
  O  O13  1  0.357701  0.178851  0.661975  1
