# generated using pymatgen
data_Hf10ZnCuSn6
_symmetry_space_group_name_H-M   'P 1'
_cell_length_a   8.60588400
_cell_length_b   8.60588422
_cell_length_c   5.83628000
_cell_angle_alpha   90.00000000
_cell_angle_beta   90.00000000
_cell_angle_gamma   119.99999146
_symmetry_Int_Tables_number   1
_chemical_formula_structural   Hf10ZnCuSn6
_chemical_formula_sum   'Hf10 Zn1 Cu1 Sn6'
_cell_volume   374.33270741
_cell_formula_units_Z   1
loop_
 _symmetry_equiv_pos_site_id
 _symmetry_equiv_pos_as_xyz
  1  'x, y, z'
loop_
 _atom_site_type_symbol
 _atom_site_label
 _atom_site_symmetry_multiplicity
 _atom_site_fract_x
 _atom_site_fract_y
 _atom_site_fract_z
 _atom_site_occupancy
  Hf  Hf0  1  0.333333  0.666667  0.000000  1
  Hf  Hf1  1  0.666667  0.333333  0.500000  1
  Hf  Hf2  1  0.666667  0.333333  0.000000  1
  Hf  Hf3  1  0.333333  0.666667  0.500000  1
  Hf  Hf4  1  0.265294  0.000000  0.253143  1
  Hf  Hf5  1  0.265294  0.265294  0.746857  1
  Hf  Hf6  1  0.000000  0.734706  0.746857  1
  Hf  Hf7  1  0.000000  0.265294  0.253143  1
  Hf  Hf8  1  0.734706  0.734706  0.253143  1
  Hf  Hf9  1  0.734706  0.000000  0.746857  1
  Zn  Zn10  1  0.000000  0.000000  0.000000  1
  Cu  Cu11  1  0.000000  0.000000  0.500000  1
  Sn  Sn12  1  0.613893  0.000000  0.249563  1
  Sn  Sn13  1  0.613893  0.613893  0.750437  1
  Sn  Sn14  1  0.000000  0.386107  0.750437  1
  Sn  Sn15  1  0.000000  0.613893  0.249563  1
  Sn  Sn16  1  0.386107  0.386107  0.249563  1
  Sn  Sn17  1  0.386107  0.000000  0.750437  1
