# generated using pymatgen
data_RbIBr6
_symmetry_space_group_name_H-M   'P 1'
_cell_length_a   9.50749332
_cell_length_b   13.88211234
_cell_length_c   13.61994923
_cell_angle_alpha   108.34450635
_cell_angle_beta   78.42580339
_cell_angle_gamma   108.07932655
_symmetry_Int_Tables_number   1
_chemical_formula_structural   RbIBr6
_chemical_formula_sum   'Rb4 I4 Br24'
_cell_volume   1611.42671419
_cell_formula_units_Z   4
loop_
 _symmetry_equiv_pos_site_id
 _symmetry_equiv_pos_as_xyz
  1  'x, y, z'
loop_
 _atom_site_type_symbol
 _atom_site_label
 _atom_site_symmetry_multiplicity
 _atom_site_fract_x
 _atom_site_fract_y
 _atom_site_fract_z
 _atom_site_occupancy
  Rb  Rb0  1  0.516645  0.828513  0.565843  1
  Rb  Rb1  1  0.483355  0.171487  0.434157  1
  Rb  Rb2  1  0.025325  0.311273  0.853207  1
  Rb  Rb3  1  0.974675  0.688727  0.146793  1
  I  I4  1  0.299631  0.663081  0.820462  1
  I  I5  1  0.700369  0.336919  0.179538  1
  I  I6  1  0.500000  0.500000  0.500000  1
  I  I7  1  0.000000  0.000000  0.000000  1
  Br  Br8  1  0.589032  0.747331  0.767919  1
  Br  Br9  1  0.410968  0.252669  0.232081  1
  Br  Br10  1  0.223327  0.804587  0.767642  1
  Br  Br11  1  0.776673  0.195413  0.232358  1
  Br  Br12  1  0.007521  0.570913  0.873891  1
  Br  Br13  1  0.992479  0.429087  0.126109  1
  Br  Br14  1  0.382922  0.518945  0.892301  1
  Br  Br15  1  0.617078  0.481055  0.107699  1
  Br  Br16  1  0.703023  0.418351  0.534613  1
  Br  Br17  1  0.296977  0.581649  0.465387  1
  Br  Br18  1  0.725915  0.649122  0.430042  1
  Br  Br19  1  0.274085  0.350878  0.569958  1
  Br  Br20  1  0.824091  0.059814  0.911193  1
  Br  Br21  1  0.175909  0.940186  0.088807  1
  Br  Br22  1  0.754748  0.874196  0.087832  1
  Br  Br23  1  0.245252  0.125804  0.912168  1
  Br  Br24  1  0.696374  0.237456  0.734817  1
  Br  Br25  1  0.303626  0.762544  0.265183  1
  Br  Br26  1  0.244247  0.034721  0.703525  1
  Br  Br27  1  0.755753  0.965279  0.296475  1
  Br  Br28  1  0.747135  0.050341  0.485377  1
  Br  Br29  1  0.252865  0.949659  0.514623  1
  Br  Br30  1  0.652249  0.354562  0.909879  1
  Br  Br31  1  0.347751  0.645438  0.090121  1
