# generated using pymatgen
data_YLuCoB6
_symmetry_space_group_name_H-M   'P 1'
_cell_length_a   3.53676000
_cell_length_b   9.04113700
_cell_length_c   11.41880300
_cell_angle_alpha   90.00000000
_cell_angle_beta   90.00000000
_cell_angle_gamma   90.00000000
_symmetry_Int_Tables_number   1
_chemical_formula_structural   YLuCoB6
_chemical_formula_sum   'Y4 Lu4 Co4 B24'
_cell_volume   365.13143230
_cell_formula_units_Z   4
loop_
 _symmetry_equiv_pos_site_id
 _symmetry_equiv_pos_as_xyz
  1  'x, y, z'
loop_
 _atom_site_type_symbol
 _atom_site_label
 _atom_site_symmetry_multiplicity
 _atom_site_fract_x
 _atom_site_fract_y
 _atom_site_fract_z
 _atom_site_occupancy
  Y  Y0  1  0.000000  0.824036  0.085483  1
  Y  Y1  1  0.000000  0.175964  0.914517  1
  Y  Y2  1  0.000000  0.324036  0.414517  1
  Y  Y3  1  0.000000  0.675964  0.585483  1
  Lu  Lu4  1  0.000000  0.443896  0.129277  1
  Lu  Lu5  1  0.000000  0.556104  0.870723  1
  Lu  Lu6  1  0.000000  0.943896  0.370723  1
  Lu  Lu7  1  0.000000  0.056104  0.629277  1
  Co  Co8  1  0.000000  0.140567  0.180500  1
  Co  Co9  1  0.000000  0.859433  0.819500  1
  Co  Co10  1  0.000000  0.640567  0.319500  1
  Co  Co11  1  0.000000  0.359433  0.680500  1
  B  B12  1  0.500000  0.054333  0.067824  1
  B  B13  1  0.500000  0.945667  0.932176  1
  B  B14  1  0.500000  0.554333  0.432176  1
  B  B15  1  0.500000  0.445667  0.567824  1
  B  B16  1  0.500000  0.248640  0.082400  1
  B  B17  1  0.500000  0.751360  0.917600  1
  B  B18  1  0.500000  0.748640  0.417600  1
  B  B19  1  0.500000  0.251360  0.582400  1
  B  B20  1  0.500000  0.292325  0.235184  1
  B  B21  1  0.500000  0.707675  0.764816  1
  B  B22  1  0.500000  0.792325  0.264816  1
  B  B23  1  0.500000  0.207675  0.735184  1
  B  B24  1  0.500000  0.132957  0.315782  1
  B  B25  1  0.500000  0.867043  0.684218  1
  B  B26  1  0.500000  0.632957  0.184218  1
  B  B27  1  0.500000  0.367043  0.815782  1
  B  B28  1  0.500000  0.486036  0.287780  1
  B  B29  1  0.500000  0.513964  0.712220  1
  B  B30  1  0.500000  0.986036  0.212220  1
  B  B31  1  0.500000  0.013964  0.787780  1
  B  B32  1  0.500000  0.104782  0.471731  1
  B  B33  1  0.500000  0.895218  0.528269  1
  B  B34  1  0.500000  0.604782  0.028269  1
  B  B35  1  0.500000  0.395218  0.971731  1
