# generated using pymatgen
data_Tm3Zr4UF28
_symmetry_space_group_name_H-M   'P 1'
_cell_length_a   5.74441595
_cell_length_b   9.12239257
_cell_length_c   12.24668487
_cell_angle_alpha   62.31390688
_cell_angle_beta   89.94944214
_cell_angle_gamma   90.00026619
_symmetry_Int_Tables_number   1
_chemical_formula_structural   Tm3Zr4UF28
_chemical_formula_sum   'Tm3 Zr4 U1 F28'
_cell_volume   568.28302124
_cell_formula_units_Z   1
loop_
 _symmetry_equiv_pos_site_id
 _symmetry_equiv_pos_as_xyz
  1  'x, y, z'
loop_
 _atom_site_type_symbol
 _atom_site_label
 _atom_site_symmetry_multiplicity
 _atom_site_fract_x
 _atom_site_fract_y
 _atom_site_fract_z
 _atom_site_occupancy
  Tm  Tm0  1  0.744249  0.820574  0.265277  1
  Tm  Tm1  1  0.243724  0.183683  0.233947  1
  Tm  Tm2  1  0.257799  0.192036  0.733630  1
  Zr  Zr3  1  0.743119  0.281124  0.450448  1
  Zr  Zr4  1  0.244904  0.724366  0.052327  1
  Zr  Zr5  1  0.255092  0.725612  0.537894  1
  Zr  Zr6  1  0.755444  0.268968  0.957967  1
  U  U7  1  0.758306  0.819096  0.765550  1
  F  F8  1  0.460998  0.709656  0.925932  1
  F  F9  1  0.966481  0.287506  0.577542  1
  F  F10  1  0.528813  0.285286  0.080257  1
  F  F11  1  0.027527  0.710613  0.416306  1
  F  F12  1  0.454979  0.279914  0.551295  1
  F  F13  1  0.953979  0.714831  0.958648  1
  F  F14  1  0.550746  0.720964  0.444998  1
  F  F15  1  0.046160  0.276342  0.054073  1
  F  F16  1  0.767407  0.518761  0.859652  1
  F  F17  1  0.266670  0.472357  0.639211  1
  F  F18  1  0.235348  0.471406  0.145218  1
  F  F19  1  0.732249  0.530690  0.355349  1
  F  F20  1  0.758853  0.017648  0.061535  1
  F  F21  1  0.258711  0.977559  0.438201  1
  F  F22  1  0.239578  0.974527  0.941889  1
  F  F23  1  0.738556  0.028525  0.553267  1
  F  F24  1  0.984008  0.730649  0.643761  1
  F  F25  1  0.484408  0.264436  0.850406  1
  F  F26  1  0.011974  0.264333  0.347066  1
  F  F27  1  0.516251  0.736211  0.155396  1
  F  F28  1  0.029164  0.748143  0.177189  1
  F  F29  1  0.527140  0.253708  0.326581  1
  F  F30  1  0.969744  0.249413  0.828806  1
  F  F31  1  0.458910  0.738554  0.670924  1
  F  F32  1  0.434975  0.977860  0.236396  1
  F  F33  1  0.936806  0.024472  0.263863  1
  F  F34  1  0.567828  0.038558  0.766367  1
  F  F35  1  0.089101  0.981618  0.732835  1
