# generated using pymatgen
data_Ba10ReMoN10
_symmetry_space_group_name_H-M   'P 1'
_cell_length_a   8.15856966
_cell_length_b   8.15857044
_cell_length_c   9.63402614
_cell_angle_alpha   76.23806469
_cell_angle_beta   76.23806913
_cell_angle_gamma   97.05045720
_symmetry_Int_Tables_number   1
_chemical_formula_structural   Ba10ReMoN10
_chemical_formula_sum   'Ba10 Re1 Mo1 N10'
_cell_volume   593.94218406
_cell_formula_units_Z   1
loop_
 _symmetry_equiv_pos_site_id
 _symmetry_equiv_pos_as_xyz
  1  'x, y, z'
loop_
 _atom_site_type_symbol
 _atom_site_label
 _atom_site_symmetry_multiplicity
 _atom_site_fract_x
 _atom_site_fract_y
 _atom_site_fract_z
 _atom_site_occupancy
  Ba  Ba0  1  0.387059  0.388166  0.386879  1
  Ba  Ba1  1  0.611834  0.612941  0.613121  1
  Ba  Ba2  1  0.666919  0.668297  0.009247  1
  Ba  Ba3  1  0.331703  0.333081  0.990753  1
  Ba  Ba4  1  0.922169  0.917617  0.208569  1
  Ba  Ba5  1  0.082383  0.077831  0.791431  1
  Ba  Ba6  1  0.561734  0.096585  0.748611  1
  Ba  Ba7  1  0.903415  0.438266  0.251389  1
  Ba  Ba8  1  0.432197  0.897994  0.251546  1
  Ba  Ba9  1  0.102006  0.567803  0.748454  1
  Re  Re10  1  0.756458  0.243542  0.000000  1
  Mo  Mo11  1  0.243664  0.756336  0.000000  1
  N  N12  1  0.653215  0.653561  0.306974  1
  N  N13  1  0.346439  0.346785  0.693026  1
  N  N14  1  0.713385  0.019409  0.990488  1
  N  N15  1  0.980591  0.286615  0.009512  1
  N  N16  1  0.286725  0.985790  0.009764  1
  N  N17  1  0.014210  0.713275  0.990236  1
  N  N18  1  0.396361  0.730212  0.829821  1
  N  N19  1  0.269788  0.603639  0.170178  1
  N  N20  1  0.607692  0.269948  0.166140  1
  N  N21  1  0.730052  0.392308  0.833859  1
