# generated using pymatgen
data_LuZr4Sn3S
_symmetry_space_group_name_H-M   'P 1'
_cell_length_a   8.64218887
_cell_length_b   8.63548082
_cell_length_c   6.06518000
_cell_angle_alpha   90.00000000
_cell_angle_beta   90.00000000
_cell_angle_gamma   119.97432637
_symmetry_Int_Tables_number   1
_chemical_formula_structural   LuZr4Sn3S
_chemical_formula_sum   'Lu2 Zr8 Sn6 S2'
_cell_volume   392.10005104
_cell_formula_units_Z   2
loop_
 _symmetry_equiv_pos_site_id
 _symmetry_equiv_pos_as_xyz
  1  'x, y, z'
loop_
 _atom_site_type_symbol
 _atom_site_label
 _atom_site_symmetry_multiplicity
 _atom_site_fract_x
 _atom_site_fract_y
 _atom_site_fract_z
 _atom_site_occupancy
  Lu  Lu0  1  0.749494  0.749113  0.750000  1
  Lu  Lu1  1  0.250506  0.999619  0.750000  1
  Zr  Zr2  1  0.667735  0.332899  0.000998  1
  Zr  Zr3  1  0.332265  0.665165  0.000998  1
  Zr  Zr4  1  0.332265  0.665165  0.499002  1
  Zr  Zr5  1  0.667735  0.332899  0.499002  1
  Zr  Zr6  1  0.000000  0.251217  0.750000  1
  Zr  Zr7  1  0.252510  0.252573  0.250000  1
  Zr  Zr8  1  0.747490  0.000063  0.250000  1
  Zr  Zr9  1  0.000000  0.747299  0.250000  1
  Sn  Sn10  1  0.398212  0.399475  0.750000  1
  Sn  Sn11  1  0.601788  0.001263  0.750000  1
  Sn  Sn12  1  0.000000  0.596107  0.750000  1
  Sn  Sn13  1  0.600933  0.600970  0.250000  1
  Sn  Sn14  1  0.399067  0.000037  0.250000  1
  Sn  Sn15  1  0.000000  0.399204  0.250000  1
  S  S16  1  0.000000  0.003465  0.004519  1
  S  S17  1  0.000000  0.003465  0.495481  1
