# generated using pymatgen
data_Tb5Dy3(MoO6)4
_symmetry_space_group_name_H-M   'P 1'
_cell_length_a   9.97498298
_cell_length_b   9.97498265
_cell_length_c   5.41549525
_cell_angle_alpha   75.03244094
_cell_angle_beta   75.03243518
_cell_angle_gamma   68.11512340
_symmetry_Int_Tables_number   1
_chemical_formula_structural   Tb5Dy3(MoO6)4
_chemical_formula_sum   'Tb5 Dy3 Mo4 O24'
_cell_volume   475.09390052
_cell_formula_units_Z   1
loop_
 _symmetry_equiv_pos_site_id
 _symmetry_equiv_pos_as_xyz
  1  'x, y, z'
loop_
 _atom_site_type_symbol
 _atom_site_label
 _atom_site_symmetry_multiplicity
 _atom_site_fract_x
 _atom_site_fract_y
 _atom_site_fract_z
 _atom_site_occupancy
  Tb  Tb0  1  0.784172  0.552257  0.621075  1
  Tb  Tb1  1  0.447743  0.215828  0.878925  1
  Tb  Tb2  1  0.215781  0.448089  0.378821  1
  Tb  Tb3  1  0.551911  0.784219  0.121179  1
  Tb  Tb4  1  0.864230  0.135770  0.750000  1
  Dy  Dy5  1  0.136308  0.863692  0.250000  1
  Dy  Dy6  1  0.393363  0.606637  0.750000  1
  Dy  Dy7  1  0.606313  0.393687  0.250000  1
  Mo  Mo8  1  0.988924  0.703967  0.938939  1
  Mo  Mo9  1  0.296033  0.011076  0.561061  1
  Mo  Mo10  1  0.011186  0.296016  0.061039  1
  Mo  Mo11  1  0.703984  0.988814  0.438961  1
  O  O12  1  0.426781  0.391635  0.077748  1
  O  O13  1  0.608365  0.573219  0.422252  1
  O  O14  1  0.573040  0.608586  0.922020  1
  O  O15  1  0.391414  0.426960  0.577980  1
  O  O16  1  0.192264  0.663573  0.081354  1
  O  O17  1  0.336427  0.807736  0.418646  1
  O  O18  1  0.807932  0.337112  0.919624  1
  O  O19  1  0.662888  0.192068  0.580376  1
  O  O20  1  0.115824  0.673944  0.627965  1
  O  O21  1  0.326056  0.884176  0.872035  1
  O  O22  1  0.884241  0.326619  0.371661  1
  O  O23  1  0.673381  0.115759  0.128339  1
  O  O24  1  0.710532  0.817570  0.363485  1
  O  O25  1  0.182430  0.289468  0.136515  1
  O  O26  1  0.289295  0.182366  0.636512  1
  O  O27  1  0.817634  0.710705  0.863488  1
  O  O28  1  0.889798  0.951361  0.484136  1
  O  O29  1  0.048639  0.110202  0.015864  1
  O  O30  1  0.110721  0.048120  0.514446  1
  O  O31  1  0.951880  0.889279  0.985554  1
  O  O32  1  0.569043  0.974853  0.744049  1
  O  O33  1  0.025147  0.430957  0.755951  1
  O  O34  1  0.431085  0.024767  0.256372  1
  O  O35  1  0.975233  0.568915  0.243628  1
