# generated using pymatgen
data_Ho3TmLu4(MoO6)4
_symmetry_space_group_name_H-M   'P 1'
_cell_length_a   5.34090400
_cell_length_b   7.62250618
_cell_length_c   11.32635000
_cell_angle_alpha   75.40506621
_cell_angle_beta   90.00000000
_cell_angle_gamma   90.00000000
_symmetry_Int_Tables_number   1
_chemical_formula_structural   Ho3TmLu4(MoO6)4
_chemical_formula_sum   'Ho3 Tm1 Lu4 Mo4 O24'
_cell_volume   446.22859030
_cell_formula_units_Z   1
loop_
 _symmetry_equiv_pos_site_id
 _symmetry_equiv_pos_as_xyz
  1  'x, y, z'
loop_
 _atom_site_type_symbol
 _atom_site_label
 _atom_site_symmetry_multiplicity
 _atom_site_fract_x
 _atom_site_fract_y
 _atom_site_fract_z
 _atom_site_occupancy
  Ho  Ho0  1  0.257638  0.000000  0.750000  1
  Ho  Ho1  1  0.317473  0.500000  0.750000  1
  Ho  Ho2  1  0.683324  0.500000  0.250000  1
  Tm  Tm3  1  0.741717  0.000000  0.250000  1
  Lu  Lu4  1  0.181016  0.796150  0.080352  1
  Lu  Lu5  1  0.181016  0.203850  0.419648  1
  Lu  Lu6  1  0.818483  0.203977  0.920361  1
  Lu  Lu7  1  0.818483  0.796023  0.579639  1
  Mo  Mo8  1  0.743548  0.722176  0.887230  1
  Mo  Mo9  1  0.256696  0.723102  0.386670  1
  Mo  Mo10  1  0.743548  0.277824  0.612770  1
  Mo  Mo11  1  0.256696  0.276898  0.113330  1
  O  O12  1  0.538062  0.155682  0.068773  1
  O  O13  1  0.041082  0.058150  0.103143  1
  O  O14  1  0.017759  0.712757  0.769247  1
  O  O15  1  0.462337  0.157367  0.567677  1
  O  O16  1  0.354950  0.488937  0.386085  1
  O  O17  1  0.956795  0.058571  0.601716  1
  O  O18  1  0.539925  0.790908  0.723465  1
  O  O19  1  0.461756  0.792582  0.223286  1
  O  O20  1  0.150269  0.634795  0.549701  1
  O  O21  1  0.041082  0.941850  0.396857  1
  O  O22  1  0.462337  0.842633  0.932323  1
  O  O23  1  0.461756  0.207418  0.276714  1
  O  O24  1  0.850623  0.366501  0.449939  1
  O  O25  1  0.644564  0.488084  0.886847  1
  O  O26  1  0.354950  0.511063  0.113915  1
  O  O27  1  0.956795  0.941429  0.898284  1
  O  O28  1  0.538062  0.844318  0.431227  1
  O  O29  1  0.982057  0.286328  0.231170  1
  O  O30  1  0.539925  0.209092  0.776535  1
  O  O31  1  0.850623  0.633499  0.050061  1
  O  O32  1  0.017759  0.287243  0.730753  1
  O  O33  1  0.150269  0.365205  0.950299  1
  O  O34  1  0.982057  0.713672  0.268830  1
  O  O35  1  0.644564  0.511916  0.613153  1
