# generated using pymatgen
data_Ce2Nb3Ni9As7
_symmetry_space_group_name_H-M   'P 1'
_cell_length_a   3.91243700
_cell_length_b   9.68140640
_cell_length_c   9.68140700
_cell_angle_alpha   119.99999861
_cell_angle_beta   90.00000000
_cell_angle_gamma   90.00000000
_symmetry_Int_Tables_number   1
_chemical_formula_structural   Ce2Nb3Ni9As7
_chemical_formula_sum   'Ce2 Nb3 Ni9 As7'
_cell_volume   317.58130137
_cell_formula_units_Z   1
loop_
 _symmetry_equiv_pos_site_id
 _symmetry_equiv_pos_as_xyz
  1  'x, y, z'
loop_
 _atom_site_type_symbol
 _atom_site_label
 _atom_site_symmetry_multiplicity
 _atom_site_fract_x
 _atom_site_fract_y
 _atom_site_fract_z
 _atom_site_occupancy
  Ce  Ce0  1  0.000000  0.666667  0.333333  1
  Ce  Ce1  1  0.500000  0.333333  0.666667  1
  Nb  Nb2  1  0.500000  0.778220  0.891742  1
  Nb  Nb3  1  0.500000  0.113522  0.221780  1
  Nb  Nb4  1  0.500000  0.108258  0.886478  1
  Ni  Ni5  1  0.000000  0.576105  0.936365  1
  Ni  Ni6  1  0.000000  0.360259  0.423895  1
  Ni  Ni7  1  0.000000  0.063635  0.639741  1
  Ni  Ni8  1  0.000000  0.870815  0.154046  1
  Ni  Ni9  1  0.000000  0.283232  0.129185  1
  Ni  Ni10  1  0.000000  0.845954  0.716768  1
  Ni  Ni11  1  0.500000  0.939505  0.373958  1
  Ni  Ni12  1  0.500000  0.434453  0.060495  1
  Ni  Ni13  1  0.500000  0.626042  0.565547  1
  As  As14  1  0.500000  0.702476  0.111551  1
  As  As15  1  0.500000  0.409076  0.297524  1
  As  As16  1  0.500000  0.888449  0.590924  1
  As  As17  1  0.000000  0.000000  0.000000  1
  As  As18  1  0.000000  0.583013  0.690429  1
  As  As19  1  0.000000  0.107416  0.416987  1
  As  As20  1  0.000000  0.309571  0.892584  1
