# generated using pymatgen
data_Er4Al24CuPd7Au
_symmetry_space_group_name_H-M   'P 1'
_cell_length_a   7.54882829
_cell_length_b   7.56522495
_cell_length_c   13.10357204
_cell_angle_alpha   84.59153550
_cell_angle_beta   78.99996234
_cell_angle_gamma   59.94760133
_symmetry_Int_Tables_number   1
_chemical_formula_structural   Er4Al24CuPd7Au
_chemical_formula_sum   'Er4 Al24 Cu1 Pd7 Au1'
_cell_volume   635.82585792
_cell_formula_units_Z   1
loop_
 _symmetry_equiv_pos_site_id
 _symmetry_equiv_pos_as_xyz
  1  'x, y, z'
loop_
 _atom_site_type_symbol
 _atom_site_label
 _atom_site_symmetry_multiplicity
 _atom_site_fract_x
 _atom_site_fract_y
 _atom_site_fract_z
 _atom_site_occupancy
  Er  Er0  1  0.392263  0.169520  0.808889  1
  Er  Er1  1  0.607156  0.830423  0.192163  1
  Er  Er2  1  0.734106  0.498471  0.809067  1
  Er  Er3  1  0.265995  0.501063  0.191519  1
  Al  Al4  1  0.682522  0.834304  0.944992  1
  Al  Al5  1  0.316128  0.166263  0.056013  1
  Al  Al6  1  0.145254  0.839050  0.562087  1
  Al  Al7  1  0.855198  0.166188  0.435539  1
  Al  Al8  1  0.487147  0.160081  0.559714  1
  Al  Al9  1  0.521208  0.832410  0.438206  1
  Al  Al10  1  0.215859  0.167447  0.327469  1
  Al  Al11  1  0.776122  0.840135  0.674403  1
  Al  Al12  1  0.440575  0.506702  0.674530  1
  Al  Al13  1  0.566343  0.493389  0.327134  1
  Al  Al14  1  0.109057  0.153611  0.672914  1
  Al  Al15  1  0.890614  0.837242  0.328689  1
  Al  Al16  1  0.353691  0.498498  0.944578  1
  Al  Al17  1  0.646956  0.501087  0.056397  1
  Al  Al18  1  0.015196  0.167687  0.954454  1
  Al  Al19  1  0.984577  0.832012  0.046373  1
  Al  Al20  1  0.187937  0.499441  0.435163  1
  Al  Al21  1  0.807232  0.499647  0.557074  1
  Al  Al22  1  0.733197  0.164293  0.183749  1
  Al  Al23  1  0.268515  0.835847  0.816494  1
  Al  Al24  1  0.059899  0.634333  0.818290  1
  Al  Al25  1  0.938077  0.371231  0.186857  1
  Al  Al26  1  0.853358  0.043853  0.816216  1
  Al  Al27  1  0.145050  0.958224  0.184058  1
  Cu  Cu28  1  0.880070  0.508070  0.360530  1
  Pd  Pd29  1  0.656821  0.171751  0.999885  1
  Pd  Pd30  1  0.343241  0.828026  0.000158  1
  Pd  Pd31  1  0.537391  0.166749  0.361846  1
  Pd  Pd32  1  0.463440  0.832379  0.637313  1
  Pd  Pd33  1  0.778971  0.175934  0.636813  1
  Pd  Pd34  1  0.221434  0.824193  0.362450  1
  Pd  Pd35  1  0.999817  0.499629  0.000496  1
  Au  Au36  1  0.119582  0.490819  0.637478  1
