# generated using pymatgen
data_Hf6B4Ru9Rh
_symmetry_space_group_name_H-M   'P 1'
_cell_length_a   9.52309767
_cell_length_b   9.48599569
_cell_length_c   3.13617100
_cell_angle_alpha   90.00000000
_cell_angle_beta   90.00000000
_cell_angle_gamma   90.10082305
_symmetry_Int_Tables_number   1
_chemical_formula_structural   Hf6B4Ru9Rh
_chemical_formula_sum   'Hf6 B4 Ru9 Rh1'
_cell_volume   283.30890375
_cell_formula_units_Z   1
loop_
 _symmetry_equiv_pos_site_id
 _symmetry_equiv_pos_as_xyz
  1  'x, y, z'
loop_
 _atom_site_type_symbol
 _atom_site_label
 _atom_site_symmetry_multiplicity
 _atom_site_fract_x
 _atom_site_fract_y
 _atom_site_fract_z
 _atom_site_occupancy
  Hf  Hf0  1  0.829858  0.675279  0.000000  1
  Hf  Hf1  1  0.175988  0.324162  0.000000  1
  Hf  Hf2  1  0.319003  0.826848  0.000000  1
  Hf  Hf3  1  0.675290  0.177025  0.000000  1
  Hf  Hf4  1  0.499686  0.498188  0.000000  1
  Hf  Hf5  1  0.999633  0.000936  0.000000  1
  B  B6  1  0.623954  0.885081  0.000000  1
  B  B7  1  0.376757  0.121728  0.000000  1
  B  B8  1  0.122358  0.621493  0.000000  1
  B  B9  1  0.878053  0.378102  0.000000  1
  Ru  Ru10  1  0.428908  0.277990  0.500000  1
  Ru  Ru11  1  0.071769  0.779648  0.500000  1
  Ru  Ru12  1  0.927082  0.220340  0.500000  1
  Ru  Ru13  1  0.280116  0.572239  0.500000  1
  Ru  Ru14  1  0.720455  0.428930  0.500000  1
  Ru  Ru15  1  0.220481  0.071227  0.500000  1
  Ru  Ru16  1  0.778737  0.924803  0.500000  1
  Ru  Ru17  1  0.499580  0.997100  0.500000  1
  Ru  Ru18  1  0.000593  0.499584  0.500000  1
  Rh  Rh19  1  0.571699  0.719297  0.500000  1
