# generated using pymatgen
data_V12FePt3
_symmetry_space_group_name_H-M   'P 1'
_cell_length_a   4.77437600
_cell_length_b   4.78235400
_cell_length_c   9.54640900
_cell_angle_alpha   90.00000000
_cell_angle_beta   90.00000000
_cell_angle_gamma   90.00000000
_symmetry_Int_Tables_number   1
_chemical_formula_structural   V12FePt3
_chemical_formula_sum   'V12 Fe1 Pt3'
_cell_volume   217.97082891
_cell_formula_units_Z   1
loop_
 _symmetry_equiv_pos_site_id
 _symmetry_equiv_pos_as_xyz
  1  'x, y, z'
loop_
 _atom_site_type_symbol
 _atom_site_label
 _atom_site_symmetry_multiplicity
 _atom_site_fract_x
 _atom_site_fract_y
 _atom_site_fract_z
 _atom_site_occupancy
  V  V0  1  0.500000  0.000000  0.619568  1
  V  V1  1  0.500000  0.000000  0.125771  1
  V  V2  1  0.744901  0.500000  0.257987  1
  V  V3  1  0.744901  0.500000  0.742013  1
  V  V4  1  0.000000  0.744185  0.500000  1
  V  V5  1  0.000000  0.749785  0.000000  1
  V  V6  1  0.500000  0.000000  0.380432  1
  V  V7  1  0.500000  0.000000  0.874229  1
  V  V8  1  0.255099  0.500000  0.257987  1
  V  V9  1  0.255099  0.500000  0.742013  1
  V  V10  1  0.000000  0.255815  0.500000  1
  V  V11  1  0.000000  0.250215  0.000000  1
  Fe  Fe12  1  0.500000  0.500000  0.500000  1
  Pt  Pt13  1  0.500000  0.500000  0.000000  1
  Pt  Pt14  1  0.000000  0.000000  0.250790  1
  Pt  Pt15  1  0.000000  0.000000  0.749210  1
