# generated using pymatgen
data_Ho6CoSi4Ni
_symmetry_space_group_name_H-M   'P 1'
_cell_length_a   4.10363000
_cell_length_b   11.10787000
_cell_length_c   11.24792000
_cell_angle_alpha   90.00000000
_cell_angle_beta   90.00000000
_cell_angle_gamma   90.00000000
_symmetry_Int_Tables_number   1
_chemical_formula_structural   Ho6CoSi4Ni
_chemical_formula_sum   'Ho12 Co2 Si8 Ni2'
_cell_volume   512.70930961
_cell_formula_units_Z   2
loop_
 _symmetry_equiv_pos_site_id
 _symmetry_equiv_pos_as_xyz
  1  'x, y, z'
loop_
 _atom_site_type_symbol
 _atom_site_label
 _atom_site_symmetry_multiplicity
 _atom_site_fract_x
 _atom_site_fract_y
 _atom_site_fract_z
 _atom_site_occupancy
  Ho  Ho0  1  0.250000  0.125767  0.558059  1
  Ho  Ho1  1  0.250000  0.374233  0.058059  1
  Ho  Ho2  1  0.750000  0.875894  0.443011  1
  Ho  Ho3  1  0.750000  0.624106  0.943011  1
  Ho  Ho4  1  0.250000  0.803489  0.715336  1
  Ho  Ho5  1  0.250000  0.696511  0.215336  1
  Ho  Ho6  1  0.750000  0.198149  0.283114  1
  Ho  Ho7  1  0.750000  0.301851  0.783114  1
  Ho  Ho8  1  0.250000  0.060089  0.882581  1
  Ho  Ho9  1  0.250000  0.439911  0.382581  1
  Ho  Ho10  1  0.750000  0.942060  0.118394  1
  Ho  Ho11  1  0.750000  0.557940  0.618394  1
  Co  Co12  1  0.250000  0.364634  0.630058  1
  Co  Co13  1  0.250000  0.135366  0.130058  1
  Si  Si14  1  0.250000  0.495031  0.801919  1
  Si  Si15  1  0.250000  0.004969  0.301919  1
  Si  Si16  1  0.750000  0.504916  0.196533  1
  Si  Si17  1  0.750000  0.995084  0.696533  1
  Si  Si18  1  0.250000  0.813653  0.975373  1
  Si  Si19  1  0.250000  0.686347  0.475373  1
  Si  Si20  1  0.750000  0.185366  0.024647  1
  Si  Si21  1  0.750000  0.314634  0.524647  1
  Ni  Ni22  1  0.750000  0.634776  0.370974  1
  Ni  Ni23  1  0.750000  0.865224  0.870974  1
