# generated using pymatgen
data_Th3Pa(NiGe)4
_symmetry_space_group_name_H-M   'P 1'
_cell_length_a   4.19504200
_cell_length_b   7.76759627
_cell_length_c   7.26171835
_cell_angle_alpha   90.14494231
_cell_angle_beta   90.00000000
_cell_angle_gamma   90.00000000
_symmetry_Int_Tables_number   1
_chemical_formula_structural   Th3Pa(NiGe)4
_chemical_formula_sum   'Th3 Pa1 Ni4 Ge4'
_cell_volume   236.62518601
_cell_formula_units_Z   1
loop_
 _symmetry_equiv_pos_site_id
 _symmetry_equiv_pos_as_xyz
  1  'x, y, z'
loop_
 _atom_site_type_symbol
 _atom_site_label
 _atom_site_symmetry_multiplicity
 _atom_site_fract_x
 _atom_site_fract_y
 _atom_site_fract_z
 _atom_site_occupancy
  Th  Th0  1  0.250000  0.004504  0.748879  1
  Th  Th1  1  0.250000  0.503900  0.753243  1
  Th  Th2  1  0.750000  0.007898  0.250523  1
  Pa  Pa3  1  0.750000  0.507966  0.247456  1
  Ni  Ni4  1  0.250000  0.711968  0.413793  1
  Ni  Ni5  1  0.250000  0.241107  0.084596  1
  Ni  Ni6  1  0.750000  0.240008  0.582032  1
  Ni  Ni7  1  0.750000  0.729844  0.919729  1
  Ge  Ge8  1  0.250000  0.274447  0.413819  1
  Ge  Ge9  1  0.250000  0.755268  0.086201  1
  Ge  Ge10  1  0.750000  0.759083  0.580476  1
  Ge  Ge11  1  0.750000  0.264007  0.919254  1
