# generated using pymatgen
data_Ho12TcOs2Rh
_symmetry_space_group_name_H-M   'P 1'
_cell_length_a   6.29424424
_cell_length_b   7.32841996
_cell_length_c   9.08742300
_cell_angle_alpha   90.00000000
_cell_angle_beta   90.00000000
_cell_angle_gamma   90.19357202
_symmetry_Int_Tables_number   1
_chemical_formula_structural   Ho12TcOs2Rh
_chemical_formula_sum   'Ho12 Tc1 Os2 Rh1'
_cell_volume   419.17194265
_cell_formula_units_Z   1
loop_
 _symmetry_equiv_pos_site_id
 _symmetry_equiv_pos_as_xyz
  1  'x, y, z'
loop_
 _atom_site_type_symbol
 _atom_site_label
 _atom_site_symmetry_multiplicity
 _atom_site_fract_x
 _atom_site_fract_y
 _atom_site_fract_z
 _atom_site_occupancy
  Ho  Ho0  1  0.333896  0.673894  0.060884  1
  Ho  Ho1  1  0.168533  0.178170  0.438470  1
  Ho  Ho2  1  0.669262  0.324031  0.563119  1
  Ho  Ho3  1  0.827507  0.823355  0.933576  1
  Ho  Ho4  1  0.669262  0.324031  0.936881  1
  Ho  Ho5  1  0.827507  0.823355  0.566424  1
  Ho  Ho6  1  0.333896  0.673894  0.439116  1
  Ho  Ho7  1  0.168533  0.178170  0.061530  1
  Ho  Ho8  1  0.868127  0.538289  0.250000  1
  Ho  Ho9  1  0.631543  0.040200  0.250000  1
  Ho  Ho10  1  0.130301  0.462059  0.750000  1
  Ho  Ho11  1  0.369799  0.961393  0.750000  1
  Tc  Tc12  1  0.962616  0.114214  0.750000  1
  Os  Os13  1  0.459841  0.384420  0.250000  1
  Os  Os14  1  0.538197  0.616380  0.750000  1
  Rh  Rh15  1  0.041179  0.884148  0.250000  1
