# generated using pymatgen
data_Tb(GeRh2)2
_symmetry_space_group_name_H-M   'P 1'
_cell_length_a   4.22923700
_cell_length_b   9.21442800
_cell_length_c   11.53367600
_cell_angle_alpha   90.00000000
_cell_angle_beta   90.00000000
_cell_angle_gamma   90.00000000
_symmetry_Int_Tables_number   1
_chemical_formula_structural   Tb(GeRh2)2
_chemical_formula_sum   'Tb4 Ge8 Rh16'
_cell_volume   449.46735178
_cell_formula_units_Z   4
loop_
 _symmetry_equiv_pos_site_id
 _symmetry_equiv_pos_as_xyz
  1  'x, y, z'
loop_
 _atom_site_type_symbol
 _atom_site_label
 _atom_site_symmetry_multiplicity
 _atom_site_fract_x
 _atom_site_fract_y
 _atom_site_fract_z
 _atom_site_occupancy
  Tb  Tb0  1  0.250000  0.148082  0.825688  1
  Tb  Tb1  1  0.250000  0.351918  0.325688  1
  Tb  Tb2  1  0.750000  0.851918  0.174312  1
  Tb  Tb3  1  0.750000  0.648082  0.674312  1
  Ge  Ge4  1  0.250000  0.413327  0.638344  1
  Ge  Ge5  1  0.250000  0.086673  0.138344  1
  Ge  Ge6  1  0.750000  0.586673  0.361656  1
  Ge  Ge7  1  0.750000  0.913327  0.861656  1
  Ge  Ge8  1  0.250000  0.617861  0.059372  1
  Ge  Ge9  1  0.250000  0.882139  0.559372  1
  Ge  Ge10  1  0.750000  0.382139  0.940628  1
  Ge  Ge11  1  0.750000  0.117861  0.440628  1
  Rh  Rh12  1  0.250000  0.615228  0.498125  1
  Rh  Rh13  1  0.250000  0.884772  0.998125  1
  Rh  Rh14  1  0.750000  0.384772  0.501875  1
  Rh  Rh15  1  0.750000  0.115228  0.001875  1
  Rh  Rh16  1  0.250000  0.690039  0.269440  1
  Rh  Rh17  1  0.250000  0.809961  0.769440  1
  Rh  Rh18  1  0.750000  0.309961  0.730560  1
  Rh  Rh19  1  0.750000  0.190039  0.230560  1
  Rh  Rh20  1  0.250000  0.170668  0.560307  1
  Rh  Rh21  1  0.250000  0.329332  0.060307  1
  Rh  Rh22  1  0.750000  0.829332  0.439693  1
  Rh  Rh23  1  0.750000  0.670668  0.939693  1
  Rh  Rh24  1  0.250000  0.003969  0.344907  1
  Rh  Rh25  1  0.250000  0.496031  0.844907  1
  Rh  Rh26  1  0.750000  0.996031  0.655093  1
  Rh  Rh27  1  0.750000  0.503969  0.155093  1
