# generated using pymatgen
data_Sr2TlInPt2
_symmetry_space_group_name_H-M   'P 1'
_cell_length_a   4.62987100
_cell_length_b   7.71269768
_cell_length_c   8.73923183
_cell_angle_alpha   89.60514602
_cell_angle_beta   90.00000000
_cell_angle_gamma   90.00000000
_symmetry_Int_Tables_number   1
_chemical_formula_structural   Sr2TlInPt2
_chemical_formula_sum   'Sr4 Tl2 In2 Pt4'
_cell_volume   312.06003034
_cell_formula_units_Z   2
loop_
 _symmetry_equiv_pos_site_id
 _symmetry_equiv_pos_as_xyz
  1  'x, y, z'
loop_
 _atom_site_type_symbol
 _atom_site_label
 _atom_site_symmetry_multiplicity
 _atom_site_fract_x
 _atom_site_fract_y
 _atom_site_fract_z
 _atom_site_occupancy
  Sr  Sr0  1  0.250000  0.029560  0.319234  1
  Sr  Sr1  1  0.250000  0.527598  0.179238  1
  Sr  Sr2  1  0.750000  0.970630  0.680590  1
  Sr  Sr3  1  0.750000  0.473245  0.820326  1
  Tl  Tl4  1  0.750000  0.846422  0.068215  1
  Tl  Tl5  1  0.250000  0.154033  0.932165  1
  In  In6  1  0.250000  0.647442  0.564197  1
  In  In7  1  0.750000  0.351304  0.435964  1
  Pt  Pt8  1  0.250000  0.281212  0.613543  1
  Pt  Pt9  1  0.250000  0.771065  0.867054  1
  Pt  Pt10  1  0.750000  0.717106  0.387232  1
  Pt  Pt11  1  0.750000  0.230383  0.132239  1
