# generated using pymatgen
data_TaTcS4
_symmetry_space_group_name_H-M   'P 1'
_cell_length_a   7.56483612
_cell_length_b   7.56483771
_cell_length_c   5.57119397
_cell_angle_alpha   82.60781473
_cell_angle_beta   82.60781224
_cell_angle_gamma   24.61574996
_symmetry_Int_Tables_number   1
_chemical_formula_structural   TaTcS4
_chemical_formula_sum   'Ta1 Tc1 S4'
_cell_volume   131.64239187
_cell_formula_units_Z   1
loop_
 _symmetry_equiv_pos_site_id
 _symmetry_equiv_pos_as_xyz
  1  'x, y, z'
loop_
 _atom_site_type_symbol
 _atom_site_label
 _atom_site_symmetry_multiplicity
 _atom_site_fract_x
 _atom_site_fract_y
 _atom_site_fract_z
 _atom_site_occupancy
  Ta  Ta0  1  0.749966  0.749966  0.082923  1
  Tc  Tc1  1  0.250008  0.250008  0.580532  1
  S  S2  1  0.358474  0.358474  0.219144  1
  S  S3  1  0.855393  0.855393  0.707875  1
  S  S4  1  0.644693  0.644693  0.781402  1
  S  S5  1  0.141367  0.141367  0.294824  1
