# generated using pymatgen
data_Ho2Be24CuNi
_symmetry_space_group_name_H-M   'P 1'
_cell_length_a   7.24916167
_cell_length_b   7.30687094
_cell_length_c   7.22773861
_cell_angle_alpha   59.83194306
_cell_angle_beta   59.77633555
_cell_angle_gamma   59.54190846
_symmetry_Int_Tables_number   1
_chemical_formula_structural   Ho2Be24CuNi
_chemical_formula_sum   'Ho2 Be24 Cu1 Ni1'
_cell_volume   268.96585775
_cell_formula_units_Z   1
loop_
 _symmetry_equiv_pos_site_id
 _symmetry_equiv_pos_as_xyz
  1  'x, y, z'
loop_
 _atom_site_type_symbol
 _atom_site_label
 _atom_site_symmetry_multiplicity
 _atom_site_fract_x
 _atom_site_fract_y
 _atom_site_fract_z
 _atom_site_occupancy
  Ho  Ho0  1  0.252441  0.246942  0.250101  1
  Ho  Ho1  1  0.749899  0.749484  0.747559  1
  Be  Be2  1  0.497299  0.498864  0.502701  1
  Be  Be3  1  0.000760  0.998532  0.999240  1
  Be  Be4  1  0.566081  0.791382  0.433919  1
  Be  Be5  1  0.432475  0.211404  0.567525  1
  Be  Be6  1  0.293361  0.936198  0.706639  1
  Be  Be7  1  0.707103  0.064358  0.292897  1
  Be  Be8  1  0.933862  0.280752  0.066138  1
  Be  Be9  1  0.070274  0.716982  0.929726  1
  Be  Be10  1  0.207176  0.796827  0.560641  1
  Be  Be11  1  0.793154  0.199027  0.441771  1
  Be  Be12  1  0.439359  0.564644  0.792824  1
  Be  Be13  1  0.558229  0.433952  0.206846  1
  Be  Be14  1  0.711014  0.285721  0.936345  1
  Be  Be15  1  0.289379  0.715400  0.064210  1
  Be  Be16  1  0.063655  0.933080  0.288986  1
  Be  Be17  1  0.935790  0.068989  0.710621  1
  Be  Be18  1  0.562753  0.208668  0.793094  1
  Be  Be19  1  0.434820  0.793352  0.207246  1
  Be  Be20  1  0.792754  0.435418  0.565180  1
  Be  Be21  1  0.206906  0.564515  0.437247  1
  Be  Be22  1  0.936676  0.711728  0.292392  1
  Be  Be23  1  0.063356  0.290334  0.710054  1
  Be  Be24  1  0.289946  0.063743  0.936644  1
  Be  Be25  1  0.707608  0.940796  0.063324  1
  Cu  Cu26  1  0.803834  0.557446  0.196166  1
  Ni  Ni27  1  0.200033  0.441465  0.799967  1
