# generated using pymatgen
data_Tm10Si16Au
_symmetry_space_group_name_H-M   'P 1'
_cell_length_a   10.98754259
_cell_length_b   10.98296585
_cell_length_c   10.98754262
_cell_angle_alpha   144.67555573
_cell_angle_beta   136.44587161
_cell_angle_gamma   57.28232241
_symmetry_Int_Tables_number   1
_chemical_formula_structural   Tm10Si16Au
_chemical_formula_sum   'Tm10 Si16 Au1'
_cell_volume   523.94838135
_cell_formula_units_Z   1
loop_
 _symmetry_equiv_pos_site_id
 _symmetry_equiv_pos_as_xyz
  1  'x, y, z'
loop_
 _atom_site_type_symbol
 _atom_site_label
 _atom_site_symmetry_multiplicity
 _atom_site_fract_x
 _atom_site_fract_y
 _atom_site_fract_z
 _atom_site_occupancy
  Tm  Tm0  1  0.755664  0.754585  0.502191  1
  Tm  Tm1  1  0.455739  0.961368  0.008752  1
  Tm  Tm2  1  0.855841  0.360538  0.016011  1
  Tm  Tm3  1  0.952616  0.961368  0.505629  1
  Tm  Tm4  1  0.154904  0.168481  0.517747  1
  Tm  Tm5  1  0.344527  0.360538  0.504697  1
  Tm  Tm6  1  0.252394  0.754585  0.998922  1
  Tm  Tm7  1  0.549663  0.565686  0.501483  1
  Tm  Tm8  1  0.064203  0.565686  0.016025  1
  Tm  Tm9  1  0.650735  0.168481  0.013578  1
  Si  Si10  1  0.203101  0.576686  0.373586  1
  Si  Si11  1  0.995226  0.058285  0.063058  1
  Si  Si12  1  0.698500  0.271573  0.573074  1
  Si  Si13  1  0.807614  0.222763  0.415150  1
  Si  Si14  1  0.903049  0.556217  0.653169  1
  Si  Si15  1  0.419571  0.870295  0.450723  1
  Si  Si16  1  0.105838  0.706339  0.600501  1
  Si  Si17  1  0.303603  0.898060  0.594459  1
  Si  Si18  1  0.579892  0.039920  0.460029  1
  Si  Si19  1  0.999899  0.421308  0.421410  1
  Si  Si20  1  0.827254  0.886265  0.059012  1
  Si  Si21  1  0.403290  0.494363  0.091073  1
  Si  Si22  1  0.120425  0.077428  0.957002  1
  Si  Si23  1  0.286748  0.239222  0.952476  1
  Si  Si24  1  0.503312  0.381039  0.877727  1
  Si  Si25  1  0.598836  0.702516  0.103679  1
  Au  Au26  1  0.707559  0.637899  0.930338  1
