# generated using pymatgen
data_Dy20CuBi8Os3
_symmetry_space_group_name_H-M   'P 1'
_cell_length_a   7.99411099
_cell_length_b   9.03975300
_cell_length_c   12.43967545
_cell_angle_alpha   90.00000000
_cell_angle_beta   89.65941033
_cell_angle_gamma   90.00000000
_symmetry_Int_Tables_number   1
_chemical_formula_structural   Dy20CuBi8Os3
_chemical_formula_sum   'Dy20 Cu1 Bi8 Os3'
_cell_volume   898.93463630
_cell_formula_units_Z   1
loop_
 _symmetry_equiv_pos_site_id
 _symmetry_equiv_pos_as_xyz
  1  'x, y, z'
loop_
 _atom_site_type_symbol
 _atom_site_label
 _atom_site_symmetry_multiplicity
 _atom_site_fract_x
 _atom_site_fract_y
 _atom_site_fract_z
 _atom_site_occupancy
  Dy  Dy0  1  0.842981  0.750000  0.794281  1
  Dy  Dy1  1  0.158658  0.250000  0.208286  1
  Dy  Dy2  1  0.339438  0.250000  0.708415  1
  Dy  Dy3  1  0.665713  0.750000  0.286267  1
  Dy  Dy4  1  0.371254  0.750000  0.696212  1
  Dy  Dy5  1  0.623466  0.250000  0.307957  1
  Dy  Dy6  1  0.878054  0.250000  0.806150  1
  Dy  Dy7  1  0.124858  0.750000  0.196065  1
  Dy  Dy8  1  0.955653  0.750000  0.501837  1
  Dy  Dy9  1  0.051808  0.250000  0.497516  1
  Dy  Dy10  1  0.440839  0.250000  0.996045  1
  Dy  Dy11  1  0.555205  0.750000  0.002390  1
  Dy  Dy12  1  0.676674  0.049709  0.564545  1
  Dy  Dy13  1  0.322052  0.963820  0.433843  1
  Dy  Dy14  1  0.174897  0.956265  0.936115  1
  Dy  Dy15  1  0.322052  0.536180  0.433843  1
  Dy  Dy16  1  0.825538  0.040234  0.063786  1
  Dy  Dy17  1  0.676674  0.450291  0.564545  1
  Dy  Dy18  1  0.825538  0.459766  0.063786  1
  Dy  Dy19  1  0.174897  0.543735  0.936115  1
  Cu  Cu20  1  0.574920  0.750000  0.511266  1
  Bi  Bi21  1  0.568393  0.492030  0.825746  1
  Bi  Bi22  1  0.432590  0.508114  0.172727  1
  Bi  Bi23  1  0.069006  0.508701  0.671838  1
  Bi  Bi24  1  0.432590  0.991886  0.172727  1
  Bi  Bi25  1  0.928378  0.491811  0.328834  1
  Bi  Bi26  1  0.568393  0.007970  0.825746  1
  Bi  Bi27  1  0.928378  0.008189  0.328834  1
  Bi  Bi28  1  0.069006  0.991299  0.671838  1
  Os  Os29  1  0.423670  0.250000  0.489729  1
  Os  Os30  1  0.075651  0.250000  0.989387  1
  Os  Os31  1  0.922776  0.750000  0.013329  1
