# generated using pymatgen
data_HoLuZr2(Al3Rh)6
_symmetry_space_group_name_H-M   'P 1'
_cell_length_a   7.51109900
_cell_length_b   7.49732306
_cell_length_c   9.34148100
_cell_angle_alpha   90.00000000
_cell_angle_beta   90.00000000
_cell_angle_gamma   119.65816122
_symmetry_Int_Tables_number   1
_chemical_formula_structural   HoLuZr2(Al3Rh)6
_chemical_formula_sum   'Ho1 Lu1 Zr2 Al18 Rh6'
_cell_volume   457.13214732
_cell_formula_units_Z   1
loop_
 _symmetry_equiv_pos_site_id
 _symmetry_equiv_pos_as_xyz
  1  'x, y, z'
loop_
 _atom_site_type_symbol
 _atom_site_label
 _atom_site_symmetry_multiplicity
 _atom_site_fract_x
 _atom_site_fract_y
 _atom_site_fract_z
 _atom_site_occupancy
  Ho  Ho0  1  0.670779  0.993577  0.250000  1
  Lu  Lu1  1  0.328780  0.006353  0.750000  1
  Zr  Zr2  1  0.995118  0.671718  0.250000  1
  Zr  Zr3  1  0.005176  0.328427  0.750000  1
  Al  Al4  1  0.125408  0.123734  0.250000  1
  Al  Al5  1  0.875402  0.876595  0.750000  1
  Al  Al6  1  0.999163  0.337266  0.075100  1
  Al  Al7  1  0.001378  0.663236  0.924053  1
  Al  Al8  1  0.001378  0.663236  0.575947  1
  Al  Al9  1  0.332451  0.998091  0.422075  1
  Al  Al10  1  0.999163  0.337266  0.424900  1
  Al  Al11  1  0.666986  0.001989  0.579235  1
  Al  Al12  1  0.666986  0.001989  0.920765  1
  Al  Al13  1  0.332451  0.998091  0.077925  1
  Al  Al14  1  0.330960  0.332944  0.556105  1
  Al  Al15  1  0.669121  0.666621  0.444751  1
  Al  Al16  1  0.669121  0.666621  0.055249  1
  Al  Al17  1  0.330960  0.332944  0.943895  1
  Al  Al18  1  0.334586  0.549048  0.250000  1
  Al  Al19  1  0.664727  0.450108  0.750000  1
  Al  Al20  1  0.556089  0.343598  0.250000  1
  Al  Al21  1  0.443482  0.656677  0.750000  1
  Rh  Rh22  1  0.672016  0.327159  0.999001  1
  Rh  Rh23  1  0.327639  0.672724  0.000557  1
  Rh  Rh24  1  0.327639  0.672724  0.499443  1
  Rh  Rh25  1  0.672016  0.327159  0.500999  1
  Rh  Rh26  1  0.000512  0.000054  0.999678  1
  Rh  Rh27  1  0.000512  0.000054  0.500322  1
