# generated using pymatgen
data_HfZr5Ti3Al13OsPt6
_symmetry_space_group_name_H-M   'P 1'
_cell_length_a   8.78362406
_cell_length_b   8.79015918
_cell_length_c   8.77761300
_cell_angle_alpha   59.99797225
_cell_angle_beta   60.07187602
_cell_angle_gamma   59.84176073
_symmetry_Int_Tables_number   1
_chemical_formula_structural   HfZr5Ti3Al13OsPt6
_chemical_formula_sum   'Hf1 Zr5 Ti3 Al13 Os1 Pt6'
_cell_volume   478.89245242
_cell_formula_units_Z   1
loop_
 _symmetry_equiv_pos_site_id
 _symmetry_equiv_pos_as_xyz
  1  'x, y, z'
loop_
 _atom_site_type_symbol
 _atom_site_label
 _atom_site_symmetry_multiplicity
 _atom_site_fract_x
 _atom_site_fract_y
 _atom_site_fract_z
 _atom_site_occupancy
  Hf  Hf0  1  0.318039  0.679930  0.686169  1
  Zr  Zr1  1  0.690065  0.690615  0.308686  1
  Zr  Zr2  1  0.314939  0.682751  0.313027  1
  Zr  Zr3  1  0.684035  0.313675  0.310895  1
  Zr  Zr4  1  0.310345  0.311219  0.688688  1
  Zr  Zr5  1  0.682527  0.315307  0.688045  1
  Ti  Ti6  1  0.878724  0.879266  0.361010  1
  Ti  Ti7  1  0.871013  0.362787  0.882565  1
  Ti  Ti8  1  0.361793  0.871497  0.882533  1
  Al  Al9  1  0.881911  0.881209  0.882116  1
  Al  Al10  1  0.120721  0.120337  0.640858  1
  Al  Al11  1  0.127018  0.638915  0.117291  1
  Al  Al12  1  0.637696  0.127508  0.117831  1
  Al  Al13  1  0.121948  0.121744  0.119893  1
  Al  Al14  1  0.663618  0.664136  0.008093  1
  Al  Al15  1  0.663831  0.007628  0.664715  1
  Al  Al16  1  0.008544  0.663779  0.664298  1
  Al  Al17  1  0.662991  0.663050  0.662303  1
  Al  Al18  1  0.336945  0.337201  0.992825  1
  Al  Al19  1  0.336232  0.990251  0.337288  1
  Al  Al20  1  0.991185  0.336253  0.336863  1
  Al  Al21  1  0.335866  0.336493  0.332401  1
  Os  Os22  1  0.501930  0.504054  0.995798  1
  Pt  Pt23  1  0.000927  0.002464  0.003539  1
  Pt  Pt24  1  0.999166  0.998580  0.501759  1
  Pt  Pt25  1  0.499466  0.999015  0.501299  1
  Pt  Pt26  1  0.999268  0.500389  0.500617  1
  Pt  Pt27  1  0.999180  0.500885  0.999151  1
  Pt  Pt28  1  0.500078  0.999060  0.999444  1
