# generated using pymatgen
data_YbTh3Ni14
_symmetry_space_group_name_H-M   'P 1'
_cell_length_a   4.96485046
_cell_length_b   4.96485076
_cell_length_c   12.50449382
_cell_angle_alpha   78.54942531
_cell_angle_beta   78.54942319
_cell_angle_gamma   59.99999943
_symmetry_Int_Tables_number   1
_chemical_formula_structural   YbTh3Ni14
_chemical_formula_sum   'Yb1 Th3 Ni14'
_cell_volume   259.82902319
_cell_formula_units_Z   1
loop_
 _symmetry_equiv_pos_site_id
 _symmetry_equiv_pos_as_xyz
  1  'x, y, z'
loop_
 _atom_site_type_symbol
 _atom_site_label
 _atom_site_symmetry_multiplicity
 _atom_site_fract_x
 _atom_site_fract_y
 _atom_site_fract_z
 _atom_site_occupancy
  Yb  Yb0  1  0.146187  0.146187  0.561441  1
  Th  Th1  1  0.949403  0.949403  0.151792  1
  Th  Th2  1  0.052555  0.052555  0.842334  1
  Th  Th3  1  0.850815  0.850815  0.447553  1
  Ni  Ni4  1  0.499503  0.499503  0.501491  1
  Ni  Ni5  1  0.722310  0.722310  0.833069  1
  Ni  Ni6  1  0.278032  0.278032  0.165904  1
  Ni  Ni7  1  0.611507  0.611507  0.165480  1
  Ni  Ni8  1  0.388599  0.388599  0.834204  1
  Ni  Ni9  1  0.000007  0.500225  0.999544  1
  Ni  Ni10  1  0.500225  0.000007  0.999544  1
  Ni  Ni11  1  0.500225  0.500225  0.999544  1
  Ni  Ni12  1  0.388758  0.388758  0.331086  1
  Ni  Ni13  1  0.891398  0.388758  0.331086  1
  Ni  Ni14  1  0.388758  0.891398  0.331086  1
  Ni  Ni15  1  0.610626  0.610626  0.668281  1
  Ni  Ni16  1  0.110467  0.610626  0.668281  1
  Ni  Ni17  1  0.610626  0.110467  0.668281  1
