# generated using pymatgen
data_ErTiCo4P3
_symmetry_space_group_name_H-M   'P 1'
_cell_length_a   3.63985100
_cell_length_b   10.42484900
_cell_length_c   11.91653700
_cell_angle_alpha   90.00000000
_cell_angle_beta   90.00000000
_cell_angle_gamma   90.00000000
_symmetry_Int_Tables_number   1
_chemical_formula_structural   ErTiCo4P3
_chemical_formula_sum   'Er4 Ti4 Co16 P12'
_cell_volume   452.17176975
_cell_formula_units_Z   4
loop_
 _symmetry_equiv_pos_site_id
 _symmetry_equiv_pos_as_xyz
  1  'x, y, z'
loop_
 _atom_site_type_symbol
 _atom_site_label
 _atom_site_symmetry_multiplicity
 _atom_site_fract_x
 _atom_site_fract_y
 _atom_site_fract_z
 _atom_site_occupancy
  Er  Er0  1  0.250000  0.582321  0.706244  1
  Er  Er1  1  0.250000  0.917679  0.206244  1
  Er  Er2  1  0.750000  0.417679  0.293756  1
  Er  Er3  1  0.750000  0.082321  0.793756  1
  Ti  Ti4  1  0.250000  0.702643  0.990386  1
  Ti  Ti5  1  0.250000  0.797357  0.490386  1
  Ti  Ti6  1  0.750000  0.297357  0.009614  1
  Ti  Ti7  1  0.750000  0.202643  0.509614  1
  Co  Co8  1  0.250000  0.406189  0.489537  1
  Co  Co9  1  0.250000  0.093811  0.989537  1
  Co  Co10  1  0.750000  0.593811  0.510463  1
  Co  Co11  1  0.750000  0.906189  0.010463  1
  Co  Co12  1  0.250000  0.221747  0.175994  1
  Co  Co13  1  0.250000  0.278253  0.675994  1
  Co  Co14  1  0.750000  0.778253  0.824006  1
  Co  Co15  1  0.750000  0.721747  0.324006  1
  Co  Co16  1  0.250000  0.885215  0.700356  1
  Co  Co17  1  0.250000  0.614785  0.200356  1
  Co  Co18  1  0.750000  0.114785  0.299644  1
  Co  Co19  1  0.750000  0.385215  0.799644  1
  Co  Co20  1  0.250000  0.464350  0.933156  1
  Co  Co21  1  0.250000  0.035650  0.433156  1
  Co  Co22  1  0.750000  0.535650  0.066844  1
  Co  Co23  1  0.750000  0.964350  0.566844  1
  P  P24  1  0.250000  0.421568  0.115910  1
  P  P25  1  0.250000  0.078432  0.615910  1
  P  P26  1  0.750000  0.578432  0.884090  1
  P  P27  1  0.750000  0.921568  0.384090  1
  P  P28  1  0.250000  0.268575  0.862249  1
  P  P29  1  0.250000  0.231425  0.362249  1
  P  P30  1  0.750000  0.731425  0.137751  1
  P  P31  1  0.750000  0.768575  0.637751  1
  P  P32  1  0.250000  0.592092  0.389738  1
  P  P33  1  0.250000  0.907908  0.889738  1
  P  P34  1  0.750000  0.407908  0.610262  1
  P  P35  1  0.750000  0.092092  0.110262  1
