# generated using pymatgen
data_U2MnFe2Si
_symmetry_space_group_name_H-M   'P 1'
_cell_length_a   5.19493700
_cell_length_b   5.05349291
_cell_length_c   7.74554400
_cell_angle_alpha   90.00000000
_cell_angle_beta   90.00000000
_cell_angle_gamma   120.93027545
_symmetry_Int_Tables_number   1
_chemical_formula_structural   U2MnFe2Si
_chemical_formula_sum   'U4 Mn2 Fe4 Si2'
_cell_volume   174.42413791
_cell_formula_units_Z   2
loop_
 _symmetry_equiv_pos_site_id
 _symmetry_equiv_pos_as_xyz
  1  'x, y, z'
loop_
 _atom_site_type_symbol
 _atom_site_label
 _atom_site_symmetry_multiplicity
 _atom_site_fract_x
 _atom_site_fract_y
 _atom_site_fract_z
 _atom_site_occupancy
  U  U0  1  0.659723  0.319445  0.425295  1
  U  U1  1  0.340277  0.680555  0.574705  1
  U  U2  1  0.340277  0.680555  0.925295  1
  U  U3  1  0.659723  0.319445  0.074705  1
  Mn  Mn4  1  0.829532  0.659063  0.750000  1
  Mn  Mn5  1  0.170468  0.340937  0.250000  1
  Fe  Fe6  1  0.836809  0.170242  0.750000  1
  Fe  Fe7  1  0.163191  0.829758  0.250000  1
  Fe  Fe8  1  0.333434  0.170242  0.750000  1
  Fe  Fe9  1  0.666566  0.829758  0.250000  1
  Si  Si10  1  0.000000  0.000000  0.000000  1
  Si  Si11  1  0.000000  0.000000  0.500000  1
