# generated using pymatgen
data_DyY4Ho15Sn16
_symmetry_space_group_name_H-M   'P 1'
_cell_length_a   8.02545392
_cell_length_b   8.15426365
_cell_length_c   15.42551885
_cell_angle_alpha   90.02013802
_cell_angle_beta   89.95446333
_cell_angle_gamma   89.91563039
_symmetry_Int_Tables_number   1
_chemical_formula_structural   DyY4Ho15Sn16
_chemical_formula_sum   'Dy1 Y4 Ho15 Sn16'
_cell_volume   1009.47019430
_cell_formula_units_Z   1
loop_
 _symmetry_equiv_pos_site_id
 _symmetry_equiv_pos_as_xyz
  1  'x, y, z'
loop_
 _atom_site_type_symbol
 _atom_site_label
 _atom_site_symmetry_multiplicity
 _atom_site_fract_x
 _atom_site_fract_y
 _atom_site_fract_z
 _atom_site_occupancy
  Dy  Dy0  1  0.020699  0.179284  0.902830  1
  Y  Y1  1  0.979285  0.820980  0.097154  1
  Y  Y2  1  0.479321  0.678789  0.096912  1
  Y  Y3  1  0.978982  0.821145  0.402979  1
  Y  Y4  1  0.520914  0.321108  0.597160  1
  Ho  Ho5  1  0.367285  0.837368  0.877436  1
  Ho  Ho6  1  0.867665  0.662461  0.622450  1
  Ho  Ho7  1  0.632173  0.162670  0.377556  1
  Ho  Ho8  1  0.132359  0.337246  0.122431  1
  Ho  Ho9  1  0.632241  0.162830  0.122453  1
  Ho  Ho10  1  0.132162  0.337191  0.377832  1
  Ho  Ho11  1  0.367763  0.837397  0.622437  1
  Ho  Ho12  1  0.867517  0.662466  0.877368  1
  Ho  Ho13  1  0.521288  0.320916  0.902530  1
  Ho  Ho14  1  0.021235  0.179063  0.597495  1
  Ho  Ho15  1  0.478784  0.678997  0.402683  1
  Ho  Ho16  1  0.198933  0.503330  0.749932  1
  Ho  Ho17  1  0.698814  0.996681  0.749990  1
  Ho  Ho18  1  0.800982  0.496471  0.250058  1
  Ho  Ho19  1  0.301220  0.003444  0.250159  1
  Sn  Sn20  1  0.293608  0.037483  0.041584  1
  Sn  Sn21  1  0.792550  0.463151  0.458176  1
  Sn  Sn22  1  0.707306  0.963261  0.541902  1
  Sn  Sn23  1  0.207339  0.536568  0.957973  1
  Sn  Sn24  1  0.706597  0.963085  0.958125  1
  Sn  Sn25  1  0.206734  0.537370  0.541609  1
  Sn  Sn26  1  0.293526  0.037227  0.458658  1
  Sn  Sn27  1  0.793620  0.462170  0.041342  1
  Sn  Sn28  1  0.565297  0.619361  0.749853  1
  Sn  Sn29  1  0.064890  0.880963  0.749850  1
  Sn  Sn30  1  0.434433  0.381249  0.250098  1
  Sn  Sn31  1  0.934819  0.119154  0.250327  1
  Sn  Sn32  1  0.330165  0.148230  0.750565  1
  Sn  Sn33  1  0.830607  0.351212  0.749818  1
  Sn  Sn34  1  0.669150  0.851677  0.250138  1
  Sn  Sn35  1  0.169745  0.648002  0.250137  1
