# generated using pymatgen
data_La3Nd7(GeC)4
_symmetry_space_group_name_H-M   'P 1'
_cell_length_a   8.12214212
_cell_length_b   12.74188618
_cell_length_c   4.24849000
_cell_angle_alpha   90.00000000
_cell_angle_beta   90.00000000
_cell_angle_gamma   89.98049917
_symmetry_Int_Tables_number   1
_chemical_formula_structural   La3Nd7(GeC)4
_chemical_formula_sum   'La3 Nd7 Ge4 C4'
_cell_volume   439.68219686
_cell_formula_units_Z   1
loop_
 _symmetry_equiv_pos_site_id
 _symmetry_equiv_pos_as_xyz
  1  'x, y, z'
loop_
 _atom_site_type_symbol
 _atom_site_label
 _atom_site_symmetry_multiplicity
 _atom_site_fract_x
 _atom_site_fract_y
 _atom_site_fract_z
 _atom_site_occupancy
  La  La0  1  0.330962  0.440131  0.499998  1
  La  La1  1  0.669997  0.560063  0.499998  1
  La  La2  1  0.170854  0.940116  0.499998  1
  Nd  Nd3  1  0.501340  0.000245  0.000000  1
  Nd  Nd4  1  0.173175  0.213029  0.000000  1
  Nd  Nd5  1  0.674233  0.285890  0.000000  1
  Nd  Nd6  1  0.999797  0.499455  0.000000  1
  Nd  Nd7  1  0.326206  0.713040  0.000000  1
  Nd  Nd8  1  0.825749  0.787188  0.000000  1
  Nd  Nd9  1  0.831647  0.060226  0.499998  1
  Ge  Ge10  1  0.451932  0.170458  0.499998  1
  Ge  Ge11  1  0.949964  0.327461  0.499998  1
  Ge  Ge12  1  0.049281  0.671417  0.499998  1
  Ge  Ge13  1  0.549597  0.829264  0.499998  1
  C  C14  1  0.036368  0.048341  0.000000  1
  C  C15  1  0.540250  0.452571  0.000000  1
  C  C16  1  0.461177  0.547423  0.000000  1
  C  C17  1  0.957473  0.953681  0.000000  1
