# generated using pymatgen
data_Nd3Dy2Bi3
_symmetry_space_group_name_H-M   'P 1'
_cell_length_a   9.37778308
_cell_length_b   9.37778309
_cell_length_c   6.52488600
_cell_angle_alpha   90.00000000
_cell_angle_beta   90.00000000
_cell_angle_gamma   119.99985115
_symmetry_Int_Tables_number   1
_chemical_formula_structural   Nd3Dy2Bi3
_chemical_formula_sum   'Nd6 Dy4 Bi6'
_cell_volume   496.94071165
_cell_formula_units_Z   2
loop_
 _symmetry_equiv_pos_site_id
 _symmetry_equiv_pos_as_xyz
  1  'x, y, z'
loop_
 _atom_site_type_symbol
 _atom_site_label
 _atom_site_symmetry_multiplicity
 _atom_site_fract_x
 _atom_site_fract_y
 _atom_site_fract_z
 _atom_site_occupancy
  Nd  Nd0  1  0.246950  0.000009  0.250001  1
  Nd  Nd1  1  0.753050  0.999991  0.750000  1
  Nd  Nd2  1  0.000008  0.246950  0.250001  1
  Nd  Nd3  1  0.753144  0.753143  0.250001  1
  Nd  Nd4  1  0.246856  0.246856  0.750000  1
  Nd  Nd5  1  0.999992  0.753050  0.750000  1
  Dy  Dy6  1  0.333341  0.666659  0.000000  1
  Dy  Dy7  1  0.666659  0.333342  0.500000  1
  Dy  Dy8  1  0.666659  0.333342  0.000000  1
  Dy  Dy9  1  0.333341  0.666659  0.500000  1
  Bi  Bi10  1  0.608311  0.000004  0.250001  1
  Bi  Bi11  1  0.391689  0.999996  0.750000  1
  Bi  Bi12  1  0.000005  0.608311  0.250001  1
  Bi  Bi13  1  0.391702  0.391703  0.250001  1
  Bi  Bi14  1  0.608297  0.608296  0.750000  1
  Bi  Bi15  1  0.999996  0.391689  0.750000  1
