# generated using pymatgen
data_Tb3MgCoP6Rh7
_symmetry_space_group_name_H-M   'P 1'
_cell_length_a   3.90504200
_cell_length_b   11.19089100
_cell_length_c   12.85045800
_cell_angle_alpha   90.00000000
_cell_angle_beta   90.00000000
_cell_angle_gamma   90.00000000
_symmetry_Int_Tables_number   1
_chemical_formula_structural   Tb3MgCoP6Rh7
_chemical_formula_sum   'Tb6 Mg2 Co2 P12 Rh14'
_cell_volume   561.57657195
_cell_formula_units_Z   2
loop_
 _symmetry_equiv_pos_site_id
 _symmetry_equiv_pos_as_xyz
  1  'x, y, z'
loop_
 _atom_site_type_symbol
 _atom_site_label
 _atom_site_symmetry_multiplicity
 _atom_site_fract_x
 _atom_site_fract_y
 _atom_site_fract_z
 _atom_site_occupancy
  Tb  Tb0  1  0.000000  0.500000  0.520834  1
  Tb  Tb1  1  0.500000  0.000000  0.479166  1
  Tb  Tb2  1  0.500000  0.821647  0.202121  1
  Tb  Tb3  1  0.500000  0.178353  0.202121  1
  Tb  Tb4  1  0.000000  0.678353  0.797879  1
  Tb  Tb5  1  0.000000  0.321647  0.797879  1
  Mg  Mg6  1  0.500000  0.500000  0.158749  1
  Mg  Mg7  1  0.000000  0.000000  0.841251  1
  Co  Co8  1  0.000000  0.500000  0.988370  1
  Co  Co9  1  0.500000  0.000000  0.011630  1
  P  P10  1  0.500000  0.500000  0.885053  1
  P  P11  1  0.000000  0.000000  0.114947  1
  P  P12  1  0.500000  0.500000  0.354892  1
  P  P13  1  0.000000  0.000000  0.645108  1
  P  P14  1  0.500000  0.313450  0.618255  1
  P  P15  1  0.500000  0.686550  0.618255  1
  P  P16  1  0.000000  0.186550  0.381745  1
  P  P17  1  0.000000  0.813450  0.381745  1
  P  P18  1  0.500000  0.844686  0.893903  1
  P  P19  1  0.500000  0.155314  0.893903  1
  P  P20  1  0.000000  0.655314  0.106097  1
  P  P21  1  0.000000  0.344686  0.106097  1
  Rh  Rh22  1  0.500000  0.500000  0.704723  1
  Rh  Rh23  1  0.000000  0.000000  0.295277  1
  Rh  Rh24  1  0.500000  0.335279  0.997016  1
  Rh  Rh25  1  0.500000  0.664721  0.997016  1
  Rh  Rh26  1  0.000000  0.164721  0.002984  1
  Rh  Rh27  1  0.000000  0.835279  0.002984  1
  Rh  Rh28  1  0.500000  0.293015  0.431365  1
  Rh  Rh29  1  0.500000  0.706985  0.431365  1
  Rh  Rh30  1  0.000000  0.206985  0.568635  1
  Rh  Rh31  1  0.000000  0.793015  0.568635  1
  Rh  Rh32  1  0.500000  0.873920  0.711564  1
  Rh  Rh33  1  0.500000  0.126080  0.711564  1
  Rh  Rh34  1  0.000000  0.626080  0.288436  1
  Rh  Rh35  1  0.000000  0.373920  0.288436  1
