# generated using pymatgen
data_Ta5AlFeB4Ru9
_symmetry_space_group_name_H-M   'P 1'
_cell_length_a   3.02523800
_cell_length_b   9.27992105
_cell_length_c   9.29630150
_cell_angle_alpha   89.70984639
_cell_angle_beta   90.00000000
_cell_angle_gamma   90.00000000
_symmetry_Int_Tables_number   1
_chemical_formula_structural   Ta5AlFeB4Ru9
_chemical_formula_sum   'Ta5 Al1 Fe1 B4 Ru9'
_cell_volume   260.98074103
_cell_formula_units_Z   1
loop_
 _symmetry_equiv_pos_site_id
 _symmetry_equiv_pos_as_xyz
  1  'x, y, z'
loop_
 _atom_site_type_symbol
 _atom_site_label
 _atom_site_symmetry_multiplicity
 _atom_site_fract_x
 _atom_site_fract_y
 _atom_site_fract_z
 _atom_site_occupancy
  Ta  Ta0  1  0.000000  0.675560  0.817257  1
  Ta  Ta1  1  0.000000  0.324440  0.182743  1
  Ta  Ta2  1  0.000000  0.825261  0.330584  1
  Ta  Ta3  1  0.000000  0.174739  0.669416  1
  Ta  Ta4  1  0.000000  0.000000  0.000000  1
  Al  Al5  1  0.000000  0.500000  0.500000  1
  Fe  Fe6  1  0.500000  0.000000  0.500000  1
  B  B7  1  0.000000  0.881310  0.608009  1
  B  B8  1  0.000000  0.118690  0.391991  1
  B  B9  1  0.000000  0.617113  0.130383  1
  B  B10  1  0.000000  0.382887  0.869617  1
  Ru  Ru11  1  0.500000  0.719783  0.566422  1
  Ru  Ru12  1  0.500000  0.280217  0.433578  1
  Ru  Ru13  1  0.500000  0.781531  0.070848  1
  Ru  Ru14  1  0.500000  0.218469  0.929152  1
  Ru  Ru15  1  0.500000  0.568969  0.286995  1
  Ru  Ru16  1  0.500000  0.431031  0.713005  1
  Ru  Ru17  1  0.500000  0.068101  0.224296  1
  Ru  Ru18  1  0.500000  0.931899  0.775704  1
  Ru  Ru19  1  0.500000  0.500000  0.000000  1
