# generated using pymatgen
data_Cs3HoBr6
_symmetry_space_group_name_H-M   'P 1'
_cell_length_a   9.96573500
_cell_length_b   9.96573500
_cell_length_c   8.25304700
_cell_angle_alpha   90.00000000
_cell_angle_beta   90.00000000
_cell_angle_gamma   90.00000000
_symmetry_Int_Tables_number   1
_chemical_formula_structural   Cs3HoBr6
_chemical_formula_sum   'Cs6 Ho2 Br12'
_cell_volume   819.65857671
_cell_formula_units_Z   2
loop_
 _symmetry_equiv_pos_site_id
 _symmetry_equiv_pos_as_xyz
  1  'x, y, z'
loop_
 _atom_site_type_symbol
 _atom_site_label
 _atom_site_symmetry_multiplicity
 _atom_site_fract_x
 _atom_site_fract_y
 _atom_site_fract_z
 _atom_site_occupancy
  Cs  Cs0  1  0.000000  0.000000  0.500000  1
  Cs  Cs1  1  0.000000  0.000000  0.000000  1
  Cs  Cs2  1  0.235996  0.580995  0.500000  1
  Cs  Cs3  1  0.764004  0.419005  0.500000  1
  Cs  Cs4  1  0.419005  0.235996  0.000000  1
  Cs  Cs5  1  0.580995  0.764004  0.000000  1
  Ho  Ho6  1  0.500000  0.000000  0.500000  1
  Ho  Ho7  1  0.000000  0.500000  0.000000  1
  Br  Br8  1  0.692534  0.056029  0.740401  1
  Br  Br9  1  0.307466  0.943971  0.740401  1
  Br  Br10  1  0.943971  0.692534  0.240401  1
  Br  Br11  1  0.056029  0.307466  0.240401  1
  Br  Br12  1  0.307466  0.943971  0.259599  1
  Br  Br13  1  0.692534  0.056029  0.259599  1
  Br  Br14  1  0.056029  0.307466  0.759599  1
  Br  Br15  1  0.943971  0.692534  0.759599  1
  Br  Br16  1  0.571279  0.728460  0.500000  1
  Br  Br17  1  0.428721  0.271540  0.500000  1
  Br  Br18  1  0.271540  0.571279  0.000000  1
  Br  Br19  1  0.728460  0.428721  0.000000  1
