# generated using pymatgen
data_Ho8Ti12Si15Pb
_symmetry_space_group_name_H-M   'P 1'
_cell_length_a   7.11496596
_cell_length_b   7.06990973
_cell_length_c   13.01847633
_cell_angle_alpha   89.98077490
_cell_angle_beta   89.68648634
_cell_angle_gamma   89.90196401
_symmetry_Int_Tables_number   1
_chemical_formula_structural   Ho8Ti12Si15Pb
_chemical_formula_sum   'Ho8 Ti12 Si15 Pb1'
_cell_volume   654.84677350
_cell_formula_units_Z   1
loop_
 _symmetry_equiv_pos_site_id
 _symmetry_equiv_pos_as_xyz
  1  'x, y, z'
loop_
 _atom_site_type_symbol
 _atom_site_label
 _atom_site_symmetry_multiplicity
 _atom_site_fract_x
 _atom_site_fract_y
 _atom_site_fract_z
 _atom_site_occupancy
  Ho  Ho0  1  0.344596  0.997995  0.460046  1
  Ho  Ho1  1  0.507483  0.834566  0.718541  1
  Ho  Ho2  1  0.502073  0.159799  0.216703  1
  Ho  Ho3  1  0.841065  0.497274  0.281959  1
  Ho  Ho4  1  0.159083  0.511248  0.786670  1
  Ho  Ho5  1  0.661744  0.996126  0.969252  1
  Ho  Ho6  1  0.990605  0.350192  0.526332  1
  Ho  Ho7  1  0.999269  0.658990  0.034279  1
  Ti  Ti8  1  0.325908  0.326546  0.001430  1
  Ti  Ti9  1  0.174058  0.825731  0.249609  1
  Ti  Ti10  1  0.813443  0.175685  0.752523  1
  Ti  Ti11  1  0.672480  0.673030  0.499354  1
  Ti  Ti12  1  0.152744  0.007863  0.884567  1
  Ti  Ti13  1  0.492302  0.650223  0.126875  1
  Ti  Ti14  1  0.517070  0.354829  0.626688  1
  Ti  Ti15  1  0.654772  0.493821  0.876013  1
  Ti  Ti16  1  0.347294  0.509638  0.372511  1
  Ti  Ti17  1  0.846890  0.992309  0.375511  1
  Ti  Ti18  1  0.009770  0.151463  0.123479  1
  Ti  Ti19  1  0.977250  0.832325  0.617814  1
  Si  Si20  1  0.371268  0.703052  0.936068  1
  Si  Si21  1  0.627475  0.297437  0.432481  1
  Si  Si22  1  0.703840  0.369447  0.066862  1
  Si  Si23  1  0.297177  0.630686  0.565590  1
  Si  Si24  1  0.797499  0.869881  0.184009  1
  Si  Si25  1  0.129767  0.202744  0.314977  1
  Si  Si26  1  0.870880  0.800324  0.816395  1
  Si  Si27  1  0.292902  0.951923  0.067311  1
  Si  Si28  1  0.550257  0.788993  0.313235  1
  Si  Si29  1  0.461201  0.211116  0.821923  1
  Si  Si30  1  0.794240  0.544270  0.687145  1
  Si  Si31  1  0.209333  0.452511  0.185072  1
  Si  Si32  1  0.706303  0.048360  0.564402  1
  Si  Si33  1  0.952418  0.291758  0.935336  1
  Si  Si34  1  0.048058  0.711288  0.432157  1
  Pb  Pb35  1  0.197481  0.126555  0.676880  1
