# generated using pymatgen
data_Tb3Sc2SnBi2
_symmetry_space_group_name_H-M   'P 1'
_cell_length_a   8.96477341
_cell_length_b   8.95605239
_cell_length_c   6.24523600
_cell_angle_alpha   90.00000000
_cell_angle_beta   90.00000000
_cell_angle_gamma   119.96781880
_symmetry_Int_Tables_number   1
_chemical_formula_structural   Tb3Sc2SnBi2
_chemical_formula_sum   'Tb6 Sc4 Sn2 Bi4'
_cell_volume   434.38635039
_cell_formula_units_Z   2
loop_
 _symmetry_equiv_pos_site_id
 _symmetry_equiv_pos_as_xyz
  1  'x, y, z'
loop_
 _atom_site_type_symbol
 _atom_site_label
 _atom_site_symmetry_multiplicity
 _atom_site_fract_x
 _atom_site_fract_y
 _atom_site_fract_z
 _atom_site_occupancy
  Tb  Tb0  1  0.756587  0.994148  0.750000  1
  Tb  Tb1  1  0.756587  0.762439  0.250000  1
  Tb  Tb2  1  0.245221  0.000676  0.250000  1
  Tb  Tb3  1  0.245221  0.244545  0.750000  1
  Tb  Tb4  1  0.994830  0.757878  0.750000  1
  Tb  Tb5  1  0.994830  0.236952  0.250000  1
  Sc  Sc6  1  0.339099  0.669550  0.500000  1
  Sc  Sc7  1  0.664994  0.332497  0.000000  1
  Sc  Sc8  1  0.664994  0.332497  0.500000  1
  Sc  Sc9  1  0.339099  0.669550  0.000000  1
  Sn  Sn10  1  0.601592  0.600156  0.750000  1
  Sn  Sn11  1  0.601592  0.001437  0.250000  1
  Bi  Bi12  1  0.397155  0.999123  0.750000  1
  Bi  Bi13  1  0.397155  0.398032  0.250000  1
  Bi  Bi14  1  0.000522  0.603785  0.250000  1
  Bi  Bi15  1  0.000522  0.396738  0.750000  1
