# generated using pymatgen
data_TbErWO6
_symmetry_space_group_name_H-M   'P 1'
_cell_length_a   5.40271900
_cell_length_b   7.70154372
_cell_length_c   11.42746536
_cell_angle_alpha   75.60648022
_cell_angle_beta   90.00000000
_cell_angle_gamma   90.00000000
_symmetry_Int_Tables_number   1
_chemical_formula_structural   TbErWO6
_chemical_formula_sum   'Tb4 Er4 W4 O24'
_cell_volume   460.56359040
_cell_formula_units_Z   4
loop_
 _symmetry_equiv_pos_site_id
 _symmetry_equiv_pos_as_xyz
  1  'x, y, z'
loop_
 _atom_site_type_symbol
 _atom_site_label
 _atom_site_symmetry_multiplicity
 _atom_site_fract_x
 _atom_site_fract_y
 _atom_site_fract_z
 _atom_site_occupancy
  Tb  Tb0  1  0.683899  0.500000  0.250000  1
  Tb  Tb1  1  0.316101  0.500000  0.750000  1
  Tb  Tb2  1  0.741263  0.000000  0.250000  1
  Tb  Tb3  1  0.258737  0.000000  0.750000  1
  Er  Er4  1  0.183160  0.206371  0.421883  1
  Er  Er5  1  0.183160  0.793629  0.078117  1
  Er  Er6  1  0.816840  0.793629  0.578117  1
  Er  Er7  1  0.816840  0.206371  0.921883  1
  W  W8  1  0.255842  0.276245  0.114413  1
  W  W9  1  0.255842  0.723755  0.385587  1
  W  W10  1  0.744158  0.723755  0.885587  1
  W  W11  1  0.744158  0.276245  0.614413  1
  O  O12  1  0.455759  0.209386  0.273444  1
  O  O13  1  0.455759  0.790614  0.226556  1
  O  O14  1  0.544241  0.790614  0.726556  1
  O  O15  1  0.544241  0.209386  0.773444  1
  O  O16  1  0.047023  0.059968  0.103055  1
  O  O17  1  0.047023  0.940032  0.396945  1
  O  O18  1  0.952977  0.940032  0.896945  1
  O  O19  1  0.952977  0.059968  0.603055  1
  O  O20  1  0.982075  0.288514  0.229001  1
  O  O21  1  0.982075  0.711486  0.270999  1
  O  O22  1  0.017925  0.711486  0.770999  1
  O  O23  1  0.017925  0.288514  0.729001  1
  O  O24  1  0.851124  0.364974  0.451475  1
  O  O25  1  0.851124  0.635026  0.048525  1
  O  O26  1  0.148876  0.635026  0.548525  1
  O  O27  1  0.148876  0.364974  0.951475  1
  O  O28  1  0.641319  0.510584  0.613759  1
  O  O29  1  0.641319  0.489416  0.886241  1
  O  O30  1  0.358681  0.489416  0.386241  1
  O  O31  1  0.358681  0.510584  0.113759  1
  O  O32  1  0.464212  0.155646  0.568041  1
  O  O33  1  0.464212  0.844354  0.931959  1
  O  O34  1  0.535788  0.844354  0.431959  1
  O  O35  1  0.535788  0.155646  0.068041  1
