# generated using pymatgen
data_Er8Ti3Re4Si16Mo5
_symmetry_space_group_name_H-M   'P 1'
_cell_length_a   6.83138964
_cell_length_b   6.83172787
_cell_length_c   12.80884010
_cell_angle_alpha   90.17824945
_cell_angle_beta   89.88052569
_cell_angle_gamma   89.41197964
_symmetry_Int_Tables_number   1
_chemical_formula_structural   Er8Ti3Re4Si16Mo5
_chemical_formula_sum   'Er8 Ti3 Re4 Si16 Mo5'
_cell_volume   597.75535093
_cell_formula_units_Z   1
loop_
 _symmetry_equiv_pos_site_id
 _symmetry_equiv_pos_as_xyz
  1  'x, y, z'
loop_
 _atom_site_type_symbol
 _atom_site_label
 _atom_site_symmetry_multiplicity
 _atom_site_fract_x
 _atom_site_fract_y
 _atom_site_fract_z
 _atom_site_occupancy
  Er  Er0  1  0.338676  0.001481  0.469972  1
  Er  Er1  1  0.504215  0.835652  0.717949  1
  Er  Er2  1  0.491819  0.165939  0.217351  1
  Er  Er3  1  0.836388  0.504943  0.281252  1
  Er  Er4  1  0.166318  0.492454  0.782893  1
  Er  Er5  1  0.658263  0.001109  0.969921  1
  Er  Er6  1  0.000370  0.339661  0.529182  1
  Er  Er7  1  0.001522  0.658280  0.029934  1
  Ti  Ti8  1  0.161250  0.840398  0.248936  1
  Ti  Ti9  1  0.840640  0.161013  0.751614  1
  Ti  Ti10  1  0.665933  0.666682  0.499797  1
  Re  Re11  1  0.331082  0.330378  0.000775  1
  Re  Re12  1  0.825578  0.006270  0.364840  1
  Re  Re13  1  0.991700  0.169541  0.133774  1
  Re  Re14  1  0.005413  0.825740  0.635485  1
  Si  Si15  1  0.204654  0.125937  0.681301  1
  Si  Si16  1  0.378020  0.692055  0.934376  1
  Si  Si17  1  0.625422  0.297033  0.431100  1
  Si  Si18  1  0.693369  0.377227  0.066163  1
  Si  Si19  1  0.295923  0.625813  0.568355  1
  Si  Si20  1  0.795279  0.876314  0.182357  1
  Si  Si21  1  0.124796  0.204205  0.318398  1
  Si  Si22  1  0.873686  0.792617  0.817878  1
  Si  Si23  1  0.274870  0.974802  0.057759  1
  Si  Si24  1  0.533772  0.796004  0.313426  1
  Si  Si25  1  0.464499  0.207465  0.814694  1
  Si  Si26  1  0.795977  0.532660  0.686948  1
  Si  Si27  1  0.208419  0.464014  0.184378  1
  Si  Si28  1  0.726342  0.027764  0.558209  1
  Si  Si29  1  0.975073  0.275681  0.943283  1
  Si  Si30  1  0.027501  0.727058  0.441963  1
  Mo  Mo31  1  0.168472  0.991868  0.866451  1
  Mo  Mo32  1  0.495711  0.676051  0.125610  1
  Mo  Mo33  1  0.509144  0.335093  0.623143  1
  Mo  Mo34  1  0.675873  0.491882  0.875278  1
  Mo  Mo35  1  0.334034  0.508915  0.375254  1
