# generated using pymatgen
data_Ce2P4Ir3Os
_symmetry_space_group_name_H-M   'P 1'
_cell_length_a   4.18038800
_cell_length_b   4.18038800
_cell_length_c   9.48505600
_cell_angle_alpha   90.00000000
_cell_angle_beta   90.00000000
_cell_angle_gamma   90.00000000
_symmetry_Int_Tables_number   1
_chemical_formula_structural   Ce2P4Ir3Os
_chemical_formula_sum   'Ce2 P4 Ir3 Os1'
_cell_volume   165.75746037
_cell_formula_units_Z   1
loop_
 _symmetry_equiv_pos_site_id
 _symmetry_equiv_pos_as_xyz
  1  'x, y, z'
loop_
 _atom_site_type_symbol
 _atom_site_label
 _atom_site_symmetry_multiplicity
 _atom_site_fract_x
 _atom_site_fract_y
 _atom_site_fract_z
 _atom_site_occupancy
  Ce  Ce0  1  0.000000  0.500000  0.243542  1
  Ce  Ce1  1  0.500000  0.000000  0.756458  1
  P  P2  1  0.000000  0.000000  0.000000  1
  P  P3  1  0.500000  0.500000  0.000000  1
  P  P4  1  0.000000  0.500000  0.634410  1
  P  P5  1  0.500000  0.000000  0.365590  1
  Ir  Ir6  1  0.500000  0.500000  0.500000  1
  Ir  Ir7  1  0.000000  0.500000  0.885794  1
  Ir  Ir8  1  0.500000  0.000000  0.114206  1
  Os  Os9  1  0.000000  0.000000  0.500000  1
