# generated using pymatgen
data_Co4ReTc(B2W)2
_symmetry_space_group_name_H-M   'P 1'
_cell_length_a   3.24366100
_cell_length_b   5.73568481
_cell_length_c   6.57600587
_cell_angle_alpha   89.95848676
_cell_angle_beta   90.00000000
_cell_angle_gamma   90.00000000
_symmetry_Int_Tables_number   1
_chemical_formula_structural   Co4ReTc(B2W)2
_chemical_formula_sum   'Co4 Re1 Tc1 B4 W2'
_cell_volume   122.34403927
_cell_formula_units_Z   1
loop_
 _symmetry_equiv_pos_site_id
 _symmetry_equiv_pos_as_xyz
  1  'x, y, z'
loop_
 _atom_site_type_symbol
 _atom_site_label
 _atom_site_symmetry_multiplicity
 _atom_site_fract_x
 _atom_site_fract_y
 _atom_site_fract_z
 _atom_site_occupancy
  Co  Co0  1  0.250000  0.146533  0.445005  1
  Co  Co1  1  0.250000  0.646613  0.054111  1
  Co  Co2  1  0.750000  0.854162  0.556229  1
  Co  Co3  1  0.750000  0.354193  0.944088  1
  Re  Re4  1  0.250000  0.528118  0.670441  1
  Tc  Tc5  1  0.250000  0.029723  0.830282  1
  B  B6  1  0.250000  0.272068  0.123460  1
  B  B7  1  0.250000  0.773133  0.377924  1
  B  B8  1  0.750000  0.725663  0.868703  1
  B  B9  1  0.750000  0.226794  0.630453  1
  W  W10  1  0.750000  0.970949  0.171856  1
  W  W11  1  0.750000  0.472051  0.327452  1
