# generated using pymatgen
data_La3Tb13Cd4TcNi3
_symmetry_space_group_name_H-M   'P 1'
_cell_length_a   9.73035198
_cell_length_b   9.74326894
_cell_length_c   9.74327618
_cell_angle_alpha   59.31939137
_cell_angle_beta   59.37523411
_cell_angle_gamma   59.37511939
_symmetry_Int_Tables_number   1
_chemical_formula_structural   La3Tb13Cd4TcNi3
_chemical_formula_sum   'La3 Tb13 Cd4 Tc1 Ni3'
_cell_volume   643.59902885
_cell_formula_units_Z   1
loop_
 _symmetry_equiv_pos_site_id
 _symmetry_equiv_pos_as_xyz
  1  'x, y, z'
loop_
 _atom_site_type_symbol
 _atom_site_label
 _atom_site_symmetry_multiplicity
 _atom_site_fract_x
 _atom_site_fract_y
 _atom_site_fract_z
 _atom_site_occupancy
  La  La0  1  0.346440  0.349807  0.349798  1
  La  La1  1  0.348451  0.349680  0.954192  1
  La  La2  1  0.348459  0.954185  0.349674  1
  Tb  Tb3  1  0.949231  0.352111  0.352112  1
  Tb  Tb4  1  0.814368  0.186985  0.186987  1
  Tb  Tb5  1  0.186076  0.812204  0.812204  1
  Tb  Tb6  1  0.186109  0.813261  0.185966  1
  Tb  Tb7  1  0.813078  0.185894  0.810908  1
  Tb  Tb8  1  0.186109  0.185965  0.813260  1
  Tb  Tb9  1  0.813078  0.810908  0.185896  1
  Tb  Tb10  1  0.934594  0.565988  0.565988  1
  Tb  Tb11  1  0.558176  0.936397  0.936395  1
  Tb  Tb12  1  0.567149  0.933724  0.566389  1
  Tb  Tb13  1  0.937078  0.557046  0.938040  1
  Tb  Tb14  1  0.567150  0.566390  0.933721  1
  Tb  Tb15  1  0.937080  0.938040  0.557047  1
  Cd  Cd16  1  0.583875  0.578773  0.578774  1
  Cd  Cd17  1  0.583314  0.579258  0.254318  1
  Cd  Cd18  1  0.583316  0.254317  0.579260  1
  Cd  Cd19  1  0.253911  0.580353  0.580352  1
  Tc  Tc20  1  0.143538  0.143934  0.143934  1
  Ni  Ni21  1  0.138930  0.143987  0.579045  1
  Ni  Ni22  1  0.138921  0.579048  0.143993  1
  Ni  Ni23  1  0.581569  0.141746  0.141748  1
