# generated using pymatgen
data_Tb3ErAl4Pt3Rh
_symmetry_space_group_name_H-M   'P 1'
_cell_length_a   4.41761100
_cell_length_b   6.82374656
_cell_length_c   7.82089414
_cell_angle_alpha   90.16130661
_cell_angle_beta   90.00000000
_cell_angle_gamma   90.00000000
_symmetry_Int_Tables_number   1
_chemical_formula_structural   Tb3ErAl4Pt3Rh
_chemical_formula_sum   'Tb3 Er1 Al4 Pt3 Rh1'
_cell_volume   235.75724370
_cell_formula_units_Z   1
loop_
 _symmetry_equiv_pos_site_id
 _symmetry_equiv_pos_as_xyz
  1  'x, y, z'
loop_
 _atom_site_type_symbol
 _atom_site_label
 _atom_site_symmetry_multiplicity
 _atom_site_fract_x
 _atom_site_fract_y
 _atom_site_fract_z
 _atom_site_occupancy
  Tb  Tb0  1  0.250000  0.467409  0.179817  1
  Tb  Tb1  1  0.750000  0.532527  0.817907  1
  Tb  Tb2  1  0.250000  0.965777  0.323507  1
  Er  Er3  1  0.750000  0.029900  0.679781  1
  Al  Al4  1  0.250000  0.856373  0.937591  1
  Al  Al5  1  0.750000  0.142366  0.060525  1
  Al  Al6  1  0.750000  0.642884  0.440315  1
  Al  Al7  1  0.250000  0.362106  0.562301  1
  Pt  Pt8  1  0.750000  0.268826  0.380915  1
  Pt  Pt9  1  0.750000  0.769951  0.120644  1
  Pt  Pt10  1  0.250000  0.226368  0.878708  1
  Rh  Rh11  1  0.250000  0.735510  0.617988  1
