# generated using pymatgen
data_V2Ga2BiSbO9
_symmetry_space_group_name_H-M   'P 1'
_cell_length_a   6.03503800
_cell_length_b   8.25458812
_cell_length_c   8.40833830
_cell_angle_alpha   89.72381538
_cell_angle_beta   90.00000000
_cell_angle_gamma   90.00000000
_symmetry_Int_Tables_number   1
_chemical_formula_structural   V2Ga2BiSbO9
_chemical_formula_sum   'V4 Ga4 Bi2 Sb2 O18'
_cell_volume   418.87124605
_cell_formula_units_Z   2
loop_
 _symmetry_equiv_pos_site_id
 _symmetry_equiv_pos_as_xyz
  1  'x, y, z'
loop_
 _atom_site_type_symbol
 _atom_site_label
 _atom_site_symmetry_multiplicity
 _atom_site_fract_x
 _atom_site_fract_y
 _atom_site_fract_z
 _atom_site_occupancy
  V  V0  1  0.259583  0.500000  0.500000  1
  V  V1  1  0.740118  0.000000  0.000000  1
  V  V2  1  0.740417  0.500000  0.500000  1
  V  V3  1  0.259882  0.000000  0.000000  1
  Ga  Ga4  1  0.500000  0.149779  0.657276  1
  Ga  Ga5  1  0.500000  0.850221  0.342724  1
  Ga  Ga6  1  0.500000  0.646998  0.841702  1
  Ga  Ga7  1  0.500000  0.353002  0.158298  1
  Bi  Bi8  1  0.000000  0.814543  0.676846  1
  Bi  Bi9  1  0.000000  0.185457  0.323154  1
  Sb  Sb10  1  0.000000  0.302105  0.816673  1
  Sb  Sb11  1  0.000000  0.697895  0.183327  1
  O  O12  1  0.500000  0.500000  0.000000  1
  O  O13  1  0.500000  0.000000  0.500000  1
  O  O14  1  0.240698  0.870772  0.213809  1
  O  O15  1  0.240698  0.129228  0.786191  1
  O  O16  1  0.750807  0.369619  0.292810  1
  O  O17  1  0.750807  0.630381  0.707190  1
  O  O18  1  0.759302  0.129228  0.786191  1
  O  O19  1  0.759302  0.870772  0.213809  1
  O  O20  1  0.249193  0.630381  0.707190  1
  O  O21  1  0.249193  0.369619  0.292810  1
  O  O22  1  0.500000  0.365335  0.596991  1
  O  O23  1  0.500000  0.634665  0.403009  1
  O  O24  1  0.000000  0.148851  0.062611  1
  O  O25  1  0.000000  0.851149  0.937389  1
  O  O26  1  0.000000  0.652001  0.427775  1
  O  O27  1  0.000000  0.347999  0.572225  1
  O  O28  1  0.500000  0.135549  0.095429  1
  O  O29  1  0.500000  0.864451  0.904571  1
