# generated using pymatgen
data_CaPr16Tl(AgIr2)2
_symmetry_space_group_name_H-M   'P 1'
_cell_length_a   10.12903434
_cell_length_b   10.12546856
_cell_length_c   10.12666811
_cell_angle_alpha   59.72472818
_cell_angle_beta   59.86986837
_cell_angle_gamma   59.87072860
_symmetry_Int_Tables_number   1
_chemical_formula_structural   CaPr16Tl(AgIr2)2
_chemical_formula_sum   'Ca1 Pr16 Tl1 Ag2 Ir4'
_cell_volume   731.42947062
_cell_formula_units_Z   1
loop_
 _symmetry_equiv_pos_site_id
 _symmetry_equiv_pos_as_xyz
  1  'x, y, z'
loop_
 _atom_site_type_symbol
 _atom_site_label
 _atom_site_symmetry_multiplicity
 _atom_site_fract_x
 _atom_site_fract_y
 _atom_site_fract_z
 _atom_site_occupancy
  Ca  Ca0  1  0.309426  0.559166  0.559174  1
  Pr  Pr1  1  0.344167  0.344274  0.344255  1
  Pr  Pr2  1  0.345498  0.346153  0.963954  1
  Pr  Pr3  1  0.345485  0.963977  0.346122  1
  Pr  Pr4  1  0.948825  0.349639  0.349620  1
  Pr  Pr5  1  0.806475  0.191632  0.191660  1
  Pr  Pr6  1  0.184418  0.813329  0.813342  1
  Pr  Pr7  1  0.179867  0.816024  0.184915  1
  Pr  Pr8  1  0.801618  0.195732  0.806235  1
  Pr  Pr9  1  0.179870  0.184912  0.816026  1
  Pr  Pr10  1  0.801611  0.806213  0.195758  1
  Pr  Pr11  1  0.938408  0.562297  0.562312  1
  Pr  Pr12  1  0.557185  0.941351  0.941362  1
  Pr  Pr13  1  0.558198  0.947581  0.562930  1
  Pr  Pr14  1  0.937481  0.562574  0.939116  1
  Pr  Pr15  1  0.558224  0.562916  0.947578  1
  Pr  Pr16  1  0.937485  0.939113  0.562594  1
  Tl  Tl17  1  0.590064  0.586059  0.586072  1
  Ag  Ag18  1  0.592490  0.584970  0.235741  1
  Ag  Ag19  1  0.592509  0.235754  0.584985  1
  Ir  Ir20  1  0.138099  0.143390  0.143330  1
  Ir  Ir21  1  0.138990  0.143766  0.575858  1
  Ir  Ir22  1  0.138994  0.575856  0.143755  1
  Ir  Ir23  1  0.574615  0.143324  0.143308  1
