# generated using pymatgen
data_Y9Th11(Ir2Ru)4
_symmetry_space_group_name_H-M   'P 1'
_cell_length_a   11.23558534
_cell_length_b   11.11970946
_cell_length_c   6.42162850
_cell_angle_alpha   89.91753029
_cell_angle_beta   89.68226762
_cell_angle_gamma   90.19654094
_symmetry_Int_Tables_number   1
_chemical_formula_structural   Y9Th11(Ir2Ru)4
_chemical_formula_sum   'Y9 Th11 Ir8 Ru4'
_cell_volume   802.27752376
_cell_formula_units_Z   1
loop_
 _symmetry_equiv_pos_site_id
 _symmetry_equiv_pos_as_xyz
  1  'x, y, z'
loop_
 _atom_site_type_symbol
 _atom_site_label
 _atom_site_symmetry_multiplicity
 _atom_site_fract_x
 _atom_site_fract_y
 _atom_site_fract_z
 _atom_site_occupancy
  Y  Y0  1  0.797986  0.588416  0.612264  1
  Y  Y1  1  0.909989  0.711880  0.110937  1
  Y  Y2  1  0.910628  0.291981  0.613486  1
  Y  Y3  1  0.081445  0.711638  0.614117  1
  Y  Y4  1  0.088332  0.285019  0.115950  1
  Y  Y5  1  0.998689  0.001839  0.497401  1
  Y  Y6  1  0.000042  0.999517  0.997565  1
  Y  Y7  1  0.499225  0.499521  0.019476  1
  Y  Y8  1  0.503697  0.501224  0.519795  1
  Th  Th9  1  0.289972  0.088772  0.381981  1
  Th  Th10  1  0.290025  0.907086  0.881388  1
  Th  Th11  1  0.709879  0.092531  0.884565  1
  Th  Th12  1  0.710062  0.909601  0.382450  1
  Th  Th13  1  0.593399  0.788299  0.884635  1
  Th  Th14  1  0.590309  0.213274  0.385712  1
  Th  Th15  1  0.409336  0.786481  0.382834  1
  Th  Th16  1  0.407961  0.211875  0.885339  1
  Th  Th17  1  0.199571  0.411423  0.613149  1
  Th  Th18  1  0.199844  0.588712  0.113675  1
  Th  Th19  1  0.800967  0.412923  0.110630  1
  Ir  Ir20  1  0.842154  0.154234  0.244269  1
  Ir  Ir21  1  0.840302  0.851573  0.746156  1
  Ir  Ir22  1  0.158495  0.150302  0.743796  1
  Ir  Ir23  1  0.157301  0.847223  0.243968  1
  Ir  Ir24  1  0.652385  0.342264  0.765044  1
  Ir  Ir25  1  0.654546  0.658325  0.252102  1
  Ir  Ir26  1  0.347453  0.340932  0.266568  1
  Ir  Ir27  1  0.345914  0.657244  0.761230  1
  Ru  Ru28  1  0.499434  0.999937  0.115414  1
  Ru  Ru29  1  0.499466  0.998887  0.614504  1
  Ru  Ru30  1  0.006897  0.497102  0.875325  1
  Ru  Ru31  1  0.004295  0.499967  0.364276  1
