# generated using pymatgen
data_KI3Br10
_symmetry_space_group_name_H-M   'P 1'
_cell_length_a   11.09364842
_cell_length_b   11.09364769
_cell_length_c   10.67925055
_cell_angle_alpha   80.53193702
_cell_angle_beta   80.53193425
_cell_angle_gamma   91.19569743
_symmetry_Int_Tables_number   1
_chemical_formula_structural   KI3Br10
_chemical_formula_sum   'K2 I6 Br20'
_cell_volume   1277.16865938
_cell_formula_units_Z   2
loop_
 _symmetry_equiv_pos_site_id
 _symmetry_equiv_pos_as_xyz
  1  'x, y, z'
loop_
 _atom_site_type_symbol
 _atom_site_label
 _atom_site_symmetry_multiplicity
 _atom_site_fract_x
 _atom_site_fract_y
 _atom_site_fract_z
 _atom_site_occupancy
  K  K0  1  0.766621  0.233379  0.000000  1
  K  K1  1  0.233379  0.766621  0.000000  1
  I  I2  1  0.448701  0.171796  0.348946  1
  I  I3  1  0.828204  0.551299  0.651054  1
  I  I4  1  0.171796  0.448701  0.348946  1
  I  I5  1  0.551299  0.828204  0.651054  1
  I  I6  1  0.190698  0.190698  0.090703  1
  I  I7  1  0.809302  0.809302  0.909297  1
  Br  Br8  1  0.346283  0.632678  0.249045  1
  Br  Br9  1  0.996823  0.996823  0.739066  1
  Br  Br10  1  0.003177  0.003177  0.260934  1
  Br  Br11  1  0.099574  0.099574  0.888951  1
  Br  Br12  1  0.446179  0.977483  0.800494  1
  Br  Br13  1  0.995830  0.732089  0.553226  1
  Br  Br14  1  0.653717  0.367322  0.750955  1
  Br  Br15  1  0.337388  0.337388  0.503807  1
  Br  Br16  1  0.267911  0.004170  0.446774  1
  Br  Br17  1  0.553821  0.022517  0.199506  1
  Br  Br18  1  0.367322  0.653717  0.750955  1
  Br  Br19  1  0.632678  0.346283  0.249045  1
  Br  Br20  1  0.647710  0.647710  0.039908  1
  Br  Br21  1  0.977483  0.446179  0.800494  1
  Br  Br22  1  0.900426  0.900426  0.111049  1
  Br  Br23  1  0.732088  0.995830  0.553226  1
  Br  Br24  1  0.352290  0.352290  0.960092  1
  Br  Br25  1  0.022517  0.553821  0.199506  1
  Br  Br26  1  0.662612  0.662612  0.496193  1
  Br  Br27  1  0.004170  0.267912  0.446774  1
