# generated using pymatgen
data_Tm4Cu3Sb8
_symmetry_space_group_name_H-M   'P 1'
_cell_length_a   10.51164040
_cell_length_b   10.51164074
_cell_length_c   10.51164081
_cell_angle_alpha   146.26738587
_cell_angle_beta   146.26738669
_cell_angle_gamma   48.44977422
_symmetry_Int_Tables_number   1
_chemical_formula_structural   Tm4Cu3Sb8
_chemical_formula_sum   'Tm4 Cu3 Sb8'
_cell_volume   356.65833730
_cell_formula_units_Z   1
loop_
 _symmetry_equiv_pos_site_id
 _symmetry_equiv_pos_as_xyz
  1  'x, y, z'
loop_
 _atom_site_type_symbol
 _atom_site_label
 _atom_site_symmetry_multiplicity
 _atom_site_fract_x
 _atom_site_fract_y
 _atom_site_fract_z
 _atom_site_occupancy
  Tm  Tm0  1  0.633581  0.633581  0.510046  1
  Tm  Tm1  1  0.123534  0.123534  0.489954  1
  Tm  Tm2  1  0.366419  0.876466  0.000000  1
  Tm  Tm3  1  0.876466  0.366419  0.000000  1
  Cu  Cu4  1  0.000000  0.000000  0.000000  1
  Cu  Cu5  1  0.000000  0.500000  0.500000  1
  Cu  Cu6  1  0.500000  0.000000  0.500000  1
  Sb  Sb7  1  0.335381  0.335381  0.516169  1
  Sb  Sb8  1  0.819211  0.819211  0.483831  1
  Sb  Sb9  1  0.664619  0.180789  0.000000  1
  Sb  Sb10  1  0.180789  0.664619  0.000000  1
  Sb  Sb11  1  0.250209  0.250209  0.000000  1
  Sb  Sb12  1  0.749791  0.749791  0.000000  1
  Sb  Sb13  1  0.750000  0.250000  0.500000  1
  Sb  Sb14  1  0.250000  0.750000  0.500000  1
