# generated using pymatgen
data_K5Tl3Sb8S4(O2F3)8
_symmetry_space_group_name_H-M   'P 1'
_cell_length_a   5.72118700
_cell_length_b   9.41348980
_cell_length_c   19.79859900
_cell_angle_alpha   76.25538708
_cell_angle_beta   90.00000000
_cell_angle_gamma   90.00000000
_symmetry_Int_Tables_number   1
_chemical_formula_structural   K5Tl3Sb8S4(O2F3)8
_chemical_formula_sum   'K5 Tl3 Sb8 S4 O16 F24'
_cell_volume   1035.74643684
_cell_formula_units_Z   1
loop_
 _symmetry_equiv_pos_site_id
 _symmetry_equiv_pos_as_xyz
  1  'x, y, z'
loop_
 _atom_site_type_symbol
 _atom_site_label
 _atom_site_symmetry_multiplicity
 _atom_site_fract_x
 _atom_site_fract_y
 _atom_site_fract_z
 _atom_site_occupancy
  K  K0  1  0.750289  0.516546  0.574687  1
  K  K1  1  0.258470  0.137785  0.172698  1
  K  K2  1  0.748905  0.516485  0.075401  1
  K  K3  1  0.249949  0.483547  0.424193  1
  K  K4  1  0.251364  0.481929  0.925926  1
  Tl  Tl5  1  0.739771  0.860998  0.826886  1
  Tl  Tl6  1  0.239676  0.139420  0.672756  1
  Tl  Tl7  1  0.759059  0.860834  0.326938  1
  Sb  Sb8  1  0.774553  0.191186  0.496100  1
  Sb  Sb9  1  0.725939  0.188941  0.000459  1
  Sb  Sb10  1  0.226362  0.809301  0.503054  1
  Sb  Sb11  1  0.259694  0.667219  0.720421  1
  Sb  Sb12  1  0.272500  0.810490  0.002906  1
  Sb  Sb13  1  0.739305  0.328760  0.277713  1
  Sb  Sb14  1  0.240695  0.672405  0.219213  1
  Sb  Sb15  1  0.759837  0.332145  0.780095  1
  S  S16  1  0.737949  0.866150  0.617658  1
  S  S17  1  0.759670  0.868812  0.118484  1
  S  S18  1  0.238145  0.134007  0.882632  1
  S  S19  1  0.262527  0.133191  0.380518  1
  O  O20  1  0.128556  0.992168  0.394826  1
  O  O21  1  0.870499  0.007479  0.604745  1
  O  O22  1  0.406387  0.258538  0.863183  1
  O  O23  1  0.935448  0.867271  0.174450  1
  O  O24  1  0.876812  0.863580  0.051710  1
  O  O25  1  0.370035  0.991968  0.895842  1
  O  O26  1  0.388193  0.142676  0.445426  1
  O  O27  1  0.118394  0.143801  0.948300  1
  O  O28  1  0.599376  0.740279  0.138510  1
  O  O29  1  0.430359  0.136517  0.322263  1
  O  O30  1  0.565485  0.860950  0.674954  1
  O  O31  1  0.065899  0.138503  0.825370  1
  O  O32  1  0.617507  0.857335  0.551827  1
  O  O33  1  0.619491  0.007287  0.106763  1
  O  O34  1  0.905234  0.740907  0.636728  1
  O  O35  1  0.095733  0.258776  0.362106  1
  F  F36  1  0.054207  0.752592  0.937451  1
  F  F37  1  0.022720  0.560258  0.790586  1
  F  F38  1  0.478999  0.563457  0.287922  1
  F  F39  1  0.948665  0.240023  0.066783  1
  F  F40  1  0.158375  0.843134  0.751474  1
  F  F41  1  0.971980  0.440446  0.207949  1
  F  F42  1  0.522937  0.439289  0.710041  1
  F  F43  1  0.554952  0.247197  0.561896  1
  F  F44  1  0.205395  0.606896  0.060779  1
  F  F45  1  0.970417  0.374288  0.696889  1
  F  F46  1  0.793443  0.394369  0.944511  1
  F  F47  1  0.518509  0.702957  0.962605  1
  F  F48  1  0.980472  0.701962  0.462294  1
  F  F49  1  0.444399  0.752045  0.437263  1
  F  F50  1  0.020245  0.298016  0.537340  1
  F  F51  1  0.293113  0.605853  0.560623  1
  F  F52  1  0.707898  0.394927  0.438986  1
  F  F53  1  0.470285  0.625261  0.803648  1
  F  F54  1  0.033127  0.629670  0.302965  1
  F  F55  1  0.658672  0.156679  0.748717  1
  F  F56  1  0.480269  0.294722  0.041998  1
  F  F57  1  0.854859  0.155240  0.247347  1
  F  F58  1  0.341507  0.849783  0.248798  1
  F  F59  1  0.526488  0.362751  0.195394  1
