# generated using pymatgen
data_HfZr2PdN
_symmetry_space_group_name_H-M   'P 1'
_cell_length_a   5.98029655
_cell_length_b   5.98029611
_cell_length_c   8.96214100
_cell_angle_alpha   90.00000000
_cell_angle_beta   90.00000000
_cell_angle_gamma   147.69013411
_symmetry_Int_Tables_number   1
_chemical_formula_structural   HfZr2PdN
_chemical_formula_sum   'Hf2 Zr4 Pd2 N2'
_cell_volume   171.31807080
_cell_formula_units_Z   2
loop_
 _symmetry_equiv_pos_site_id
 _symmetry_equiv_pos_as_xyz
  1  'x, y, z'
loop_
 _atom_site_type_symbol
 _atom_site_label
 _atom_site_symmetry_multiplicity
 _atom_site_fract_x
 _atom_site_fract_y
 _atom_site_fract_z
 _atom_site_occupancy
  Hf  Hf0  1  0.373176  0.626822  0.554770  1
  Hf  Hf1  1  0.373176  0.626822  0.945230  1
  Zr  Zr2  1  0.627609  0.372389  0.052803  1
  Zr  Zr3  1  0.947349  0.052649  0.250000  1
  Zr  Zr4  1  0.627609  0.372389  0.447197  1
  Zr  Zr5  1  0.052992  0.947006  0.750000  1
  Pd  Pd6  1  0.250853  0.749145  0.250000  1
  Pd  Pd7  1  0.753688  0.246310  0.750000  1
  N  N8  1  0.996771  0.003229  0.998879  1
  N  N9  1  0.996771  0.003229  0.501121  1
