# generated using pymatgen
data_Li2Pr2Ga2Sb
_symmetry_space_group_name_H-M   'P 1'
_cell_length_a   9.81104100
_cell_length_b   9.81104212
_cell_length_c   6.95598300
_cell_angle_alpha   90.00000000
_cell_angle_beta   90.00000000
_cell_angle_gamma   153.09501642
_symmetry_Int_Tables_number   1
_chemical_formula_structural   Li2Pr2Ga2Sb
_chemical_formula_sum   'Li4 Pr4 Ga4 Sb2'
_cell_volume   302.98359077
_cell_formula_units_Z   2
loop_
 _symmetry_equiv_pos_site_id
 _symmetry_equiv_pos_as_xyz
  1  'x, y, z'
loop_
 _atom_site_type_symbol
 _atom_site_label
 _atom_site_symmetry_multiplicity
 _atom_site_fract_x
 _atom_site_fract_y
 _atom_site_fract_z
 _atom_site_occupancy
  Li  Li0  1  0.813553  0.186447  0.560201  1
  Li  Li1  1  0.186447  0.813553  0.439799  1
  Li  Li2  1  0.186447  0.813553  0.060201  1
  Li  Li3  1  0.813553  0.186447  0.939799  1
  Pr  Pr4  1  0.550831  0.449169  0.250000  1
  Pr  Pr5  1  0.449169  0.550831  0.750000  1
  Pr  Pr6  1  0.346837  0.653163  0.250000  1
  Pr  Pr7  1  0.653163  0.346837  0.750000  1
  Ga  Ga8  1  0.940346  0.059654  0.068278  1
  Ga  Ga9  1  0.059654  0.940346  0.931722  1
  Ga  Ga10  1  0.059654  0.940346  0.568278  1
  Ga  Ga11  1  0.940346  0.059654  0.431722  1
  Sb  Sb12  1  0.718921  0.281079  0.250000  1
  Sb  Sb13  1  0.281079  0.718921  0.750000  1
