# generated using pymatgen
data_Er10Sn7Sb
_symmetry_space_group_name_H-M   'P 1'
_cell_length_a   8.06513300
_cell_length_b   8.11067165
_cell_length_c   15.31829121
_cell_angle_alpha   89.69968230
_cell_angle_beta   90.00000000
_cell_angle_gamma   90.00000000
_symmetry_Int_Tables_number   1
_chemical_formula_structural   Er10Sn7Sb
_chemical_formula_sum   'Er20 Sn14 Sb2'
_cell_volume   1002.01150746
_cell_formula_units_Z   2
loop_
 _symmetry_equiv_pos_site_id
 _symmetry_equiv_pos_as_xyz
  1  'x, y, z'
loop_
 _atom_site_type_symbol
 _atom_site_label
 _atom_site_symmetry_multiplicity
 _atom_site_fract_x
 _atom_site_fract_y
 _atom_site_fract_z
 _atom_site_occupancy
  Er  Er0  1  0.958011  0.822862  0.896945  1
  Er  Er1  1  0.458011  0.677138  0.603055  1
  Er  Er2  1  0.542927  0.330303  0.104011  1
  Er  Er3  1  0.042927  0.169697  0.395989  1
  Er  Er4  1  0.961947  0.828470  0.602124  1
  Er  Er5  1  0.461947  0.671530  0.897876  1
  Er  Er6  1  0.536419  0.322127  0.397552  1
  Er  Er7  1  0.036419  0.177873  0.102448  1
  Er  Er8  1  0.882873  0.661548  0.379799  1
  Er  Er9  1  0.382873  0.838452  0.120201  1
  Er  Er10  1  0.618381  0.160911  0.621474  1
  Er  Er11  1  0.118381  0.339089  0.878526  1
  Er  Er12  1  0.118344  0.338447  0.620471  1
  Er  Er13  1  0.618344  0.161553  0.879529  1
  Er  Er14  1  0.380757  0.838932  0.378601  1
  Er  Er15  1  0.880757  0.661068  0.121399  1
  Er  Er16  1  0.288227  0.002232  0.748377  1
  Er  Er17  1  0.788227  0.497768  0.751623  1
  Er  Er18  1  0.211734  0.502458  0.250367  1
  Er  Er19  1  0.711734  0.997542  0.249633  1
  Sn  Sn20  1  0.720963  0.970542  0.457093  1
  Sn  Sn21  1  0.220963  0.529458  0.042907  1
  Sn  Sn22  1  0.222457  0.529572  0.457320  1
  Sn  Sn23  1  0.722457  0.970428  0.042680  1
  Sn  Sn24  1  0.282034  0.031203  0.542405  1
  Sn  Sn25  1  0.782034  0.468797  0.957595  1
  Sn  Sn26  1  0.151206  0.647652  0.749587  1
  Sn  Sn27  1  0.651206  0.852348  0.750413  1
  Sn  Sn28  1  0.347517  0.147346  0.248737  1
  Sn  Sn29  1  0.847517  0.352654  0.251263  1
  Sn  Sn30  1  0.922177  0.124056  0.750048  1
  Sn  Sn31  1  0.422177  0.375944  0.749952  1
  Sn  Sn32  1  0.578403  0.624761  0.251212  1
  Sn  Sn33  1  0.078403  0.875239  0.248788  1
  Sb  Sb34  1  0.775621  0.474076  0.545066  1
  Sb  Sb35  1  0.275621  0.025924  0.954934  1
