# generated using pymatgen
data_CdSn14Ir3O14
_symmetry_space_group_name_H-M   'P 1'
_cell_length_a   7.23696687
_cell_length_b   7.30084254
_cell_length_c   13.20024181
_cell_angle_alpha   73.57091776
_cell_angle_beta   74.08812534
_cell_angle_gamma   60.28968481
_symmetry_Int_Tables_number   1
_chemical_formula_structural   CdSn14Ir3O14
_chemical_formula_sum   'Cd1 Sn14 Ir3 O14'
_cell_volume   573.46580110
_cell_formula_units_Z   1
loop_
 _symmetry_equiv_pos_site_id
 _symmetry_equiv_pos_as_xyz
  1  'x, y, z'
loop_
 _atom_site_type_symbol
 _atom_site_label
 _atom_site_symmetry_multiplicity
 _atom_site_fract_x
 _atom_site_fract_y
 _atom_site_fract_z
 _atom_site_occupancy
  Cd  Cd0  1  0.900779  0.017316  0.181121  1
  Sn  Sn1  1  0.482789  0.614875  0.419613  1
  Sn  Sn2  1  0.488991  0.085051  0.425643  1
  Sn  Sn3  1  0.000236  0.085028  0.425663  1
  Sn  Sn4  1  0.096248  0.151742  0.655716  1
  Sn  Sn5  1  0.441355  0.978062  0.139304  1
  Sn  Sn6  1  0.148043  0.784538  0.919388  1
  Sn  Sn7  1  0.439522  0.495967  0.160096  1
  Sn  Sn8  1  0.904398  0.496039  0.160087  1
  Sn  Sn9  1  0.680112  0.752920  0.886839  1
  Sn  Sn10  1  0.678238  0.262641  0.912595  1
  Sn  Sn11  1  0.146599  0.262673  0.912586  1
  Sn  Sn12  1  0.573402  0.679702  0.650717  1
  Sn  Sn13  1  0.096160  0.679651  0.650736  1
  Sn  Sn14  1  0.012492  0.594687  0.380344  1
  Ir  Ir15  1  0.690048  0.308773  0.311112  1
  Ir  Ir16  1  0.884716  0.464717  0.765846  1
  Ir  Ir17  1  0.291881  0.382120  0.034115  1
  O  O18  1  0.117814  0.722148  0.468582  1
  O  O19  1  0.691450  0.722148  0.468581  1
  O  O20  1  0.957122  0.090334  0.995408  1
  O  O21  1  0.119354  0.283284  0.478009  1
  O  O22  1  0.641107  0.665458  0.052314  1
  O  O23  1  0.424168  0.562414  0.589225  1
  O  O24  1  0.338576  0.954257  0.368619  1
  O  O25  1  0.425980  0.009763  0.594431  1
  O  O26  1  0.969827  0.009760  0.594428  1
  O  O27  1  0.360061  0.947147  0.880152  1
  O  O28  1  0.812633  0.947149  0.880151  1
  O  O29  1  0.739986  0.813687  0.187349  1
  O  O30  1  0.258980  0.813685  0.187348  1
  O  O31  1  0.227303  0.800750  0.744657  1
