# generated using pymatgen
data_V2Co5SiW4
_symmetry_space_group_name_H-M   'P 1'
_cell_length_a   4.77075964
_cell_length_b   4.77075886
_cell_length_c   7.62428000
_cell_angle_alpha   90.00000000
_cell_angle_beta   90.00000000
_cell_angle_gamma   119.59606687
_symmetry_Int_Tables_number   1
_chemical_formula_structural   V2Co5SiW4
_chemical_formula_sum   'V2 Co5 Si1 W4'
_cell_volume   150.88908581
_cell_formula_units_Z   1
loop_
 _symmetry_equiv_pos_site_id
 _symmetry_equiv_pos_as_xyz
  1  'x, y, z'
loop_
 _atom_site_type_symbol
 _atom_site_label
 _atom_site_symmetry_multiplicity
 _atom_site_fract_x
 _atom_site_fract_y
 _atom_site_fract_z
 _atom_site_occupancy
  V  V0  1  0.003673  0.996327  0.506604  1
  V  V1  1  0.003673  0.996327  0.993396  1
  Co  Co2  1  0.824280  0.671472  0.250000  1
  Co  Co3  1  0.328528  0.175720  0.250000  1
  Co  Co4  1  0.176232  0.823768  0.750000  1
  Co  Co5  1  0.178225  0.342296  0.750000  1
  Co  Co6  1  0.657704  0.821775  0.750000  1
  Si  Si7  1  0.813530  0.186470  0.250000  1
  W  W8  1  0.334744  0.665256  0.431176  1
  W  W9  1  0.672334  0.327666  0.569483  1
  W  W10  1  0.672334  0.327666  0.930517  1
  W  W11  1  0.334744  0.665256  0.068824  1
