# generated using pymatgen
data_LaYb4Si3H
_symmetry_space_group_name_H-M   'P 1'
_cell_length_a   9.02814622
_cell_length_b   9.02814590
_cell_length_c   9.01900804
_cell_angle_alpha   129.48452987
_cell_angle_beta   129.48452810
_cell_angle_gamma   74.30881327
_symmetry_Int_Tables_number   1
_chemical_formula_structural   LaYb4Si3H
_chemical_formula_sum   'La2 Yb8 Si6 H2'
_cell_volume   426.68335133
_cell_formula_units_Z   2
loop_
 _symmetry_equiv_pos_site_id
 _symmetry_equiv_pos_as_xyz
  1  'x, y, z'
loop_
 _atom_site_type_symbol
 _atom_site_label
 _atom_site_symmetry_multiplicity
 _atom_site_fract_x
 _atom_site_fract_y
 _atom_site_fract_z
 _atom_site_occupancy
  La  La0  1  0.967046  0.823858  0.500000  1
  La  La1  1  0.323858  0.467046  0.500000  1
  Yb  Yb2  1  0.493086  0.493086  0.000000  1
  Yb  Yb3  1  0.993086  0.993086  0.000000  1
  Yb  Yb4  1  0.521684  0.021684  0.837711  1
  Yb  Yb5  1  0.183974  0.683974  0.162289  1
  Yb  Yb6  1  0.019899  0.187591  0.500000  1
  Yb  Yb7  1  0.687591  0.519899  0.500000  1
  Yb  Yb8  1  0.478470  0.978470  0.160229  1
  Yb  Yb9  1  0.818240  0.318240  0.839771  1
  Si  Si10  1  0.250803  0.250803  0.000000  1
  Si  Si11  1  0.750803  0.750803  0.000000  1
  Si  Si12  1  0.889412  0.389412  0.273479  1
  Si  Si13  1  0.115933  0.615933  0.726521  1
  Si  Si14  1  0.389811  0.113836  0.500000  1
  Si  Si15  1  0.613836  0.889811  0.500000  1
  H  H16  1  0.252380  0.752380  0.500000  1
  H  H17  1  0.750090  0.250090  0.500000  1
