# generated using pymatgen
data_Li4Dy8Sc8Si15As
_symmetry_space_group_name_H-M   'P 1'
_cell_length_a   6.90424827
_cell_length_b   7.40037236
_cell_length_c   14.04353400
_cell_angle_alpha   90.00000000
_cell_angle_beta   90.00000000
_cell_angle_gamma   90.06941407
_symmetry_Int_Tables_number   1
_chemical_formula_structural   Li4Dy8Sc8Si15As
_chemical_formula_sum   'Li4 Dy8 Sc8 Si15 As1'
_cell_volume   717.53991230
_cell_formula_units_Z   1
loop_
 _symmetry_equiv_pos_site_id
 _symmetry_equiv_pos_as_xyz
  1  'x, y, z'
loop_
 _atom_site_type_symbol
 _atom_site_label
 _atom_site_symmetry_multiplicity
 _atom_site_fract_x
 _atom_site_fract_y
 _atom_site_fract_z
 _atom_site_occupancy
  Li  Li0  1  0.159310  0.507027  0.750000  1
  Li  Li1  1  0.841051  0.494708  0.250000  1
  Li  Li2  1  0.341072  0.005334  0.250000  1
  Li  Li3  1  0.657868  0.994576  0.750000  1
  Dy  Dy4  1  0.013971  0.181664  0.099272  1
  Dy  Dy5  1  0.986177  0.817402  0.900946  1
  Dy  Dy6  1  0.485972  0.681393  0.900885  1
  Dy  Dy7  1  0.986177  0.817402  0.599054  1
  Dy  Dy8  1  0.513900  0.318700  0.099128  1
  Dy  Dy9  1  0.013971  0.181664  0.400728  1
  Dy  Dy10  1  0.513900  0.318700  0.400872  1
  Dy  Dy11  1  0.485972  0.681393  0.599115  1
  Sc  Sc12  1  0.332261  0.179338  0.626302  1
  Sc  Sc13  1  0.669647  0.820488  0.373686  1
  Sc  Sc14  1  0.169627  0.679261  0.373555  1
  Sc  Sc15  1  0.669647  0.820488  0.126314  1
  Sc  Sc16  1  0.828922  0.322557  0.625780  1
  Sc  Sc17  1  0.332261  0.179338  0.873698  1
  Sc  Sc18  1  0.828922  0.322557  0.874220  1
  Sc  Sc19  1  0.169627  0.679261  0.126445  1
  Si  Si20  1  0.968588  0.895859  0.250000  1
  Si  Si21  1  0.468553  0.604415  0.250000  1
  Si  Si22  1  0.531146  0.395234  0.750000  1
  Si  Si23  1  0.287829  0.876218  0.750000  1
  Si  Si24  1  0.717695  0.118151  0.250000  1
  Si  Si25  1  0.217418  0.381614  0.250000  1
  Si  Si26  1  0.782570  0.617724  0.750000  1
  Si  Si27  1  0.158345  0.462771  0.535257  1
  Si  Si28  1  0.841443  0.536708  0.464923  1
  Si  Si29  1  0.340937  0.963535  0.465086  1
  Si  Si30  1  0.841443  0.536708  0.035077  1
  Si  Si31  1  0.658809  0.036845  0.534996  1
  Si  Si32  1  0.158345  0.462771  0.964743  1
  Si  Si33  1  0.658809  0.036845  0.965004  1
  Si  Si34  1  0.340937  0.963535  0.034914  1
  As  As35  1  0.026877  0.107812  0.750000  1
