# generated using pymatgen
data_NaCa3Zr3TaO12
_symmetry_space_group_name_H-M   'P 1'
_cell_length_a   5.79924400
_cell_length_b   5.55991100
_cell_length_c   15.96838370
_cell_angle_alpha   89.87385390
_cell_angle_beta   90.00000000
_cell_angle_gamma   90.00000000
_symmetry_Int_Tables_number   1
_chemical_formula_structural   NaCa3Zr3TaO12
_chemical_formula_sum   'Na2 Ca6 Zr6 Ta2 O24'
_cell_volume   514.87182707
_cell_formula_units_Z   2
loop_
 _symmetry_equiv_pos_site_id
 _symmetry_equiv_pos_as_xyz
  1  'x, y, z'
loop_
 _atom_site_type_symbol
 _atom_site_label
 _atom_site_symmetry_multiplicity
 _atom_site_fract_x
 _atom_site_fract_y
 _atom_site_fract_z
 _atom_site_occupancy
  Na  Na0  1  0.497820  0.745733  0.500440  1
  Na  Na1  1  0.997820  0.254267  0.499560  1
  Ca  Ca2  1  0.941330  0.262202  0.255480  1
  Ca  Ca3  1  0.940777  0.261625  0.744991  1
  Ca  Ca4  1  0.441330  0.737798  0.744520  1
  Ca  Ca5  1  0.440777  0.738375  0.255009  1
  Ca  Ca6  1  0.546369  0.767657  0.000193  1
  Ca  Ca7  1  0.046369  0.232343  0.999807  1
  Zr  Zr8  1  0.492600  0.253913  0.874386  1
  Zr  Zr9  1  0.483927  0.243208  0.377582  1
  Zr  Zr10  1  0.992600  0.746087  0.125614  1
  Zr  Zr11  1  0.993477  0.747405  0.874116  1
  Zr  Zr12  1  0.983927  0.756792  0.622418  1
  Zr  Zr13  1  0.493477  0.252595  0.125884  1
  Ta  Ta14  1  0.987328  0.756840  0.377045  1
  Ta  Ta15  1  0.487328  0.243160  0.622955  1
  O  O16  1  0.448204  0.363832  0.999686  1
  O  O17  1  0.483296  0.330203  0.504677  1
  O  O18  1  0.187747  0.440722  0.155975  1
  O  O19  1  0.220322  0.452094  0.651580  1
  O  O20  1  0.204697  0.465458  0.348412  1
  O  O21  1  0.187684  0.441525  0.843904  1
  O  O22  1  0.687684  0.558475  0.156096  1
  O  O23  1  0.720322  0.547906  0.348420  1
  O  O24  1  0.704697  0.534542  0.651588  1
  O  O25  1  0.687747  0.559278  0.844025  1
  O  O26  1  0.948204  0.636168  0.000314  1
  O  O27  1  0.983296  0.669797  0.495323  1
  O  O28  1  0.035824  0.854532  0.748536  1
  O  O29  1  0.030907  0.849591  0.253623  1
  O  O30  1  0.292803  0.946586  0.904137  1
  O  O31  1  0.292497  0.945313  0.097118  1
  O  O32  1  0.306484  0.954411  0.607407  1
  O  O33  1  0.291208  0.937707  0.392927  1
  O  O34  1  0.792497  0.054687  0.902882  1
  O  O35  1  0.806484  0.045589  0.392593  1
  O  O36  1  0.792803  0.053414  0.095863  1
  O  O37  1  0.791208  0.062293  0.607073  1
  O  O38  1  0.535824  0.145468  0.251464  1
  O  O39  1  0.530907  0.150409  0.746377  1
