# generated using pymatgen
data_Tm3Lu7Co4
_symmetry_space_group_name_H-M   'P 1'
_cell_length_a   6.19144965
_cell_length_b   6.87596371
_cell_length_c   8.32795994
_cell_angle_alpha   96.59311994
_cell_angle_beta   111.76660716
_cell_angle_gamma   89.95592015
_symmetry_Int_Tables_number   1
_chemical_formula_structural   Tm3Lu7Co4
_chemical_formula_sum   'Tm3 Lu7 Co4'
_cell_volume   326.74793366
_cell_formula_units_Z   1
loop_
 _symmetry_equiv_pos_site_id
 _symmetry_equiv_pos_as_xyz
  1  'x, y, z'
loop_
 _atom_site_type_symbol
 _atom_site_label
 _atom_site_symmetry_multiplicity
 _atom_site_fract_x
 _atom_site_fract_y
 _atom_site_fract_z
 _atom_site_occupancy
  Tm  Tm0  1  0.517651  0.085785  0.810486  1
  Tm  Tm1  1  0.481944  0.914032  0.189021  1
  Tm  Tm2  1  0.706276  0.413749  0.188649  1
  Lu  Lu3  1  0.293747  0.586445  0.811270  1
  Lu  Lu4  1  0.290475  0.315553  0.434294  1
  Lu  Lu5  1  0.710494  0.684781  0.566478  1
  Lu  Lu6  1  0.857077  0.185757  0.566441  1
  Lu  Lu7  1  0.143393  0.813916  0.433987  1
  Lu  Lu8  1  0.074062  0.250426  0.999847  1
  Lu  Lu9  1  0.925875  0.749749  0.999769  1
  Co  Co10  1  0.321120  0.573702  0.220126  1
  Co  Co11  1  0.677329  0.426597  0.779322  1
  Co  Co12  1  0.100168  0.925855  0.779457  1
  Co  Co13  1  0.900388  0.073656  0.220852  1
