# generated using pymatgen
data_LiAl2(FeRh2)3
_symmetry_space_group_name_H-M   'P 1'
_cell_length_a   4.24694800
_cell_length_b   5.98841300
_cell_length_c   12.73753600
_cell_angle_alpha   90.00000000
_cell_angle_beta   89.99999548
_cell_angle_gamma   90.00000000
_symmetry_Int_Tables_number   1
_chemical_formula_structural   LiAl2(FeRh2)3
_chemical_formula_sum   'Li2 Al4 Fe6 Rh12'
_cell_volume   323.94711191
_cell_formula_units_Z   2
loop_
 _symmetry_equiv_pos_site_id
 _symmetry_equiv_pos_as_xyz
  1  'x, y, z'
loop_
 _atom_site_type_symbol
 _atom_site_label
 _atom_site_symmetry_multiplicity
 _atom_site_fract_x
 _atom_site_fract_y
 _atom_site_fract_z
 _atom_site_occupancy
  Li  Li0  1  0.000141  0.500000  0.667209  1
  Li  Li1  1  0.500150  0.000000  0.832746  1
  Al  Al2  1  0.999992  0.500000  0.997414  1
  Al  Al3  1  0.499877  0.000000  0.165869  1
  Al  Al4  1  0.999877  0.500000  0.334131  1
  Al  Al5  1  0.499993  0.000000  0.502611  1
  Fe  Fe6  1  0.999999  0.000000  0.994185  1
  Fe  Fe7  1  0.499878  0.500000  0.164986  1
  Fe  Fe8  1  0.999880  0.000000  0.334995  1
  Fe  Fe9  1  0.500001  0.500000  0.505802  1
  Fe  Fe10  1  0.000124  0.000000  0.669811  1
  Fe  Fe11  1  0.500133  0.500000  0.830223  1
  Rh  Rh12  1  0.499993  0.250421  0.001618  1
  Rh  Rh13  1  0.499993  0.749579  0.001618  1
  Rh  Rh14  1  0.999877  0.250089  0.167110  1
  Rh  Rh15  1  0.999877  0.749910  0.167110  1
  Rh  Rh16  1  0.499875  0.249932  0.332882  1
  Rh  Rh17  1  0.499875  0.750067  0.332882  1
  Rh  Rh18  1  0.999989  0.249640  0.498367  1
  Rh  Rh19  1  0.999989  0.750360  0.498367  1
  Rh  Rh20  1  0.500120  0.250758  0.666278  1
  Rh  Rh21  1  0.500120  0.749241  0.666278  1
  Rh  Rh22  1  0.000122  0.249329  0.833756  1
  Rh  Rh23  1  0.000122  0.750670  0.833756  1
