# generated using pymatgen
data_Tb3Pa(Rh2Pb)2
_symmetry_space_group_name_H-M   'P 1'
_cell_length_a   7.83404311
_cell_length_b   7.83404311
_cell_length_c   3.62664600
_cell_angle_alpha   90.00000000
_cell_angle_beta   90.00000000
_cell_angle_gamma   86.82750019
_symmetry_Int_Tables_number   1
_chemical_formula_structural   Tb3Pa(Rh2Pb)2
_chemical_formula_sum   'Tb3 Pa1 Rh4 Pb2'
_cell_volume   222.23424783
_cell_formula_units_Z   1
loop_
 _symmetry_equiv_pos_site_id
 _symmetry_equiv_pos_as_xyz
  1  'x, y, z'
loop_
 _atom_site_type_symbol
 _atom_site_label
 _atom_site_symmetry_multiplicity
 _atom_site_fract_x
 _atom_site_fract_y
 _atom_site_fract_z
 _atom_site_occupancy
  Tb  Tb0  1  0.324596  0.175405  0.500001  1
  Tb  Tb1  1  0.837051  0.328694  0.500001  1
  Tb  Tb2  1  0.171307  0.662948  0.500001  1
  Pa  Pa3  1  0.663986  0.836013  0.500001  1
  Rh  Rh4  1  0.639276  0.107845  0.000000  1
  Rh  Rh5  1  0.114676  0.385324  0.000000  1
  Rh  Rh6  1  0.845934  0.654066  0.000000  1
  Rh  Rh7  1  0.392155  0.860724  0.000000  1
  Pb  Pb8  1  0.010973  0.999954  0.000000  1
  Pb  Pb9  1  0.500047  0.489028  0.000000  1
