# generated using pymatgen
data_Ac3RhAu3
_symmetry_space_group_name_H-M   'P 1'
_cell_length_a   8.68508988
_cell_length_b   8.68509024
_cell_length_c   8.68508995
_cell_angle_alpha   114.32285535
_cell_angle_beta   114.32286028
_cell_angle_gamma   114.32284039
_symmetry_Int_Tables_number   1
_chemical_formula_structural   Ac3RhAu3
_chemical_formula_sum   'Ac6 Rh2 Au6'
_cell_volume   388.30919596
_cell_formula_units_Z   2
loop_
 _symmetry_equiv_pos_site_id
 _symmetry_equiv_pos_as_xyz
  1  'x, y, z'
loop_
 _atom_site_type_symbol
 _atom_site_label
 _atom_site_symmetry_multiplicity
 _atom_site_fract_x
 _atom_site_fract_y
 _atom_site_fract_z
 _atom_site_occupancy
  Ac  Ac0  1  0.045761  0.394601  0.282658  1
  Ac  Ac1  1  0.394601  0.282658  0.045761  1
  Ac  Ac2  1  0.717342  0.954239  0.605399  1
  Ac  Ac3  1  0.282658  0.045761  0.394601  1
  Ac  Ac4  1  0.605399  0.717342  0.954239  1
  Ac  Ac5  1  0.954239  0.605399  0.717342  1
  Rh  Rh6  1  0.000000  0.000000  0.000000  1
  Rh  Rh7  1  0.500000  0.500000  0.500000  1
  Au  Au8  1  0.435092  0.941207  0.776388  1
  Au  Au9  1  0.941207  0.776388  0.435092  1
  Au  Au10  1  0.223612  0.564908  0.058793  1
  Au  Au11  1  0.776388  0.435092  0.941207  1
  Au  Au12  1  0.058793  0.223612  0.564908  1
  Au  Au13  1  0.564908  0.058793  0.223612  1
