# generated using pymatgen
data_Sm9PuC4Br15
_symmetry_space_group_name_H-M   'P 1'
_cell_length_a   9.06818715
_cell_length_b   10.23627085
_cell_length_c   11.05178500
_cell_angle_alpha   69.97394877
_cell_angle_beta   66.14923594
_cell_angle_gamma   70.09335658
_symmetry_Int_Tables_number   1
_chemical_formula_structural   Sm9PuC4Br15
_chemical_formula_sum   'Sm9 Pu1 C4 Br15'
_cell_volume   856.82965689
_cell_formula_units_Z   1
loop_
 _symmetry_equiv_pos_site_id
 _symmetry_equiv_pos_as_xyz
  1  'x, y, z'
loop_
 _atom_site_type_symbol
 _atom_site_label
 _atom_site_symmetry_multiplicity
 _atom_site_fract_x
 _atom_site_fract_y
 _atom_site_fract_z
 _atom_site_occupancy
  Sm  Sm0  1  0.667149  0.256703  0.167935  1
  Sm  Sm1  1  0.167504  0.429903  0.045369  1
  Sm  Sm2  1  0.830190  0.569285  0.954953  1
  Sm  Sm3  1  0.082888  0.189353  0.884984  1
  Sm  Sm4  1  0.918470  0.808136  0.114751  1
  Sm  Sm5  1  0.247101  0.545208  0.644557  1
  Sm  Sm6  1  0.750436  0.454140  0.355743  1
  Sm  Sm7  1  0.027625  0.111062  0.261848  1
  Sm  Sm8  1  0.976490  0.888622  0.737788  1
  Pu  Pu9  1  0.333352  0.746139  0.830862  1
  C  C10  1  0.879023  0.362014  0.171130  1
  C  C11  1  0.118853  0.636668  0.829005  1
  C  C12  1  0.957320  0.297919  0.059073  1
  C  C13  1  0.040791  0.700214  0.941425  1
  Br  Br14  1  0.502133  0.499530  0.001257  1
  Br  Br15  1  0.129799  0.815639  0.469768  1
  Br  Br16  1  0.870829  0.184666  0.529306  1
  Br  Br17  1  0.250065  0.028160  0.653820  1
  Br  Br18  1  0.749316  0.979105  0.344163  1
  Br  Br19  1  0.337385  0.169312  0.216560  1
  Br  Br20  1  0.666953  0.834017  0.783101  1
  Br  Br21  1  0.449395  0.369530  0.412673  1
  Br  Br22  1  0.551712  0.625370  0.584803  1
  Br  Br23  1  0.951607  0.445161  0.702062  1
  Br  Br24  1  0.047043  0.553147  0.298580  1
  Br  Br25  1  0.214458  0.914347  0.060923  1
  Br  Br26  1  0.782782  0.087493  0.943161  1
  Br  Br27  1  0.388012  0.274008  0.815323  1
  Br  Br28  1  0.611319  0.725152  0.185075  1
