# generated using pymatgen
data_Dy8HoMg(SiB4)4
_symmetry_space_group_name_H-M   'P 1'
_cell_length_a   7.18967900
_cell_length_b   7.18967900
_cell_length_c   8.00202600
_cell_angle_alpha   90.00000000
_cell_angle_beta   90.00000000
_cell_angle_gamma   90.00000000
_symmetry_Int_Tables_number   1
_chemical_formula_structural   Dy8HoMg(SiB4)4
_chemical_formula_sum   'Dy8 Ho1 Mg1 Si4 B16'
_cell_volume   413.63659993
_cell_formula_units_Z   1
loop_
 _symmetry_equiv_pos_site_id
 _symmetry_equiv_pos_as_xyz
  1  'x, y, z'
loop_
 _atom_site_type_symbol
 _atom_site_label
 _atom_site_symmetry_multiplicity
 _atom_site_fract_x
 _atom_site_fract_y
 _atom_site_fract_z
 _atom_site_occupancy
  Dy  Dy0  1  0.681894  0.179871  0.228361  1
  Dy  Dy1  1  0.318106  0.820129  0.771639  1
  Dy  Dy2  1  0.318106  0.820129  0.228361  1
  Dy  Dy3  1  0.820129  0.681894  0.228361  1
  Dy  Dy4  1  0.820129  0.681894  0.771639  1
  Dy  Dy5  1  0.681894  0.179871  0.771639  1
  Dy  Dy6  1  0.179871  0.318106  0.771639  1
  Dy  Dy7  1  0.179871  0.318106  0.228361  1
  Ho  Ho8  1  0.500000  0.500000  0.500000  1
  Mg  Mg9  1  0.000000  0.000000  0.500000  1
  Si  Si10  1  0.115336  0.615945  0.500000  1
  Si  Si11  1  0.884664  0.384055  0.500000  1
  Si  Si12  1  0.384055  0.115336  0.500000  1
  Si  Si13  1  0.615945  0.884664  0.500000  1
  B  B14  1  0.174071  0.038441  0.000000  1
  B  B15  1  0.825929  0.961559  0.000000  1
  B  B16  1  0.961559  0.174071  0.000000  1
  B  B17  1  0.327361  0.539597  0.000000  1
  B  B18  1  0.038441  0.825929  0.000000  1
  B  B19  1  0.672639  0.460403  0.000000  1
  B  B20  1  0.539597  0.672639  0.000000  1
  B  B21  1  0.460403  0.327361  0.000000  1
  B  B22  1  0.089310  0.588464  0.000000  1
  B  B23  1  0.910690  0.411536  0.000000  1
  B  B24  1  0.411536  0.089310  0.000000  1
  B  B25  1  0.588464  0.910690  0.000000  1
  B  B26  1  0.000000  0.000000  0.159114  1
  B  B27  1  0.000000  0.000000  0.840886  1
  B  B28  1  0.500000  0.500000  0.836963  1
  B  B29  1  0.500000  0.500000  0.163037  1
