# generated using pymatgen
data_Lu4Al18(NiIr)3
_symmetry_space_group_name_H-M   'P 1'
_cell_length_a   7.47940017
_cell_length_b   7.47941515
_cell_length_c   9.27430400
_cell_angle_alpha   89.99401870
_cell_angle_beta   89.99399200
_cell_angle_gamma   119.58780624
_symmetry_Int_Tables_number   1
_chemical_formula_structural   Lu4Al18(NiIr)3
_chemical_formula_sum   'Lu4 Al18 Ni3 Ir3'
_cell_volume   451.16486890
_cell_formula_units_Z   1
loop_
 _symmetry_equiv_pos_site_id
 _symmetry_equiv_pos_as_xyz
  1  'x, y, z'
loop_
 _atom_site_type_symbol
 _atom_site_label
 _atom_site_symmetry_multiplicity
 _atom_site_fract_x
 _atom_site_fract_y
 _atom_site_fract_z
 _atom_site_occupancy
  Lu  Lu0  1  0.994753  0.670967  0.250194  1
  Lu  Lu1  1  0.005247  0.329033  0.749806  1
  Lu  Lu2  1  0.670966  0.994750  0.250193  1
  Lu  Lu3  1  0.329034  0.005250  0.749807  1
  Al  Al4  1  0.125348  0.125348  0.245294  1
  Al  Al5  1  0.874652  0.874652  0.754706  1
  Al  Al6  1  0.996694  0.334600  0.073969  1
  Al  Al7  1  0.003306  0.665400  0.926031  1
  Al  Al8  1  0.999697  0.665050  0.575091  1
  Al  Al9  1  0.334950  0.000303  0.424909  1
  Al  Al10  1  0.000303  0.334950  0.424909  1
  Al  Al11  1  0.665050  0.999697  0.575091  1
  Al  Al12  1  0.665400  0.003306  0.926031  1
  Al  Al13  1  0.334600  0.996694  0.073969  1
  Al  Al14  1  0.333032  0.333032  0.553357  1
  Al  Al15  1  0.666968  0.666968  0.446643  1
  Al  Al16  1  0.668798  0.668798  0.052825  1
  Al  Al17  1  0.331202  0.331202  0.947175  1
  Al  Al18  1  0.339418  0.551360  0.245711  1
  Al  Al19  1  0.660582  0.448640  0.754289  1
  Al  Al20  1  0.551359  0.339417  0.245711  1
  Al  Al21  1  0.448641  0.660583  0.754289  1
  Ni  Ni22  1  0.671931  0.328068  0.999998  1
  Ni  Ni23  1  0.328069  0.671932  0.000002  1
  Ni  Ni24  1  0.000000  0.000000  0.000000  1
  Ir  Ir25  1  0.327961  0.672039  0.499999  1
  Ir  Ir26  1  0.672039  0.327961  0.500001  1
  Ir  Ir27  1  0.000000  0.000000  0.500000  1
