# generated using pymatgen
data_YbEr3Al24Pd2Pt7
_symmetry_space_group_name_H-M   'P 1'
_cell_length_a   7.52793078
_cell_length_b   7.53119994
_cell_length_c   13.18947491
_cell_angle_alpha   84.57013628
_cell_angle_beta   100.89020120
_cell_angle_gamma   119.80374714
_symmetry_Int_Tables_number   1
_chemical_formula_structural   YbEr3Al24Pd2Pt7
_chemical_formula_sum   'Yb1 Er3 Al24 Pd2 Pt7'
_cell_volume   637.17797715
_cell_formula_units_Z   1
loop_
 _symmetry_equiv_pos_site_id
 _symmetry_equiv_pos_as_xyz
  1  'x, y, z'
loop_
 _atom_site_type_symbol
 _atom_site_label
 _atom_site_symmetry_multiplicity
 _atom_site_fract_x
 _atom_site_fract_y
 _atom_site_fract_z
 _atom_site_occupancy
  Yb  Yb0  1  0.733251  0.998923  0.192786  1
  Er  Er1  1  0.268355  0.001448  0.807675  1
  Er  Er2  1  0.062364  0.668324  0.192396  1
  Er  Er3  1  0.936597  0.330434  0.807655  1
  Al  Al4  1  0.808734  0.870574  0.815543  1
  Al  Al5  1  0.193830  0.129166  0.183946  1
  Al  Al6  1  0.982158  0.666481  0.943247  1
  Al  Al7  1  0.018487  0.334242  0.054862  1
  Al  Al8  1  0.396653  0.664937  0.816449  1
  Al  Al9  1  0.603227  0.339549  0.183116  1
  Al  Al10  1  0.882675  0.665312  0.671013  1
  Al  Al11  1  0.117371  0.334010  0.329928  1
  Al  Al12  1  0.603197  0.458811  0.816114  1
  Al  Al13  1  0.393124  0.540679  0.183348  1
  Al  Al14  1  0.229751  0.339298  0.669457  1
  Al  Al15  1  0.770279  0.661039  0.331205  1
  Al  Al16  1  0.853587  0.333241  0.559262  1
  Al  Al17  1  0.185787  0.999357  0.559537  1
  Al  Al18  1  0.814112  0.000302  0.441091  1
  Al  Al19  1  0.351642  0.999101  0.054928  1
  Al  Al20  1  0.647305  0.000019  0.944184  1
  Al  Al21  1  0.556439  0.993146  0.671367  1
  Al  Al22  1  0.444709  0.006641  0.329726  1
  Al  Al23  1  0.521310  0.667890  0.561953  1
  Al  Al24  1  0.479443  0.332305  0.439325  1
  Al  Al25  1  0.683429  0.667704  0.045709  1
  Al  Al26  1  0.315263  0.331709  0.952529  1
  Al  Al27  1  0.146860  0.666272  0.441679  1
  Pd  Pd28  1  0.327956  0.671208  0.999310  1
  Pd  Pd29  1  0.000070  0.000069  0.999248  1
  Pt  Pt30  1  0.546086  0.324629  0.637712  1
  Pt  Pt31  1  0.453771  0.674532  0.363283  1
  Pt  Pt32  1  0.888075  0.008198  0.638580  1
  Pt  Pt33  1  0.113199  0.991954  0.362055  1
  Pt  Pt34  1  0.671200  0.328519  0.999362  1
  Pt  Pt35  1  0.203903  0.666581  0.638671  1
  Pt  Pt36  1  0.795798  0.333399  0.361746  1
