# generated using pymatgen
data_Gd15Er5(Ir5Pt)2
_symmetry_space_group_name_H-M   'P 1'
_cell_length_a   10.95722801
_cell_length_b   10.95191642
_cell_length_c   6.35033800
_cell_angle_alpha   90.04209849
_cell_angle_beta   89.99724430
_cell_angle_gamma   90.01671691
_symmetry_Int_Tables_number   1
_chemical_formula_structural   Gd15Er5(Ir5Pt)2
_chemical_formula_sum   'Gd15 Er5 Ir10 Pt2'
_cell_volume   762.05712027
_cell_formula_units_Z   1
loop_
 _symmetry_equiv_pos_site_id
 _symmetry_equiv_pos_as_xyz
  1  'x, y, z'
loop_
 _atom_site_type_symbol
 _atom_site_label
 _atom_site_symmetry_multiplicity
 _atom_site_fract_x
 _atom_site_fract_y
 _atom_site_fract_z
 _atom_site_occupancy
  Gd  Gd0  1  0.288122  0.088975  0.375682  1
  Gd  Gd1  1  0.289380  0.912143  0.876175  1
  Gd  Gd2  1  0.705601  0.089867  0.873300  1
  Gd  Gd3  1  0.705987  0.909793  0.372986  1
  Gd  Gd4  1  0.584557  0.788677  0.877424  1
  Gd  Gd5  1  0.583880  0.210619  0.378038  1
  Gd  Gd6  1  0.410052  0.789802  0.377438  1
  Gd  Gd7  1  0.409252  0.210266  0.878564  1
  Gd  Gd8  1  0.211671  0.410928  0.621622  1
  Gd  Gd9  1  0.211513  0.587304  0.120956  1
  Gd  Gd10  1  0.789607  0.414753  0.122591  1
  Gd  Gd11  1  0.789740  0.584716  0.622095  1
  Gd  Gd12  1  0.914148  0.708334  0.128467  1
  Gd  Gd13  1  0.915175  0.291405  0.628330  1
  Gd  Gd14  1  0.092143  0.707523  0.623081  1
  Er  Er15  1  0.091305  0.293942  0.121072  1
  Er  Er16  1  0.002298  0.998984  0.500706  1
  Er  Er17  1  0.002842  0.002369  0.001330  1
  Er  Er18  1  0.500552  0.498814  0.000070  1
  Er  Er19  1  0.500369  0.500611  0.500007  1
  Ir  Ir20  1  0.149573  0.152647  0.752560  1
  Ir  Ir21  1  0.150242  0.848194  0.250070  1
  Ir  Ir22  1  0.652935  0.347388  0.748857  1
  Ir  Ir23  1  0.652904  0.652082  0.249809  1
  Ir  Ir24  1  0.346878  0.348403  0.249186  1
  Ir  Ir25  1  0.349216  0.652118  0.750597  1
  Ir  Ir26  1  0.499697  0.999851  0.122061  1
  Ir  Ir27  1  0.499700  0.000008  0.621409  1
  Ir  Ir28  1  0.001092  0.499336  0.878993  1
  Ir  Ir29  1  0.001036  0.498598  0.376927  1
  Pt  Pt30  1  0.849905  0.152697  0.248912  1
  Pt  Pt31  1  0.848626  0.848853  0.750684  1
