# generated using pymatgen
data_Ba4InRuO8
_symmetry_space_group_name_H-M   'P 1'
_cell_length_a   7.31066264
_cell_length_b   7.31066261
_cell_length_c   5.94800500
_cell_angle_alpha   90.00000000
_cell_angle_beta   90.00000000
_cell_angle_gamma   132.08470427
_symmetry_Int_Tables_number   1
_chemical_formula_structural   Ba4InRuO8
_chemical_formula_sum   'Ba4 In1 Ru1 O8'
_cell_volume   235.92790205
_cell_formula_units_Z   1
loop_
 _symmetry_equiv_pos_site_id
 _symmetry_equiv_pos_as_xyz
  1  'x, y, z'
loop_
 _atom_site_type_symbol
 _atom_site_label
 _atom_site_symmetry_multiplicity
 _atom_site_fract_x
 _atom_site_fract_y
 _atom_site_fract_z
 _atom_site_occupancy
  Ba  Ba0  1  0.355778  0.644222  0.000000  1
  Ba  Ba1  1  0.855767  0.144233  0.500000  1
  Ba  Ba2  1  0.144233  0.855767  0.500000  1
  Ba  Ba3  1  0.644222  0.355778  0.000000  1
  In  In4  1  0.000000  0.000000  0.000000  1
  Ru  Ru5  1  0.500000  0.500000  0.500000  1
  O  O6  1  0.262634  0.262634  0.734631  1
  O  O7  1  0.737366  0.737366  0.265369  1
  O  O8  1  0.737366  0.737366  0.734631  1
  O  O9  1  0.262634  0.262634  0.265369  1
  O  O10  1  0.159937  0.840063  0.000000  1
  O  O11  1  0.651959  0.348041  0.500000  1
  O  O12  1  0.348041  0.651959  0.500000  1
  O  O13  1  0.840063  0.159937  0.000000  1
