# generated using pymatgen
data_DyY3(Si5Ru3)2
_symmetry_space_group_name_H-M   'P 1'
_cell_length_a   8.25837364
_cell_length_b   8.25792335
_cell_length_c   8.25792390
_cell_angle_alpha   140.18619185
_cell_angle_beta   108.50687180
_cell_angle_gamma   85.09175916
_symmetry_Int_Tables_number   1
_chemical_formula_structural   DyY3(Si5Ru3)2
_chemical_formula_sum   'Dy1 Y3 Si10 Ru6'
_cell_volume   330.12506411
_cell_formula_units_Z   1
loop_
 _symmetry_equiv_pos_site_id
 _symmetry_equiv_pos_as_xyz
  1  'x, y, z'
loop_
 _atom_site_type_symbol
 _atom_site_label
 _atom_site_symmetry_multiplicity
 _atom_site_fract_x
 _atom_site_fract_y
 _atom_site_fract_z
 _atom_site_occupancy
  Dy  Dy0  1  0.368147  0.636196  0.731951  1
  Y  Y1  1  0.904038  0.136080  0.767959  1
  Y  Y2  1  0.095959  0.863922  0.232037  1
  Y  Y3  1  0.631886  0.363911  0.267976  1
  Si  Si4  1  0.000110  0.749901  0.749951  1
  Si  Si5  1  0.000110  0.250160  0.250210  1
  Si  Si6  1  0.707355  0.457461  0.749930  1
  Si  Si7  1  0.292573  0.042450  0.749984  1
  Si  Si8  1  0.292573  0.542588  0.250122  1
  Si  Si9  1  0.707355  0.957426  0.249894  1
  Si  Si10  1  0.235487  0.404400  0.831089  1
  Si  Si11  1  0.573077  0.904240  0.668838  1
  Si  Si12  1  0.426841  0.095714  0.331126  1
  Si  Si13  1  0.764523  0.595679  0.168843  1
  Ru  Ru14  1  0.761004  0.853756  0.907248  1
  Ru  Ru15  1  0.500000  0.250033  0.749974  1
  Ru  Ru16  1  0.946507  0.353876  0.592631  1
  Ru  Ru17  1  0.053544  0.646084  0.407460  1
  Ru  Ru18  1  0.238909  0.146097  0.092811  1
  Ru  Ru19  1  0.500000  0.750027  0.249967  1
