# generated using pymatgen
data_TbDy5Y2(ReB6)4
_symmetry_space_group_name_H-M   'P 1'
_cell_length_a   3.68845200
_cell_length_b   9.18786201
_cell_length_c   11.57661300
_cell_angle_alpha   89.99890930
_cell_angle_beta   90.00000000
_cell_angle_gamma   90.00000000
_symmetry_Int_Tables_number   1
_chemical_formula_structural   TbDy5Y2(ReB6)4
_chemical_formula_sum   'Tb1 Dy5 Y2 Re4 B24'
_cell_volume   392.31969914
_cell_formula_units_Z   1
loop_
 _symmetry_equiv_pos_site_id
 _symmetry_equiv_pos_as_xyz
  1  'x, y, z'
loop_
 _atom_site_type_symbol
 _atom_site_label
 _atom_site_symmetry_multiplicity
 _atom_site_fract_x
 _atom_site_fract_y
 _atom_site_fract_z
 _atom_site_occupancy
  Tb  Tb0  1  0.000000  0.323220  0.413985  1
  Dy  Dy1  1  0.000000  0.176578  0.913981  1
  Dy  Dy2  1  0.000000  0.942574  0.369893  1
  Dy  Dy3  1  0.000000  0.057469  0.630063  1
  Dy  Dy4  1  0.000000  0.442537  0.129977  1
  Dy  Dy5  1  0.000000  0.557446  0.870004  1
  Y  Y6  1  0.000000  0.676795  0.586034  1
  Y  Y7  1  0.000000  0.823214  0.085977  1
  Re  Re8  1  0.000000  0.638117  0.320781  1
  Re  Re9  1  0.000000  0.361782  0.679435  1
  Re  Re10  1  0.000000  0.138074  0.179018  1
  Re  Re11  1  0.000000  0.862095  0.820825  1
  B  B12  1  0.500000  0.553064  0.432747  1
  B  B13  1  0.500000  0.446860  0.567373  1
  B  B14  1  0.500000  0.053184  0.067066  1
  B  B15  1  0.500000  0.947140  0.932733  1
  B  B16  1  0.500000  0.748590  0.418249  1
  B  B17  1  0.500000  0.251486  0.581920  1
  B  B18  1  0.500000  0.248507  0.081554  1
  B  B19  1  0.500000  0.751523  0.918237  1
  B  B20  1  0.500000  0.791294  0.265513  1
  B  B21  1  0.500000  0.208653  0.734632  1
  B  B22  1  0.500000  0.291183  0.234337  1
  B  B23  1  0.500000  0.708752  0.765593  1
  B  B24  1  0.500000  0.630291  0.185835  1
  B  B25  1  0.500000  0.369523  0.814310  1
  B  B26  1  0.500000  0.130298  0.314033  1
  B  B27  1  0.500000  0.869757  0.685891  1
  B  B28  1  0.500000  0.982081  0.211813  1
  B  B29  1  0.500000  0.018128  0.788189  1
  B  B30  1  0.500000  0.482101  0.288066  1
  B  B31  1  0.500000  0.517907  0.711989  1
  B  B32  1  0.500000  0.599855  0.028024  1
  B  B33  1  0.500000  0.399947  0.971923  1
  B  B34  1  0.500000  0.099750  0.471989  1
  B  B35  1  0.500000  0.900228  0.528013  1
