# generated using pymatgen
data_Tb2Y5(ErIn4)5
_symmetry_space_group_name_H-M   'P 1'
_cell_length_a   6.50204767
_cell_length_b   10.42253154
_cell_length_c   12.28344438
_cell_angle_alpha   90.04274202
_cell_angle_beta   89.95753687
_cell_angle_gamma   90.00361911
_symmetry_Int_Tables_number   1
_chemical_formula_structural   Tb2Y5(ErIn4)5
_chemical_formula_sum   'Tb2 Y5 Er5 In20'
_cell_volume   832.42150125
_cell_formula_units_Z   1
loop_
 _symmetry_equiv_pos_site_id
 _symmetry_equiv_pos_as_xyz
  1  'x, y, z'
loop_
 _atom_site_type_symbol
 _atom_site_label
 _atom_site_symmetry_multiplicity
 _atom_site_fract_x
 _atom_site_fract_y
 _atom_site_fract_z
 _atom_site_occupancy
  Tb  Tb0  1  0.609408  0.006291  0.642273  1
  Tb  Tb1  1  0.109392  0.993508  0.857858  1
  Y  Y2  1  0.390686  0.506458  0.357597  1
  Y  Y3  1  0.109188  0.506434  0.858371  1
  Y  Y4  1  0.390695  0.993598  0.357581  1
  Y  Y5  1  0.890493  0.006495  0.142399  1
  Y  Y6  1  0.609452  0.493583  0.642224  1
  Er  Er7  1  0.349083  0.750135  0.056322  1
  Er  Er8  1  0.150166  0.750017  0.556128  1
  Er  Er9  1  0.650323  0.250279  0.943959  1
  Er  Er10  1  0.849585  0.249818  0.443773  1
  Er  Er11  1  0.891127  0.493524  0.141801  1
  In  In12  1  0.615880  0.749801  0.504597  1
  In  In13  1  0.883715  0.749079  0.005624  1
  In  In14  1  0.384130  0.250043  0.495197  1
  In  In15  1  0.115398  0.250200  0.995458  1
  In  In16  1  0.650750  0.749275  0.245287  1
  In  In17  1  0.849956  0.749920  0.745832  1
  In  In18  1  0.350042  0.250090  0.754333  1
  In  In19  1  0.149952  0.250634  0.254123  1
  In  In20  1  0.125860  0.749872  0.284860  1
  In  In21  1  0.374097  0.749911  0.784798  1
  In  In22  1  0.874081  0.250078  0.715136  1
  In  In23  1  0.627125  0.250902  0.214831  1
  In  In24  1  0.875826  0.543419  0.400732  1
  In  In25  1  0.624603  0.956173  0.901708  1
  In  In26  1  0.124242  0.043784  0.598383  1
  In  In27  1  0.375033  0.456536  0.098604  1
  In  In28  1  0.124174  0.456335  0.598440  1
  In  In29  1  0.375628  0.043972  0.098451  1
  In  In30  1  0.875643  0.956141  0.401539  1
  In  In31  1  0.624267  0.543692  0.901782  1
