# generated using pymatgen
data_CaLa2SiGe
_symmetry_space_group_name_H-M   'P 1'
_cell_length_a   7.83265898
_cell_length_b   7.83265948
_cell_length_c   4.52535400
_cell_angle_alpha   90.00000000
_cell_angle_beta   90.00000000
_cell_angle_gamma   89.73134803
_symmetry_Int_Tables_number   1
_chemical_formula_structural   CaLa2SiGe
_chemical_formula_sum   'Ca2 La4 Si2 Ge2'
_cell_volume   277.62990764
_cell_formula_units_Z   2
loop_
 _symmetry_equiv_pos_site_id
 _symmetry_equiv_pos_as_xyz
  1  'x, y, z'
loop_
 _atom_site_type_symbol
 _atom_site_label
 _atom_site_symmetry_multiplicity
 _atom_site_fract_x
 _atom_site_fract_y
 _atom_site_fract_z
 _atom_site_occupancy
  Ca  Ca0  1  0.000000  0.000000  0.000000  1
  Ca  Ca1  1  0.500000  0.500000  0.000000  1
  La  La2  1  0.675875  0.175875  0.500000  1
  La  La3  1  0.324125  0.824125  0.500000  1
  La  La4  1  0.179755  0.320245  0.500000  1
  La  La5  1  0.820245  0.679755  0.500000  1
  Si  Si6  1  0.609921  0.890079  0.000000  1
  Si  Si7  1  0.390079  0.109921  0.000000  1
  Ge  Ge8  1  0.115695  0.615695  0.000000  1
  Ge  Ge9  1  0.884305  0.384305  0.000000  1
