# generated using pymatgen
data_HS8Cl3
_symmetry_space_group_name_H-M   'P 1'
_cell_length_a   8.46606140
_cell_length_b   11.99767171
_cell_length_c   12.32835515
_cell_angle_alpha   114.92845393
_cell_angle_beta   117.14262955
_cell_angle_gamma   96.49906521
_symmetry_Int_Tables_number   1
_chemical_formula_structural   HS8Cl3
_chemical_formula_sum   'H2 S16 Cl6'
_cell_volume   935.31046133
_cell_formula_units_Z   2
loop_
 _symmetry_equiv_pos_site_id
 _symmetry_equiv_pos_as_xyz
  1  'x, y, z'
loop_
 _atom_site_type_symbol
 _atom_site_label
 _atom_site_symmetry_multiplicity
 _atom_site_fract_x
 _atom_site_fract_y
 _atom_site_fract_z
 _atom_site_occupancy
  H  H0  1  0.659520  0.982835  0.792019  1
  H  H1  1  0.340480  0.017165  0.207981  1
  S  S2  1  0.847355  0.540694  0.843184  1
  S  S3  1  0.152645  0.459306  0.156816  1
  S  S4  1  0.664502  0.359301  0.652102  1
  S  S5  1  0.335498  0.640699  0.347898  1
  S  S6  1  0.778891  0.217685  0.659951  1
  S  S7  1  0.221109  0.782315  0.340049  1
  S  S8  1  0.920895  0.194057  0.557993  1
  S  S9  1  0.079105  0.805943  0.442007  1
  S  S10  1  0.983771  0.349595  0.183408  1
  S  S11  1  0.016229  0.650405  0.816592  1
  S  S12  1  0.722703  0.370785  0.108682  1
  S  S13  1  0.277297  0.629215  0.891318  1
  S  S14  1  0.730079  0.515701  0.279736  1
  S  S15  1  0.269921  0.484299  0.720264  1
  S  S16  1  0.790704  0.693280  0.290407  1
  S  S17  1  0.209296  0.306720  0.709593  1
  Cl  Cl18  1  0.532797  0.018685  0.812773  1
  Cl  Cl19  1  0.467203  0.981315  0.187227  1
  Cl  Cl20  1  0.920103  0.942486  0.124350  1
  Cl  Cl21  1  0.079897  0.057514  0.875650  1
  Cl  Cl22  1  0.864020  0.893376  0.692709  1
  Cl  Cl23  1  0.135980  0.106624  0.307291  1
