# generated using pymatgen
data_La2Nd2PaIr2
_symmetry_space_group_name_H-M   'P 1'
_cell_length_a   6.70621669
_cell_length_b   7.25843080
_cell_length_c   9.03417000
_cell_angle_alpha   96.19565002
_cell_angle_beta   111.78707050
_cell_angle_gamma   89.99999406
_symmetry_Int_Tables_number   1
_chemical_formula_structural   La2Nd2PaIr2
_chemical_formula_sum   'La4 Nd4 Pa2 Ir4'
_cell_volume   405.57364804
_cell_formula_units_Z   2
loop_
 _symmetry_equiv_pos_site_id
 _symmetry_equiv_pos_as_xyz
  1  'x, y, z'
loop_
 _atom_site_type_symbol
 _atom_site_label
 _atom_site_symmetry_multiplicity
 _atom_site_fract_x
 _atom_site_fract_y
 _atom_site_fract_z
 _atom_site_occupancy
  La  La0  1  0.977163  0.926597  0.185203  1
  La  La1  1  0.791960  0.573403  0.814797  1
  La  La2  1  0.022837  0.073403  0.814797  1
  La  La3  1  0.208040  0.426597  0.185203  1
  Nd  Nd4  1  0.644686  0.814985  0.433921  1
  Nd  Nd5  1  0.210765  0.685015  0.566079  1
  Nd  Nd6  1  0.355314  0.185015  0.566079  1
  Nd  Nd7  1  0.789235  0.314985  0.433921  1
  Pa  Pa8  1  0.426814  0.750000  0.000000  1
  Pa  Pa9  1  0.573186  0.250000  0.000000  1
  Ir  Ir10  1  0.769069  0.566968  0.190813  1
  Ir  Ir11  1  0.578258  0.933032  0.809187  1
  Ir  Ir12  1  0.230931  0.433032  0.809187  1
  Ir  Ir13  1  0.421742  0.066968  0.190813  1
