# generated using pymatgen
data_Mn4InPd10Au
_symmetry_space_group_name_H-M   'P 1'
_cell_length_a   4.07076300
_cell_length_b   5.54983717
_cell_length_c   11.09888033
_cell_angle_alpha   91.69434584
_cell_angle_beta   90.00000000
_cell_angle_gamma   90.00000000
_symmetry_Int_Tables_number   1
_chemical_formula_structural   Mn4InPd10Au
_chemical_formula_sum   'Mn4 In1 Pd10 Au1'
_cell_volume   250.63707085
_cell_formula_units_Z   1
loop_
 _symmetry_equiv_pos_site_id
 _symmetry_equiv_pos_as_xyz
  1  'x, y, z'
loop_
 _atom_site_type_symbol
 _atom_site_label
 _atom_site_symmetry_multiplicity
 _atom_site_fract_x
 _atom_site_fract_y
 _atom_site_fract_z
 _atom_site_occupancy
  Mn  Mn0  1  0.500000  0.292465  0.863732  1
  Mn  Mn1  1  0.500000  0.774290  0.628095  1
  Mn  Mn2  1  0.500000  0.707535  0.136268  1
  Mn  Mn3  1  0.500000  0.225710  0.371905  1
  In  In4  1  0.000000  0.000000  0.000000  1
  Pd  Pd5  1  0.500000  0.734037  0.375442  1
  Pd  Pd6  1  0.500000  0.265963  0.624558  1
  Pd  Pd7  1  0.000000  0.034794  0.752177  1
  Pd  Pd8  1  0.500000  0.777610  0.879641  1
  Pd  Pd9  1  0.000000  0.466141  0.249782  1
  Pd  Pd10  1  0.000000  0.965206  0.247823  1
  Pd  Pd11  1  0.000000  0.533859  0.750218  1
  Pd  Pd12  1  0.000000  0.500000  0.000000  1
  Pd  Pd13  1  0.000000  0.000000  0.500000  1
  Pd  Pd14  1  0.500000  0.222390  0.120359  1
  Au  Au15  1  0.000000  0.500000  0.500000  1
