# generated using pymatgen
data_Tm4Tc3B16Mo
_symmetry_space_group_name_H-M   'P 1'
_cell_length_a   3.58089700
_cell_length_b   5.95383852
_cell_length_c   11.51306824
_cell_angle_alpha   89.98685857
_cell_angle_beta   90.00000000
_cell_angle_gamma   90.00000000
_symmetry_Int_Tables_number   1
_chemical_formula_structural   Tm4Tc3B16Mo
_chemical_formula_sum   'Tm4 Tc3 B16 Mo1'
_cell_volume   245.45955845
_cell_formula_units_Z   1
loop_
 _symmetry_equiv_pos_site_id
 _symmetry_equiv_pos_as_xyz
  1  'x, y, z'
loop_
 _atom_site_type_symbol
 _atom_site_label
 _atom_site_symmetry_multiplicity
 _atom_site_fract_x
 _atom_site_fract_y
 _atom_site_fract_z
 _atom_site_occupancy
  Tm  Tm0  1  0.000000  0.626092  0.348275  1
  Tm  Tm1  1  0.000000  0.372128  0.651939  1
  Tm  Tm2  1  0.000000  0.127622  0.148260  1
  Tm  Tm3  1  0.000000  0.872098  0.852262  1
  Tc  Tc4  1  0.000000  0.635728  0.088770  1
  Tc  Tc5  1  0.000000  0.365130  0.912792  1
  Tc  Tc6  1  0.000000  0.130968  0.414001  1
  B  B7  1  0.500000  0.788370  0.185160  1
  B  B8  1  0.500000  0.212595  0.815399  1
  B  B9  1  0.500000  0.288422  0.314322  1
  B  B10  1  0.500000  0.709385  0.686915  1
  B  B11  1  0.500000  0.864984  0.031016  1
  B  B12  1  0.500000  0.135338  0.969188  1
  B  B13  1  0.500000  0.365504  0.467172  1
  B  B14  1  0.500000  0.632238  0.530884  1
  B  B15  1  0.500000  0.886505  0.450353  1
  B  B16  1  0.500000  0.116917  0.546928  1
  B  B17  1  0.500000  0.386313  0.047648  1
  B  B18  1  0.500000  0.614049  0.952742  1
  B  B19  1  0.500000  0.978829  0.305692  1
  B  B20  1  0.500000  0.023848  0.694682  1
  B  B21  1  0.500000  0.476627  0.192829  1
  B  B22  1  0.500000  0.521810  0.807746  1
  Mo  Mo23  1  0.000000  0.868499  0.585028  1
