# generated using pymatgen
data_Lu5Sn3Bi
_symmetry_space_group_name_H-M   'P 1'
_cell_length_a   8.03657300
_cell_length_b   8.03958800
_cell_length_c   15.15704000
_cell_angle_alpha   90.00000000
_cell_angle_beta   90.00000000
_cell_angle_gamma   90.00000000
_symmetry_Int_Tables_number   1
_chemical_formula_structural   Lu5Sn3Bi
_chemical_formula_sum   'Lu20 Sn12 Bi4'
_cell_volume   979.30750774
_cell_formula_units_Z   4
loop_
 _symmetry_equiv_pos_site_id
 _symmetry_equiv_pos_as_xyz
  1  'x, y, z'
loop_
 _atom_site_type_symbol
 _atom_site_label
 _atom_site_symmetry_multiplicity
 _atom_site_fract_x
 _atom_site_fract_y
 _atom_site_fract_z
 _atom_site_occupancy
  Lu  Lu0  1  0.379034  0.839752  0.874632  1
  Lu  Lu1  1  0.879034  0.660248  0.625368  1
  Lu  Lu2  1  0.620966  0.160248  0.374632  1
  Lu  Lu3  1  0.120966  0.339752  0.125368  1
  Lu  Lu4  1  0.630692  0.162194  0.123478  1
  Lu  Lu5  1  0.130692  0.337806  0.376522  1
  Lu  Lu6  1  0.369308  0.837806  0.623478  1
  Lu  Lu7  1  0.869308  0.662194  0.876522  1
  Lu  Lu8  1  0.548110  0.326622  0.895013  1
  Lu  Lu9  1  0.048110  0.173378  0.604987  1
  Lu  Lu10  1  0.451890  0.673378  0.395013  1
  Lu  Lu11  1  0.951890  0.826622  0.104987  1
  Lu  Lu12  1  0.474049  0.673509  0.103072  1
  Lu  Lu13  1  0.974049  0.826491  0.396928  1
  Lu  Lu14  1  0.525951  0.326491  0.603072  1
  Lu  Lu15  1  0.025951  0.173509  0.896928  1
  Lu  Lu16  1  0.203315  0.501411  0.746878  1
  Lu  Lu17  1  0.703315  0.998589  0.753122  1
  Lu  Lu18  1  0.796685  0.498589  0.246878  1
  Lu  Lu19  1  0.296685  0.001411  0.253122  1
  Sn  Sn20  1  0.714408  0.967474  0.957834  1
  Sn  Sn21  1  0.214408  0.532526  0.542166  1
  Sn  Sn22  1  0.285592  0.032526  0.457834  1
  Sn  Sn23  1  0.785592  0.467474  0.042166  1
  Sn  Sn24  1  0.568252  0.623179  0.748113  1
  Sn  Sn25  1  0.068252  0.876821  0.751887  1
  Sn  Sn26  1  0.431748  0.376821  0.248113  1
  Sn  Sn27  1  0.931748  0.123179  0.251887  1
  Sn  Sn28  1  0.342842  0.149474  0.751756  1
  Sn  Sn29  1  0.842842  0.350526  0.748244  1
  Sn  Sn30  1  0.657158  0.850526  0.251756  1
  Sn  Sn31  1  0.157158  0.649474  0.248244  1
  Bi  Bi32  1  0.279457  0.028936  0.042714  1
  Bi  Bi33  1  0.779457  0.471064  0.457286  1
  Bi  Bi34  1  0.720543  0.971064  0.542714  1
  Bi  Bi35  1  0.220543  0.528936  0.957286  1
