# generated using pymatgen
data_DyY3(B4Os)4
_symmetry_space_group_name_H-M   'P 1'
_cell_length_a   3.57258000
_cell_length_b   5.97524100
_cell_length_c   11.56379600
_cell_angle_alpha   90.00105259
_cell_angle_beta   90.00000000
_cell_angle_gamma   90.00000000
_symmetry_Int_Tables_number   1
_chemical_formula_structural   DyY3(B4Os)4
_chemical_formula_sum   'Dy1 Y3 B16 Os4'
_cell_volume   246.85265954
_cell_formula_units_Z   1
loop_
 _symmetry_equiv_pos_site_id
 _symmetry_equiv_pos_as_xyz
  1  'x, y, z'
loop_
 _atom_site_type_symbol
 _atom_site_label
 _atom_site_symmetry_multiplicity
 _atom_site_fract_x
 _atom_site_fract_y
 _atom_site_fract_z
 _atom_site_occupancy
  Dy  Dy0  1  0.000000  0.872059  0.849771  1
  Y  Y1  1  0.000000  0.627971  0.349781  1
  Y  Y2  1  0.000000  0.372033  0.650221  1
  Y  Y3  1  0.000000  0.127969  0.150214  1
  B  B4  1  0.500000  0.788537  0.185845  1
  B  B5  1  0.500000  0.211320  0.814186  1
  B  B6  1  0.500000  0.288551  0.314152  1
  B  B7  1  0.500000  0.711535  0.685913  1
  B  B8  1  0.500000  0.863564  0.030067  1
  B  B9  1  0.500000  0.136307  0.969805  1
  B  B10  1  0.500000  0.363579  0.469864  1
  B  B11  1  0.500000  0.636418  0.530141  1
  B  B12  1  0.500000  0.887660  0.453478  1
  B  B13  1  0.500000  0.112343  0.546521  1
  B  B14  1  0.500000  0.387656  0.046522  1
  B  B15  1  0.500000  0.612457  0.953427  1
  B  B16  1  0.500000  0.974841  0.308632  1
  B  B17  1  0.500000  0.025072  0.691422  1
  B  B18  1  0.500000  0.474836  0.191364  1
  B  B19  1  0.500000  0.525294  0.808673  1
  Os  Os20  1  0.000000  0.640977  0.093132  1
  Os  Os21  1  0.000000  0.359015  0.906787  1
  Os  Os22  1  0.000000  0.140918  0.406820  1
  Os  Os23  1  0.000000  0.859088  0.593264  1
