# generated using pymatgen
data_Zr10AlBi2Pb5
_symmetry_space_group_name_H-M   'P 1'
_cell_length_a   8.94784143
_cell_length_b   8.96360104
_cell_length_c   6.00531928
_cell_angle_alpha   89.98238989
_cell_angle_beta   90.03528225
_cell_angle_gamma   119.94186062
_symmetry_Int_Tables_number   1
_chemical_formula_structural   Zr10AlBi2Pb5
_chemical_formula_sum   'Zr10 Al1 Bi2 Pb5'
_cell_volume   417.37033960
_cell_formula_units_Z   1
loop_
 _symmetry_equiv_pos_site_id
 _symmetry_equiv_pos_as_xyz
  1  'x, y, z'
loop_
 _atom_site_type_symbol
 _atom_site_label
 _atom_site_symmetry_multiplicity
 _atom_site_fract_x
 _atom_site_fract_y
 _atom_site_fract_z
 _atom_site_occupancy
  Zr  Zr0  1  0.276255  0.276984  0.734391  1
  Zr  Zr1  1  0.999271  0.723016  0.734391  1
  Zr  Zr2  1  0.999560  0.274478  0.265214  1
  Zr  Zr3  1  0.722406  0.000000  0.733607  1
  Zr  Zr4  1  0.333516  0.667480  0.501823  1
  Zr  Zr5  1  0.725083  0.725522  0.265214  1
  Zr  Zr6  1  0.275907  0.000000  0.266390  1
  Zr  Zr7  1  0.666037  0.332520  0.501823  1
  Zr  Zr8  1  0.666862  0.333175  0.998531  1
  Zr  Zr9  1  0.333686  0.666825  0.998531  1
  Al  Al10  1  0.999634  0.000000  0.501399  1
  Bi  Bi11  1  0.999846  0.612488  0.244019  1
  Bi  Bi12  1  0.387357  0.387512  0.244019  1
  Pb  Pb13  1  0.614334  0.000000  0.243771  1
  Pb  Pb14  1  0.999773  0.000000  0.998762  1
  Pb  Pb15  1  0.385025  0.000000  0.756113  1
  Pb  Pb16  1  0.615915  0.616383  0.756001  1
  Pb  Pb17  1  0.999532  0.383617  0.756001  1
