# generated using pymatgen
data_Dy4Er8InCo4Au
_symmetry_space_group_name_H-M   'P 1'
_cell_length_a   8.27313298
_cell_length_b   8.27313388
_cell_length_c   8.27313399
_cell_angle_alpha   111.02338822
_cell_angle_beta   110.61973796
_cell_angle_gamma   106.80329575
_symmetry_Int_Tables_number   1
_chemical_formula_structural   Dy4Er8InCo4Au
_chemical_formula_sum   'Dy4 Er8 In1 Co4 Au1'
_cell_volume   435.19101022
_cell_formula_units_Z   1
loop_
 _symmetry_equiv_pos_site_id
 _symmetry_equiv_pos_as_xyz
  1  'x, y, z'
loop_
 _atom_site_type_symbol
 _atom_site_label
 _atom_site_symmetry_multiplicity
 _atom_site_fract_x
 _atom_site_fract_y
 _atom_site_fract_z
 _atom_site_occupancy
  Dy  Dy0  1  0.186937  0.290154  0.477092  1
  Dy  Dy1  1  0.813063  0.709846  0.522908  1
  Dy  Dy2  1  0.186937  0.709846  0.896783  1
  Dy  Dy3  1  0.813063  0.290154  0.103217  1
  Er  Er4  1  0.315984  0.620122  0.304139  1
  Er  Er5  1  0.684016  0.379878  0.695861  1
  Er  Er6  1  0.315984  0.011845  0.695861  1
  Er  Er7  1  0.684016  0.988155  0.304139  1
  Er  Er8  1  0.426515  0.222199  0.204315  1
  Er  Er9  1  0.573485  0.777801  0.795685  1
  Er  Er10  1  0.017884  0.222199  0.795685  1
  Er  Er11  1  0.982116  0.777801  0.204315  1
  In  In12  1  0.500000  0.500000  0.000000  1
  Co  Co13  1  0.112965  0.612965  0.500000  1
  Co  Co14  1  0.887035  0.387035  0.500000  1
  Co  Co15  1  0.377497  0.000000  0.377497  1
  Co  Co16  1  0.622503  0.000000  0.622503  1
  Au  Au17  1  0.000000  0.000000  0.000000  1
