# generated using pymatgen
data_Tb8Ta5Si16Mo7
_symmetry_space_group_name_H-M   'P 1'
_cell_length_a   6.96237158
_cell_length_b   6.95860270
_cell_length_c   12.95449010
_cell_angle_alpha   90.02332845
_cell_angle_beta   90.13514580
_cell_angle_gamma   89.97821054
_symmetry_Int_Tables_number   1
_chemical_formula_structural   Tb8Ta5Si16Mo7
_chemical_formula_sum   'Tb8 Ta5 Si16 Mo7'
_cell_volume   627.62218560
_cell_formula_units_Z   1
loop_
 _symmetry_equiv_pos_site_id
 _symmetry_equiv_pos_as_xyz
  1  'x, y, z'
loop_
 _atom_site_type_symbol
 _atom_site_label
 _atom_site_symmetry_multiplicity
 _atom_site_fract_x
 _atom_site_fract_y
 _atom_site_fract_z
 _atom_site_occupancy
  Tb  Tb0  1  0.338313  0.001098  0.466996  1
  Tb  Tb1  1  0.498013  0.838038  0.718817  1
  Tb  Tb2  1  0.500599  0.161967  0.218130  1
  Tb  Tb3  1  0.837860  0.498909  0.280766  1
  Tb  Tb4  1  0.162271  0.500191  0.782518  1
  Tb  Tb5  1  0.661779  0.998465  0.968880  1
  Tb  Tb6  1  0.001081  0.337526  0.531790  1
  Tb  Tb7  1  0.999103  0.662131  0.031911  1
  Ta  Ta8  1  0.331585  0.331821  0.000251  1
  Ta  Ta9  1  0.168045  0.831658  0.249403  1
  Ta  Ta10  1  0.831277  0.168721  0.750605  1
  Ta  Ta11  1  0.668276  0.667720  0.499411  1
  Ta  Ta12  1  0.993537  0.841471  0.625289  1
  Si  Si13  1  0.205384  0.129951  0.684094  1
  Si  Si14  1  0.373584  0.701688  0.934780  1
  Si  Si15  1  0.627924  0.298387  0.434030  1
  Si  Si16  1  0.701718  0.372651  0.065619  1
  Si  Si17  1  0.300483  0.626483  0.565040  1
  Si  Si18  1  0.796761  0.873474  0.184191  1
  Si  Si19  1  0.125965  0.202472  0.315694  1
  Si  Si20  1  0.872881  0.796084  0.817190  1
  Si  Si21  1  0.290024  0.961198  0.062759  1
  Si  Si22  1  0.539575  0.789470  0.312706  1
  Si  Si23  1  0.460959  0.210460  0.813152  1
  Si  Si24  1  0.788719  0.538262  0.687804  1
  Si  Si25  1  0.210159  0.460764  0.186945  1
  Si  Si26  1  0.706172  0.042797  0.562541  1
  Si  Si27  1  0.960304  0.290750  0.937762  1
  Si  Si28  1  0.040597  0.708209  0.435692  1
  Mo  Mo29  1  0.160106  0.007562  0.874723  1
  Mo  Mo30  1  0.494224  0.661666  0.124343  1
  Mo  Mo31  1  0.505578  0.337463  0.624210  1
  Mo  Mo32  1  0.661202  0.493408  0.876638  1
  Mo  Mo33  1  0.339751  0.504519  0.375164  1
  Mo  Mo34  1  0.840268  0.993658  0.374909  1
  Mo  Mo35  1  0.005922  0.158910  0.125245  1
