# generated using pymatgen
data_Tb7Y(IrRh)4
_symmetry_space_group_name_H-M   'P 1'
_cell_length_a   6.91371000
_cell_length_b   4.85717900
_cell_length_c   9.72590500
_cell_angle_alpha   89.99997053
_cell_angle_beta   89.99759897
_cell_angle_gamma   89.99986292
_symmetry_Int_Tables_number   1
_chemical_formula_structural   Tb7Y(IrRh)4
_chemical_formula_sum   'Tb7 Y1 Ir4 Rh4'
_cell_volume   326.60685109
_cell_formula_units_Z   1
loop_
 _symmetry_equiv_pos_site_id
 _symmetry_equiv_pos_as_xyz
  1  'x, y, z'
loop_
 _atom_site_type_symbol
 _atom_site_label
 _atom_site_symmetry_multiplicity
 _atom_site_fract_x
 _atom_site_fract_y
 _atom_site_fract_z
 _atom_site_occupancy
  Tb  Tb0  1  0.999783  0.749995  0.124579  1
  Tb  Tb1  1  0.499796  0.749997  0.124802  1
  Tb  Tb2  1  0.999691  0.250004  0.375049  1
  Tb  Tb3  1  0.499782  0.249997  0.375060  1
  Tb  Tb4  1  0.500249  0.749997  0.625185  1
  Tb  Tb5  1  0.000276  0.750002  0.625412  1
  Tb  Tb6  1  0.500328  0.249998  0.874939  1
  Y  Y7  1  0.000179  0.250001  0.874955  1
  Ir  Ir8  1  0.749800  0.250005  0.125190  1
  Ir  Ir9  1  0.249905  0.749997  0.374982  1
  Ir  Ir10  1  0.750054  0.249997  0.624799  1
  Ir  Ir11  1  0.250345  0.749992  0.875013  1
  Rh  Rh12  1  0.250147  0.249999  0.125392  1
  Rh  Rh13  1  0.749830  0.750006  0.374964  1
  Rh  Rh14  1  0.250506  0.250005  0.624683  1
  Rh  Rh15  1  0.749328  0.750000  0.874996  1
