# generated using pymatgen
data_Nd9Y11Sn16
_symmetry_space_group_name_H-M   'P 1'
_cell_length_a   8.09752483
_cell_length_b   8.35401135
_cell_length_c   15.71989269
_cell_angle_alpha   90.12803005
_cell_angle_beta   90.00569946
_cell_angle_gamma   90.05996500
_symmetry_Int_Tables_number   1
_chemical_formula_structural   Nd9Y11Sn16
_chemical_formula_sum   'Nd9 Y11 Sn16'
_cell_volume   1063.39741883
_cell_formula_units_Z   1
loop_
 _symmetry_equiv_pos_site_id
 _symmetry_equiv_pos_as_xyz
  1  'x, y, z'
loop_
 _atom_site_type_symbol
 _atom_site_label
 _atom_site_symmetry_multiplicity
 _atom_site_fract_x
 _atom_site_fract_y
 _atom_site_fract_z
 _atom_site_occupancy
  Nd  Nd0  1  0.849726  0.666192  0.878188  1
  Nd  Nd1  1  0.505991  0.320513  0.903420  1
  Nd  Nd2  1  0.004117  0.178647  0.594362  1
  Nd  Nd3  1  0.495573  0.677759  0.404507  1
  Nd  Nd4  1  0.994676  0.820537  0.097854  1
  Nd  Nd5  1  0.494481  0.677111  0.097102  1
  Nd  Nd6  1  0.995264  0.822274  0.403778  1
  Nd  Nd7  1  0.503147  0.322056  0.594670  1
  Nd  Nd8  1  0.004497  0.179585  0.903759  1
  Y  Y9  1  0.346552  0.834477  0.874808  1
  Y  Y10  1  0.845315  0.667096  0.623441  1
  Y  Y11  1  0.654139  0.165755  0.375356  1
  Y  Y12  1  0.152695  0.335163  0.124337  1
  Y  Y13  1  0.651635  0.165120  0.126717  1
  Y  Y14  1  0.154259  0.332968  0.375679  1
  Y  Y15  1  0.346541  0.834264  0.623160  1
  Y  Y16  1  0.179573  0.499828  0.749880  1
  Y  Y17  1  0.678691  0.000889  0.748952  1
  Y  Y18  1  0.820983  0.499852  0.250457  1
  Y  Y19  1  0.320954  0.999801  0.249898  1
  Sn  Sn20  1  0.313514  0.039773  0.041033  1
  Sn  Sn21  1  0.815998  0.459600  0.458736  1
  Sn  Sn22  1  0.685006  0.960463  0.540384  1
  Sn  Sn23  1  0.195934  0.539020  0.959628  1
  Sn  Sn24  1  0.681786  0.963335  0.960356  1
  Sn  Sn25  1  0.183336  0.540756  0.540520  1
  Sn  Sn26  1  0.315242  0.039694  0.458259  1
  Sn  Sn27  1  0.811522  0.456468  0.044525  1
  Sn  Sn28  1  0.543424  0.620376  0.747788  1
  Sn  Sn29  1  0.045399  0.882192  0.748474  1
  Sn  Sn30  1  0.455399  0.380399  0.251343  1
  Sn  Sn31  1  0.956671  0.120203  0.250101  1
  Sn  Sn32  1  0.310464  0.144505  0.748597  1
  Sn  Sn33  1  0.810340  0.354787  0.747987  1
  Sn  Sn34  1  0.688383  0.854542  0.251139  1
  Sn  Sn35  1  0.188771  0.644000  0.250811  1
