# generated using pymatgen
data_ErTm7(Re3Si4)4
_symmetry_space_group_name_H-M   'P 1'
_cell_length_a   6.75089502
_cell_length_b   6.75105402
_cell_length_c   12.68700701
_cell_angle_alpha   89.99565516
_cell_angle_beta   90.00161450
_cell_angle_gamma   89.99149602
_symmetry_Int_Tables_number   1
_chemical_formula_structural   ErTm7(Re3Si4)4
_chemical_formula_sum   'Er1 Tm7 Re12 Si16'
_cell_volume   578.21867137
_cell_formula_units_Z   1
loop_
 _symmetry_equiv_pos_site_id
 _symmetry_equiv_pos_as_xyz
  1  'x, y, z'
loop_
 _atom_site_type_symbol
 _atom_site_label
 _atom_site_symmetry_multiplicity
 _atom_site_fract_x
 _atom_site_fract_y
 _atom_site_fract_z
 _atom_site_occupancy
  Er  Er0  1  0.007244  0.661806  0.030877  1
  Tm  Tm1  1  0.992677  0.338406  0.530840  1
  Tm  Tm2  1  0.338415  0.992686  0.469157  1
  Tm  Tm3  1  0.161606  0.492676  0.780813  1
  Tm  Tm4  1  0.838389  0.507305  0.280870  1
  Tm  Tm5  1  0.492690  0.161583  0.219155  1
  Tm  Tm6  1  0.507324  0.838408  0.719152  1
  Tm  Tm7  1  0.661569  0.007349  0.969155  1
  Re  Re8  1  0.664998  0.664980  0.499991  1
  Re  Re9  1  0.165043  0.835026  0.250081  1
  Re  Re10  1  0.335105  0.334932  0.999977  1
  Re  Re11  1  0.020293  0.812876  0.630955  1
  Re  Re12  1  0.979710  0.187033  0.130946  1
  Re  Re13  1  0.812893  0.020319  0.369043  1
  Re  Re14  1  0.312905  0.479698  0.380966  1
  Re  Re15  1  0.686944  0.520193  0.880868  1
  Re  Re16  1  0.479701  0.312887  0.619056  1
  Re  Re17  1  0.520174  0.687109  0.119065  1
  Re  Re18  1  0.187148  0.979779  0.869008  1
  Re  Re19  1  0.834997  0.165018  0.749995  1
  Si  Si20  1  0.020881  0.725234  0.437832  1
  Si  Si21  1  0.615266  0.304600  0.433807  1
  Si  Si22  1  0.384908  0.695407  0.933765  1
  Si  Si23  1  0.195414  0.115259  0.683807  1
  Si  Si24  1  0.304599  0.615267  0.566198  1
  Si  Si25  1  0.695322  0.384661  0.066200  1
  Si  Si26  1  0.804526  0.884811  0.183870  1
  Si  Si27  1  0.115267  0.195408  0.316194  1
  Si  Si28  1  0.979093  0.274593  0.937796  1
  Si  Si29  1  0.725237  0.020885  0.562173  1
  Si  Si30  1  0.225327  0.479041  0.187913  1
  Si  Si31  1  0.774757  0.520897  0.687834  1
  Si  Si32  1  0.479113  0.225241  0.812165  1
  Si  Si33  1  0.520892  0.774772  0.312166  1
  Si  Si34  1  0.274856  0.979230  0.062176  1
  Si  Si35  1  0.884715  0.804622  0.816134  1
