# generated using pymatgen
data_Th7Sc12Si16Mo
_symmetry_space_group_name_H-M   'P 1'
_cell_length_a   7.17638079
_cell_length_b   7.41828015
_cell_length_c   14.04581220
_cell_angle_alpha   89.80897039
_cell_angle_beta   89.75990663
_cell_angle_gamma   89.74781245
_symmetry_Int_Tables_number   1
_chemical_formula_structural   Th7Sc12Si16Mo
_chemical_formula_sum   'Th7 Sc12 Si16 Mo1'
_cell_volume   747.73060267
_cell_formula_units_Z   1
loop_
 _symmetry_equiv_pos_site_id
 _symmetry_equiv_pos_as_xyz
  1  'x, y, z'
loop_
 _atom_site_type_symbol
 _atom_site_label
 _atom_site_symmetry_multiplicity
 _atom_site_fract_x
 _atom_site_fract_y
 _atom_site_fract_z
 _atom_site_occupancy
  Th  Th0  1  0.997892  0.675670  0.600252  1
  Th  Th1  1  0.007133  0.326754  0.401983  1
  Th  Th2  1  0.506537  0.172946  0.404847  1
  Th  Th3  1  0.009057  0.326466  0.094635  1
  Th  Th4  1  0.491001  0.828941  0.599827  1
  Th  Th5  1  0.993398  0.674654  0.902415  1
  Th  Th6  1  0.488082  0.828884  0.903440  1
  Sc  Sc7  1  0.840584  0.005160  0.248317  1
  Sc  Sc8  1  0.339271  0.498024  0.248286  1
  Sc  Sc9  1  0.659939  0.501153  0.750836  1
  Sc  Sc10  1  0.511738  0.178789  0.101733  1
  Sc  Sc11  1  0.329824  0.324547  0.626193  1
  Sc  Sc12  1  0.667244  0.673286  0.372200  1
  Sc  Sc13  1  0.170235  0.830014  0.374500  1
  Sc  Sc14  1  0.669107  0.676176  0.125586  1
  Sc  Sc15  1  0.833991  0.169356  0.627221  1
  Sc  Sc16  1  0.329432  0.321709  0.875498  1
  Sc  Sc17  1  0.829903  0.169642  0.873612  1
  Sc  Sc18  1  0.171421  0.829693  0.120824  1
  Si  Si19  1  0.036139  0.367534  0.751114  1
  Si  Si20  1  0.969011  0.626638  0.247795  1
  Si  Si21  1  0.467743  0.885055  0.247102  1
  Si  Si22  1  0.525052  0.118104  0.751172  1
  Si  Si23  1  0.292678  0.625836  0.751606  1
  Si  Si24  1  0.705326  0.370802  0.247008  1
  Si  Si25  1  0.217784  0.124690  0.245370  1
  Si  Si26  1  0.794960  0.876788  0.751188  1
  Si  Si27  1  0.157387  0.038283  0.546398  1
  Si  Si28  1  0.842379  0.961654  0.460839  1
  Si  Si29  1  0.340364  0.538448  0.460205  1
  Si  Si30  1  0.828669  0.969317  0.040666  1
  Si  Si31  1  0.662485  0.464351  0.539554  1
  Si  Si32  1  0.151974  0.036889  0.951269  1
  Si  Si33  1  0.657921  0.457598  0.963317  1
  Si  Si34  1  0.348427  0.527709  0.041859  1
  Mo  Mo35  1  0.155916  0.998435  0.751331  1
