# generated using pymatgen
data_Er12GaCo4Ir
_symmetry_space_group_name_H-M   'P 1'
_cell_length_a   8.15276269
_cell_length_b   8.15264208
_cell_length_c   8.15276364
_cell_angle_alpha   110.65756758
_cell_angle_beta   111.23144758
_cell_angle_gamma   106.56429674
_symmetry_Int_Tables_number   1
_chemical_formula_structural   Er12GaCo4Ir
_chemical_formula_sum   'Er12 Ga1 Co4 Ir1'
_cell_volume   416.32993176
_cell_formula_units_Z   1
loop_
 _symmetry_equiv_pos_site_id
 _symmetry_equiv_pos_as_xyz
  1  'x, y, z'
loop_
 _atom_site_type_symbol
 _atom_site_label
 _atom_site_symmetry_multiplicity
 _atom_site_fract_x
 _atom_site_fract_y
 _atom_site_fract_z
 _atom_site_occupancy
  Er  Er0  1  0.287879  0.185364  0.473278  1
  Er  Er1  1  0.712121  0.814636  0.526722  1
  Er  Er2  1  0.287914  0.814636  0.102514  1
  Er  Er3  1  0.712086  0.185364  0.897486  1
  Er  Er4  1  0.619193  0.316328  0.302857  1
  Er  Er5  1  0.380807  0.683672  0.697143  1
  Er  Er6  1  0.013472  0.316328  0.697135  1
  Er  Er7  1  0.986528  0.683672  0.302865  1
  Er  Er8  1  0.218940  0.412511  0.193570  1
  Er  Er9  1  0.781060  0.587489  0.806430  1
  Er  Er10  1  0.218948  0.025341  0.806392  1
  Er  Er11  1  0.781052  0.974659  0.193608  1
  Ga  Ga12  1  0.500000  0.500000  0.000000  1
  Co  Co13  1  0.999998  0.376541  0.376544  1
  Co  Co14  1  0.000002  0.623459  0.623456  1
  Co  Co15  1  0.386704  0.886708  0.500004  1
  Co  Co16  1  0.613296  0.113292  0.499996  1
  Ir  Ir17  1  0.000000  0.000000  0.000000  1
