# generated using pymatgen
data_Tb2Sm2GaBr6
_symmetry_space_group_name_H-M   'P 1'
_cell_length_a   4.10362000
_cell_length_b   13.56946900
_cell_length_c   14.34000300
_cell_angle_alpha   90.00000000
_cell_angle_beta   90.00000000
_cell_angle_gamma   90.00000000
_symmetry_Int_Tables_number   1
_chemical_formula_structural   Tb2Sm2GaBr6
_chemical_formula_sum   'Tb4 Sm4 Ga2 Br12'
_cell_volume   798.50792943
_cell_formula_units_Z   2
loop_
 _symmetry_equiv_pos_site_id
 _symmetry_equiv_pos_as_xyz
  1  'x, y, z'
loop_
 _atom_site_type_symbol
 _atom_site_label
 _atom_site_symmetry_multiplicity
 _atom_site_fract_x
 _atom_site_fract_y
 _atom_site_fract_z
 _atom_site_occupancy
  Tb  Tb0  1  0.500000  0.118136  0.340052  1
  Tb  Tb1  1  0.500000  0.881864  0.659948  1
  Tb  Tb2  1  0.500000  0.618136  0.159948  1
  Tb  Tb3  1  0.500000  0.381864  0.840052  1
  Sm  Sm4  1  0.000000  0.123248  0.581869  1
  Sm  Sm5  1  0.000000  0.876752  0.418131  1
  Sm  Sm6  1  0.000000  0.623248  0.918131  1
  Sm  Sm7  1  0.000000  0.376752  0.081869  1
  Ga  Ga8  1  0.500000  0.000000  0.500000  1
  Ga  Ga9  1  0.500000  0.500000  0.000000  1
  Br  Br10  1  0.500000  0.242541  0.167429  1
  Br  Br11  1  0.500000  0.757459  0.832571  1
  Br  Br12  1  0.500000  0.742541  0.332571  1
  Br  Br13  1  0.500000  0.257459  0.667429  1
  Br  Br14  1  0.000000  0.252547  0.408605  1
  Br  Br15  1  0.000000  0.747453  0.591395  1
  Br  Br16  1  0.000000  0.752547  0.091395  1
  Br  Br17  1  0.000000  0.247453  0.908605  1
  Br  Br18  1  0.000000  0.004872  0.243897  1
  Br  Br19  1  0.000000  0.995128  0.756103  1
  Br  Br20  1  0.000000  0.504872  0.256103  1
  Br  Br21  1  0.000000  0.495128  0.743897  1
