# generated using pymatgen
data_Sm2Ga(SiRh2)6
_symmetry_space_group_name_H-M   'P 1'
_cell_length_a   9.82472200
_cell_length_b   9.82472301
_cell_length_c   3.87576600
_cell_angle_alpha   90.00000000
_cell_angle_beta   90.00000000
_cell_angle_gamma   119.99999661
_symmetry_Int_Tables_number   1
_chemical_formula_structural   Sm2Ga(SiRh2)6
_chemical_formula_sum   'Sm2 Ga1 Si6 Rh12'
_cell_volume   323.98789226
_cell_formula_units_Z   1
loop_
 _symmetry_equiv_pos_site_id
 _symmetry_equiv_pos_as_xyz
  1  'x, y, z'
loop_
 _atom_site_type_symbol
 _atom_site_label
 _atom_site_symmetry_multiplicity
 _atom_site_fract_x
 _atom_site_fract_y
 _atom_site_fract_z
 _atom_site_occupancy
  Sm  Sm0  1  0.333333  0.666667  0.250266  1
  Sm  Sm1  1  0.666667  0.333333  0.749734  1
  Ga  Ga2  1  0.000000  0.000000  0.500000  1
  Si  Si3  1  0.398083  0.108070  0.251115  1
  Si  Si4  1  0.709987  0.601917  0.251115  1
  Si  Si5  1  0.891930  0.290013  0.251115  1
  Si  Si6  1  0.601917  0.891930  0.748885  1
  Si  Si7  1  0.290013  0.398083  0.748885  1
  Si  Si8  1  0.108070  0.709987  0.748885  1
  Rh  Rh9  1  0.445278  0.382273  0.249064  1
  Rh  Rh10  1  0.936994  0.554722  0.249064  1
  Rh  Rh11  1  0.617727  0.063006  0.249064  1
  Rh  Rh12  1  0.554722  0.617727  0.750936  1
  Rh  Rh13  1  0.063006  0.445278  0.750936  1
  Rh  Rh14  1  0.382273  0.936994  0.750936  1
  Rh  Rh15  1  0.146351  0.875585  0.251208  1
  Rh  Rh16  1  0.729234  0.853649  0.251208  1
  Rh  Rh17  1  0.124415  0.270766  0.251208  1
  Rh  Rh18  1  0.853649  0.124415  0.748792  1
  Rh  Rh19  1  0.270766  0.146351  0.748792  1
  Rh  Rh20  1  0.875585  0.729234  0.748792  1
