# generated using pymatgen
data_Gd5TcAsO12
_symmetry_space_group_name_H-M   'P 1'
_cell_length_a   6.94637846
_cell_length_b   6.94637834
_cell_length_c   7.34814100
_cell_angle_alpha   74.58349808
_cell_angle_beta   74.58349836
_cell_angle_gamma   50.66722819
_symmetry_Int_Tables_number   1
_chemical_formula_structural   Gd5TcAsO12
_chemical_formula_sum   'Gd5 Tc1 As1 O12'
_cell_volume   262.11695268
_cell_formula_units_Z   1
loop_
 _symmetry_equiv_pos_site_id
 _symmetry_equiv_pos_as_xyz
  1  'x, y, z'
loop_
 _atom_site_type_symbol
 _atom_site_label
 _atom_site_symmetry_multiplicity
 _atom_site_fract_x
 _atom_site_fract_y
 _atom_site_fract_z
 _atom_site_occupancy
  Gd  Gd0  1  0.695890  0.699527  0.640304  1
  Gd  Gd1  1  0.695243  0.694298  0.166053  1
  Gd  Gd2  1  0.991022  0.008978  0.500000  1
  Gd  Gd3  1  0.305702  0.304757  0.833947  1
  Gd  Gd4  1  0.300473  0.304110  0.359696  1
  Tc  Tc5  1  0.247630  0.752370  0.000000  1
  As  As6  1  0.758149  0.241851  0.000000  1
  O  O7  1  0.984074  0.015189  0.176144  1
  O  O8  1  0.894709  0.412361  0.921949  1
  O  O9  1  0.430197  0.903695  0.918740  1
  O  O10  1  0.901900  0.403835  0.426081  1
  O  O11  1  0.400297  0.906254  0.422309  1
  O  O12  1  0.517700  0.481649  0.822927  1
  O  O13  1  0.518351  0.482300  0.177073  1
  O  O14  1  0.093746  0.599703  0.577691  1
  O  O15  1  0.596165  0.098100  0.573919  1
  O  O16  1  0.096305  0.569803  0.081260  1
  O  O17  1  0.587639  0.105291  0.078051  1
  O  O18  1  0.984811  0.015926  0.823856  1
