# generated using pymatgen
data_NdAl4Fe9
_symmetry_space_group_name_H-M   'P 1'
_cell_length_a   8.16465104
_cell_length_b   8.16460370
_cell_length_c   8.21988882
_cell_angle_alpha   119.77759658
_cell_angle_beta   119.77785231
_cell_angle_gamma   90.00022678
_symmetry_Int_Tables_number   1
_chemical_formula_structural   NdAl4Fe9
_chemical_formula_sum   'Nd2 Al8 Fe18'
_cell_volume   390.04536891
_cell_formula_units_Z   2
loop_
 _symmetry_equiv_pos_site_id
 _symmetry_equiv_pos_as_xyz
  1  'x, y, z'
loop_
 _atom_site_type_symbol
 _atom_site_label
 _atom_site_symmetry_multiplicity
 _atom_site_fract_x
 _atom_site_fract_y
 _atom_site_fract_z
 _atom_site_occupancy
  Nd  Nd0  1  0.250000  0.250000  0.500004  1
  Nd  Nd1  1  0.750001  0.750001  0.499996  1
  Al  Al2  1  0.808862  0.308861  0.248331  1
  Al  Al3  1  0.308860  0.439469  0.248329  1
  Al  Al4  1  0.939469  0.808865  0.248336  1
  Al  Al5  1  0.439470  0.939466  0.248333  1
  Al  Al6  1  0.560528  0.060533  0.751667  1
  Al  Al7  1  0.060530  0.191135  0.751664  1
  Al  Al8  1  0.691138  0.560529  0.751671  1
  Al  Al9  1  0.191138  0.691137  0.751669  1
  Fe  Fe10  1  0.500001  0.000000  0.000000  1
  Fe  Fe11  1  0.202079  0.059878  0.999998  1
  Fe  Fe12  1  0.940115  0.202086  0.000000  1
  Fe  Fe13  1  0.440119  0.297919  0.999998  1
  Fe  Fe14  1  0.702083  0.440117  0.999999  1
  Fe  Fe15  1  0.000000  0.500001  0.000000  1
  Fe  Fe16  1  0.297917  0.559883  0.000001  1
  Fe  Fe17  1  0.559881  0.702081  0.000002  1
  Fe  Fe18  1  0.059884  0.797913  0.000000  1
  Fe  Fe19  1  0.797920  0.940121  0.000002  1
  Fe  Fe20  1  0.781654  0.066137  0.347794  1
  Fe  Fe21  1  0.566135  0.281660  0.347796  1
  Fe  Fe22  1  0.066135  0.566136  0.347786  1
  Fe  Fe23  1  0.281642  0.781644  0.347783  1
  Fe  Fe24  1  0.718356  0.218356  0.652217  1
  Fe  Fe25  1  0.933865  0.433862  0.652214  1
  Fe  Fe26  1  0.433863  0.718338  0.652204  1
  Fe  Fe27  1  0.218346  0.933863  0.652206  1
