# generated using pymatgen
data_La5Th3Sb20
_symmetry_space_group_name_H-M   'P 1'
_cell_length_a   4.32535800
_cell_length_b   13.68072532
_cell_length_c   15.34415033
_cell_angle_alpha   78.81496019
_cell_angle_beta   90.00000000
_cell_angle_gamma   90.00000000
_symmetry_Int_Tables_number   1
_chemical_formula_structural   La5Th3Sb20
_chemical_formula_sum   'La5 Th3 Sb20'
_cell_volume   890.72905437
_cell_formula_units_Z   1
loop_
 _symmetry_equiv_pos_site_id
 _symmetry_equiv_pos_as_xyz
  1  'x, y, z'
loop_
 _atom_site_type_symbol
 _atom_site_label
 _atom_site_symmetry_multiplicity
 _atom_site_fract_x
 _atom_site_fract_y
 _atom_site_fract_z
 _atom_site_occupancy
  La  La0  1  0.750000  0.607448  0.231442  1
  La  La1  1  0.250000  0.950153  0.364816  1
  La  La2  1  0.750000  0.051344  0.636646  1
  La  La3  1  0.250000  0.665733  0.856435  1
  La  La4  1  0.750000  0.334438  0.143201  1
  Th  Th5  1  0.250000  0.668412  0.571403  1
  Th  Th6  1  0.750000  0.332439  0.428634  1
  Th  Th7  1  0.250000  0.390771  0.766533  1
  Sb  Sb8  1  0.250000  0.431231  0.549904  1
  Sb  Sb9  1  0.750000  0.571861  0.449374  1
  Sb  Sb10  1  0.250000  0.713146  0.061744  1
  Sb  Sb11  1  0.750000  0.286585  0.931056  1
  Sb  Sb12  1  0.250000  0.420996  0.972204  1
  Sb  Sb13  1  0.750000  0.578717  0.024039  1
  Sb  Sb14  1  0.250000  0.859498  0.678058  1
  Sb  Sb15  1  0.750000  0.141884  0.322486  1
  Sb  Sb16  1  0.250000  0.147340  0.182816  1
  Sb  Sb17  1  0.750000  0.853736  0.817945  1
  Sb  Sb18  1  0.250000  0.712508  0.350068  1
  Sb  Sb19  1  0.750000  0.289069  0.652518  1
  Sb  Sb20  1  0.250000  0.144694  0.771044  1
  Sb  Sb21  1  0.750000  0.855658  0.231711  1
  Sb  Sb22  1  0.250000  0.417942  0.273217  1
  Sb  Sb23  1  0.750000  0.574196  0.728334  1
  Sb  Sb24  1  0.250000  0.150609  0.478663  1
  Sb  Sb25  1  0.750000  0.849571  0.522809  1
  Sb  Sb26  1  0.250000  0.966197  0.117604  1
  Sb  Sb27  1  0.750000  0.033826  0.885297  1
