# generated using pymatgen
data_Pr17Dy3Si15Pb
_symmetry_space_group_name_H-M   'P 1'
_cell_length_a   7.92373217
_cell_length_b   7.89978707
_cell_length_c   15.26564900
_cell_angle_alpha   90.10007454
_cell_angle_beta   89.63342661
_cell_angle_gamma   89.95967714
_symmetry_Int_Tables_number   1
_chemical_formula_structural   Pr17Dy3Si15Pb
_chemical_formula_sum   'Pr17 Dy3 Si15 Pb1'
_cell_volume   955.54420617
_cell_formula_units_Z   1
loop_
 _symmetry_equiv_pos_site_id
 _symmetry_equiv_pos_as_xyz
  1  'x, y, z'
loop_
 _atom_site_type_symbol
 _atom_site_label
 _atom_site_symmetry_multiplicity
 _atom_site_fract_x
 _atom_site_fract_y
 _atom_site_fract_z
 _atom_site_occupancy
  Pr  Pr0  1  0.688412  0.693730  0.495937  1
  Pr  Pr1  1  0.376198  0.013659  0.448346  1
  Pr  Pr2  1  0.495038  0.869622  0.698762  1
  Pr  Pr3  1  0.511548  0.122530  0.196803  1
  Pr  Pr4  1  0.878636  0.487844  0.300308  1
  Pr  Pr5  1  0.119347  0.519606  0.807127  1
  Pr  Pr6  1  0.624247  0.985994  0.949875  1
  Pr  Pr7  1  0.002851  0.385877  0.545894  1
  Pr  Pr8  1  0.989095  0.621480  0.054090  1
  Pr  Pr9  1  0.126964  0.977474  0.881722  1
  Pr  Pr10  1  0.521785  0.627734  0.127193  1
  Pr  Pr11  1  0.489222  0.384321  0.626781  1
  Pr  Pr12  1  0.628801  0.523367  0.876459  1
  Pr  Pr13  1  0.374397  0.479040  0.370638  1
  Pr  Pr14  1  0.873111  0.021196  0.376854  1
  Pr  Pr15  1  0.980318  0.127509  0.123354  1
  Pr  Pr16  1  0.007178  0.855052  0.619233  1
  Dy  Dy17  1  0.310493  0.309987  0.000614  1
  Dy  Dy18  1  0.191416  0.811110  0.249444  1
  Dy  Dy19  1  0.796503  0.188949  0.753599  1
  Si  Si20  1  0.329291  0.689955  0.956928  1
  Si  Si21  1  0.665870  0.304277  0.452878  1
  Si  Si22  1  0.693458  0.329325  0.046180  1
  Si  Si23  1  0.305320  0.669803  0.543963  1
  Si  Si24  1  0.809683  0.830302  0.204231  1
  Si  Si25  1  0.170451  0.191193  0.294950  1
  Si  Si26  1  0.832771  0.809425  0.796991  1
  Si  Si27  1  0.287185  0.923500  0.063770  1
  Si  Si28  1  0.574544  0.790791  0.308835  1
  Si  Si29  1  0.436413  0.211228  0.819254  1
  Si  Si30  1  0.789113  0.572295  0.692639  1
  Si  Si31  1  0.214134  0.422506  0.186798  1
  Si  Si32  1  0.711715  0.082040  0.564076  1
  Si  Si33  1  0.925019  0.287043  0.938283  1
  Si  Si34  1  0.082154  0.715422  0.433802  1
  Pb  Pb35  1  0.187318  0.164815  0.693392  1
