# generated using pymatgen
data_Hf3Al3CoSiAu
_symmetry_space_group_name_H-M   'P 1'
_cell_length_a   6.61698500
_cell_length_b   6.61698416
_cell_length_c   3.99814600
_cell_angle_alpha   90.00000000
_cell_angle_beta   90.00000000
_cell_angle_gamma   119.99998921
_symmetry_Int_Tables_number   1
_chemical_formula_structural   Hf3Al3CoSiAu
_chemical_formula_sum   'Hf3 Al3 Co1 Si1 Au1'
_cell_volume   151.60362054
_cell_formula_units_Z   1
loop_
 _symmetry_equiv_pos_site_id
 _symmetry_equiv_pos_as_xyz
  1  'x, y, z'
loop_
 _atom_site_type_symbol
 _atom_site_label
 _atom_site_symmetry_multiplicity
 _atom_site_fract_x
 _atom_site_fract_y
 _atom_site_fract_z
 _atom_site_occupancy
  Hf  Hf0  1  0.402939  0.393964  0.500000  1
  Hf  Hf1  1  0.606036  0.008976  0.500000  1
  Hf  Hf2  1  0.991024  0.597061  0.500000  1
  Al  Al3  1  0.762057  0.763763  0.000000  1
  Al  Al4  1  0.236237  0.998295  0.000000  1
  Al  Al5  1  0.001705  0.237943  0.000000  1
  Co  Co6  1  0.000000  0.000000  0.500000  1
  Si  Si7  1  0.666667  0.333333  0.000000  1
  Au  Au8  1  0.333333  0.666667  0.000000  1
