# generated using pymatgen
data_Er4Sc6Ga5Si3
_symmetry_space_group_name_H-M   'P 1'
_cell_length_a   7.12611768
_cell_length_b   7.45812484
_cell_length_c   14.35161246
_cell_angle_alpha   89.97404308
_cell_angle_beta   90.06222587
_cell_angle_gamma   90.04788179
_symmetry_Int_Tables_number   1
_chemical_formula_structural   Er4Sc6Ga5Si3
_chemical_formula_sum   'Er8 Sc12 Ga10 Si6'
_cell_volume   762.75117498
_cell_formula_units_Z   2
loop_
 _symmetry_equiv_pos_site_id
 _symmetry_equiv_pos_as_xyz
  1  'x, y, z'
loop_
 _atom_site_type_symbol
 _atom_site_label
 _atom_site_symmetry_multiplicity
 _atom_site_fract_x
 _atom_site_fract_y
 _atom_site_fract_z
 _atom_site_occupancy
  Er  Er0  1  0.009365  0.176814  0.093970  1
  Er  Er1  1  0.991115  0.823621  0.901007  1
  Er  Er2  1  0.490181  0.677768  0.901108  1
  Er  Er3  1  0.990698  0.823071  0.597667  1
  Er  Er4  1  0.509525  0.323817  0.094843  1
  Er  Er5  1  0.009959  0.177096  0.407074  1
  Er  Er6  1  0.508836  0.323438  0.406822  1
  Er  Er7  1  0.487410  0.675423  0.597491  1
  Sc  Sc8  1  0.168000  0.502458  0.748966  1
  Sc  Sc9  1  0.834784  0.500276  0.249878  1
  Sc  Sc10  1  0.334744  0.999332  0.250095  1
  Sc  Sc11  1  0.660705  0.000699  0.749752  1
  Sc  Sc12  1  0.325924  0.174976  0.624261  1
  Sc  Sc13  1  0.670758  0.825446  0.376881  1
  Sc  Sc14  1  0.170713  0.674636  0.377660  1
  Sc  Sc15  1  0.670379  0.825194  0.123833  1
  Sc  Sc16  1  0.831497  0.324642  0.625796  1
  Sc  Sc17  1  0.328732  0.172663  0.874122  1
  Sc  Sc18  1  0.830925  0.326373  0.873889  1
  Sc  Sc19  1  0.169696  0.674209  0.123536  1
  Ga  Ga20  1  0.720034  0.128343  0.250842  1
  Ga  Ga21  1  0.218640  0.371946  0.251070  1
  Ga  Ga22  1  0.784756  0.628131  0.748616  1
  Ga  Ga23  1  0.839531  0.538230  0.461691  1
  Ga  Ga24  1  0.338815  0.962913  0.461126  1
  Ga  Ga25  1  0.838584  0.537702  0.038591  1
  Ga  Ga26  1  0.661038  0.037878  0.541565  1
  Ga  Ga27  1  0.162733  0.462902  0.958831  1
  Ga  Ga28  1  0.662160  0.036623  0.959135  1
  Ga  Ga29  1  0.339202  0.962909  0.039354  1
  Si  Si30  1  0.032363  0.111404  0.749182  1
  Si  Si31  1  0.967420  0.881361  0.250599  1
  Si  Si32  1  0.467505  0.617193  0.251431  1
  Si  Si33  1  0.532216  0.382884  0.749178  1
  Si  Si34  1  0.282993  0.872660  0.749081  1
  Si  Si35  1  0.158062  0.464969  0.541058  1
