# generated using pymatgen
data_Ca4CuPd7
_symmetry_space_group_name_H-M   'P 1'
_cell_length_a   9.19767121
_cell_length_b   9.19767143
_cell_length_c   9.19767000
_cell_angle_alpha   34.76996810
_cell_angle_beta   34.76996612
_cell_angle_gamma   34.76996656
_symmetry_Int_Tables_number   1
_chemical_formula_structural   Ca4CuPd7
_chemical_formula_sum   'Ca4 Cu1 Pd7'
_cell_volume   225.85919869
_cell_formula_units_Z   1
loop_
 _symmetry_equiv_pos_site_id
 _symmetry_equiv_pos_as_xyz
  1  'x, y, z'
loop_
 _atom_site_type_symbol
 _atom_site_label
 _atom_site_symmetry_multiplicity
 _atom_site_fract_x
 _atom_site_fract_y
 _atom_site_fract_z
 _atom_site_occupancy
  Ca  Ca0  1  0.563177  0.563177  0.563177  1
  Ca  Ca1  1  0.437237  0.437237  0.437237  1
  Ca  Ca2  1  0.937082  0.937082  0.937082  1
  Ca  Ca3  1  0.062841  0.062841  0.062841  1
  Cu  Cu4  1  0.749947  0.749947  0.749947  1
  Pd  Pd5  1  0.249878  0.249878  0.249878  1
  Pd  Pd6  1  0.001387  0.503461  0.503461  1
  Pd  Pd7  1  0.498573  0.996477  0.996477  1
  Pd  Pd8  1  0.503461  0.001387  0.503461  1
  Pd  Pd9  1  0.996477  0.498573  0.996477  1
  Pd  Pd10  1  0.503461  0.503461  0.001387  1
  Pd  Pd11  1  0.996477  0.996477  0.498573  1
