# generated using pymatgen
data_Ba2PrNpO6
_symmetry_space_group_name_H-M   'P 1'
_cell_length_a   6.26578510
_cell_length_b   6.26578524
_cell_length_c   6.28814800
_cell_angle_alpha   119.71618564
_cell_angle_beta   90.17462763
_cell_angle_gamma   119.96480663
_symmetry_Int_Tables_number   1
_chemical_formula_structural   Ba2PrNpO6
_chemical_formula_sum   'Ba2 Pr1 Np1 O6'
_cell_volume   175.13915111
_cell_formula_units_Z   1
loop_
 _symmetry_equiv_pos_site_id
 _symmetry_equiv_pos_as_xyz
  1  'x, y, z'
loop_
 _atom_site_type_symbol
 _atom_site_label
 _atom_site_symmetry_multiplicity
 _atom_site_fract_x
 _atom_site_fract_y
 _atom_site_fract_z
 _atom_site_occupancy
  Ba  Ba0  1  0.751269  0.510481  0.261750  1
  Ba  Ba1  1  0.248730  0.489518  0.738249  1
  Pr  Pr2  1  0.000000  0.000000  0.000000  1
  Np  Np3  1  0.500000  0.000000  0.500000  1
  O  O4  1  0.263667  0.917058  0.180726  1
  O  O5  1  0.785723  0.004461  0.311827  1
  O  O6  1  0.307367  0.526104  0.311828  1
  O  O7  1  0.692633  0.473895  0.688172  1
  O  O8  1  0.214277  0.995538  0.688173  1
  O  O9  1  0.736333  0.082942  0.819275  1
