# generated using pymatgen
data_Tb5Y3Ti11Si16Ir
_symmetry_space_group_name_H-M   'P 1'
_cell_length_a   7.04641212
_cell_length_b   7.04707621
_cell_length_c   12.90234101
_cell_angle_alpha   90.12741296
_cell_angle_beta   89.87134272
_cell_angle_gamma   89.83854574
_symmetry_Int_Tables_number   1
_chemical_formula_structural   Tb5Y3Ti11Si16Ir
_chemical_formula_sum   'Tb5 Y3 Ti11 Si16 Ir1'
_cell_volume   640.68067615
_cell_formula_units_Z   1
loop_
 _symmetry_equiv_pos_site_id
 _symmetry_equiv_pos_as_xyz
  1  'x, y, z'
loop_
 _atom_site_type_symbol
 _atom_site_label
 _atom_site_symmetry_multiplicity
 _atom_site_fract_x
 _atom_site_fract_y
 _atom_site_fract_z
 _atom_site_occupancy
  Tb  Tb0  1  0.840998  0.496629  0.281885  1
  Tb  Tb1  1  0.159149  0.500838  0.785017  1
  Tb  Tb2  1  0.658249  0.997799  0.968588  1
  Tb  Tb3  1  0.004376  0.339923  0.532578  1
  Tb  Tb4  1  0.997853  0.658308  0.031409  1
  Y  Y5  1  0.340154  0.004082  0.467384  1
  Y  Y6  1  0.496663  0.841210  0.718130  1
  Y  Y7  1  0.500723  0.158948  0.215045  1
  Ti  Ti8  1  0.175599  0.827219  0.248211  1
  Ti  Ti9  1  0.827258  0.175506  0.751712  1
  Ti  Ti10  1  0.673561  0.673594  0.499981  1
  Ti  Ti11  1  0.150307  0.003226  0.876457  1
  Ti  Ti12  1  0.493511  0.657249  0.125181  1
  Ti  Ti13  1  0.506794  0.348914  0.628232  1
  Ti  Ti14  1  0.657202  0.493461  0.874874  1
  Ti  Ti15  1  0.348752  0.507085  0.371803  1
  Ti  Ti16  1  0.848001  0.993337  0.375389  1
  Ti  Ti17  1  0.003415  0.150199  0.123544  1
  Ti  Ti18  1  0.993340  0.847983  0.624703  1
  Si  Si19  1  0.201937  0.131323  0.686047  1
  Si  Si20  1  0.373483  0.700704  0.934499  1
  Si  Si21  1  0.630134  0.296199  0.434829  1
  Si  Si22  1  0.700293  0.373483  0.065548  1
  Si  Si23  1  0.296353  0.630432  0.565201  1
  Si  Si24  1  0.796772  0.869535  0.184490  1
  Si  Si25  1  0.131667  0.201714  0.313938  1
  Si  Si26  1  0.869364  0.796944  0.815483  1
  Si  Si27  1  0.286356  0.951393  0.064186  1
  Si  Si28  1  0.546921  0.791788  0.315658  1
  Si  Si29  1  0.449689  0.210085  0.818364  1
  Si  Si30  1  0.791586  0.547183  0.684236  1
  Si  Si31  1  0.210447  0.449740  0.181604  1
  Si  Si32  1  0.708881  0.047865  0.565715  1
  Si  Si33  1  0.951392  0.286230  0.935772  1
  Si  Si34  1  0.048138  0.709177  0.434207  1
  Ir  Ir35  1  0.330682  0.330695  0.000099  1
