# generated using pymatgen
data_La2Si3(AsPd7)3
_symmetry_space_group_name_H-M   'P 1'
_cell_length_a   8.81624240
_cell_length_b   8.81624197
_cell_length_c   8.81195152
_cell_angle_alpha   59.98389189
_cell_angle_beta   59.98389657
_cell_angle_gamma   59.99999287
_symmetry_Int_Tables_number   1
_chemical_formula_structural   La2Si3(AsPd7)3
_chemical_formula_sum   'La2 Si3 As3 Pd21'
_cell_volume   484.19280841
_cell_formula_units_Z   1
loop_
 _symmetry_equiv_pos_site_id
 _symmetry_equiv_pos_as_xyz
  1  'x, y, z'
loop_
 _atom_site_type_symbol
 _atom_site_label
 _atom_site_symmetry_multiplicity
 _atom_site_fract_x
 _atom_site_fract_y
 _atom_site_fract_z
 _atom_site_occupancy
  La  La0  1  0.750354  0.750354  0.748939  1
  La  La1  1  0.250245  0.250245  0.249264  1
  Si  Si2  1  0.262172  0.262172  0.737324  1
  Si  Si3  1  0.738332  0.262172  0.737324  1
  Si  Si4  1  0.262172  0.738332  0.737324  1
  As  As5  1  0.738123  0.738123  0.261560  1
  As  As6  1  0.262193  0.738123  0.261560  1
  As  As7  1  0.738123  0.262193  0.261560  1
  Pd  Pd8  1  0.001320  0.001320  0.996040  1
  Pd  Pd9  1  0.615136  0.615136  0.154593  1
  Pd  Pd10  1  0.611288  0.156440  0.620984  1
  Pd  Pd11  1  0.156440  0.611288  0.620984  1
  Pd  Pd12  1  0.611288  0.611288  0.620984  1
  Pd  Pd13  1  0.385477  0.385477  0.843569  1
  Pd  Pd14  1  0.381431  0.844132  0.393005  1
  Pd  Pd15  1  0.844132  0.381431  0.393005  1
  Pd  Pd16  1  0.381431  0.381431  0.393005  1
  Pd  Pd17  1  0.001509  0.001509  0.347656  1
  Pd  Pd18  1  0.649325  0.001509  0.347656  1
  Pd  Pd19  1  0.001509  0.649325  0.347656  1
  Pd  Pd20  1  0.654808  0.347292  0.993225  1
  Pd  Pd21  1  0.004674  0.347292  0.993225  1
  Pd  Pd22  1  0.000816  0.342817  0.655551  1
  Pd  Pd23  1  0.347292  0.654808  0.993225  1
  Pd  Pd24  1  0.342817  0.000816  0.655551  1
  Pd  Pd25  1  0.347292  0.004674  0.993225  1
  Pd  Pd26  1  0.000816  0.000816  0.655551  1
  Pd  Pd27  1  0.004674  0.654808  0.993225  1
  Pd  Pd28  1  0.654808  0.004674  0.993225  1
