# generated using pymatgen
data_Er3Tm5B24(RhW)2
_symmetry_space_group_name_H-M   'P 1'
_cell_length_a   3.61486700
_cell_length_b   9.15084959
_cell_length_c   11.55908001
_cell_angle_alpha   90.44096018
_cell_angle_beta   90.00000000
_cell_angle_gamma   90.00000000
_symmetry_Int_Tables_number   1
_chemical_formula_structural   Er3Tm5B24(RhW)2
_chemical_formula_sum   'Er3 Tm5 B24 Rh2 W2'
_cell_volume   382.35268820
_cell_formula_units_Z   1
loop_
 _symmetry_equiv_pos_site_id
 _symmetry_equiv_pos_as_xyz
  1  'x, y, z'
loop_
 _atom_site_type_symbol
 _atom_site_label
 _atom_site_symmetry_multiplicity
 _atom_site_fract_x
 _atom_site_fract_y
 _atom_site_fract_z
 _atom_site_occupancy
  Er  Er0  1  0.500000  0.319637  0.412117  1
  Er  Er1  1  0.500000  0.680470  0.588050  1
  Er  Er2  1  0.500000  0.175585  0.916370  1
  Tm  Tm3  1  0.500000  0.824402  0.083354  1
  Tm  Tm4  1  0.500000  0.444729  0.126891  1
  Tm  Tm5  1  0.500000  0.555471  0.873175  1
  Tm  Tm6  1  0.500000  0.055340  0.627398  1
  Tm  Tm7  1  0.500000  0.944526  0.372626  1
  B  B8  1  0.000000  0.107160  0.472003  1
  B  B9  1  0.000000  0.892799  0.528008  1
  B  B10  1  0.000000  0.396041  0.970429  1
  B  B11  1  0.000000  0.604290  0.029645  1
  B  B12  1  0.000000  0.132864  0.318372  1
  B  B13  1  0.000000  0.867103  0.681749  1
  B  B14  1  0.000000  0.367677  0.815885  1
  B  B15  1  0.000000  0.632583  0.183959  1
  B  B16  1  0.000000  0.051219  0.065480  1
  B  B17  1  0.000000  0.948320  0.934540  1
  B  B18  1  0.000000  0.446357  0.565490  1
  B  B19  1  0.000000  0.553683  0.434512  1
  B  B20  1  0.000000  0.483840  0.288772  1
  B  B21  1  0.000000  0.516268  0.711239  1
  B  B22  1  0.000000  0.020970  0.785624  1
  B  B23  1  0.000000  0.978539  0.214270  1
  B  B24  1  0.000000  0.251693  0.078858  1
  B  B25  1  0.000000  0.748465  0.921295  1
  B  B26  1  0.000000  0.250830  0.578940  1
  B  B27  1  0.000000  0.749125  0.421046  1
  B  B28  1  0.000000  0.297371  0.237213  1
  B  B29  1  0.000000  0.702764  0.762893  1
  B  B30  1  0.000000  0.208738  0.734273  1
  B  B31  1  0.000000  0.791285  0.265528  1
  Rh  Rh32  1  0.500000  0.360929  0.678749  1
  Rh  Rh33  1  0.500000  0.639101  0.321192  1
  W  W34  1  0.500000  0.139288  0.180889  1
  W  W35  1  0.500000  0.860537  0.819166  1
