# generated using pymatgen
data_Pr2Al9PdRh2
_symmetry_space_group_name_H-M   'P 1'
_cell_length_a   7.66341100
_cell_length_b   7.66341182
_cell_length_c   9.62342200
_cell_angle_alpha   90.00000000
_cell_angle_beta   90.00000000
_cell_angle_gamma   119.52275346
_symmetry_Int_Tables_number   1
_chemical_formula_structural   Pr2Al9PdRh2
_chemical_formula_sum   'Pr4 Al18 Pd2 Rh4'
_cell_volume   491.78238162
_cell_formula_units_Z   2
loop_
 _symmetry_equiv_pos_site_id
 _symmetry_equiv_pos_as_xyz
  1  'x, y, z'
loop_
 _atom_site_type_symbol
 _atom_site_label
 _atom_site_symmetry_multiplicity
 _atom_site_fract_x
 _atom_site_fract_y
 _atom_site_fract_z
 _atom_site_occupancy
  Pr  Pr0  1  0.995657  0.672197  0.750000  1
  Pr  Pr1  1  0.004343  0.327803  0.250000  1
  Pr  Pr2  1  0.672197  0.995657  0.750000  1
  Pr  Pr3  1  0.327803  0.004343  0.250000  1
  Al  Al4  1  0.135936  0.135936  0.750000  1
  Al  Al5  1  0.864064  0.864064  0.250000  1
  Al  Al6  1  0.002803  0.339364  0.574233  1
  Al  Al7  1  0.997197  0.660636  0.425767  1
  Al  Al8  1  0.997197  0.660636  0.074233  1
  Al  Al9  1  0.339364  0.002803  0.925767  1
  Al  Al10  1  0.002803  0.339364  0.925767  1
  Al  Al11  1  0.660636  0.997197  0.074233  1
  Al  Al12  1  0.660636  0.997197  0.425767  1
  Al  Al13  1  0.339364  0.002803  0.574233  1
  Al  Al14  1  0.338179  0.338179  0.048116  1
  Al  Al15  1  0.661821  0.661821  0.951884  1
  Al  Al16  1  0.661821  0.661821  0.548116  1
  Al  Al17  1  0.338179  0.338179  0.451884  1
  Al  Al18  1  0.339672  0.547690  0.750000  1
  Al  Al19  1  0.660328  0.452310  0.250000  1
  Al  Al20  1  0.547690  0.339672  0.750000  1
  Al  Al21  1  0.452310  0.660328  0.250000  1
  Pd  Pd22  1  0.000000  0.000000  0.500000  1
  Pd  Pd23  1  0.000000  0.000000  0.000000  1
  Rh  Rh24  1  0.670960  0.329040  0.500000  1
  Rh  Rh25  1  0.329040  0.670960  0.500000  1
  Rh  Rh26  1  0.329040  0.670960  0.000000  1
  Rh  Rh27  1  0.670960  0.329040  0.000000  1
