# generated using pymatgen
data_Tb2Y4TcPd
_symmetry_space_group_name_H-M   'P 1'
_cell_length_a   6.43472042
_cell_length_b   7.41090608
_cell_length_c   9.30751165
_cell_angle_alpha   90.23992624
_cell_angle_beta   90.31527230
_cell_angle_gamma   90.19295964
_symmetry_Int_Tables_number   1
_chemical_formula_structural   Tb2Y4TcPd
_chemical_formula_sum   'Tb4 Y8 Tc2 Pd2'
_cell_volume   443.83515712
_cell_formula_units_Z   2
loop_
 _symmetry_equiv_pos_site_id
 _symmetry_equiv_pos_as_xyz
  1  'x, y, z'
loop_
 _atom_site_type_symbol
 _atom_site_label
 _atom_site_symmetry_multiplicity
 _atom_site_fract_x
 _atom_site_fract_y
 _atom_site_fract_z
 _atom_site_occupancy
  Tb  Tb0  1  0.629804  0.040195  0.249938  1
  Tb  Tb1  1  0.370196  0.959805  0.750062  1
  Tb  Tb2  1  0.177071  0.185533  0.063817  1
  Tb  Tb3  1  0.822929  0.814467  0.936183  1
  Y  Y4  1  0.124527  0.469360  0.750214  1
  Y  Y5  1  0.875473  0.530640  0.249786  1
  Y  Y6  1  0.661532  0.326135  0.940139  1
  Y  Y7  1  0.823220  0.814576  0.564654  1
  Y  Y8  1  0.338468  0.673865  0.059861  1
  Y  Y9  1  0.176780  0.185424  0.435346  1
  Y  Y10  1  0.338326  0.673347  0.440389  1
  Y  Y11  1  0.661674  0.326653  0.559611  1
  Tc  Tc12  1  0.465535  0.380869  0.249785  1
  Tc  Tc13  1  0.534465  0.619131  0.750215  1
  Pd  Pd14  1  0.948555  0.112684  0.750055  1
  Pd  Pd15  1  0.051445  0.887316  0.249945  1
