# generated using pymatgen
data_LiTb(ScHg2)2
_symmetry_space_group_name_H-M   'P 1'
_cell_length_a   7.09639319
_cell_length_b   7.09609121
_cell_length_c   7.08666004
_cell_angle_alpha   90.00983213
_cell_angle_beta   90.00655139
_cell_angle_gamma   90.02575610
_symmetry_Int_Tables_number   1
_chemical_formula_structural   LiTb(ScHg2)2
_chemical_formula_sum   'Li2 Tb2 Sc4 Hg8'
_cell_volume   356.86043901
_cell_formula_units_Z   2
loop_
 _symmetry_equiv_pos_site_id
 _symmetry_equiv_pos_as_xyz
  1  'x, y, z'
loop_
 _atom_site_type_symbol
 _atom_site_label
 _atom_site_symmetry_multiplicity
 _atom_site_fract_x
 _atom_site_fract_y
 _atom_site_fract_z
 _atom_site_occupancy
  Li  Li0  1  0.749915  0.250001  0.499972  1
  Li  Li1  1  0.250085  0.750000  0.500028  1
  Tb  Tb2  1  0.750073  0.249986  0.000027  1
  Tb  Tb3  1  0.249928  0.750014  0.999973  1
  Sc  Sc4  1  0.249936  0.250028  0.999985  1
  Sc  Sc5  1  0.750063  0.749972  0.000015  1
  Sc  Sc6  1  0.749923  0.750005  0.499967  1
  Sc  Sc7  1  0.250077  0.249995  0.500034  1
  Hg  Hg8  1  0.499958  0.000017  0.266789  1
  Hg  Hg9  1  0.499960  0.500045  0.266849  1
  Hg  Hg10  1  0.000010  0.000003  0.267048  1
  Hg  Hg11  1  0.000022  0.499992  0.266998  1
  Hg  Hg12  1  0.999990  0.999997  0.732952  1
  Hg  Hg13  1  0.999978  0.500008  0.733002  1
  Hg  Hg14  1  0.500040  0.499955  0.733150  1
  Hg  Hg15  1  0.500041  0.999983  0.733211  1
