# generated using pymatgen
data_Y3ThZnIr
_symmetry_space_group_name_H-M   'P 1'
_cell_length_a   9.65406659
_cell_length_b   9.65403742
_cell_length_c   9.65931200
_cell_angle_alpha   59.98379713
_cell_angle_beta   59.98400348
_cell_angle_gamma   59.97438100
_symmetry_Int_Tables_number   1
_chemical_formula_structural   Y3ThZnIr
_chemical_formula_sum   'Y12 Th4 Zn4 Ir4'
_cell_volume   636.29809327
_cell_formula_units_Z   4
loop_
 _symmetry_equiv_pos_site_id
 _symmetry_equiv_pos_as_xyz
  1  'x, y, z'
loop_
 _atom_site_type_symbol
 _atom_site_label
 _atom_site_symmetry_multiplicity
 _atom_site_fract_x
 _atom_site_fract_y
 _atom_site_fract_z
 _atom_site_occupancy
  Y  Y0  1  0.060678  0.439681  0.439515  1
  Y  Y1  1  0.439684  0.060677  0.060123  1
  Y  Y2  1  0.439681  0.060678  0.439515  1
  Y  Y3  1  0.060676  0.439679  0.060125  1
  Y  Y4  1  0.440383  0.440382  0.059616  1
  Y  Y5  1  0.061122  0.061124  0.438876  1
  Y  Y6  1  0.187790  0.814257  0.814032  1
  Y  Y7  1  0.814249  0.187790  0.183926  1
  Y  Y8  1  0.814258  0.187790  0.814032  1
  Y  Y9  1  0.187788  0.814255  0.183923  1
  Y  Y10  1  0.814905  0.814904  0.185094  1
  Y  Y11  1  0.186552  0.186555  0.813445  1
  Th  Th12  1  0.603128  0.603131  0.601951  1
  Th  Th13  1  0.603128  0.603129  0.191794  1
  Th  Th14  1  0.604780  0.188086  0.603568  1
  Th  Th15  1  0.188089  0.604778  0.603565  1
  Zn  Zn16  1  0.831100  0.831100  0.834908  1
  Zn  Zn17  1  0.831101  0.831102  0.502888  1
  Zn  Zn18  1  0.830105  0.502371  0.833764  1
  Zn  Zn19  1  0.502373  0.830105  0.833763  1
  Ir  Ir20  1  0.393703  0.393698  0.395237  1
  Ir  Ir21  1  0.393702  0.393700  0.817360  1
  Ir  Ir22  1  0.393093  0.817934  0.394489  1
  Ir  Ir23  1  0.817932  0.393093  0.394492  1
