# generated using pymatgen
data_La2Tb3Pr3(CdPt)2
_symmetry_space_group_name_H-M   'P 1'
_cell_length_a   9.98751017
_cell_length_b   9.98751046
_cell_length_c   9.98751100
_cell_angle_alpha   59.99999490
_cell_angle_beta   59.99999394
_cell_angle_gamma   60.00000075
_symmetry_Int_Tables_number   1
_chemical_formula_structural   La2Tb3Pr3(CdPt)2
_chemical_formula_sum   'La4 Tb6 Pr6 Cd4 Pt4'
_cell_volume   704.46061963
_cell_formula_units_Z   2
loop_
 _symmetry_equiv_pos_site_id
 _symmetry_equiv_pos_as_xyz
  1  'x, y, z'
loop_
 _atom_site_type_symbol
 _atom_site_label
 _atom_site_symmetry_multiplicity
 _atom_site_fract_x
 _atom_site_fract_y
 _atom_site_fract_z
 _atom_site_occupancy
  La  La0  1  0.351623  0.351623  0.351623  1
  La  La1  1  0.351623  0.351623  0.945129  1
  La  La2  1  0.351623  0.945129  0.351623  1
  La  La3  1  0.945129  0.351623  0.351623  1
  Tb  Tb4  1  0.814275  0.185725  0.185725  1
  Tb  Tb5  1  0.185725  0.814275  0.814275  1
  Tb  Tb6  1  0.185725  0.814275  0.185725  1
  Tb  Tb7  1  0.814275  0.185725  0.814275  1
  Tb  Tb8  1  0.185725  0.185725  0.814275  1
  Tb  Tb9  1  0.814275  0.814275  0.185725  1
  Pr  Pr10  1  0.936193  0.563807  0.563807  1
  Pr  Pr11  1  0.563807  0.936193  0.936193  1
  Pr  Pr12  1  0.563807  0.936193  0.563807  1
  Pr  Pr13  1  0.936193  0.563807  0.936193  1
  Pr  Pr14  1  0.563807  0.563807  0.936193  1
  Pr  Pr15  1  0.936193  0.936193  0.563807  1
  Cd  Cd16  1  0.580661  0.580661  0.580661  1
  Cd  Cd17  1  0.580661  0.580661  0.258017  1
  Cd  Cd18  1  0.580661  0.258017  0.580661  1
  Cd  Cd19  1  0.258017  0.580661  0.580661  1
  Pt  Pt20  1  0.140292  0.140292  0.140292  1
  Pt  Pt21  1  0.140292  0.140292  0.579123  1
  Pt  Pt22  1  0.140292  0.579123  0.140292  1
  Pt  Pt23  1  0.579123  0.140292  0.140292  1
