# generated using pymatgen
data_Nd7ZrAlPd24
_symmetry_space_group_name_H-M   'P 1'
_cell_length_a   8.45047688
_cell_length_b   8.45047605
_cell_length_c   8.45047637
_cell_angle_alpha   89.76157310
_cell_angle_beta   90.23842802
_cell_angle_gamma   90.23842671
_symmetry_Int_Tables_number   1
_chemical_formula_structural   Nd7ZrAlPd24
_chemical_formula_sum   'Nd7 Zr1 Al1 Pd24'
_cell_volume   603.43755473
_cell_formula_units_Z   1
loop_
 _symmetry_equiv_pos_site_id
 _symmetry_equiv_pos_as_xyz
  1  'x, y, z'
loop_
 _atom_site_type_symbol
 _atom_site_label
 _atom_site_symmetry_multiplicity
 _atom_site_fract_x
 _atom_site_fract_y
 _atom_site_fract_z
 _atom_site_occupancy
  Nd  Nd0  1  0.250155  0.252600  0.252600  1
  Nd  Nd1  1  0.748557  0.747992  0.747992  1
  Nd  Nd2  1  0.747400  0.749845  0.252600  1
  Nd  Nd3  1  0.747400  0.252600  0.749845  1
  Nd  Nd4  1  0.252008  0.251443  0.747992  1
  Nd  Nd5  1  0.252008  0.747992  0.251443  1
  Nd  Nd6  1  0.252759  0.747241  0.747241  1
  Zr  Zr7  1  0.744701  0.255299  0.255299  1
  Al  Al8  1  0.003285  0.996715  0.996715  1
  Pd  Pd9  1  0.259665  0.497813  0.000370  1
  Pd  Pd10  1  0.740248  0.495155  0.008724  1
  Pd  Pd11  1  0.991276  0.259752  0.495155  1
  Pd  Pd12  1  0.504845  0.259752  0.008724  1
  Pd  Pd13  1  0.999630  0.740335  0.497813  1
  Pd  Pd14  1  0.502187  0.740335  0.000370  1
  Pd  Pd15  1  0.504845  0.008724  0.259752  1
  Pd  Pd16  1  0.259665  0.000370  0.497813  1
  Pd  Pd17  1  0.502187  0.000370  0.740335  1
  Pd  Pd18  1  0.740248  0.008724  0.495155  1
  Pd  Pd19  1  0.991276  0.495155  0.259752  1
  Pd  Pd20  1  0.999630  0.497813  0.740335  1
  Pd  Pd21  1  0.252611  0.498856  0.498856  1
  Pd  Pd22  1  0.746638  0.494334  0.494334  1
  Pd  Pd23  1  0.505666  0.253362  0.494334  1
  Pd  Pd24  1  0.501144  0.747389  0.498856  1
  Pd  Pd25  1  0.505666  0.494334  0.253362  1
  Pd  Pd26  1  0.501144  0.498856  0.747389  1
  Pd  Pd27  1  0.292981  0.000195  0.000195  1
  Pd  Pd28  1  0.714036  0.006735  0.006735  1
  Pd  Pd29  1  0.993265  0.285964  0.006735  1
  Pd  Pd30  1  0.999805  0.707019  0.000195  1
  Pd  Pd31  1  0.993265  0.006735  0.285964  1
  Pd  Pd32  1  0.999805  0.000195  0.707019  1
