# generated using pymatgen
data_Tb3Ag(Pt2O7)2
_symmetry_space_group_name_H-M   'P 1'
_cell_length_a   7.21000407
_cell_length_b   7.21000421
_cell_length_c   7.21000417
_cell_angle_alpha   61.26122961
_cell_angle_beta   61.26122562
_cell_angle_gamma   61.26123530
_symmetry_Int_Tables_number   1
_chemical_formula_structural   Tb3Ag(Pt2O7)2
_chemical_formula_sum   'Tb3 Ag1 Pt4 O14'
_cell_volume   272.54363758
_cell_formula_units_Z   1
loop_
 _symmetry_equiv_pos_site_id
 _symmetry_equiv_pos_as_xyz
  1  'x, y, z'
loop_
 _atom_site_type_symbol
 _atom_site_label
 _atom_site_symmetry_multiplicity
 _atom_site_fract_x
 _atom_site_fract_y
 _atom_site_fract_z
 _atom_site_occupancy
  Tb  Tb0  1  0.625000  0.625000  0.125000  1
  Tb  Tb1  1  0.625000  0.125000  0.625000  1
  Tb  Tb2  1  0.125000  0.625000  0.625000  1
  Ag  Ag3  1  0.625000  0.625000  0.625000  1
  Pt  Pt4  1  0.125000  0.125000  0.125000  1
  Pt  Pt5  1  0.625000  0.125000  0.125000  1
  Pt  Pt6  1  0.125000  0.625000  0.125000  1
  Pt  Pt7  1  0.125000  0.125000  0.625000  1
  O  O8  1  0.054883  0.456497  0.456497  1
  O  O9  1  0.793503  0.793503  0.195117  1
  O  O10  1  0.785083  0.217568  0.217568  1
  O  O11  1  0.456497  0.054883  0.456497  1
  O  O12  1  0.032432  0.464917  0.032432  1
  O  O13  1  0.745082  0.745082  0.745082  1
  O  O14  1  0.032432  0.032432  0.464917  1
  O  O15  1  0.217568  0.785083  0.217568  1
  O  O16  1  0.217568  0.217568  0.785083  1
  O  O17  1  0.504918  0.504918  0.504918  1
  O  O18  1  0.793503  0.195117  0.793503  1
  O  O19  1  0.464917  0.032432  0.032432  1
  O  O20  1  0.456497  0.456497  0.054883  1
  O  O21  1  0.195117  0.793503  0.793503  1
