# generated using pymatgen
data_Tm4Lu3Mg(B6Ru)4
_symmetry_space_group_name_H-M   'P 1'
_cell_length_a   3.58648800
_cell_length_b   8.99994626
_cell_length_c   11.37404533
_cell_angle_alpha   89.97250050
_cell_angle_beta   90.00000000
_cell_angle_gamma   90.00000000
_symmetry_Int_Tables_number   1
_chemical_formula_structural   Tm4Lu3Mg(B6Ru)4
_chemical_formula_sum   'Tm4 Lu3 Mg1 B24 Ru4'
_cell_volume   367.13365918
_cell_formula_units_Z   1
loop_
 _symmetry_equiv_pos_site_id
 _symmetry_equiv_pos_as_xyz
  1  'x, y, z'
loop_
 _atom_site_type_symbol
 _atom_site_label
 _atom_site_symmetry_multiplicity
 _atom_site_fract_x
 _atom_site_fract_y
 _atom_site_fract_z
 _atom_site_occupancy
  Tm  Tm0  1  0.000000  0.320964  0.412518  1
  Tm  Tm1  1  0.000000  0.679410  0.583577  1
  Tm  Tm2  1  0.000000  0.822342  0.088663  1
  Tm  Tm3  1  0.000000  0.178068  0.916032  1
  Lu  Lu4  1  0.000000  0.055101  0.625192  1
  Lu  Lu5  1  0.000000  0.443626  0.128652  1
  Lu  Lu6  1  0.000000  0.556226  0.872487  1
  Mg  Mg7  1  0.000000  0.945196  0.374661  1
  B  B8  1  0.500000  0.555301  0.432966  1
  B  B9  1  0.500000  0.446170  0.565884  1
  B  B10  1  0.500000  0.053026  0.067643  1
  B  B11  1  0.500000  0.946389  0.933447  1
  B  B12  1  0.500000  0.752702  0.419100  1
  B  B13  1  0.500000  0.249538  0.579046  1
  B  B14  1  0.500000  0.248731  0.080680  1
  B  B15  1  0.500000  0.750665  0.920053  1
  B  B16  1  0.500000  0.794533  0.265810  1
  B  B17  1  0.500000  0.207492  0.733945  1
  B  B18  1  0.500000  0.290146  0.235172  1
  B  B19  1  0.500000  0.708275  0.764987  1
  B  B20  1  0.500000  0.631637  0.185187  1
  B  B21  1  0.500000  0.368848  0.815741  1
  B  B22  1  0.500000  0.127266  0.316655  1
  B  B23  1  0.500000  0.869525  0.682923  1
  B  B24  1  0.500000  0.980173  0.214302  1
  B  B25  1  0.500000  0.018315  0.786424  1
  B  B26  1  0.500000  0.482454  0.287635  1
  B  B27  1  0.500000  0.517869  0.712583  1
  B  B28  1  0.500000  0.605990  0.029438  1
  B  B29  1  0.500000  0.394127  0.971268  1
  B  B30  1  0.500000  0.100365  0.469926  1
  B  B31  1  0.500000  0.897536  0.526110  1
  Ru  Ru32  1  0.000000  0.641561  0.320872  1
  Ru  Ru33  1  0.000000  0.361659  0.679179  1
  Ru  Ru34  1  0.000000  0.136470  0.181140  1
  Ru  Ru35  1  0.000000  0.862303  0.820099  1
