# generated using pymatgen
data_Dy10SnBi5Se2
_symmetry_space_group_name_H-M   'P 1'
_cell_length_a   9.24948170
_cell_length_b   9.25918128
_cell_length_c   6.65265900
_cell_angle_alpha   90.00000000
_cell_angle_beta   90.00000000
_cell_angle_gamma   120.03469788
_symmetry_Int_Tables_number   1
_chemical_formula_structural   Dy10SnBi5Se2
_chemical_formula_sum   'Dy10 Sn1 Bi5 Se2'
_cell_volume   493.24640276
_cell_formula_units_Z   1
loop_
 _symmetry_equiv_pos_site_id
 _symmetry_equiv_pos_as_xyz
  1  'x, y, z'
loop_
 _atom_site_type_symbol
 _atom_site_label
 _atom_site_symmetry_multiplicity
 _atom_site_fract_x
 _atom_site_fract_y
 _atom_site_fract_z
 _atom_site_occupancy
  Dy  Dy0  1  0.669410  0.334047  0.001793  1
  Dy  Dy1  1  0.330590  0.664638  0.001793  1
  Dy  Dy2  1  0.330590  0.664638  0.498207  1
  Dy  Dy3  1  0.669410  0.334047  0.498207  1
  Dy  Dy4  1  0.746717  0.746530  0.750000  1
  Dy  Dy5  1  0.253283  0.999812  0.750000  1
  Dy  Dy6  1  0.000000  0.254101  0.750000  1
  Dy  Dy7  1  0.250205  0.255141  0.250000  1
  Dy  Dy8  1  0.749795  0.004936  0.250000  1
  Dy  Dy9  1  0.000000  0.744017  0.250000  1
  Sn  Sn10  1  0.000000  0.396297  0.250000  1
  Bi  Bi11  1  0.395354  0.394890  0.750000  1
  Bi  Bi12  1  0.604646  0.999536  0.750000  1
  Bi  Bi13  1  0.000000  0.603610  0.750000  1
  Bi  Bi14  1  0.605081  0.605457  0.250000  1
  Bi  Bi15  1  0.394919  0.000376  0.250000  1
  Se  Se16  1  0.000000  0.998963  0.999757  1
  Se  Se17  1  0.000000  0.998963  0.500243  1
