# generated using pymatgen
data_Pr10Al7Si11Au2
_symmetry_space_group_name_H-M   'P 1'
_cell_length_a   4.15127600
_cell_length_b   4.34787278
_cell_length_c   36.89663000
_cell_angle_alpha   86.62218658
_cell_angle_beta   86.77510847
_cell_angle_gamma   90.00001705
_symmetry_Int_Tables_number   1
_chemical_formula_structural   Pr10Al7Si11Au2
_chemical_formula_sum   'Pr10 Al7 Si11 Au2'
_cell_volume   663.74200414
_cell_formula_units_Z   1
loop_
 _symmetry_equiv_pos_site_id
 _symmetry_equiv_pos_as_xyz
  1  'x, y, z'
loop_
 _atom_site_type_symbol
 _atom_site_label
 _atom_site_symmetry_multiplicity
 _atom_site_fract_x
 _atom_site_fract_y
 _atom_site_fract_z
 _atom_site_occupancy
  Pr  Pr0  1  0.950365  0.450365  0.099271  1
  Pr  Pr1  1  0.350049  0.850049  0.299904  1
  Pr  Pr2  1  0.750193  0.250193  0.499613  1
  Pr  Pr3  1  0.148161  0.648161  0.703678  1
  Pr  Pr4  1  0.546326  0.046326  0.907348  1
  Pr  Pr5  1  0.000547  0.000547  0.998905  1
  Pr  Pr6  1  0.400430  0.400430  0.199138  1
  Pr  Pr7  1  0.800439  0.800439  0.399122  1
  Pr  Pr8  1  0.203184  0.203184  0.593631  1
  Pr  Pr9  1  0.602167  0.602167  0.795665  1
  Al  Al10  1  0.467565  0.967565  0.064871  1
  Al  Al11  1  0.867292  0.367292  0.265416  1
  Al  Al12  1  0.267429  0.767429  0.465143  1
  Al  Al13  1  0.667411  0.167411  0.665178  1
  Al  Al14  1  0.065910  0.565910  0.868180  1
  Al  Al15  1  0.916828  0.916828  0.166346  1
  Al  Al16  1  0.316724  0.316724  0.366553  1
  Si  Si17  1  0.717871  0.717871  0.564257  1
  Si  Si18  1  0.116624  0.116624  0.766753  1
  Si  Si19  1  0.515771  0.515771  0.968457  1
  Si  Si20  1  0.434277  0.934277  0.131445  1
  Si  Si21  1  0.834051  0.334051  0.331900  1
  Si  Si22  1  0.234277  0.734277  0.531446  1
  Si  Si23  1  0.633609  0.133609  0.732779  1
  Si  Si24  1  0.032250  0.532250  0.935503  1
  Si  Si25  1  0.483527  0.483527  0.032947  1
  Si  Si26  1  0.883519  0.883519  0.232961  1
  Si  Si27  1  0.283498  0.283498  0.433004  1
  Au  Au28  1  0.684195  0.684195  0.631611  1
  Au  Au29  1  0.082712  0.082712  0.834576  1
