# generated using pymatgen
data_Tb3AlSiRu2
_symmetry_space_group_name_H-M   'P 1'
_cell_length_a   5.58583200
_cell_length_b   7.73944500
_cell_length_c   13.54855300
_cell_angle_alpha   90.00000000
_cell_angle_beta   90.00000000
_cell_angle_gamma   90.00000000
_symmetry_Int_Tables_number   1
_chemical_formula_structural   Tb3AlSiRu2
_chemical_formula_sum   'Tb12 Al4 Si4 Ru8'
_cell_volume   585.72074021
_cell_formula_units_Z   4
loop_
 _symmetry_equiv_pos_site_id
 _symmetry_equiv_pos_as_xyz
  1  'x, y, z'
loop_
 _atom_site_type_symbol
 _atom_site_label
 _atom_site_symmetry_multiplicity
 _atom_site_fract_x
 _atom_site_fract_y
 _atom_site_fract_z
 _atom_site_occupancy
  Tb  Tb0  1  0.146491  0.401671  0.600110  1
  Tb  Tb1  1  0.853509  0.598329  0.100110  1
  Tb  Tb2  1  0.146491  0.098329  0.399890  1
  Tb  Tb3  1  0.853509  0.901671  0.899890  1
  Tb  Tb4  1  0.853509  0.598329  0.399890  1
  Tb  Tb5  1  0.146491  0.401671  0.899890  1
  Tb  Tb6  1  0.853509  0.901671  0.600110  1
  Tb  Tb7  1  0.146491  0.098329  0.100110  1
  Tb  Tb8  1  0.631100  0.263479  0.750000  1
  Tb  Tb9  1  0.368900  0.736521  0.250000  1
  Tb  Tb10  1  0.631100  0.236521  0.250000  1
  Tb  Tb11  1  0.368900  0.763479  0.750000  1
  Al  Al12  1  0.618352  0.250000  0.500000  1
  Al  Al13  1  0.381648  0.750000  0.000000  1
  Al  Al14  1  0.381648  0.750000  0.500000  1
  Al  Al15  1  0.618352  0.250000  0.000000  1
  Si  Si16  1  0.133337  0.111609  0.750000  1
  Si  Si17  1  0.866663  0.888391  0.250000  1
  Si  Si18  1  0.133337  0.388391  0.250000  1
  Si  Si19  1  0.866663  0.611609  0.750000  1
  Ru  Ru20  1  0.350646  0.032153  0.595989  1
  Ru  Ru21  1  0.649354  0.967847  0.095989  1
  Ru  Ru22  1  0.350646  0.467847  0.404011  1
  Ru  Ru23  1  0.649354  0.532153  0.904011  1
  Ru  Ru24  1  0.649354  0.967847  0.404011  1
  Ru  Ru25  1  0.350646  0.032153  0.904011  1
  Ru  Ru26  1  0.649354  0.532153  0.595989  1
  Ru  Ru27  1  0.350646  0.467847  0.095989  1
