# generated using pymatgen
data_Er3AlCd2PdPt2
_symmetry_space_group_name_H-M   'P 1'
_cell_length_a   7.58218467
_cell_length_b   7.58218431
_cell_length_c   3.79615900
_cell_angle_alpha   90.00000000
_cell_angle_beta   90.00000000
_cell_angle_gamma   120.31338855
_symmetry_Int_Tables_number   1
_chemical_formula_structural   Er3AlCd2PdPt2
_chemical_formula_sum   'Er3 Al1 Cd2 Pd1 Pt2'
_cell_volume   188.40116237
_cell_formula_units_Z   1
loop_
 _symmetry_equiv_pos_site_id
 _symmetry_equiv_pos_as_xyz
  1  'x, y, z'
loop_
 _atom_site_type_symbol
 _atom_site_label
 _atom_site_symmetry_multiplicity
 _atom_site_fract_x
 _atom_site_fract_y
 _atom_site_fract_z
 _atom_site_occupancy
  Er  Er0  1  0.406629  0.002040  0.500000  1
  Er  Er1  1  0.002040  0.406629  0.500000  1
  Er  Er2  1  0.581271  0.581271  0.500000  1
  Al  Al3  1  0.259546  0.259546  0.000000  1
  Cd  Cd4  1  0.743390  0.994249  0.000000  1
  Cd  Cd5  1  0.994249  0.743390  0.000000  1
  Pd  Pd6  1  0.038620  0.038620  0.500000  1
  Pt  Pt7  1  0.325646  0.648609  0.000000  1
  Pt  Pt8  1  0.648609  0.325646  0.000000  1
