# generated using pymatgen
data_Ca2Tb2Sn3Sb3Rh7
_symmetry_space_group_name_H-M   'P 1'
_cell_length_a   7.63041805
_cell_length_b   7.62029513
_cell_length_c   7.63071681
_cell_angle_alpha   109.42458511
_cell_angle_beta   109.47834197
_cell_angle_gamma   109.48228867
_symmetry_Int_Tables_number   1
_chemical_formula_structural   Ca2Tb2Sn3Sb3Rh7
_chemical_formula_sum   'Ca2 Tb2 Sn3 Sb3 Rh7'
_cell_volume   341.67707299
_cell_formula_units_Z   1
loop_
 _symmetry_equiv_pos_site_id
 _symmetry_equiv_pos_as_xyz
  1  'x, y, z'
loop_
 _atom_site_type_symbol
 _atom_site_label
 _atom_site_symmetry_multiplicity
 _atom_site_fract_x
 _atom_site_fract_y
 _atom_site_fract_z
 _atom_site_occupancy
  Ca  Ca0  1  0.486511  0.999579  0.000000  1
  Ca  Ca1  1  0.000036  0.504623  0.000000  1
  Tb  Tb2  1  0.998630  0.000150  0.504400  1
  Tb  Tb3  1  0.494230  0.495749  0.495600  1
  Sn  Sn4  1  0.988104  0.306468  0.302283  1
  Sn  Sn5  1  0.685821  0.004185  0.697717  1
  Sn  Sn6  1  0.685965  0.693266  0.000000  1
  Sb  Sb7  1  0.996884  0.672126  0.675178  1
  Sb  Sb8  1  0.321707  0.996948  0.324822  1
  Sb  Sb9  1  0.321511  0.327537  0.000000  1
  Rh  Rh10  1  0.014894  0.000831  0.000000  1
  Rh  Rh11  1  0.508906  0.754955  0.260524  1
  Rh  Rh12  1  0.749273  0.504563  0.249450  1
  Rh  Rh13  1  0.249451  0.744528  0.499580  1
  Rh  Rh14  1  0.248382  0.494431  0.739476  1
  Rh  Rh15  1  0.499823  0.255113  0.750550  1
  Rh  Rh16  1  0.749871  0.244948  0.500420  1
