# generated using pymatgen
data_Ti8AlRe4Ir3
_symmetry_space_group_name_H-M   'P 1'
_cell_length_a   6.25291100
_cell_length_b   4.40463800
_cell_length_c   8.80876300
_cell_angle_alpha   90.00000000
_cell_angle_beta   90.00042540
_cell_angle_gamma   90.00000000
_symmetry_Int_Tables_number   1
_chemical_formula_structural   Ti8AlRe4Ir3
_chemical_formula_sum   'Ti8 Al1 Re4 Ir3'
_cell_volume   242.60927160
_cell_formula_units_Z   1
loop_
 _symmetry_equiv_pos_site_id
 _symmetry_equiv_pos_as_xyz
  1  'x, y, z'
loop_
 _atom_site_type_symbol
 _atom_site_label
 _atom_site_symmetry_multiplicity
 _atom_site_fract_x
 _atom_site_fract_y
 _atom_site_fract_z
 _atom_site_occupancy
  Ti  Ti0  1  0.996967  0.750001  0.125006  1
  Ti  Ti1  1  0.503064  0.750001  0.125005  1
  Ti  Ti2  1  0.998524  0.249999  0.377169  1
  Ti  Ti3  1  0.501525  0.249999  0.377169  1
  Ti  Ti4  1  0.500920  0.750001  0.625011  1
  Ti  Ti5  1  0.999019  0.750001  0.625008  1
  Ti  Ti6  1  0.501482  0.249999  0.872816  1
  Ti  Ti7  1  0.998493  0.249999  0.872824  1
  Al  Al8  1  0.250038  0.249999  0.124961  1
  Re  Re9  1  0.749995  0.249999  0.125004  1
  Re  Re10  1  0.250018  0.750001  0.371031  1
  Re  Re11  1  0.749979  0.249999  0.625013  1
  Re  Re12  1  0.249982  0.750001  0.878974  1
  Ir  Ir13  1  0.750018  0.750001  0.376288  1
  Ir  Ir14  1  0.249983  0.249999  0.625002  1
  Ir  Ir15  1  0.749992  0.750001  0.873716  1
