# generated using pymatgen
data_SrMnFe2Sb12Os
_symmetry_space_group_name_H-M   'P 1'
_cell_length_a   8.06750492
_cell_length_b   8.07447719
_cell_length_c   8.12402840
_cell_angle_alpha   109.44194026
_cell_angle_beta   109.41680654
_cell_angle_gamma   109.26623229
_symmetry_Int_Tables_number   1
_chemical_formula_structural   SrMnFe2Sb12Os
_chemical_formula_sum   'Sr1 Mn1 Fe2 Sb12 Os1'
_cell_volume   408.82738546
_cell_formula_units_Z   1
loop_
 _symmetry_equiv_pos_site_id
 _symmetry_equiv_pos_as_xyz
  1  'x, y, z'
loop_
 _atom_site_type_symbol
 _atom_site_label
 _atom_site_symmetry_multiplicity
 _atom_site_fract_x
 _atom_site_fract_y
 _atom_site_fract_z
 _atom_site_occupancy
  Sr  Sr0  1  0.000000  0.000000  0.000000  1
  Mn  Mn1  1  0.500000  0.000000  0.000000  1
  Fe  Fe2  1  0.000000  0.000000  0.500000  1
  Fe  Fe3  1  0.500000  0.500000  0.500000  1
  Sb  Sb4  1  0.668739  0.819671  0.167586  1
  Sb  Sb5  1  0.844697  0.345184  0.188107  1
  Sb  Sb6  1  0.500934  0.832839  0.651698  1
  Sb  Sb7  1  0.836728  0.666887  0.503822  1
  Sb  Sb8  1  0.499066  0.167161  0.348302  1
  Sb  Sb9  1  0.155303  0.654816  0.811893  1
  Sb  Sb10  1  0.823656  0.155085  0.656923  1
  Sb  Sb11  1  0.176344  0.844915  0.343077  1
  Sb  Sb12  1  0.163272  0.333113  0.496178  1
  Sb  Sb13  1  0.657040  0.502677  0.833491  1
  Sb  Sb14  1  0.342960  0.497323  0.166509  1
  Sb  Sb15  1  0.331261  0.180329  0.832414  1
  Os  Os16  1  0.000000  0.500000  0.000000  1
