# generated using pymatgen
data_Li4Pr2ErLuSi6
_symmetry_space_group_name_H-M   'P 1'
_cell_length_a   9.33964402
_cell_length_b   9.33964445
_cell_length_c   6.87014600
_cell_angle_alpha   90.00000000
_cell_angle_beta   90.00000000
_cell_angle_gamma   153.49722532
_symmetry_Int_Tables_number   1
_chemical_formula_structural   Li4Pr2ErLuSi6
_chemical_formula_sum   'Li4 Pr2 Er1 Lu1 Si6'
_cell_volume   267.42145730
_cell_formula_units_Z   1
loop_
 _symmetry_equiv_pos_site_id
 _symmetry_equiv_pos_as_xyz
  1  'x, y, z'
loop_
 _atom_site_type_symbol
 _atom_site_label
 _atom_site_symmetry_multiplicity
 _atom_site_fract_x
 _atom_site_fract_y
 _atom_site_fract_z
 _atom_site_occupancy
  Li  Li0  1  0.191304  0.808696  0.058374  1
  Li  Li1  1  0.191304  0.808696  0.441626  1
  Li  Li2  1  0.808006  0.191994  0.940757  1
  Li  Li3  1  0.808006  0.191994  0.559243  1
  Pr  Pr4  1  0.555230  0.444770  0.250000  1
  Pr  Pr5  1  0.445504  0.554496  0.750000  1
  Er  Er6  1  0.345647  0.654353  0.250000  1
  Lu  Lu7  1  0.654129  0.345871  0.750000  1
  Si  Si8  1  0.724462  0.275538  0.250000  1
  Si  Si9  1  0.274595  0.725405  0.750000  1
  Si  Si10  1  0.060083  0.939917  0.923385  1
  Si  Si11  1  0.940823  0.059177  0.076245  1
  Si  Si12  1  0.940823  0.059177  0.423755  1
  Si  Si13  1  0.060083  0.939917  0.576615  1
