# generated using pymatgen
data_LiY9Tl3Pd
_symmetry_space_group_name_H-M   'P 1'
_cell_length_a   9.59269300
_cell_length_b   9.59269290
_cell_length_c   9.66737400
_cell_angle_alpha   90.00000000
_cell_angle_beta   90.00000000
_cell_angle_gamma   119.99999690
_symmetry_Int_Tables_number   1
_chemical_formula_structural   LiY9Tl3Pd
_chemical_formula_sum   'Li2 Y18 Tl6 Pd2'
_cell_volume   770.40705737
_cell_formula_units_Z   2
loop_
 _symmetry_equiv_pos_site_id
 _symmetry_equiv_pos_as_xyz
  1  'x, y, z'
loop_
 _atom_site_type_symbol
 _atom_site_label
 _atom_site_symmetry_multiplicity
 _atom_site_fract_x
 _atom_site_fract_y
 _atom_site_fract_z
 _atom_site_occupancy
  Li  Li0  1  0.000000  0.000000  0.000000  1
  Li  Li1  1  0.000000  0.000000  0.500000  1
  Y  Y2  1  0.203726  0.796274  0.937839  1
  Y  Y3  1  0.203726  0.407451  0.937839  1
  Y  Y4  1  0.592549  0.796274  0.937839  1
  Y  Y5  1  0.796274  0.203726  0.062161  1
  Y  Y6  1  0.796274  0.592549  0.062161  1
  Y  Y7  1  0.407451  0.203726  0.062161  1
  Y  Y8  1  0.796274  0.203726  0.437839  1
  Y  Y9  1  0.796274  0.592549  0.437839  1
  Y  Y10  1  0.407451  0.203726  0.437839  1
  Y  Y11  1  0.203726  0.796274  0.562161  1
  Y  Y12  1  0.203726  0.407451  0.562161  1
  Y  Y13  1  0.592549  0.796274  0.562161  1
  Y  Y14  1  0.542126  0.457874  0.750000  1
  Y  Y15  1  0.542126  0.084251  0.750000  1
  Y  Y16  1  0.915749  0.457874  0.750000  1
  Y  Y17  1  0.457874  0.542126  0.250000  1
  Y  Y18  1  0.457874  0.915749  0.250000  1
  Y  Y19  1  0.084251  0.542126  0.250000  1
  Tl  Tl20  1  0.887290  0.112710  0.750000  1
  Tl  Tl21  1  0.887290  0.774581  0.750000  1
  Tl  Tl22  1  0.225419  0.112710  0.750000  1
  Tl  Tl23  1  0.112710  0.887290  0.250000  1
  Tl  Tl24  1  0.112710  0.225419  0.250000  1
  Tl  Tl25  1  0.774581  0.887290  0.250000  1
  Pd  Pd26  1  0.333333  0.666667  0.750000  1
  Pd  Pd27  1  0.666667  0.333333  0.250000  1
