# generated using pymatgen
data_Nd2Th6SnS17
_symmetry_space_group_name_H-M   'P 1'
_cell_length_a   8.03693935
_cell_length_b   8.03693901
_cell_length_c   10.66275100
_cell_angle_alpha   80.72183789
_cell_angle_beta   80.72183828
_cell_angle_gamma   65.34322038
_symmetry_Int_Tables_number   1
_chemical_formula_structural   Nd2Th6SnS17
_chemical_formula_sum   'Nd2 Th6 Sn1 S17'
_cell_volume   614.34772952
_cell_formula_units_Z   1
loop_
 _symmetry_equiv_pos_site_id
 _symmetry_equiv_pos_as_xyz
  1  'x, y, z'
loop_
 _atom_site_type_symbol
 _atom_site_label
 _atom_site_symmetry_multiplicity
 _atom_site_fract_x
 _atom_site_fract_y
 _atom_site_fract_z
 _atom_site_occupancy
  Nd  Nd0  1  0.812778  0.311826  0.301107  1
  Nd  Nd1  1  0.311826  0.812778  0.301107  1
  Th  Th2  1  0.185358  0.691161  0.697304  1
  Th  Th3  1  0.691161  0.185358  0.697304  1
  Th  Th4  1  0.205449  0.205449  0.540447  1
  Th  Th5  1  0.791923  0.791923  0.453623  1
  Th  Th6  1  0.675330  0.675330  0.978261  1
  Th  Th7  1  0.322497  0.322497  0.027762  1
  Sn  Sn8  1  0.001019  0.001019  0.003736  1
  S  S9  1  0.821392  0.431302  0.539596  1
  S  S10  1  0.431302  0.821392  0.539596  1
  S  S11  1  0.173945  0.568045  0.467733  1
  S  S12  1  0.568045  0.173945  0.467733  1
  S  S13  1  0.950993  0.329528  0.027224  1
  S  S14  1  0.329528  0.950993  0.027224  1
  S  S15  1  0.051712  0.672087  0.966768  1
  S  S16  1  0.672087  0.051712  0.966768  1
  S  S17  1  0.212626  0.212626  0.280107  1
  S  S18  1  0.789304  0.789304  0.720573  1
  S  S19  1  0.053564  0.053564  0.768254  1
  S  S20  1  0.947491  0.947491  0.235419  1
  S  S21  1  0.300425  0.300425  0.756711  1
  S  S22  1  0.702688  0.702688  0.238830  1
  S  S23  1  0.518645  0.518645  0.829821  1
  S  S24  1  0.481666  0.481666  0.161716  1
  S  S25  1  0.997245  0.997245  0.505277  1
