# generated using pymatgen
data_Ho3Er(TeAs)4
_symmetry_space_group_name_H-M   'P 1'
_cell_length_a   4.05895600
_cell_length_b   7.50666007
_cell_length_c   9.89672509
_cell_angle_alpha   89.98489828
_cell_angle_beta   90.00000000
_cell_angle_gamma   90.00000000
_symmetry_Int_Tables_number   1
_chemical_formula_structural   Ho3Er(TeAs)4
_chemical_formula_sum   'Ho3 Er1 Te4 As4'
_cell_volume   301.54531433
_cell_formula_units_Z   1
loop_
 _symmetry_equiv_pos_site_id
 _symmetry_equiv_pos_as_xyz
  1  'x, y, z'
loop_
 _atom_site_type_symbol
 _atom_site_label
 _atom_site_symmetry_multiplicity
 _atom_site_fract_x
 _atom_site_fract_y
 _atom_site_fract_z
 _atom_site_occupancy
  Ho  Ho0  1  0.250000  0.732205  0.841057  1
  Ho  Ho1  1  0.750000  0.267772  0.158795  1
  Ho  Ho2  1  0.750000  0.767710  0.341294  1
  Er  Er3  1  0.250000  0.232616  0.658842  1
  Te  Te4  1  0.250000  0.585214  0.147800  1
  Te  Te5  1  0.750000  0.414218  0.851693  1
  Te  Te6  1  0.750000  0.915579  0.647787  1
  Te  Te7  1  0.250000  0.085419  0.352479  1
  As  As8  1  0.250000  0.598260  0.539805  1
  As  As9  1  0.750000  0.400930  0.460673  1
  As  As10  1  0.750000  0.901379  0.039586  1
  As  As11  1  0.250000  0.098696  0.960189  1
