# generated using pymatgen
data_PrNdFe14(CoP5)2
_symmetry_space_group_name_H-M   'P 1'
_cell_length_a   3.59333000
_cell_length_b   9.13768600
_cell_length_c   10.52490100
_cell_angle_alpha   90.00000000
_cell_angle_beta   90.00000000
_cell_angle_gamma   90.00000000
_symmetry_Int_Tables_number   1
_chemical_formula_structural   PrNdFe14(CoP5)2
_chemical_formula_sum   'Pr1 Nd1 Fe14 Co2 P10'
_cell_volume   345.58219035
_cell_formula_units_Z   1
loop_
 _symmetry_equiv_pos_site_id
 _symmetry_equiv_pos_as_xyz
  1  'x, y, z'
loop_
 _atom_site_type_symbol
 _atom_site_label
 _atom_site_symmetry_multiplicity
 _atom_site_fract_x
 _atom_site_fract_y
 _atom_site_fract_z
 _atom_site_occupancy
  Pr  Pr0  1  0.250000  0.180763  0.250000  1
  Nd  Nd1  1  0.750000  0.819450  0.750000  1
  Fe  Fe2  1  0.750000  0.519199  0.918844  1
  Fe  Fe3  1  0.750000  0.519199  0.581156  1
  Fe  Fe4  1  0.250000  0.480864  0.080896  1
  Fe  Fe5  1  0.250000  0.480864  0.419104  1
  Fe  Fe6  1  0.750000  0.109765  0.991499  1
  Fe  Fe7  1  0.750000  0.109765  0.508501  1
  Fe  Fe8  1  0.250000  0.890096  0.008075  1
  Fe  Fe9  1  0.250000  0.890096  0.491925  1
  Fe  Fe10  1  0.750000  0.693580  0.106447  1
  Fe  Fe11  1  0.750000  0.693580  0.393553  1
  Fe  Fe12  1  0.250000  0.306322  0.893627  1
  Fe  Fe13  1  0.250000  0.306322  0.606373  1
  Fe  Fe14  1  0.750000  0.152726  0.750000  1
  Fe  Fe15  1  0.250000  0.847104  0.250000  1
  Co  Co16  1  0.250000  0.546378  0.750000  1
  Co  Co17  1  0.750000  0.453997  0.250000  1
  P  P18  1  0.750000  0.933828  0.130806  1
  P  P19  1  0.750000  0.933828  0.369194  1
  P  P20  1  0.250000  0.065852  0.868926  1
  P  P21  1  0.250000  0.065852  0.631074  1
  P  P22  1  0.750000  0.339501  0.059408  1
  P  P23  1  0.750000  0.339501  0.440592  1
  P  P24  1  0.250000  0.660727  0.940207  1
  P  P25  1  0.250000  0.660727  0.559793  1
  P  P26  1  0.750000  0.388701  0.750000  1
  P  P27  1  0.250000  0.611413  0.250000  1
