# generated using pymatgen
data_Dy13Y6Ho(Cd3Ru)2
_symmetry_space_group_name_H-M   'P 1'
_cell_length_a   9.61526400
_cell_length_b   9.61526410
_cell_length_c   9.85541200
_cell_angle_alpha   90.00000000
_cell_angle_beta   90.00000000
_cell_angle_gamma   119.99999967
_symmetry_Int_Tables_number   1
_chemical_formula_structural   Dy13Y6Ho(Cd3Ru)2
_chemical_formula_sum   'Dy13 Y6 Ho1 Cd6 Ru2'
_cell_volume   789.09237664
_cell_formula_units_Z   1
loop_
 _symmetry_equiv_pos_site_id
 _symmetry_equiv_pos_as_xyz
  1  'x, y, z'
loop_
 _atom_site_type_symbol
 _atom_site_label
 _atom_site_symmetry_multiplicity
 _atom_site_fract_x
 _atom_site_fract_y
 _atom_site_fract_z
 _atom_site_occupancy
  Dy  Dy0  1  0.000000  0.000000  0.500000  1
  Dy  Dy1  1  0.209886  0.790114  0.439862  1
  Dy  Dy2  1  0.209886  0.419772  0.439862  1
  Dy  Dy3  1  0.580228  0.790114  0.439862  1
  Dy  Dy4  1  0.790114  0.209886  0.560138  1
  Dy  Dy5  1  0.790114  0.580228  0.560138  1
  Dy  Dy6  1  0.419772  0.209886  0.560138  1
  Dy  Dy7  1  0.790146  0.209854  0.939858  1
  Dy  Dy8  1  0.790146  0.580291  0.939858  1
  Dy  Dy9  1  0.419709  0.209854  0.939858  1
  Dy  Dy10  1  0.209854  0.790146  0.060142  1
  Dy  Dy11  1  0.209854  0.419709  0.060142  1
  Dy  Dy12  1  0.580291  0.790146  0.060142  1
  Y  Y13  1  0.541206  0.458794  0.249995  1
  Y  Y14  1  0.541206  0.082412  0.249995  1
  Y  Y15  1  0.917588  0.458794  0.249995  1
  Y  Y16  1  0.458794  0.541206  0.750005  1
  Y  Y17  1  0.458794  0.917588  0.750005  1
  Y  Y18  1  0.082412  0.541206  0.750005  1
  Ho  Ho19  1  0.000000  0.000000  0.000000  1
  Cd  Cd20  1  0.885437  0.114563  0.249946  1
  Cd  Cd21  1  0.885437  0.770875  0.249946  1
  Cd  Cd22  1  0.229125  0.114563  0.249946  1
  Cd  Cd23  1  0.114563  0.885437  0.750054  1
  Cd  Cd24  1  0.114563  0.229125  0.750054  1
  Cd  Cd25  1  0.770875  0.885437  0.750054  1
  Ru  Ru26  1  0.333333  0.666667  0.249994  1
  Ru  Ru27  1  0.666667  0.333333  0.750006  1
