# generated using pymatgen
data_Y3HoZn4(Ga7Pd3)2
_symmetry_space_group_name_H-M   'P 1'
_cell_length_a   7.60711506
_cell_length_b   7.64296147
_cell_length_c   9.51234500
_cell_angle_alpha   90.00000000
_cell_angle_beta   90.00000000
_cell_angle_gamma   119.34840125
_symmetry_Int_Tables_number   1
_chemical_formula_structural   Y3HoZn4(Ga7Pd3)2
_chemical_formula_sum   'Y3 Ho1 Zn4 Ga14 Pd6'
_cell_volume   482.07448751
_cell_formula_units_Z   1
loop_
 _symmetry_equiv_pos_site_id
 _symmetry_equiv_pos_as_xyz
  1  'x, y, z'
loop_
 _atom_site_type_symbol
 _atom_site_label
 _atom_site_symmetry_multiplicity
 _atom_site_fract_x
 _atom_site_fract_y
 _atom_site_fract_z
 _atom_site_occupancy
  Y  Y0  1  0.004515  0.329426  0.750000  1
  Y  Y1  1  0.672930  0.997849  0.250000  1
  Y  Y2  1  0.327026  0.002082  0.750000  1
  Ho  Ho3  1  0.995552  0.670681  0.250000  1
  Zn  Zn4  1  0.138178  0.137306  0.250000  1
  Zn  Zn5  1  0.861795  0.862450  0.750000  1
  Zn  Zn6  1  0.341811  0.544383  0.250000  1
  Zn  Zn7  1  0.658006  0.455647  0.750000  1
  Ga  Ga8  1  0.008839  0.337081  0.085344  1
  Ga  Ga9  1  0.991167  0.663278  0.915081  1
  Ga  Ga10  1  0.991167  0.663278  0.584919  1
  Ga  Ga11  1  0.332792  0.000759  0.415650  1
  Ga  Ga12  1  0.008839  0.337081  0.414656  1
  Ga  Ga13  1  0.666858  0.998880  0.584140  1
  Ga  Ga14  1  0.666858  0.998880  0.915860  1
  Ga  Ga15  1  0.332792  0.000759  0.084350  1
  Ga  Ga16  1  0.336060  0.333135  0.563779  1
  Ga  Ga17  1  0.664261  0.666863  0.435978  1
  Ga  Ga18  1  0.664261  0.666863  0.064022  1
  Ga  Ga19  1  0.336060  0.333135  0.936221  1
  Ga  Ga20  1  0.539505  0.342167  0.250000  1
  Ga  Ga21  1  0.460779  0.658103  0.750000  1
  Pd  Pd22  1  0.675170  0.325536  0.003558  1
  Pd  Pd23  1  0.324833  0.674476  0.996584  1
  Pd  Pd24  1  0.324833  0.674476  0.503416  1
  Pd  Pd25  1  0.675170  0.325536  0.496442  1
  Pd  Pd26  1  0.999970  0.999944  0.000089  1
  Pd  Pd27  1  0.999970  0.999944  0.499911  1
