# generated using pymatgen
data_Yb4Ga2(OsRu)3
_symmetry_space_group_name_H-M   'P 1'
_cell_length_a   5.26402636
_cell_length_b   5.31126890
_cell_length_c   8.79895100
_cell_angle_alpha   90.00000000
_cell_angle_beta   90.00000000
_cell_angle_gamma   120.21316105
_symmetry_Int_Tables_number   1
_chemical_formula_structural   Yb4Ga2(OsRu)3
_chemical_formula_sum   'Yb4 Ga2 Os3 Ru3'
_cell_volume   212.58911267
_cell_formula_units_Z   1
loop_
 _symmetry_equiv_pos_site_id
 _symmetry_equiv_pos_as_xyz
  1  'x, y, z'
loop_
 _atom_site_type_symbol
 _atom_site_label
 _atom_site_symmetry_multiplicity
 _atom_site_fract_x
 _atom_site_fract_y
 _atom_site_fract_z
 _atom_site_occupancy
  Yb  Yb0  1  0.667604  0.333699  0.565881  1
  Yb  Yb1  1  0.337387  0.668492  0.443469  1
  Yb  Yb2  1  0.337387  0.668492  0.056531  1
  Yb  Yb3  1  0.667604  0.333699  0.934119  1
  Ga  Ga4  1  0.817177  0.658602  0.250000  1
  Ga  Ga5  1  0.816866  0.158757  0.250000  1
  Os  Os6  1  0.166271  0.336980  0.750000  1
  Os  Os7  1  0.165586  0.830227  0.750000  1
  Os  Os8  1  0.651942  0.826445  0.750000  1
  Ru  Ru9  1  0.020997  0.009414  0.495339  1
  Ru  Ru10  1  0.020997  0.009414  0.004661  1
  Ru  Ru11  1  0.330179  0.165779  0.250000  1
