# generated using pymatgen
data_Ba4NdTi5O15
_symmetry_space_group_name_H-M   'P 1'
_cell_length_a   4.01258600
_cell_length_b   4.01258600
_cell_length_c   20.16072300
_cell_angle_alpha   90.00000000
_cell_angle_beta   90.00000000
_cell_angle_gamma   90.00000000
_symmetry_Int_Tables_number   1
_chemical_formula_structural   Ba4NdTi5O15
_chemical_formula_sum   'Ba4 Nd1 Ti5 O15'
_cell_volume   324.60470449
_cell_formula_units_Z   1
loop_
 _symmetry_equiv_pos_site_id
 _symmetry_equiv_pos_as_xyz
  1  'x, y, z'
loop_
 _atom_site_type_symbol
 _atom_site_label
 _atom_site_symmetry_multiplicity
 _atom_site_fract_x
 _atom_site_fract_y
 _atom_site_fract_z
 _atom_site_occupancy
  Ba  Ba0  1  0.000000  0.000000  0.199982  1
  Ba  Ba1  1  0.000000  0.000000  0.400250  1
  Ba  Ba2  1  0.000000  0.000000  0.599750  1
  Ba  Ba3  1  0.000000  0.000000  0.800018  1
  Nd  Nd4  1  0.000000  0.000000  0.000000  1
  Ti  Ti5  1  0.500000  0.500000  0.097396  1
  Ti  Ti6  1  0.500000  0.500000  0.301717  1
  Ti  Ti7  1  0.500000  0.500000  0.500000  1
  Ti  Ti8  1  0.500000  0.500000  0.698283  1
  Ti  Ti9  1  0.500000  0.500000  0.902604  1
  O  O10  1  0.500000  0.500000  0.000000  1
  O  O11  1  0.500000  0.500000  0.192268  1
  O  O12  1  0.500000  0.500000  0.397772  1
  O  O13  1  0.500000  0.500000  0.602228  1
  O  O14  1  0.500000  0.500000  0.807732  1
  O  O15  1  0.500000  0.000000  0.087938  1
  O  O16  1  0.500000  0.000000  0.297130  1
  O  O17  1  0.500000  0.000000  0.500000  1
  O  O18  1  0.500000  0.000000  0.702870  1
  O  O19  1  0.500000  0.000000  0.912062  1
  O  O20  1  0.000000  0.500000  0.087938  1
  O  O21  1  0.000000  0.500000  0.297130  1
  O  O22  1  0.000000  0.500000  0.500000  1
  O  O23  1  0.000000  0.500000  0.702870  1
  O  O24  1  0.000000  0.500000  0.912062  1
