# generated using pymatgen
data_Ac8Cd3HgAu8
_symmetry_space_group_name_H-M   'P 1'
_cell_length_a   8.56043500
_cell_length_b   8.56043500
_cell_length_c   8.02655100
_cell_angle_alpha   90.00000000
_cell_angle_beta   90.00000000
_cell_angle_gamma   90.00000000
_symmetry_Int_Tables_number   1
_chemical_formula_structural   Ac8Cd3HgAu8
_chemical_formula_sum   'Ac8 Cd3 Hg1 Au8'
_cell_volume   588.19406420
_cell_formula_units_Z   1
loop_
 _symmetry_equiv_pos_site_id
 _symmetry_equiv_pos_as_xyz
  1  'x, y, z'
loop_
 _atom_site_type_symbol
 _atom_site_label
 _atom_site_symmetry_multiplicity
 _atom_site_fract_x
 _atom_site_fract_y
 _atom_site_fract_z
 _atom_site_occupancy
  Ac  Ac0  1  0.830819  0.172337  0.499802  1
  Ac  Ac1  1  0.169181  0.827663  0.499802  1
  Ac  Ac2  1  0.327663  0.330819  0.000198  1
  Ac  Ac3  1  0.672337  0.669181  0.000198  1
  Ac  Ac4  1  0.676898  0.670687  0.499485  1
  Ac  Ac5  1  0.323102  0.329313  0.499485  1
  Ac  Ac6  1  0.170687  0.823102  0.000515  1
  Ac  Ac7  1  0.829313  0.176898  0.000515  1
  Cd  Cd8  1  0.500000  0.000000  0.250000  1
  Cd  Cd9  1  0.000000  0.500000  0.750000  1
  Cd  Cd10  1  0.500000  0.000000  0.750000  1
  Hg  Hg11  1  0.000000  0.500000  0.250000  1
  Au  Au12  1  0.621155  0.367664  0.252958  1
  Au  Au13  1  0.378845  0.632336  0.252958  1
  Au  Au14  1  0.129070  0.125497  0.752930  1
  Au  Au15  1  0.870930  0.874503  0.752930  1
  Au  Au16  1  0.374503  0.629070  0.747070  1
  Au  Au17  1  0.625497  0.370930  0.747070  1
  Au  Au18  1  0.867664  0.878845  0.247042  1
  Au  Au19  1  0.132336  0.121155  0.247042  1
