# generated using pymatgen
data_Tb4Al4PtRh3
_symmetry_space_group_name_H-M   'P 1'
_cell_length_a   4.28821800
_cell_length_b   6.89701014
_cell_length_c   7.94098817
_cell_angle_alpha   89.91248090
_cell_angle_beta   90.00000000
_cell_angle_gamma   90.00000000
_symmetry_Int_Tables_number   1
_chemical_formula_structural   Tb4Al4PtRh3
_chemical_formula_sum   'Tb4 Al4 Pt1 Rh3'
_cell_volume   234.86146334
_cell_formula_units_Z   1
loop_
 _symmetry_equiv_pos_site_id
 _symmetry_equiv_pos_as_xyz
  1  'x, y, z'
loop_
 _atom_site_type_symbol
 _atom_site_label
 _atom_site_symmetry_multiplicity
 _atom_site_fract_x
 _atom_site_fract_y
 _atom_site_fract_z
 _atom_site_occupancy
  Tb  Tb0  1  0.250000  0.033960  0.677460  1
  Tb  Tb1  1  0.250000  0.538228  0.819568  1
  Tb  Tb2  1  0.750000  0.964752  0.319938  1
  Tb  Tb3  1  0.750000  0.465618  0.182752  1
  Al  Al4  1  0.250000  0.134845  0.063434  1
  Al  Al5  1  0.250000  0.636540  0.439066  1
  Al  Al6  1  0.750000  0.860705  0.938378  1
  Al  Al7  1  0.750000  0.365552  0.561537  1
  Pt  Pt8  1  0.750000  0.232321  0.879377  1
  Rh  Rh9  1  0.250000  0.265818  0.381293  1
  Rh  Rh10  1  0.250000  0.764267  0.118220  1
  Rh  Rh11  1  0.750000  0.737394  0.618978  1
