# generated using pymatgen
data_CaCd7Ag5
_symmetry_space_group_name_H-M   'P 1'
_cell_length_a   7.53833009
_cell_length_b   7.53833016
_cell_length_c   7.53832943
_cell_angle_alpha   134.37168926
_cell_angle_beta   98.54801548
_cell_angle_gamma   98.74585230
_symmetry_Int_Tables_number   1
_chemical_formula_structural   CaCd7Ag5
_chemical_formula_sum   'Ca1 Cd7 Ag5'
_cell_volume   282.25489560
_cell_formula_units_Z   1
loop_
 _symmetry_equiv_pos_site_id
 _symmetry_equiv_pos_as_xyz
  1  'x, y, z'
loop_
 _atom_site_type_symbol
 _atom_site_label
 _atom_site_symmetry_multiplicity
 _atom_site_fract_x
 _atom_site_fract_y
 _atom_site_fract_z
 _atom_site_occupancy
  Ca  Ca0  1  0.004724  0.004724  0.000000  1
  Cd  Cd1  1  0.655729  0.655729  0.000000  1
  Cd  Cd2  1  0.345460  0.345460  0.000000  1
  Cd  Cd3  1  0.338608  0.995859  0.342749  1
  Cd  Cd4  1  0.653111  0.995859  0.657251  1
  Cd  Cd5  1  0.777882  0.277882  0.500000  1
  Cd  Cd6  1  0.793782  0.501810  0.291972  1
  Cd  Cd7  1  0.209838  0.501810  0.708028  1
  Ag  Ag8  1  0.499405  0.499229  0.499139  1
  Ag  Ag9  1  0.499405  0.000266  0.000176  1
  Ag  Ag10  1  0.000089  0.499229  0.999824  1
  Ag  Ag11  1  0.000089  0.000266  0.500861  1
  Ag  Ag12  1  0.221877  0.721877  0.500000  1
