# generated using pymatgen
data_Dy8In3Rh
_symmetry_space_group_name_H-M   'P 1'
_cell_length_a   10.45523000
_cell_length_b   10.45522982
_cell_length_c   7.04473900
_cell_angle_alpha   90.00000000
_cell_angle_beta   90.00000000
_cell_angle_gamma   120.00000689
_symmetry_Int_Tables_number   1
_chemical_formula_structural   Dy8In3Rh
_chemical_formula_sum   'Dy16 In6 Rh2'
_cell_volume   666.90301986
_cell_formula_units_Z   2
loop_
 _symmetry_equiv_pos_site_id
 _symmetry_equiv_pos_as_xyz
  1  'x, y, z'
loop_
 _atom_site_type_symbol
 _atom_site_label
 _atom_site_symmetry_multiplicity
 _atom_site_fract_x
 _atom_site_fract_y
 _atom_site_fract_z
 _atom_site_occupancy
  Dy  Dy0  1  0.532950  0.065898  0.514235  1
  Dy  Dy1  1  0.934102  0.467050  0.514235  1
  Dy  Dy2  1  0.532950  0.467050  0.514235  1
  Dy  Dy3  1  0.467050  0.934102  0.014235  1
  Dy  Dy4  1  0.065898  0.532950  0.014235  1
  Dy  Dy5  1  0.467050  0.532950  0.014235  1
  Dy  Dy6  1  0.175840  0.351680  0.721046  1
  Dy  Dy7  1  0.648320  0.824160  0.721046  1
  Dy  Dy8  1  0.175840  0.824160  0.721046  1
  Dy  Dy9  1  0.824160  0.648320  0.221046  1
  Dy  Dy10  1  0.351680  0.175840  0.221046  1
  Dy  Dy11  1  0.824160  0.175840  0.221046  1
  Dy  Dy12  1  0.666667  0.333333  0.895356  1
  Dy  Dy13  1  0.333333  0.666667  0.395356  1
  Dy  Dy14  1  0.000000  0.000000  0.500785  1
  Dy  Dy15  1  0.000000  0.000000  0.000785  1
  In  In16  1  0.836888  0.673776  0.760225  1
  In  In17  1  0.326224  0.163112  0.760225  1
  In  In18  1  0.836888  0.163112  0.760225  1
  In  In19  1  0.163112  0.326224  0.260225  1
  In  In20  1  0.673776  0.836888  0.260225  1
  In  In21  1  0.163112  0.836888  0.260225  1
  Rh  Rh22  1  0.666667  0.333333  0.289442  1
  Rh  Rh23  1  0.333333  0.666667  0.789442  1
