# generated using pymatgen
data_K(ZrSe2)2
_symmetry_space_group_name_H-M   'P 1'
_cell_length_a   6.58203800
_cell_length_b   7.61003000
_cell_length_c   16.61835100
_cell_angle_alpha   90.00000000
_cell_angle_beta   90.00000000
_cell_angle_gamma   90.00000000
_symmetry_Int_Tables_number   1
_chemical_formula_structural   K(ZrSe2)2
_chemical_formula_sum   'K4 Zr8 Se16'
_cell_volume   832.40500278
_cell_formula_units_Z   4
loop_
 _symmetry_equiv_pos_site_id
 _symmetry_equiv_pos_as_xyz
  1  'x, y, z'
loop_
 _atom_site_type_symbol
 _atom_site_label
 _atom_site_symmetry_multiplicity
 _atom_site_fract_x
 _atom_site_fract_y
 _atom_site_fract_z
 _atom_site_occupancy
  K  K0  1  0.340832  0.000000  0.000000  1
  K  K1  1  0.659168  0.500000  0.500000  1
  K  K2  1  0.030146  0.000000  0.500000  1
  K  K3  1  0.969854  0.500000  0.000000  1
  Zr  Zr4  1  0.000042  0.000000  0.249020  1
  Zr  Zr5  1  0.000042  0.000000  0.750980  1
  Zr  Zr6  1  0.999958  0.500000  0.250980  1
  Zr  Zr7  1  0.999958  0.500000  0.749020  1
  Zr  Zr8  1  0.500000  0.250000  0.250000  1
  Zr  Zr9  1  0.500000  0.750000  0.750000  1
  Zr  Zr10  1  0.500000  0.750000  0.250000  1
  Zr  Zr11  1  0.500000  0.250000  0.750000  1
  Se  Se12  1  0.833958  0.248714  0.348362  1
  Se  Se13  1  0.833958  0.751286  0.651638  1
  Se  Se14  1  0.166042  0.748714  0.151638  1
  Se  Se15  1  0.166042  0.251286  0.848362  1
  Se  Se16  1  0.166042  0.251286  0.151638  1
  Se  Se17  1  0.166042  0.748714  0.848362  1
  Se  Se18  1  0.833958  0.751286  0.348362  1
  Se  Se19  1  0.833958  0.248714  0.651638  1
  Se  Se20  1  0.668174  0.000000  0.152549  1
  Se  Se21  1  0.668174  0.000000  0.847451  1
  Se  Se22  1  0.331826  0.500000  0.347451  1
  Se  Se23  1  0.331826  0.500000  0.652549  1
  Se  Se24  1  0.335601  0.000000  0.346356  1
  Se  Se25  1  0.335601  0.000000  0.653644  1
  Se  Se26  1  0.664399  0.500000  0.153644  1
  Se  Se27  1  0.664399  0.500000  0.846356  1
