# generated using pymatgen
data_Fe6Mo6Os
_symmetry_space_group_name_H-M   'P 1'
_cell_length_a   9.24714377
_cell_length_b   9.24714380
_cell_length_c   9.24714326
_cell_angle_alpha   29.97743790
_cell_angle_beta   29.97743335
_cell_angle_gamma   29.97744080
_symmetry_Int_Tables_number   1
_chemical_formula_structural   Fe6Mo6Os
_chemical_formula_sum   'Fe6 Mo6 Os1'
_cell_volume   174.85675809
_cell_formula_units_Z   1
loop_
 _symmetry_equiv_pos_site_id
 _symmetry_equiv_pos_as_xyz
  1  'x, y, z'
loop_
 _atom_site_type_symbol
 _atom_site_label
 _atom_site_symmetry_multiplicity
 _atom_site_fract_x
 _atom_site_fract_y
 _atom_site_fract_z
 _atom_site_occupancy
  Fe  Fe0  1  0.582143  0.091983  0.091983  1
  Fe  Fe1  1  0.091983  0.091983  0.582143  1
  Fe  Fe2  1  0.908017  0.908017  0.417857  1
  Fe  Fe3  1  0.908017  0.417857  0.908017  1
  Fe  Fe4  1  0.091983  0.582143  0.091983  1
  Fe  Fe5  1  0.417857  0.908017  0.908017  1
  Mo  Mo6  1  0.349566  0.349566  0.349566  1
  Mo  Mo7  1  0.164353  0.164353  0.164353  1
  Mo  Mo8  1  0.548577  0.548577  0.548577  1
  Mo  Mo9  1  0.650434  0.650434  0.650434  1
  Mo  Mo10  1  0.451423  0.451423  0.451423  1
  Mo  Mo11  1  0.835647  0.835647  0.835647  1
  Os  Os12  1  0.000000  0.000000  0.000000  1
