# generated using pymatgen
data_Tm2Pa2Ge6Ir7
_symmetry_space_group_name_H-M   'P 1'
_cell_length_a   7.27282588
_cell_length_b   7.28968479
_cell_length_c   7.27280744
_cell_angle_alpha   109.38255435
_cell_angle_beta   109.44099702
_cell_angle_gamma   109.37219220
_symmetry_Int_Tables_number   1
_chemical_formula_structural   Tm2Pa2Ge6Ir7
_chemical_formula_sum   'Tm2 Pa2 Ge6 Ir7'
_cell_volume   297.61479801
_cell_formula_units_Z   1
loop_
 _symmetry_equiv_pos_site_id
 _symmetry_equiv_pos_as_xyz
  1  'x, y, z'
loop_
 _atom_site_type_symbol
 _atom_site_label
 _atom_site_symmetry_multiplicity
 _atom_site_fract_x
 _atom_site_fract_y
 _atom_site_fract_z
 _atom_site_occupancy
  Tm  Tm0  1  0.000000  0.000000  0.500000  1
  Tm  Tm1  1  0.500000  0.000000  0.000000  1
  Pa  Pa2  1  0.000000  0.500000  0.000000  1
  Pa  Pa3  1  0.500000  0.500000  0.500000  1
  Ge  Ge4  1  0.683446  0.688759  0.005273  1
  Ge  Ge5  1  0.315570  0.999928  0.315578  1
  Ge  Ge6  1  0.994760  0.311259  0.316577  1
  Ge  Ge7  1  0.316554  0.311241  0.994727  1
  Ge  Ge8  1  0.684430  0.000072  0.684422  1
  Ge  Ge9  1  0.005240  0.688741  0.683423  1
  Ir  Ir10  1  0.749385  0.251775  0.502290  1
  Ir  Ir11  1  0.749980  0.499971  0.249965  1
  Ir  Ir12  1  0.502309  0.251764  0.749386  1
  Ir  Ir13  1  0.250020  0.500029  0.750035  1
  Ir  Ir14  1  0.250615  0.748225  0.497710  1
  Ir  Ir15  1  0.497691  0.748236  0.250614  1
  Ir  Ir16  1  0.000000  0.000000  0.000000  1
