# generated using pymatgen
data_YEr3Zn4Pd3Ru
_symmetry_space_group_name_H-M   'P 1'
_cell_length_a   4.04476500
_cell_length_b   7.03562874
_cell_length_c   8.18822126
_cell_angle_alpha   89.68162445
_cell_angle_beta   90.00000000
_cell_angle_gamma   90.00000000
_symmetry_Int_Tables_number   1
_chemical_formula_structural   YEr3Zn4Pd3Ru
_chemical_formula_sum   'Y1 Er3 Zn4 Pd3 Ru1'
_cell_volume   233.01242150
_cell_formula_units_Z   1
loop_
 _symmetry_equiv_pos_site_id
 _symmetry_equiv_pos_as_xyz
  1  'x, y, z'
loop_
 _atom_site_type_symbol
 _atom_site_label
 _atom_site_symmetry_multiplicity
 _atom_site_fract_x
 _atom_site_fract_y
 _atom_site_fract_z
 _atom_site_occupancy
  Y  Y0  1  0.250000  0.543434  0.186570  1
  Er  Er1  1  0.250000  0.048724  0.320585  1
  Er  Er2  1  0.750000  0.964565  0.685244  1
  Er  Er3  1  0.750000  0.449690  0.804824  1
  Zn  Zn4  1  0.250000  0.631774  0.565995  1
  Zn  Zn5  1  0.250000  0.139040  0.931123  1
  Zn  Zn6  1  0.750000  0.360440  0.438085  1
  Zn  Zn7  1  0.750000  0.864247  0.066650  1
  Pd  Pd8  1  0.250000  0.754280  0.880330  1
  Pd  Pd9  1  0.750000  0.747955  0.380756  1
  Pd  Pd10  1  0.750000  0.246725  0.120579  1
  Ru  Ru11  1  0.250000  0.249126  0.619259  1
