# generated using pymatgen
data_Ac10Si16Ge
_symmetry_space_group_name_H-M   'P 1'
_cell_length_a   11.99464584
_cell_length_b   11.97468807
_cell_length_c   11.99464461
_cell_angle_alpha   145.17262880
_cell_angle_beta   134.94952196
_cell_angle_gamma   58.20572152
_symmetry_Int_Tables_number   1
_chemical_formula_structural   Ac10Si16Ge
_chemical_formula_sum   'Ac10 Si16 Ge1'
_cell_volume   690.31514743
_cell_formula_units_Z   1
loop_
 _symmetry_equiv_pos_site_id
 _symmetry_equiv_pos_as_xyz
  1  'x, y, z'
loop_
 _atom_site_type_symbol
 _atom_site_label
 _atom_site_symmetry_multiplicity
 _atom_site_fract_x
 _atom_site_fract_y
 _atom_site_fract_z
 _atom_site_occupancy
  Ac  Ac0  1  0.750657  0.763448  0.514401  1
  Ac  Ac1  1  0.448667  0.966545  0.015117  1
  Ac  Ac2  1  0.847811  0.364158  0.013392  1
  Ac  Ac3  1  0.951427  0.966545  0.517878  1
  Ac  Ac4  1  0.151570  0.163650  0.514607  1
  Ac  Ac5  1  0.350766  0.364158  0.516345  1
  Ac  Ac6  1  0.249047  0.763448  0.012792  1
  Ac  Ac7  1  0.548170  0.561642  0.510245  1
  Ac  Ac8  1  0.051397  0.561642  0.013472  1
  Ac  Ac9  1  0.649042  0.163650  0.012079  1
  Si  Si10  1  0.198119  0.618537  0.420416  1
  Si  Si11  1  0.999988  0.089218  0.089230  1
  Si  Si12  1  0.700565  0.294881  0.594317  1
  Si  Si13  1  0.801692  0.219465  0.417773  1
  Si  Si14  1  0.898136  0.500800  0.602665  1
  Si  Si15  1  0.403977  0.840330  0.436354  1
  Si  Si16  1  0.101497  0.705062  0.603565  1
  Si  Si17  1  0.299821  0.897787  0.597965  1
  Si  Si18  1  0.595458  0.033495  0.438037  1
  Si  Si19  1  0.999823  0.432133  0.432310  1
  Si  Si20  1  0.892996  0.831591  0.938595  1
  Si  Si21  1  0.400570  0.499963  0.099393  1
  Si  Si22  1  0.106711  0.047154  0.940443  1
  Si  Si23  1  0.298524  0.237327  0.938804  1
  Si  Si24  1  0.499673  0.420421  0.920748  1
  Si  Si25  1  0.598233  0.700840  0.102608  1
  Ge  Ge26  1  0.705661  0.653610  0.947949  1
