# generated using pymatgen
data_Y8CdIn2Au
_symmetry_space_group_name_H-M   'P 1'
_cell_length_a   10.65241284
_cell_length_b   10.65242301
_cell_length_c   7.01194400
_cell_angle_alpha   90.09889750
_cell_angle_beta   89.90119922
_cell_angle_gamma   119.83371800
_symmetry_Int_Tables_number   1
_chemical_formula_structural   Y8CdIn2Au
_chemical_formula_sum   'Y16 Cd2 In4 Au2'
_cell_volume   690.22367977
_cell_formula_units_Z   2
loop_
 _symmetry_equiv_pos_site_id
 _symmetry_equiv_pos_as_xyz
  1  'x, y, z'
loop_
 _atom_site_type_symbol
 _atom_site_label
 _atom_site_symmetry_multiplicity
 _atom_site_fract_x
 _atom_site_fract_y
 _atom_site_fract_z
 _atom_site_occupancy
  Y  Y0  1  0.522164  0.050828  0.519983  1
  Y  Y1  1  0.949186  0.477852  0.520034  1
  Y  Y2  1  0.527271  0.472721  0.519224  1
  Y  Y3  1  0.475972  0.946529  0.017336  1
  Y  Y4  1  0.053475  0.524054  0.017255  1
  Y  Y5  1  0.472025  0.527997  0.020705  1
  Y  Y6  1  0.174542  0.340539  0.730014  1
  Y  Y7  1  0.659491  0.825448  0.730017  1
  Y  Y8  1  0.169196  0.830866  0.735536  1
  Y  Y9  1  0.827864  0.654501  0.218986  1
  Y  Y10  1  0.345486  0.172158  0.218983  1
  Y  Y11  1  0.826584  0.173351  0.233196  1
  Y  Y12  1  0.664766  0.335276  0.875756  1
  Y  Y13  1  0.332839  0.667229  0.378984  1
  Y  Y14  1  0.000266  0.999760  0.495297  1
  Y  Y15  1  0.998123  0.001913  0.999684  1
  Cd  Cd16  1  0.836179  0.669581  0.761191  1
  Cd  Cd17  1  0.330443  0.163856  0.761187  1
  In  In18  1  0.835120  0.164681  0.757350  1
  In  In19  1  0.163194  0.327806  0.258139  1
  In  In20  1  0.672247  0.836660  0.258128  1
  In  In21  1  0.164099  0.835810  0.259349  1
  Au  Au22  1  0.666452  0.333586  0.285036  1
  Au  Au23  1  0.333016  0.666999  0.786635  1
