# generated using pymatgen
data_KTeRhO6
_symmetry_space_group_name_H-M   'P 1'
_cell_length_a   5.28262900
_cell_length_b   5.28262759
_cell_length_c   6.10463000
_cell_angle_alpha   90.00000000
_cell_angle_beta   90.00000000
_cell_angle_gamma   120.00001507
_symmetry_Int_Tables_number   1
_chemical_formula_structural   KTeRhO6
_chemical_formula_sum   'K1 Te1 Rh1 O6'
_cell_volume   147.53328720
_cell_formula_units_Z   1
loop_
 _symmetry_equiv_pos_site_id
 _symmetry_equiv_pos_as_xyz
  1  'x, y, z'
loop_
 _atom_site_type_symbol
 _atom_site_label
 _atom_site_symmetry_multiplicity
 _atom_site_fract_x
 _atom_site_fract_y
 _atom_site_fract_z
 _atom_site_occupancy
  K  K0  1  0.000000  0.000000  0.000000  1
  Te  Te1  1  0.666667  0.333333  0.500000  1
  Rh  Rh2  1  0.333333  0.666667  0.500000  1
  O  O3  1  0.387365  0.001705  0.682947  1
  O  O4  1  0.998295  0.385660  0.682947  1
  O  O5  1  0.614340  0.612635  0.682947  1
  O  O6  1  0.998295  0.612635  0.317053  1
  O  O7  1  0.614340  0.001705  0.317053  1
  O  O8  1  0.387365  0.385660  0.317053  1
