# generated using pymatgen
data_Ta4Si2Ru3Rh7
_symmetry_space_group_name_H-M   'P 1'
_cell_length_a   4.04600300
_cell_length_b   5.46139858
_cell_length_c   10.64379245
_cell_angle_alpha   90.21400427
_cell_angle_beta   90.00000000
_cell_angle_gamma   90.00000000
_symmetry_Int_Tables_number   1
_chemical_formula_structural   Ta4Si2Ru3Rh7
_chemical_formula_sum   'Ta4 Si2 Ru3 Rh7'
_cell_volume   235.19248543
_cell_formula_units_Z   1
loop_
 _symmetry_equiv_pos_site_id
 _symmetry_equiv_pos_as_xyz
  1  'x, y, z'
loop_
 _atom_site_type_symbol
 _atom_site_label
 _atom_site_symmetry_multiplicity
 _atom_site_fract_x
 _atom_site_fract_y
 _atom_site_fract_z
 _atom_site_occupancy
  Ta  Ta0  1  0.500000  0.822552  0.361547  1
  Ta  Ta1  1  0.500000  0.175492  0.640662  1
  Ta  Ta2  1  0.500000  0.323910  0.141572  1
  Ta  Ta3  1  0.500000  0.674507  0.856797  1
  Si  Si4  1  0.000000  0.497280  0.500750  1
  Si  Si5  1  0.000000  0.003527  0.998854  1
  Ru  Ru6  1  0.500000  0.187547  0.895802  1
  Ru  Ru7  1  0.500000  0.313669  0.394636  1
  Ru  Ru8  1  0.500000  0.684967  0.605099  1
  Rh  Rh9  1  0.000000  0.502410  0.000718  1
  Rh  Rh10  1  0.000000  0.997806  0.499498  1
  Rh  Rh11  1  0.000000  0.572605  0.258767  1
  Rh  Rh12  1  0.000000  0.427121  0.742030  1
  Rh  Rh13  1  0.000000  0.073219  0.240209  1
  Rh  Rh14  1  0.000000  0.927109  0.759217  1
  Rh  Rh15  1  0.500000  0.816280  0.103840  1
