# generated using pymatgen
data_Lu10In5Hg3Pt4
_symmetry_space_group_name_H-M   'P 1'
_cell_length_a   3.58148400
_cell_length_b   7.93446453
_cell_length_c   18.00908271
_cell_angle_alpha   90.17775748
_cell_angle_beta   90.00000000
_cell_angle_gamma   90.00000000
_symmetry_Int_Tables_number   1
_chemical_formula_structural   Lu10In5Hg3Pt4
_chemical_formula_sum   'Lu10 In5 Hg3 Pt4'
_cell_volume   511.76448145
_cell_formula_units_Z   1
loop_
 _symmetry_equiv_pos_site_id
 _symmetry_equiv_pos_as_xyz
  1  'x, y, z'
loop_
 _atom_site_type_symbol
 _atom_site_label
 _atom_site_symmetry_multiplicity
 _atom_site_fract_x
 _atom_site_fract_y
 _atom_site_fract_z
 _atom_site_occupancy
  Lu  Lu0  1  0.000000  0.109457  0.414784  1
  Lu  Lu1  1  0.000000  0.889703  0.586297  1
  Lu  Lu2  1  0.000000  0.390619  0.913505  1
  Lu  Lu3  1  0.000000  0.617259  0.085956  1
  Lu  Lu4  1  0.000000  0.248829  0.221161  1
  Lu  Lu5  1  0.000000  0.750071  0.782372  1
  Lu  Lu6  1  0.000000  0.250906  0.717509  1
  Lu  Lu7  1  0.000000  0.747524  0.281547  1
  Lu  Lu8  1  0.000000  0.996780  0.997655  1
  Lu  Lu9  1  0.000000  0.500598  0.499986  1
  In  In10  1  0.500000  0.423728  0.353676  1
  In  In11  1  0.500000  0.575747  0.646312  1
  In  In12  1  0.500000  0.075758  0.852816  1
  In  In13  1  0.500000  0.927874  0.146718  1
  In  In14  1  0.500000  0.291202  0.065260  1
  Hg  Hg15  1  0.500000  0.711169  0.936090  1
  Hg  Hg16  1  0.500000  0.213371  0.563288  1
  Hg  Hg17  1  0.500000  0.785758  0.436172  1
  Pt  Pt18  1  0.500000  0.032320  0.302364  1
  Pt  Pt19  1  0.500000  0.964956  0.698508  1
  Pt  Pt20  1  0.500000  0.464743  0.801266  1
  Pt  Pt21  1  0.500000  0.531627  0.196759  1
