# generated using pymatgen
data_MnV(PdPt)3
_symmetry_space_group_name_H-M   'P 1'
_cell_length_a   3.89860200
_cell_length_b   3.94184700
_cell_length_c   7.84531500
_cell_angle_alpha   90.00000000
_cell_angle_beta   90.00000000
_cell_angle_gamma   90.00000000
_symmetry_Int_Tables_number   1
_chemical_formula_structural   MnV(PdPt)3
_chemical_formula_sum   'Mn1 V1 Pd3 Pt3'
_cell_volume   120.56438925
_cell_formula_units_Z   1
loop_
 _symmetry_equiv_pos_site_id
 _symmetry_equiv_pos_as_xyz
  1  'x, y, z'
loop_
 _atom_site_type_symbol
 _atom_site_label
 _atom_site_symmetry_multiplicity
 _atom_site_fract_x
 _atom_site_fract_y
 _atom_site_fract_z
 _atom_site_occupancy
  Mn  Mn0  1  0.000000  0.000000  0.000000  1
  V  V1  1  0.000000  0.000000  0.500000  1
  Pd  Pd2  1  0.500000  0.500000  0.000000  1
  Pd  Pd3  1  0.000000  0.500000  0.254810  1
  Pd  Pd4  1  0.000000  0.500000  0.745190  1
  Pt  Pt5  1  0.500000  0.500000  0.500000  1
  Pt  Pt6  1  0.500000  0.000000  0.257528  1
  Pt  Pt7  1  0.500000  0.000000  0.742472  1
