# generated using pymatgen
data_YbCo(Sb4Ru)3
_symmetry_space_group_name_H-M   'P 1'
_cell_length_a   8.07399030
_cell_length_b   8.07399079
_cell_length_c   8.12432600
_cell_angle_alpha   109.59756026
_cell_angle_beta   109.59756149
_cell_angle_gamma   109.34459069
_symmetry_Int_Tables_number   1
_chemical_formula_structural   YbCo(Sb4Ru)3
_chemical_formula_sum   'Yb1 Co1 Sb12 Ru3'
_cell_volume   407.06368857
_cell_formula_units_Z   1
loop_
 _symmetry_equiv_pos_site_id
 _symmetry_equiv_pos_as_xyz
  1  'x, y, z'
loop_
 _atom_site_type_symbol
 _atom_site_label
 _atom_site_symmetry_multiplicity
 _atom_site_fract_x
 _atom_site_fract_y
 _atom_site_fract_z
 _atom_site_occupancy
  Yb  Yb0  1  0.000000  0.000000  0.000000  1
  Co  Co1  1  0.000000  0.000000  0.500000  1
  Sb  Sb2  1  0.153876  0.822032  0.657913  1
  Sb  Sb3  1  0.846124  0.177968  0.342087  1
  Sb  Sb4  1  0.843204  0.503190  0.660652  1
  Sb  Sb5  1  0.156796  0.496810  0.339348  1
  Sb  Sb6  1  0.822032  0.668157  0.164120  1
  Sb  Sb7  1  0.177968  0.331843  0.835880  1
  Sb  Sb8  1  0.503190  0.659986  0.842538  1
  Sb  Sb9  1  0.496810  0.340014  0.157462  1
  Sb  Sb10  1  0.659986  0.156796  0.817448  1
  Sb  Sb11  1  0.340014  0.843204  0.182552  1
  Sb  Sb12  1  0.668157  0.846124  0.504037  1
  Sb  Sb13  1  0.331843  0.153876  0.495963  1
  Ru  Ru14  1  0.500000  0.000000  0.000000  1
  Ru  Ru15  1  0.000000  0.500000  0.000000  1
  Ru  Ru16  1  0.500000  0.500000  0.500000  1
