# generated using pymatgen
data_Tm4Mg(Ga2Pt)10
_symmetry_space_group_name_H-M   'P 1'
_cell_length_a   4.08001147
_cell_length_b   11.10516182
_cell_length_c   13.84366163
_cell_angle_alpha   82.45694970
_cell_angle_beta   81.52602816
_cell_angle_gamma   79.41472393
_symmetry_Int_Tables_number   1
_chemical_formula_structural   Tm4Mg(Ga2Pt)10
_chemical_formula_sum   'Tm4 Mg1 Ga20 Pt10'
_cell_volume   606.32722641
_cell_formula_units_Z   1
loop_
 _symmetry_equiv_pos_site_id
 _symmetry_equiv_pos_as_xyz
  1  'x, y, z'
loop_
 _atom_site_type_symbol
 _atom_site_label
 _atom_site_symmetry_multiplicity
 _atom_site_fract_x
 _atom_site_fract_y
 _atom_site_fract_z
 _atom_site_occupancy
  Tm  Tm0  1  0.126094  0.082747  0.665064  1
  Tm  Tm1  1  0.873906  0.917253  0.334936  1
  Tm  Tm2  1  0.771731  0.632374  0.824163  1
  Tm  Tm3  1  0.228269  0.367626  0.175837  1
  Mg  Mg4  1  0.500000  0.500000  0.500000  1
  Ga  Ga5  1  0.012195  0.065875  0.909736  1
  Ga  Ga6  1  0.987805  0.934125  0.090264  1
  Ga  Ga7  1  0.063347  0.672580  0.200725  1
  Ga  Ga8  1  0.936653  0.327420  0.799275  1
  Ga  Ga9  1  0.110487  0.328590  0.450436  1
  Ga  Ga10  1  0.889513  0.671410  0.549564  1
  Ga  Ga11  1  0.202347  0.602843  0.992463  1
  Ga  Ga12  1  0.797653  0.397157  0.007537  1
  Ga  Ga13  1  0.259151  0.779404  0.702293  1
  Ga  Ga14  1  0.740849  0.220596  0.297707  1
  Ga  Ga15  1  0.302862  0.900356  0.493920  1
  Ga  Ga16  1  0.697138  0.099644  0.506080  1
  Ga  Ga17  1  0.385176  0.523291  0.706356  1
  Ga  Ga18  1  0.614824  0.476709  0.293644  1
  Ga  Ga19  1  0.398343  0.205276  0.998038  1
  Ga  Ga20  1  0.601657  0.794724  0.001962  1
  Ga  Ga21  1  0.544843  0.275962  0.634353  1
  Ga  Ga22  1  0.455157  0.724038  0.365647  1
  Ga  Ga23  1  0.636301  0.934475  0.792924  1
  Ga  Ga24  1  0.363699  0.065525  0.207076  1
  Pt  Pt25  1  0.024642  0.569963  0.380753  1
  Pt  Pt26  1  0.975358  0.430037  0.619247  1
  Pt  Pt27  1  0.140167  0.830973  0.888692  1
  Pt  Pt28  1  0.859833  0.169027  0.111308  1
  Pt  Pt29  1  0.244322  0.121672  0.389682  1
  Pt  Pt30  1  0.755678  0.878328  0.610318  1
  Pt  Pt31  1  0.345739  0.419246  0.889277  1
  Pt  Pt32  1  0.654261  0.580754  0.110723  1
  Pt  Pt33  1  0.506640  0.169902  0.816818  1
  Pt  Pt34  1  0.493360  0.830098  0.183182  1
