# generated using pymatgen
data_NaCa12Sn3N4
_symmetry_space_group_name_H-M   'P 1'
_cell_length_a   7.00106447
_cell_length_b   7.00011400
_cell_length_c   9.84155500
_cell_angle_alpha   90.00000000
_cell_angle_beta   90.00000000
_cell_angle_gamma   89.97901313
_symmetry_Int_Tables_number   1
_chemical_formula_structural   NaCa12Sn3N4
_chemical_formula_sum   'Na1 Ca12 Sn3 N4'
_cell_volume   482.31734960
_cell_formula_units_Z   1
loop_
 _symmetry_equiv_pos_site_id
 _symmetry_equiv_pos_as_xyz
  1  'x, y, z'
loop_
 _atom_site_type_symbol
 _atom_site_label
 _atom_site_symmetry_multiplicity
 _atom_site_fract_x
 _atom_site_fract_y
 _atom_site_fract_z
 _atom_site_occupancy
  Na  Na0  1  0.999864  0.000152  0.250000  1
  Ca  Ca1  1  0.003465  0.499647  0.250000  1
  Ca  Ca2  1  0.497801  0.000588  0.250000  1
  Ca  Ca3  1  0.503352  0.999454  0.750000  1
  Ca  Ca4  1  0.997180  0.500560  0.750000  1
  Ca  Ca5  1  0.741640  0.258353  0.990359  1
  Ca  Ca6  1  0.744846  0.744859  0.509732  1
  Ca  Ca7  1  0.254610  0.254587  0.986614  1
  Ca  Ca8  1  0.257927  0.742050  0.512112  1
  Ca  Ca9  1  0.257927  0.742050  0.987888  1
  Ca  Ca10  1  0.254610  0.254587  0.513386  1
  Ca  Ca11  1  0.744846  0.744859  0.990268  1
  Ca  Ca12  1  0.741640  0.258353  0.509641  1
  Sn  Sn13  1  0.999835  0.999811  0.750000  1
  Sn  Sn14  1  0.500682  0.500052  0.750000  1
  Sn  Sn15  1  0.499791  0.500155  0.250000  1
  N  N16  1  0.499903  0.000014  0.496059  1
  N  N17  1  0.000090  0.499928  0.003953  1
  N  N18  1  0.000090  0.499928  0.496047  1
  N  N19  1  0.499903  0.000014  0.003941  1
