# generated using pymatgen
data_HfZr9(Sn3Ge)2
_symmetry_space_group_name_H-M   'P 1'
_cell_length_a   8.71220100
_cell_length_b   8.71220091
_cell_length_c   5.92741500
_cell_angle_alpha   90.00000000
_cell_angle_beta   90.00000000
_cell_angle_gamma   120.00000413
_symmetry_Int_Tables_number   1
_chemical_formula_structural   HfZr9(Sn3Ge)2
_chemical_formula_sum   'Hf1 Zr9 Sn6 Ge2'
_cell_volume   389.62939774
_cell_formula_units_Z   1
loop_
 _symmetry_equiv_pos_site_id
 _symmetry_equiv_pos_as_xyz
  1  'x, y, z'
loop_
 _atom_site_type_symbol
 _atom_site_label
 _atom_site_symmetry_multiplicity
 _atom_site_fract_x
 _atom_site_fract_y
 _atom_site_fract_z
 _atom_site_occupancy
  Hf  Hf0  1  0.666667  0.333333  0.000000  1
  Zr  Zr1  1  0.333333  0.666667  0.000000  1
  Zr  Zr2  1  0.333333  0.666667  0.500000  1
  Zr  Zr3  1  0.666667  0.333333  0.500000  1
  Zr  Zr4  1  0.736390  0.735998  0.749782  1
  Zr  Zr5  1  0.264002  0.000392  0.749782  1
  Zr  Zr6  1  0.999608  0.263610  0.749782  1
  Zr  Zr7  1  0.264002  0.263610  0.250218  1
  Zr  Zr8  1  0.736390  0.000392  0.250218  1
  Zr  Zr9  1  0.999608  0.735998  0.250218  1
  Sn  Sn10  1  0.391968  0.391338  0.750854  1
  Sn  Sn11  1  0.608662  0.000630  0.750854  1
  Sn  Sn12  1  0.999370  0.608032  0.750854  1
  Sn  Sn13  1  0.608662  0.608032  0.249146  1
  Sn  Sn14  1  0.391968  0.000630  0.249146  1
  Sn  Sn15  1  0.999370  0.391338  0.249146  1
  Ge  Ge16  1  0.000000  0.000000  0.000000  1
  Ge  Ge17  1  0.000000  0.000000  0.500000  1
