# generated using pymatgen
data_Hf4Fe3Co(Ni2P3)2
_symmetry_space_group_name_H-M   'P 1'
_cell_length_a   12.03571097
_cell_length_b   12.10778122
_cell_length_c   3.64876100
_cell_angle_alpha   90.00000000
_cell_angle_beta   90.00000000
_cell_angle_gamma   119.86314699
_symmetry_Int_Tables_number   1
_chemical_formula_structural   Hf4Fe3Co(Ni2P3)2
_chemical_formula_sum   'Hf8 Fe6 Co2 Ni8 P12'
_cell_volume   461.11538750
_cell_formula_units_Z   2
loop_
 _symmetry_equiv_pos_site_id
 _symmetry_equiv_pos_as_xyz
  1  'x, y, z'
loop_
 _atom_site_type_symbol
 _atom_site_label
 _atom_site_symmetry_multiplicity
 _atom_site_fract_x
 _atom_site_fract_y
 _atom_site_fract_z
 _atom_site_occupancy
  Hf  Hf0  1  0.822453  0.825245  0.500000  1
  Hf  Hf1  1  0.444557  0.445573  0.000000  1
  Hf  Hf2  1  0.997943  0.176371  0.500000  1
  Hf  Hf3  1  0.554966  0.000936  0.000000  1
  Hf  Hf4  1  0.334783  0.666801  0.000000  1
  Hf  Hf5  1  0.670980  0.331589  0.000000  1
  Hf  Hf6  1  0.000910  0.555011  0.000000  1
  Hf  Hf7  1  0.176417  0.003645  0.500000  1
  Fe  Fe8  1  0.624123  0.819467  0.000000  1
  Fe  Fe9  1  0.374598  0.196868  0.000000  1
  Fe  Fe10  1  0.999592  0.723373  0.500000  1
  Fe  Fe11  1  0.275416  0.279392  0.500000  1
  Fe  Fe12  1  0.878559  0.350999  0.500000  1
  Fe  Fe13  1  0.722009  0.000351  0.500000  1
  Co  Co14  1  0.188682  0.371932  0.000000  1
  Co  Co15  1  0.805040  0.175809  0.000000  1
  Ni  Ni16  1  0.817169  0.626038  0.000000  1
  Ni  Ni17  1  0.183616  0.812108  0.000000  1
  Ni  Ni18  1  0.357907  0.872333  0.500000  1
  Ni  Ni19  1  0.130314  0.485413  0.500000  1
  Ni  Ni20  1  0.643319  0.511453  0.500000  1
  Ni  Ni21  1  0.000098  0.000833  0.000000  1
  Ni  Ni22  1  0.516534  0.644626  0.500000  1
  Ni  Ni23  1  0.483978  0.129005  0.500000  1
  P  P24  1  0.993930  0.342145  0.000000  1
  P  P25  1  0.829936  0.512436  0.500000  1
  P  P26  1  0.694145  0.172132  0.500000  1
  P  P27  1  0.177698  0.178097  0.000000  1
  P  P28  1  0.653274  0.655665  0.000000  1
  P  P29  1  0.820645  0.997537  0.000000  1
  P  P30  1  0.523526  0.830894  0.500000  1
  P  P31  1  0.172758  0.690946  0.500000  1
  P  P32  1  0.346622  0.004988  0.000000  1
  P  P33  1  0.476764  0.307323  0.500000  1
  P  P34  1  0.998952  0.823847  0.000000  1
  P  P35  1  0.307783  0.478819  0.500000  1
