# generated using pymatgen
data_TbFe2CuNi2P3
_symmetry_space_group_name_H-M   'P 1'
_cell_length_a   3.73374100
_cell_length_b   10.30155700
_cell_length_c   11.98761700
_cell_angle_alpha   90.00000000
_cell_angle_beta   90.00000000
_cell_angle_gamma   90.00000000
_symmetry_Int_Tables_number   1
_chemical_formula_structural   TbFe2CuNi2P3
_chemical_formula_sum   'Tb4 Fe8 Cu4 Ni8 P12'
_cell_volume   461.08385721
_cell_formula_units_Z   4
loop_
 _symmetry_equiv_pos_site_id
 _symmetry_equiv_pos_as_xyz
  1  'x, y, z'
loop_
 _atom_site_type_symbol
 _atom_site_label
 _atom_site_symmetry_multiplicity
 _atom_site_fract_x
 _atom_site_fract_y
 _atom_site_fract_z
 _atom_site_occupancy
  Tb  Tb0  1  0.250000  0.576567  0.705503  1
  Tb  Tb1  1  0.250000  0.923433  0.205503  1
  Tb  Tb2  1  0.750000  0.423433  0.294497  1
  Tb  Tb3  1  0.750000  0.076567  0.794497  1
  Fe  Fe4  1  0.250000  0.870172  0.702923  1
  Fe  Fe5  1  0.250000  0.629828  0.202923  1
  Fe  Fe6  1  0.750000  0.129828  0.297077  1
  Fe  Fe7  1  0.750000  0.370172  0.797077  1
  Fe  Fe8  1  0.250000  0.460124  0.933134  1
  Fe  Fe9  1  0.250000  0.039876  0.433134  1
  Fe  Fe10  1  0.750000  0.539876  0.066866  1
  Fe  Fe11  1  0.750000  0.960124  0.566866  1
  Cu  Cu12  1  0.250000  0.709459  0.992627  1
  Cu  Cu13  1  0.250000  0.790541  0.492627  1
  Cu  Cu14  1  0.750000  0.290541  0.007373  1
  Cu  Cu15  1  0.750000  0.209459  0.507373  1
  Ni  Ni16  1  0.250000  0.407845  0.484991  1
  Ni  Ni17  1  0.250000  0.092155  0.984991  1
  Ni  Ni18  1  0.750000  0.592155  0.515009  1
  Ni  Ni19  1  0.750000  0.907845  0.015009  1
  Ni  Ni20  1  0.250000  0.229226  0.167925  1
  Ni  Ni21  1  0.250000  0.270774  0.667925  1
  Ni  Ni22  1  0.750000  0.770774  0.832075  1
  Ni  Ni23  1  0.750000  0.729226  0.332075  1
  P  P24  1  0.250000  0.438914  0.114393  1
  P  P25  1  0.250000  0.061086  0.614393  1
  P  P26  1  0.750000  0.561086  0.885607  1
  P  P27  1  0.750000  0.938914  0.385607  1
  P  P28  1  0.250000  0.270274  0.856569  1
  P  P29  1  0.250000  0.229726  0.356569  1
  P  P30  1  0.750000  0.729726  0.143431  1
  P  P31  1  0.750000  0.770274  0.643431  1
  P  P32  1  0.250000  0.603704  0.389241  1
  P  P33  1  0.250000  0.896296  0.889241  1
  P  P34  1  0.750000  0.396296  0.610759  1
  P  P35  1  0.750000  0.103704  0.110759  1
