# generated using pymatgen
data_HfSc3Pa3Ni10
_symmetry_space_group_name_H-M   'P 1'
_cell_length_a   7.75056852
_cell_length_b   7.75056682
_cell_length_c   9.29205537
_cell_angle_alpha   89.95025464
_cell_angle_beta   89.95025378
_cell_angle_gamma   105.83378501
_symmetry_Int_Tables_number   1
_chemical_formula_structural   HfSc3Pa3Ni10
_chemical_formula_sum   'Hf2 Sc6 Pa6 Ni20'
_cell_volume   537.00618966
_cell_formula_units_Z   2
loop_
 _symmetry_equiv_pos_site_id
 _symmetry_equiv_pos_as_xyz
  1  'x, y, z'
loop_
 _atom_site_type_symbol
 _atom_site_label
 _atom_site_symmetry_multiplicity
 _atom_site_fract_x
 _atom_site_fract_y
 _atom_site_fract_z
 _atom_site_occupancy
  Hf  Hf0  1  0.193052  0.193052  0.693991  1
  Hf  Hf1  1  0.806948  0.806948  0.306009  1
  Sc  Sc2  1  0.005228  0.501138  0.250043  1
  Sc  Sc3  1  0.994772  0.498862  0.749957  1
  Sc  Sc4  1  0.498862  0.994772  0.749957  1
  Sc  Sc5  1  0.501138  0.005228  0.250043  1
  Sc  Sc6  1  0.305034  0.305034  0.196292  1
  Sc  Sc7  1  0.694966  0.694966  0.803708  1
  Pa  Pa8  1  0.688111  0.311889  0.000000  1
  Pa  Pa9  1  0.311889  0.688111  0.000000  1
  Pa  Pa10  1  0.809890  0.190110  0.500000  1
  Pa  Pa11  1  0.190110  0.809890  0.500000  1
  Pa  Pa12  1  0.000000  0.000000  0.000000  1
  Pa  Pa13  1  0.500000  0.500000  0.500000  1
  Ni  Ni14  1  0.863986  0.147828  0.207008  1
  Ni  Ni15  1  0.136014  0.852172  0.792992  1
  Ni  Ni16  1  0.632329  0.347608  0.706620  1
  Ni  Ni17  1  0.652392  0.367671  0.293380  1
  Ni  Ni18  1  0.367671  0.652392  0.293380  1
  Ni  Ni19  1  0.347608  0.632329  0.706620  1
  Ni  Ni20  1  0.852172  0.136014  0.792992  1
  Ni  Ni21  1  0.147828  0.863986  0.207008  1
  Ni  Ni22  1  0.936426  0.651348  0.008423  1
  Ni  Ni23  1  0.063574  0.348652  0.991577  1
  Ni  Ni24  1  0.565195  0.849950  0.504704  1
  Ni  Ni25  1  0.150050  0.434805  0.495296  1
  Ni  Ni26  1  0.434805  0.150050  0.495296  1
  Ni  Ni27  1  0.849950  0.565195  0.504704  1
  Ni  Ni28  1  0.348652  0.063574  0.991577  1
  Ni  Ni29  1  0.651348  0.936426  0.008423  1
  Ni  Ni30  1  0.101379  0.101379  0.399592  1
  Ni  Ni31  1  0.898621  0.898621  0.600408  1
  Ni  Ni32  1  0.393659  0.393659  0.895227  1
  Ni  Ni33  1  0.606341  0.606341  0.104773  1
