# generated using pymatgen
data_Ca12Gd8Si15Pt
_symmetry_space_group_name_H-M   'P 1'
_cell_length_a   7.78150811
_cell_length_b   7.76131874
_cell_length_c   14.71261300
_cell_angle_alpha   89.78814450
_cell_angle_beta   89.53878712
_cell_angle_gamma   90.04595274
_symmetry_Int_Tables_number   1
_chemical_formula_structural   Ca12Gd8Si15Pt
_chemical_formula_sum   'Ca12 Gd8 Si15 Pt1'
_cell_volume   888.52963103
_cell_formula_units_Z   1
loop_
 _symmetry_equiv_pos_site_id
 _symmetry_equiv_pos_as_xyz
  1  'x, y, z'
loop_
 _atom_site_type_symbol
 _atom_site_label
 _atom_site_symmetry_multiplicity
 _atom_site_fract_x
 _atom_site_fract_y
 _atom_site_fract_z
 _atom_site_occupancy
  Ca  Ca0  1  0.317620  0.312931  0.000942  1
  Ca  Ca1  1  0.185027  0.811514  0.249750  1
  Ca  Ca2  1  0.817083  0.190156  0.748493  1
  Ca  Ca3  1  0.684720  0.683464  0.499626  1
  Ca  Ca4  1  0.366097  0.007812  0.452248  1
  Ca  Ca5  1  0.490257  0.869007  0.704197  1
  Ca  Ca6  1  0.510604  0.132938  0.206741  1
  Ca  Ca7  1  0.865061  0.487539  0.292713  1
  Ca  Ca8  1  0.132313  0.512913  0.795860  1
  Ca  Ca9  1  0.635677  0.992975  0.957037  1
  Ca  Ca10  1  0.004596  0.360653  0.542315  1
  Ca  Ca11  1  0.992488  0.632362  0.045455  1
  Gd  Gd12  1  0.139503  0.993928  0.874626  1
  Gd  Gd13  1  0.510354  0.633522  0.124277  1
  Gd  Gd14  1  0.484651  0.358886  0.626954  1
  Gd  Gd15  1  0.638276  0.510409  0.876298  1
  Gd  Gd16  1  0.364561  0.488866  0.375869  1
  Gd  Gd17  1  0.863666  0.008336  0.373996  1
  Gd  Gd18  1  0.991612  0.133671  0.125858  1
  Gd  Gd19  1  0.011402  0.876009  0.622074  1
  Si  Si20  1  0.349763  0.707906  0.943093  1
  Si  Si21  1  0.649220  0.292161  0.442913  1
  Si  Si22  1  0.711177  0.350294  0.058718  1
  Si  Si23  1  0.288662  0.651463  0.557285  1
  Si  Si24  1  0.792042  0.849007  0.193179  1
  Si  Si25  1  0.151105  0.205515  0.306261  1
  Si  Si26  1  0.852793  0.798157  0.803441  1
  Si  Si27  1  0.279357  0.919911  0.057194  1
  Si  Si28  1  0.577477  0.778042  0.306866  1
  Si  Si29  1  0.431580  0.215429  0.812775  1
  Si  Si30  1  0.776342  0.581831  0.692221  1
  Si  Si31  1  0.222163  0.420726  0.193250  1
  Si  Si32  1  0.706349  0.072262  0.555737  1
  Si  Si33  1  0.924869  0.281029  0.943797  1
  Si  Si34  1  0.076383  0.719223  0.442943  1
  Pt  Pt35  1  0.205152  0.159148  0.694996  1
