# generated using pymatgen
data_Nd5Y5(InSb)4
_symmetry_space_group_name_H-M   'P 1'
_cell_length_a   9.23761908
_cell_length_b   8.60665064
_cell_length_c   8.26549235
_cell_angle_alpha   90.25261447
_cell_angle_beta   90.06888416
_cell_angle_gamma   125.19668903
_symmetry_Int_Tables_number   1
_chemical_formula_structural   Nd5Y5(InSb)4
_chemical_formula_sum   'Nd5 Y5 In4 Sb4'
_cell_volume   536.99587626
_cell_formula_units_Z   1
loop_
 _symmetry_equiv_pos_site_id
 _symmetry_equiv_pos_as_xyz
  1  'x, y, z'
loop_
 _atom_site_type_symbol
 _atom_site_label
 _atom_site_symmetry_multiplicity
 _atom_site_fract_x
 _atom_site_fract_y
 _atom_site_fract_z
 _atom_site_occupancy
  Nd  Nd0  1  0.052406  0.347649  0.322614  1
  Nd  Nd1  1  0.946774  0.651075  0.677582  1
  Nd  Nd2  1  0.448460  0.151155  0.819082  1
  Nd  Nd3  1  0.783851  0.515861  0.162240  1
  Nd  Nd4  1  0.552753  0.851038  0.180706  1
  Y  Y5  1  0.218459  0.485608  0.839590  1
  Y  Y6  1  0.717996  0.981113  0.660655  1
  Y  Y7  1  0.278908  0.015568  0.338663  1
  Y  Y8  1  0.002454  0.001804  0.998355  1
  Y  Y9  1  0.498439  0.498947  0.501746  1
  In  In10  1  0.371030  0.376779  0.127938  1
  In  In11  1  0.626262  0.624870  0.871371  1
  In  In12  1  0.128056  0.125466  0.628579  1
  In  In13  1  0.872673  0.877260  0.372900  1
  Sb  Sb14  1  0.820595  0.224155  0.967181  1
  Sb  Sb15  1  0.185619  0.777307  0.027374  1
  Sb  Sb16  1  0.676783  0.266057  0.473265  1
  Sb  Sb17  1  0.318482  0.728286  0.530161  1
