# generated using pymatgen
data_Dy4HoInGa2
_symmetry_space_group_name_H-M   'P 1'
_cell_length_a   7.74203400
_cell_length_b   7.74203400
_cell_length_c   14.35866800
_cell_angle_alpha   90.00000000
_cell_angle_beta   90.00000000
_cell_angle_gamma   90.00000000
_symmetry_Int_Tables_number   1
_chemical_formula_structural   Dy4HoInGa2
_chemical_formula_sum   'Dy16 Ho4 In4 Ga8'
_cell_volume   860.64550010
_cell_formula_units_Z   4
loop_
 _symmetry_equiv_pos_site_id
 _symmetry_equiv_pos_as_xyz
  1  'x, y, z'
loop_
 _atom_site_type_symbol
 _atom_site_label
 _atom_site_symmetry_multiplicity
 _atom_site_fract_x
 _atom_site_fract_y
 _atom_site_fract_z
 _atom_site_occupancy
  Dy  Dy0  1  0.673516  0.660970  0.605914  1
  Dy  Dy1  1  0.673516  0.339030  0.105914  1
  Dy  Dy2  1  0.826484  0.839030  0.394086  1
  Dy  Dy3  1  0.173516  0.839030  0.894086  1
  Dy  Dy4  1  0.326484  0.339030  0.605914  1
  Dy  Dy5  1  0.326484  0.660970  0.105914  1
  Dy  Dy6  1  0.173516  0.160970  0.394086  1
  Dy  Dy7  1  0.826484  0.160970  0.894086  1
  Dy  Dy8  1  0.660970  0.326484  0.394086  1
  Dy  Dy9  1  0.339030  0.326484  0.894086  1
  Dy  Dy10  1  0.160970  0.826484  0.605914  1
  Dy  Dy11  1  0.839030  0.826484  0.105914  1
  Dy  Dy12  1  0.339030  0.673516  0.394086  1
  Dy  Dy13  1  0.660970  0.673516  0.894086  1
  Dy  Dy14  1  0.839030  0.173516  0.605914  1
  Dy  Dy15  1  0.160970  0.173516  0.105914  1
  Ho  Ho16  1  0.000000  0.500000  0.760170  1
  Ho  Ho17  1  0.000000  0.500000  0.260170  1
  Ho  Ho18  1  0.500000  0.000000  0.239830  1
  Ho  Ho19  1  0.500000  0.000000  0.739830  1
  In  In20  1  0.000000  0.500000  0.496091  1
  In  In21  1  0.000000  0.500000  0.996091  1
  In  In22  1  0.500000  0.000000  0.503909  1
  In  In23  1  0.500000  0.000000  0.003909  1
  Ga  Ga24  1  0.876037  0.876037  0.750000  1
  Ga  Ga25  1  0.876037  0.123963  0.250000  1
  Ga  Ga26  1  0.623963  0.623963  0.250000  1
  Ga  Ga27  1  0.376037  0.623963  0.750000  1
  Ga  Ga28  1  0.123963  0.123963  0.750000  1
  Ga  Ga29  1  0.123963  0.876037  0.250000  1
  Ga  Ga30  1  0.376037  0.376037  0.250000  1
  Ga  Ga31  1  0.623963  0.376037  0.750000  1
