# generated using pymatgen
data_DyY5(Lu2In3)2
_symmetry_space_group_name_H-M   'P 1'
_cell_length_a   9.09116008
_cell_length_b   9.09116015
_cell_length_c   9.09562372
_cell_angle_alpha   96.47903374
_cell_angle_beta   96.45585435
_cell_angle_gamma   140.76989448
_symmetry_Int_Tables_number   1
_chemical_formula_structural   DyY5(Lu2In3)2
_chemical_formula_sum   'Dy1 Y5 Lu4 In6'
_cell_volume   447.86973006
_cell_formula_units_Z   1
loop_
 _symmetry_equiv_pos_site_id
 _symmetry_equiv_pos_as_xyz
  1  'x, y, z'
loop_
 _atom_site_type_symbol
 _atom_site_label
 _atom_site_symmetry_multiplicity
 _atom_site_fract_x
 _atom_site_fract_y
 _atom_site_fract_z
 _atom_site_occupancy
  Dy  Dy0  1  0.080522  0.781042  0.861563  1
  Y  Y1  1  0.717022  0.417157  0.134179  1
  Y  Y2  1  0.281333  0.580968  0.862301  1
  Y  Y3  1  0.582190  0.718001  0.300190  1
  Y  Y4  1  0.218058  0.082556  0.300613  1
  Y  Y5  1  0.917518  0.216782  0.134300  1
  Lu  Lu6  1  0.750731  0.250923  0.501299  1
  Lu  Lu7  1  0.250377  0.750568  0.501299  1
  Lu  Lu8  1  0.784381  0.917897  0.702279  1
  Lu  Lu9  1  0.417946  0.284327  0.702273  1
  In  In10  1  0.839226  0.662344  0.501570  1
  In  In11  1  0.339603  0.841126  0.180730  1
  In  In12  1  0.749041  0.748071  0.998672  1
  In  In13  1  0.660640  0.158980  0.819620  1
  In  In14  1  0.160808  0.339629  0.500436  1
  In  In15  1  0.250602  0.249632  0.998672  1
