# generated using pymatgen
data_Tm3PaGa2Rh3
_symmetry_space_group_name_H-M   'P 1'
_cell_length_a   7.28060755
_cell_length_b   7.28060781
_cell_length_c   4.03649900
_cell_angle_alpha   90.00000000
_cell_angle_beta   90.00000000
_cell_angle_gamma   120.63614685
_symmetry_Int_Tables_number   1
_chemical_formula_structural   Tm3PaGa2Rh3
_chemical_formula_sum   'Tm3 Pa1 Ga2 Rh3'
_cell_volume   184.09880252
_cell_formula_units_Z   1
loop_
 _symmetry_equiv_pos_site_id
 _symmetry_equiv_pos_as_xyz
  1  'x, y, z'
loop_
 _atom_site_type_symbol
 _atom_site_label
 _atom_site_symmetry_multiplicity
 _atom_site_fract_x
 _atom_site_fract_y
 _atom_site_fract_z
 _atom_site_occupancy
  Tm  Tm0  1  0.967177  0.410889  0.500000  1
  Tm  Tm1  1  0.632501  0.632501  0.500000  1
  Tm  Tm2  1  0.410889  0.967177  0.500000  1
  Pa  Pa3  1  0.261971  0.261971  0.000000  1
  Ga  Ga4  1  0.004467  0.745343  0.000000  1
  Ga  Ga5  1  0.745343  0.004467  0.000000  1
  Rh  Rh6  1  0.326091  0.643771  0.000000  1
  Rh  Rh7  1  0.007792  0.007792  0.500000  1
  Rh  Rh8  1  0.643771  0.326091  0.000000  1
