# generated using pymatgen
data_Pr2Nd6Zn8PdRh7
_symmetry_space_group_name_H-M   'P 1'
_cell_length_a   4.03203900
_cell_length_b   7.36233383
_cell_length_c   16.67394588
_cell_angle_alpha   90.13927120
_cell_angle_beta   90.00000000
_cell_angle_gamma   90.00000000
_symmetry_Int_Tables_number   1
_chemical_formula_structural   Pr2Nd6Zn8PdRh7
_chemical_formula_sum   'Pr2 Nd6 Zn8 Pd1 Rh7'
_cell_volume   494.96824172
_cell_formula_units_Z   1
loop_
 _symmetry_equiv_pos_site_id
 _symmetry_equiv_pos_as_xyz
  1  'x, y, z'
loop_
 _atom_site_type_symbol
 _atom_site_label
 _atom_site_symmetry_multiplicity
 _atom_site_fract_x
 _atom_site_fract_y
 _atom_site_fract_z
 _atom_site_occupancy
  Pr  Pr0  1  0.750000  0.327984  0.440131  1
  Pr  Pr1  1  0.750000  0.954629  0.279897  1
  Nd  Nd2  1  0.250000  0.168987  0.939434  1
  Nd  Nd3  1  0.250000  0.667182  0.565470  1
  Nd  Nd4  1  0.750000  0.830714  0.059447  1
  Nd  Nd5  1  0.750000  0.450062  0.214370  1
  Nd  Nd6  1  0.250000  0.049982  0.716811  1
  Nd  Nd7  1  0.250000  0.548480  0.785350  1
  Zn  Zn8  1  0.750000  0.003959  0.563423  1
  Zn  Zn9  1  0.250000  0.619759  0.345317  1
  Zn  Zn10  1  0.750000  0.377584  0.652497  1
  Zn  Zn11  1  0.250000  0.499018  0.059682  1
  Zn  Zn12  1  0.750000  0.500652  0.940252  1
  Zn  Zn13  1  0.250000  0.000161  0.440231  1
  Zn  Zn14  1  0.250000  0.123835  0.148997  1
  Zn  Zn15  1  0.750000  0.877666  0.849074  1
  Pd  Pd16  1  0.750000  0.755538  0.434247  1
  Rh  Rh17  1  0.250000  0.245408  0.313759  1
  Rh  Rh18  1  0.750000  0.254407  0.813651  1
  Rh  Rh19  1  0.750000  0.756069  0.685924  1
  Rh  Rh20  1  0.250000  0.245340  0.566063  1
  Rh  Rh21  1  0.250000  0.743273  0.186584  1
  Rh  Rh22  1  0.750000  0.254591  0.064803  1
  Rh  Rh23  1  0.250000  0.744718  0.934585  1
