# generated using pymatgen
data_Dy15YCdNi4Ag3
_symmetry_space_group_name_H-M   'P 1'
_cell_length_a   9.46752038
_cell_length_b   9.47854639
_cell_length_c   9.48185900
_cell_angle_alpha   59.98818418
_cell_angle_beta   59.94971602
_cell_angle_gamma   59.94198295
_symmetry_Int_Tables_number   1
_chemical_formula_structural   Dy15YCdNi4Ag3
_chemical_formula_sum   'Dy15 Y1 Cd1 Ni4 Ag3'
_cell_volume   601.12085870
_cell_formula_units_Z   1
loop_
 _symmetry_equiv_pos_site_id
 _symmetry_equiv_pos_as_xyz
  1  'x, y, z'
loop_
 _atom_site_type_symbol
 _atom_site_label
 _atom_site_symmetry_multiplicity
 _atom_site_fract_x
 _atom_site_fract_y
 _atom_site_fract_z
 _atom_site_occupancy
  Dy  Dy0  1  0.600335  0.598968  0.598986  1
  Dy  Dy1  1  0.600337  0.598969  0.201709  1
  Dy  Dy2  1  0.600647  0.201666  0.598844  1
  Dy  Dy3  1  0.197557  0.601104  0.600671  1
  Dy  Dy4  1  0.060725  0.439088  0.438649  1
  Dy  Dy5  1  0.438128  0.061499  0.061684  1
  Dy  Dy6  1  0.438129  0.061500  0.438687  1
  Dy  Dy7  1  0.060725  0.439088  0.061538  1
  Dy  Dy8  1  0.437969  0.439034  0.061499  1
  Dy  Dy9  1  0.060892  0.061603  0.438751  1
  Dy  Dy10  1  0.183179  0.814233  0.814659  1
  Dy  Dy11  1  0.814273  0.185610  0.185830  1
  Dy  Dy12  1  0.814274  0.185609  0.814288  1
  Dy  Dy13  1  0.183179  0.814231  0.187931  1
  Dy  Dy14  1  0.815001  0.814437  0.185281  1
  Y  Y15  1  0.183101  0.187228  0.814835  1
  Cd  Cd16  1  0.514557  0.828290  0.828576  1
  Ni  Ni17  1  0.392216  0.393054  0.393222  1
  Ni  Ni18  1  0.392217  0.393054  0.821507  1
  Ni  Ni19  1  0.392249  0.821359  0.393197  1
  Ni  Ni20  1  0.822446  0.392492  0.392532  1
  Ag  Ag21  1  0.832816  0.832716  0.832691  1
  Ag  Ag22  1  0.832816  0.832716  0.501777  1
  Ag  Ag23  1  0.832233  0.502453  0.832657  1
