# generated using pymatgen
data_La9Nd3Sn4(GeRh2)4
_symmetry_space_group_name_H-M   'P 1'
_cell_length_a   5.81295473
_cell_length_b   8.51231693
_cell_length_c   13.78967700
_cell_angle_alpha   90.00000000
_cell_angle_beta   90.00000000
_cell_angle_gamma   90.11064066
_symmetry_Int_Tables_number   1
_chemical_formula_structural   La9Nd3Sn4(GeRh2)4
_chemical_formula_sum   'La9 Nd3 Sn4 Ge4 Rh8'
_cell_volume   682.33556758
_cell_formula_units_Z   1
loop_
 _symmetry_equiv_pos_site_id
 _symmetry_equiv_pos_as_xyz
  1  'x, y, z'
loop_
 _atom_site_type_symbol
 _atom_site_label
 _atom_site_symmetry_multiplicity
 _atom_site_fract_x
 _atom_site_fract_y
 _atom_site_fract_z
 _atom_site_occupancy
  La  La0  1  0.650296  0.253146  0.250000  1
  La  La1  1  0.164758  0.396717  0.099539  1
  La  La2  1  0.834138  0.603469  0.899675  1
  La  La3  1  0.834138  0.603469  0.600325  1
  La  La4  1  0.834827  0.896174  0.399925  1
  La  La5  1  0.164758  0.396717  0.400461  1
  La  La6  1  0.164558  0.102890  0.600079  1
  La  La7  1  0.164558  0.102890  0.899921  1
  La  La8  1  0.834827  0.896174  0.100075  1
  Nd  Nd9  1  0.348631  0.748022  0.750000  1
  Nd  Nd10  1  0.349930  0.751438  0.250000  1
  Nd  Nd11  1  0.651896  0.246326  0.750000  1
  Sn  Sn12  1  0.661379  0.250120  0.998782  1
  Sn  Sn13  1  0.336723  0.750236  0.999603  1
  Sn  Sn14  1  0.336723  0.750236  0.500397  1
  Sn  Sn15  1  0.661379  0.250120  0.501218  1
  Ge  Ge16  1  0.150615  0.100758  0.250000  1
  Ge  Ge17  1  0.850225  0.895321  0.750000  1
  Ge  Ge18  1  0.852944  0.607035  0.250000  1
  Ge  Ge19  1  0.151681  0.394656  0.750000  1
  Rh  Rh20  1  0.380818  0.039627  0.096091  1
  Rh  Rh21  1  0.619495  0.960447  0.902758  1
  Rh  Rh22  1  0.619495  0.960447  0.597242  1
  Rh  Rh23  1  0.620711  0.540629  0.403589  1
  Rh  Rh24  1  0.380818  0.039627  0.403909  1
  Rh  Rh25  1  0.379483  0.461341  0.596592  1
  Rh  Rh26  1  0.379483  0.461341  0.903408  1
  Rh  Rh27  1  0.620711  0.540629  0.096411  1
