# generated using pymatgen
data_Tb18Ho2Ir7Au5
_symmetry_space_group_name_H-M   'P 1'
_cell_length_a   11.23784615
_cell_length_b   11.23784766
_cell_length_c   6.33543222
_cell_angle_alpha   90.02091639
_cell_angle_beta   90.02092207
_cell_angle_gamma   89.53339531
_symmetry_Int_Tables_number   1
_chemical_formula_structural   Tb18Ho2Ir7Au5
_chemical_formula_sum   'Tb18 Ho2 Ir7 Au5'
_cell_volume   800.07004940
_cell_formula_units_Z   1
loop_
 _symmetry_equiv_pos_site_id
 _symmetry_equiv_pos_as_xyz
  1  'x, y, z'
loop_
 _atom_site_type_symbol
 _atom_site_label
 _atom_site_symmetry_multiplicity
 _atom_site_fract_x
 _atom_site_fract_y
 _atom_site_fract_z
 _atom_site_occupancy
  Tb  Tb0  1  0.299957  0.091237  0.363226  1
  Tb  Tb1  1  0.301495  0.907038  0.863066  1
  Tb  Tb2  1  0.697782  0.080771  0.857874  1
  Tb  Tb3  1  0.697714  0.905498  0.360737  1
  Tb  Tb4  1  0.580929  0.784353  0.876513  1
  Tb  Tb5  1  0.576184  0.206728  0.361350  1
  Tb  Tb6  1  0.417298  0.788078  0.376475  1
  Tb  Tb7  1  0.410774  0.208147  0.875418  1
  Tb  Tb8  1  0.215647  0.419071  0.623487  1
  Tb  Tb9  1  0.211922  0.582702  0.123525  1
  Tb  Tb10  1  0.793272  0.423816  0.138650  1
  Tb  Tb11  1  0.791853  0.589226  0.624582  1
  Tb  Tb12  1  0.908763  0.700043  0.136774  1
  Tb  Tb13  1  0.919229  0.302218  0.642126  1
  Tb  Tb14  1  0.092962  0.698505  0.636934  1
  Tb  Tb15  1  0.094502  0.302286  0.139263  1
  Tb  Tb16  1  0.998500  0.000969  0.499211  1
  Tb  Tb17  1  0.999031  0.001500  0.000789  1
  Ho  Ho18  1  0.496000  0.501933  0.001196  1
  Ho  Ho19  1  0.498067  0.504000  0.498804  1
  Ir  Ir20  1  0.653333  0.650660  0.250976  1
  Ir  Ir21  1  0.349340  0.346667  0.249024  1
  Ir  Ir22  1  0.345753  0.654247  0.750000  1
  Ir  Ir23  1  0.499388  0.999135  0.110109  1
  Ir  Ir24  1  0.499101  0.000382  0.611044  1
  Ir  Ir25  1  0.999618  0.500899  0.888956  1
  Ir  Ir26  1  0.000865  0.500612  0.389891  1
  Au  Au27  1  0.841306  0.158694  0.250000  1
  Au  Au28  1  0.843432  0.845774  0.750772  1
  Au  Au29  1  0.154226  0.156568  0.749228  1
  Au  Au30  1  0.155749  0.844251  0.250000  1
  Au  Au31  1  0.656006  0.343994  0.750000  1
