# generated using pymatgen
data_Er5TaCrO12
_symmetry_space_group_name_H-M   'P 1'
_cell_length_a   6.77972989
_cell_length_b   6.77973103
_cell_length_c   7.24486067
_cell_angle_alpha   74.37854720
_cell_angle_beta   74.37854983
_cell_angle_gamma   51.15749581
_symmetry_Int_Tables_number   1
_chemical_formula_structural   Er5TaCrO12
_chemical_formula_sum   'Er5 Ta1 Cr1 O12'
_cell_volume   247.54302558
_cell_formula_units_Z   1
loop_
 _symmetry_equiv_pos_site_id
 _symmetry_equiv_pos_as_xyz
  1  'x, y, z'
loop_
 _atom_site_type_symbol
 _atom_site_label
 _atom_site_symmetry_multiplicity
 _atom_site_fract_x
 _atom_site_fract_y
 _atom_site_fract_z
 _atom_site_occupancy
  Er  Er0  1  0.294135  0.309082  0.360847  1
  Er  Er1  1  0.690918  0.705865  0.639153  1
  Er  Er2  1  0.303257  0.313091  0.828961  1
  Er  Er3  1  0.686909  0.696743  0.171039  1
  Er  Er4  1  0.002656  0.997344  0.500000  1
  Ta  Ta5  1  0.774058  0.225942  0.000000  1
  Cr  Cr6  1  0.258649  0.741351  0.000000  1
  O  O7  1  0.899205  0.435651  0.916152  1
  O  O8  1  0.420162  0.901510  0.916875  1
  O  O9  1  0.098490  0.579838  0.083125  1
  O  O10  1  0.564349  0.100795  0.083848  1
  O  O11  1  0.092728  0.600028  0.573291  1
  O  O12  1  0.593006  0.101728  0.575066  1
  O  O13  1  0.898272  0.406994  0.424934  1
  O  O14  1  0.399972  0.907272  0.426709  1
  O  O15  1  0.008556  0.990710  0.811779  1
  O  O16  1  0.009290  0.991444  0.188221  1
  O  O17  1  0.502364  0.496976  0.813431  1
  O  O18  1  0.503024  0.497636  0.186569  1
