# generated using pymatgen
data_Yb4Ga17SiIr6
_symmetry_space_group_name_H-M   'P 1'
_cell_length_a   7.53089670
_cell_length_b   7.51843064
_cell_length_c   9.62660172
_cell_angle_alpha   89.96659870
_cell_angle_beta   89.99100021
_cell_angle_gamma   119.57262061
_symmetry_Int_Tables_number   1
_chemical_formula_structural   Yb4Ga17SiIr6
_chemical_formula_sum   'Yb4 Ga17 Si1 Ir6'
_cell_volume   474.05817911
_cell_formula_units_Z   1
loop_
 _symmetry_equiv_pos_site_id
 _symmetry_equiv_pos_as_xyz
  1  'x, y, z'
loop_
 _atom_site_type_symbol
 _atom_site_label
 _atom_site_symmetry_multiplicity
 _atom_site_fract_x
 _atom_site_fract_y
 _atom_site_fract_z
 _atom_site_occupancy
  Yb  Yb0  1  0.997244  0.666907  0.249444  1
  Yb  Yb1  1  0.002542  0.330136  0.749121  1
  Yb  Yb2  1  0.672344  0.000694  0.249730  1
  Yb  Yb3  1  0.329831  0.002181  0.749311  1
  Ga  Ga4  1  0.128476  0.129358  0.250664  1
  Ga  Ga5  1  0.872845  0.873066  0.750537  1
  Ga  Ga6  1  0.998635  0.670512  0.923134  1
  Ga  Ga7  1  0.999450  0.665577  0.575820  1
  Ga  Ga8  1  0.334239  0.000109  0.423545  1
  Ga  Ga9  1  0.000042  0.334782  0.424550  1
  Ga  Ga10  1  0.664494  0.998677  0.576085  1
  Ga  Ga11  1  0.659185  0.993722  0.923145  1
  Ga  Ga12  1  0.334509  0.999218  0.076349  1
  Ga  Ga13  1  0.333402  0.332896  0.563364  1
  Ga  Ga14  1  0.667306  0.667541  0.436068  1
  Ga  Ga15  1  0.667704  0.668060  0.064197  1
  Ga  Ga16  1  0.339074  0.333240  0.936404  1
  Ga  Ga17  1  0.335504  0.544002  0.250883  1
  Ga  Ga18  1  0.663832  0.453753  0.751434  1
  Ga  Ga19  1  0.545360  0.336571  0.250605  1
  Ga  Ga20  1  0.453577  0.662977  0.750363  1
  Si  Si21  1  0.002645  0.335104  0.067740  1
  Ir  Ir22  1  0.684830  0.329432  0.004588  1
  Ir  Ir23  1  0.314892  0.657709  0.000948  1
  Ir  Ir24  1  0.327926  0.670848  0.499979  1
  Ir  Ir25  1  0.671322  0.328455  0.500995  1
  Ir  Ir26  1  0.999333  0.014166  0.000915  1
  Ir  Ir27  1  0.999457  0.000311  0.500082  1
