# generated using pymatgen
data_Nd9Pu(In2Ru3)2
_symmetry_space_group_name_H-M   'P 1'
_cell_length_a   8.74055748
_cell_length_b   8.74055714
_cell_length_c   8.74055700
_cell_angle_alpha   109.52560730
_cell_angle_beta   109.52561347
_cell_angle_gamma   109.52561101
_symmetry_Int_Tables_number   1
_chemical_formula_structural   Nd9Pu(In2Ru3)2
_chemical_formula_sum   'Nd9 Pu1 In4 Ru6'
_cell_volume   513.00053935
_cell_formula_units_Z   1
loop_
 _symmetry_equiv_pos_site_id
 _symmetry_equiv_pos_as_xyz
  1  'x, y, z'
loop_
 _atom_site_type_symbol
 _atom_site_label
 _atom_site_symmetry_multiplicity
 _atom_site_fract_x
 _atom_site_fract_y
 _atom_site_fract_z
 _atom_site_occupancy
  Nd  Nd0  1  0.473747  0.152874  0.222621  1
  Nd  Nd1  1  0.152874  0.222621  0.473747  1
  Nd  Nd2  1  0.222621  0.473747  0.152874  1
  Nd  Nd3  1  0.415114  0.698276  0.908785  1
  Nd  Nd4  1  0.698276  0.908785  0.415114  1
  Nd  Nd5  1  0.908785  0.415114  0.698276  1
  Nd  Nd6  1  0.658136  0.086339  0.839592  1
  Nd  Nd7  1  0.086339  0.839592  0.658136  1
  Nd  Nd8  1  0.839592  0.658136  0.086339  1
  Pu  Pu9  1  0.589334  0.589334  0.589334  1
  In  In10  1  0.412867  0.314932  0.912739  1
  In  In11  1  0.314932  0.912739  0.412867  1
  In  In12  1  0.912739  0.412867  0.314932  1
  In  In13  1  0.992086  0.992086  0.992086  1
  Ru  Ru14  1  0.026701  0.161916  0.776709  1
  Ru  Ru15  1  0.161916  0.776709  0.026701  1
  Ru  Ru16  1  0.776709  0.026701  0.161916  1
  Ru  Ru17  1  0.656155  0.540729  0.310346  1
  Ru  Ru18  1  0.540729  0.310346  0.656155  1
  Ru  Ru19  1  0.310346  0.656155  0.540729  1
