# generated using pymatgen
data_Dy4VFe2Os5
_symmetry_space_group_name_H-M   'P 1'
_cell_length_a   5.21576098
_cell_length_b   5.18741720
_cell_length_c   8.82368000
_cell_angle_alpha   90.00000000
_cell_angle_beta   90.00000000
_cell_angle_gamma   117.63965697
_symmetry_Int_Tables_number   1
_chemical_formula_structural   Dy4VFe2Os5
_chemical_formula_sum   'Dy4 V1 Fe2 Os5'
_cell_volume   211.49243073
_cell_formula_units_Z   1
loop_
 _symmetry_equiv_pos_site_id
 _symmetry_equiv_pos_as_xyz
  1  'x, y, z'
loop_
 _atom_site_type_symbol
 _atom_site_label
 _atom_site_symmetry_multiplicity
 _atom_site_fract_x
 _atom_site_fract_y
 _atom_site_fract_z
 _atom_site_occupancy
  Dy  Dy0  1  0.327206  0.667451  0.439118  1
  Dy  Dy1  1  0.666832  0.331627  0.566112  1
  Dy  Dy2  1  0.666832  0.331627  0.933888  1
  Dy  Dy3  1  0.327206  0.667451  0.060882  1
  V  V4  1  0.835651  0.162546  0.250000  1
  Fe  Fe5  1  0.175843  0.837870  0.750000  1
  Fe  Fe6  1  0.178088  0.343244  0.750000  1
  Os  Os7  1  0.995248  0.000909  0.506155  1
  Os  Os8  1  0.995248  0.000909  0.993845  1
  Os  Os9  1  0.825300  0.654251  0.250000  1
  Os  Os10  1  0.346166  0.173143  0.250000  1
  Os  Os11  1  0.660382  0.828973  0.750000  1
