# generated using pymatgen
data_LuSc23Se12
_symmetry_space_group_name_H-M   'P 1'
_cell_length_a   3.70729600
_cell_length_b   12.75544038
_cell_length_c   15.85669121
_cell_angle_alpha   90.11351333
_cell_angle_beta   90.00000000
_cell_angle_gamma   90.00000000
_symmetry_Int_Tables_number   1
_chemical_formula_structural   LuSc23Se12
_chemical_formula_sum   'Lu1 Sc23 Se12'
_cell_volume   749.83280427
_cell_formula_units_Z   1
loop_
 _symmetry_equiv_pos_site_id
 _symmetry_equiv_pos_as_xyz
  1  'x, y, z'
loop_
 _atom_site_type_symbol
 _atom_site_label
 _atom_site_symmetry_multiplicity
 _atom_site_fract_x
 _atom_site_fract_y
 _atom_site_fract_z
 _atom_site_occupancy
  Lu  Lu0  1  0.500000  0.380773  0.083983  1
  Sc  Sc1  1  0.000000  0.841301  0.979479  1
  Sc  Sc2  1  0.000000  0.157336  0.020812  1
  Sc  Sc3  1  0.500000  0.340411  0.520177  1
  Sc  Sc4  1  0.500000  0.659033  0.479227  1
  Sc  Sc5  1  0.000000  0.908875  0.742779  1
  Sc  Sc6  1  0.000000  0.090386  0.259257  1
  Sc  Sc7  1  0.500000  0.409462  0.756332  1
  Sc  Sc8  1  0.500000  0.592081  0.242241  1
  Sc  Sc9  1  0.000000  0.422123  0.920828  1
  Sc  Sc10  1  0.000000  0.582045  0.074677  1
  Sc  Sc11  1  0.500000  0.921095  0.576000  1
  Sc  Sc12  1  0.500000  0.078557  0.425447  1
  Sc  Sc13  1  0.000000  0.524339  0.600368  1
  Sc  Sc14  1  0.000000  0.475170  0.399265  1
  Sc  Sc15  1  0.500000  0.024717  0.899622  1
  Sc  Sc16  1  0.500000  0.974307  0.101683  1
  Sc  Sc17  1  0.000000  0.193822  0.794079  1
  Sc  Sc18  1  0.000000  0.806798  0.206463  1
  Sc  Sc19  1  0.500000  0.694004  0.705875  1
  Sc  Sc20  1  0.500000  0.306662  0.294752  1
  Sc  Sc21  1  0.000000  0.117388  0.589129  1
  Sc  Sc22  1  0.000000  0.881744  0.412568  1
  Sc  Sc23  1  0.500000  0.618331  0.910971  1
  Se  Se24  1  0.000000  0.565195  0.783328  1
  Se  Se25  1  0.000000  0.437062  0.216980  1
  Se  Se26  1  0.500000  0.064103  0.716650  1
  Se  Se27  1  0.500000  0.935519  0.285277  1
  Se  Se28  1  0.000000  0.759050  0.589028  1
  Se  Se29  1  0.000000  0.240059  0.410284  1
  Se  Se30  1  0.500000  0.258874  0.911418  1
  Se  Se31  1  0.500000  0.742330  0.089286  1
  Se  Se32  1  0.000000  0.315798  0.652325  1
  Se  Se33  1  0.000000  0.683962  0.347327  1
  Se  Se34  1  0.500000  0.816270  0.847333  1
  Se  Se35  1  0.500000  0.181015  0.154750  1
