# generated using pymatgen
data_Th2Ga2(SiPt)3
_symmetry_space_group_name_H-M   'P 1'
_cell_length_a   8.41287522
_cell_length_b   8.41287411
_cell_length_c   8.41287440
_cell_angle_alpha   137.31116491
_cell_angle_beta   106.20615002
_cell_angle_gamma   89.18975991
_symmetry_Int_Tables_number   1
_chemical_formula_structural   Th2Ga2(SiPt)3
_chemical_formula_sum   'Th4 Ga4 Si6 Pt6'
_cell_volume   370.61355004
_cell_formula_units_Z   2
loop_
 _symmetry_equiv_pos_site_id
 _symmetry_equiv_pos_as_xyz
  1  'x, y, z'
loop_
 _atom_site_type_symbol
 _atom_site_label
 _atom_site_symmetry_multiplicity
 _atom_site_fract_x
 _atom_site_fract_y
 _atom_site_fract_z
 _atom_site_occupancy
  Th  Th0  1  0.636628  0.369287  0.267341  1
  Th  Th1  1  0.363372  0.630713  0.732659  1
  Th  Th2  1  0.101944  0.869287  0.232659  1
  Th  Th3  1  0.898056  0.130713  0.767341  1
  Ga  Ga4  1  0.269102  0.519102  0.250000  1
  Ga  Ga5  1  0.730898  0.480898  0.750000  1
  Ga  Ga6  1  0.730898  0.980898  0.250000  1
  Ga  Ga7  1  0.269102  0.019102  0.750000  1
  Si  Si8  1  0.462780  0.110417  0.352363  1
  Si  Si9  1  0.537220  0.889583  0.647637  1
  Si  Si10  1  0.758054  0.610417  0.147637  1
  Si  Si11  1  0.241946  0.389583  0.852363  1
  Si  Si12  1  0.000000  0.250000  0.250000  1
  Si  Si13  1  0.000000  0.750000  0.750000  1
  Pt  Pt14  1  0.244090  0.127953  0.116136  1
  Pt  Pt15  1  0.755910  0.872047  0.883864  1
  Pt  Pt16  1  0.011816  0.627953  0.383864  1
  Pt  Pt17  1  0.988184  0.372047  0.616136  1
  Pt  Pt18  1  0.500000  0.250000  0.750000  1
  Pt  Pt19  1  0.500000  0.750000  0.250000  1
