# generated using pymatgen
data_Nd2MgCoO6
_symmetry_space_group_name_H-M   'P 1'
_cell_length_a   5.43087787
_cell_length_b   5.50574000
_cell_length_c   7.71249665
_cell_angle_alpha   90.00000000
_cell_angle_beta   90.09502969
_cell_angle_gamma   90.00000000
_symmetry_Int_Tables_number   1
_chemical_formula_structural   Nd2MgCoO6
_chemical_formula_sum   'Nd4 Mg2 Co2 O12'
_cell_volume   230.61105685
_cell_formula_units_Z   2
loop_
 _symmetry_equiv_pos_site_id
 _symmetry_equiv_pos_as_xyz
  1  'x, y, z'
loop_
 _atom_site_type_symbol
 _atom_site_label
 _atom_site_symmetry_multiplicity
 _atom_site_fract_x
 _atom_site_fract_y
 _atom_site_fract_z
 _atom_site_occupancy
  Nd  Nd0  1  0.010943  0.954031  0.750326  1
  Nd  Nd1  1  0.489057  0.454031  0.749674  1
  Nd  Nd2  1  0.510943  0.545969  0.250326  1
  Nd  Nd3  1  0.989057  0.045969  0.249674  1
  Mg  Mg4  1  0.500000  0.000000  0.500000  1
  Mg  Mg5  1  0.000000  0.500000  0.000000  1
  Co  Co6  1  0.000000  0.500000  0.500000  1
  Co  Co7  1  0.500000  0.000000  0.000000  1
  O  O8  1  0.722284  0.295742  0.458244  1
  O  O9  1  0.777716  0.795742  0.041756  1
  O  O10  1  0.201002  0.224256  0.541784  1
  O  O11  1  0.298998  0.724256  0.958216  1
  O  O12  1  0.277716  0.704258  0.541756  1
  O  O13  1  0.222284  0.204258  0.958244  1
  O  O14  1  0.798998  0.775744  0.458216  1
  O  O15  1  0.701002  0.275744  0.041784  1
  O  O16  1  0.077536  0.483642  0.259931  1
  O  O17  1  0.422464  0.983642  0.240069  1
  O  O18  1  0.577536  0.016358  0.759931  1
  O  O19  1  0.922464  0.516358  0.740069  1
