# generated using pymatgen
data_NaMn5FeO12
_symmetry_space_group_name_H-M   'P 1'
_cell_length_a   8.24626007
_cell_length_b   8.24626099
_cell_length_c   9.82699700
_cell_angle_alpha   54.08844097
_cell_angle_beta   54.08843632
_cell_angle_gamma   65.14978985
_symmetry_Int_Tables_number   1
_chemical_formula_structural   NaMn5FeO12
_chemical_formula_sum   'Na2 Mn10 Fe2 O24'
_cell_volume   435.38234778
_cell_formula_units_Z   2
loop_
 _symmetry_equiv_pos_site_id
 _symmetry_equiv_pos_as_xyz
  1  'x, y, z'
loop_
 _atom_site_type_symbol
 _atom_site_label
 _atom_site_symmetry_multiplicity
 _atom_site_fract_x
 _atom_site_fract_y
 _atom_site_fract_z
 _atom_site_occupancy
  Na  Na0  1  0.765784  0.238400  0.004819  1
  Na  Na1  1  0.241307  0.759758  0.000699  1
  Mn  Mn2  1  0.667807  0.000924  0.819537  1
  Mn  Mn3  1  0.998226  0.331202  0.181563  1
  Mn  Mn4  1  0.666874  0.666187  0.181333  1
  Mn  Mn5  1  0.330814  0.999140  0.182542  1
  Mn  Mn6  1  0.147039  0.149681  0.519584  1
  Mn  Mn7  1  0.483139  0.816061  0.518076  1
  Mn  Mn8  1  0.816185  0.481198  0.517754  1
  Mn  Mn9  1  0.852257  0.850844  0.477023  1
  Mn  Mn10  1  0.185848  0.518387  0.475494  1
  Mn  Mn11  1  0.516418  0.185524  0.479539  1
  Fe  Fe12  1  0.332851  0.335754  0.816334  1
  Fe  Fe13  1  0.003236  0.668353  0.814465  1
  O  O14  1  0.340170  0.342689  0.609696  1
  O  O15  1  0.008540  0.674176  0.608510  1
  O  O16  1  0.673587  0.006028  0.616056  1
  O  O17  1  0.992947  0.325352  0.385124  1
  O  O18  1  0.657728  0.657957  0.385906  1
  O  O19  1  0.324230  0.992244  0.385993  1
  O  O20  1  0.345529  0.341728  0.354229  1
  O  O21  1  0.011813  0.679137  0.350015  1
  O  O22  1  0.677894  0.014408  0.352214  1
  O  O23  1  0.990227  0.326157  0.641237  1
  O  O24  1  0.659737  0.658582  0.638757  1
  O  O25  1  0.324453  0.990097  0.643216  1
  O  O26  1  0.630272  0.289241  0.713254  1
  O  O27  1  0.296444  0.629937  0.711935  1
  O  O28  1  0.955408  0.964625  0.712450  1
  O  O29  1  0.707311  0.378066  0.283949  1
  O  O30  1  0.377264  0.709668  0.285206  1
  O  O31  1  0.043577  0.040992  0.284523  1
  O  O32  1  0.959769  0.623804  0.064332  1
  O  O33  1  0.628870  0.965359  0.053684  1
  O  O34  1  0.289321  0.289413  0.064576  1
  O  O35  1  0.375271  0.025044  0.953880  1
  O  O36  1  0.026768  0.363771  0.958978  1
  O  O37  1  0.695085  0.710110  0.953517  1
