# generated using pymatgen
data_Tb3Tm5(AlIr)2
_symmetry_space_group_name_H-M   'P 1'
_cell_length_a   9.48171656
_cell_length_b   9.48171738
_cell_length_c   9.48171700
_cell_angle_alpha   59.99999784
_cell_angle_beta   59.99999499
_cell_angle_gamma   60.00000354
_symmetry_Int_Tables_number   1
_chemical_formula_structural   Tb3Tm5(AlIr)2
_chemical_formula_sum   'Tb6 Tm10 Al4 Ir4'
_cell_volume   602.76212330
_cell_formula_units_Z   2
loop_
 _symmetry_equiv_pos_site_id
 _symmetry_equiv_pos_as_xyz
  1  'x, y, z'
loop_
 _atom_site_type_symbol
 _atom_site_label
 _atom_site_symmetry_multiplicity
 _atom_site_fract_x
 _atom_site_fract_y
 _atom_site_fract_z
 _atom_site_occupancy
  Tb  Tb0  1  0.189134  0.810866  0.810866  1
  Tb  Tb1  1  0.810866  0.189134  0.189134  1
  Tb  Tb2  1  0.810866  0.189134  0.810866  1
  Tb  Tb3  1  0.189134  0.810866  0.189134  1
  Tb  Tb4  1  0.810866  0.810866  0.189134  1
  Tb  Tb5  1  0.189134  0.189134  0.810866  1
  Tm  Tm6  1  0.600999  0.600999  0.600999  1
  Tm  Tm7  1  0.600999  0.600999  0.197002  1
  Tm  Tm8  1  0.600999  0.197002  0.600999  1
  Tm  Tm9  1  0.197002  0.600999  0.600999  1
  Tm  Tm10  1  0.056049  0.443951  0.443951  1
  Tm  Tm11  1  0.443951  0.056049  0.056049  1
  Tm  Tm12  1  0.443951  0.056049  0.443951  1
  Tm  Tm13  1  0.056049  0.443951  0.056049  1
  Tm  Tm14  1  0.443951  0.443951  0.056049  1
  Tm  Tm15  1  0.056049  0.056049  0.443951  1
  Al  Al16  1  0.826940  0.826940  0.826940  1
  Al  Al17  1  0.826940  0.826940  0.519179  1
  Al  Al18  1  0.826940  0.519179  0.826940  1
  Al  Al19  1  0.519179  0.826940  0.826940  1
  Ir  Ir20  1  0.391297  0.391297  0.391297  1
  Ir  Ir21  1  0.391297  0.391297  0.826110  1
  Ir  Ir22  1  0.391297  0.826110  0.391297  1
  Ir  Ir23  1  0.826110  0.391297  0.391297  1
