# generated using pymatgen
data_Ti3Tc3GeAs2
_symmetry_space_group_name_H-M   'P 1'
_cell_length_a   3.37498000
_cell_length_b   6.84739148
_cell_length_c   6.84739134
_cell_angle_alpha   59.99258851
_cell_angle_beta   90.00000000
_cell_angle_gamma   90.00000000
_symmetry_Int_Tables_number   1
_chemical_formula_structural   Ti3Tc3GeAs2
_chemical_formula_sum   'Ti3 Tc3 Ge1 As2'
_cell_volume   137.03127641
_cell_formula_units_Z   1
loop_
 _symmetry_equiv_pos_site_id
 _symmetry_equiv_pos_as_xyz
  1  'x, y, z'
loop_
 _atom_site_type_symbol
 _atom_site_label
 _atom_site_symmetry_multiplicity
 _atom_site_fract_x
 _atom_site_fract_y
 _atom_site_fract_z
 _atom_site_occupancy
  Ti  Ti0  1  0.500000  0.598142  0.401858  1
  Ti  Ti1  1  0.500000  0.401703  0.999927  1
  Ti  Ti2  1  0.500000  0.000073  0.598297  1
  Tc  Tc3  1  0.000000  0.261064  0.738936  1
  Tc  Tc4  1  0.000000  0.738981  0.999922  1
  Tc  Tc5  1  0.000000  0.000078  0.261019  1
  Ge  Ge6  1  0.500000  0.999857  0.000143  1
  As  As7  1  0.000000  0.333360  0.333359  1
  As  As8  1  0.000000  0.666641  0.666640  1
