# generated using pymatgen
data_Tb2Er2Ni13C4
_symmetry_space_group_name_H-M   'P 1'
_cell_length_a   8.37953341
_cell_length_b   8.37953336
_cell_length_c   3.85969900
_cell_angle_alpha   90.00000000
_cell_angle_beta   90.00000000
_cell_angle_gamma   91.06623642
_symmetry_Int_Tables_number   1
_chemical_formula_structural   Tb2Er2Ni13C4
_chemical_formula_sum   'Tb2 Er2 Ni13 C4'
_cell_volume   270.96793687
_cell_formula_units_Z   1
loop_
 _symmetry_equiv_pos_site_id
 _symmetry_equiv_pos_as_xyz
  1  'x, y, z'
loop_
 _atom_site_type_symbol
 _atom_site_label
 _atom_site_symmetry_multiplicity
 _atom_site_fract_x
 _atom_site_fract_y
 _atom_site_fract_z
 _atom_site_occupancy
  Tb  Tb0  1  0.847684  0.847684  0.000000  1
  Tb  Tb1  1  0.152316  0.152316  0.000000  1
  Er  Er2  1  0.312331  0.687669  0.000000  1
  Er  Er3  1  0.687669  0.312331  0.000000  1
  Ni  Ni4  1  0.500000  0.500000  0.500000  1
  Ni  Ni5  1  0.715313  0.070305  0.500000  1
  Ni  Ni6  1  0.284687  0.929695  0.500000  1
  Ni  Ni7  1  0.929695  0.284687  0.500000  1
  Ni  Ni8  1  0.070305  0.715313  0.500000  1
  Ni  Ni9  1  0.500000  0.000000  0.000000  1
  Ni  Ni10  1  0.000000  0.500000  0.000000  1
  Ni  Ni11  1  0.572315  0.790257  0.500000  1
  Ni  Ni12  1  0.427685  0.209743  0.500000  1
  Ni  Ni13  1  0.209743  0.427685  0.500000  1
  Ni  Ni14  1  0.790257  0.572315  0.500000  1
  Ni  Ni15  1  0.622060  0.622060  0.000000  1
  Ni  Ni16  1  0.377940  0.377940  0.000000  1
  C  C17  1  0.500000  0.000000  0.500000  1
  C  C18  1  0.000000  0.500000  0.500000  1
  C  C19  1  0.943046  0.056954  0.500000  1
  C  C20  1  0.056954  0.943046  0.500000  1
