# generated using pymatgen
data_TbYb3Ga18(CoPd2)2
_symmetry_space_group_name_H-M   'P 1'
_cell_length_a   7.58011462
_cell_length_b   7.57540109
_cell_length_c   9.47759400
_cell_angle_alpha   90.00000000
_cell_angle_beta   90.00000000
_cell_angle_gamma   119.55624312
_symmetry_Int_Tables_number   1
_chemical_formula_structural   TbYb3Ga18(CoPd2)2
_chemical_formula_sum   'Tb1 Yb3 Ga18 Co2 Pd4'
_cell_volume   473.40714374
_cell_formula_units_Z   1
loop_
 _symmetry_equiv_pos_site_id
 _symmetry_equiv_pos_as_xyz
  1  'x, y, z'
loop_
 _atom_site_type_symbol
 _atom_site_label
 _atom_site_symmetry_multiplicity
 _atom_site_fract_x
 _atom_site_fract_y
 _atom_site_fract_z
 _atom_site_occupancy
  Tb  Tb0  1  0.317080  0.990443  0.250000  1
  Yb  Yb1  1  0.009154  0.682703  0.750000  1
  Yb  Yb2  1  0.667140  0.986531  0.750000  1
  Yb  Yb3  1  0.013187  0.333430  0.250000  1
  Ga  Ga4  1  0.347782  0.014299  0.920478  1
  Ga  Ga5  1  0.984956  0.651187  0.078488  1
  Ga  Ga6  1  0.347782  0.014299  0.579522  1
  Ga  Ga7  1  0.984956  0.651187  0.421512  1
  Ga  Ga8  1  0.666212  0.018232  0.079646  1
  Ga  Ga9  1  0.981622  0.335071  0.920244  1
  Ga  Ga10  1  0.666212  0.018232  0.420354  1
  Ga  Ga11  1  0.981622  0.335071  0.579756  1
  Ga  Ga12  1  0.667088  0.657261  0.936258  1
  Ga  Ga13  1  0.342188  0.333791  0.063922  1
  Ga  Ga14  1  0.667088  0.657261  0.563742  1
  Ga  Ga15  1  0.342188  0.333791  0.436078  1
  Ga  Ga16  1  0.131327  0.135484  0.750000  1
  Ga  Ga17  1  0.864119  0.868423  0.250000  1
  Ga  Ga18  1  0.462877  0.663987  0.250000  1
  Ga  Ga19  1  0.336036  0.537851  0.750000  1
  Ga  Ga20  1  0.572228  0.339475  0.750000  1
  Ga  Ga21  1  0.661595  0.428819  0.250000  1
  Co  Co22  1  0.666982  0.331668  0.000453  1
  Co  Co23  1  0.666982  0.331668  0.499547  1
  Pd  Pd24  1  0.998382  0.001893  0.000268  1
  Pd  Pd25  1  0.998382  0.001893  0.499732  1
  Pd  Pd26  1  0.327417  0.673022  0.000362  1
  Pd  Pd27  1  0.327417  0.673022  0.499638  1
