# generated using pymatgen
data_Eu8Tm12Si15Pt
_symmetry_space_group_name_H-M   'P 1'
_cell_length_a   7.50622500
_cell_length_b   7.86495728
_cell_length_c   14.82760800
_cell_angle_alpha   90.00000000
_cell_angle_beta   90.00000000
_cell_angle_gamma   90.10918682
_symmetry_Int_Tables_number   1
_chemical_formula_structural   Eu8Tm12Si15Pt
_chemical_formula_sum   'Eu8 Tm12 Si15 Pt1'
_cell_volume   875.36313696
_cell_formula_units_Z   1
loop_
 _symmetry_equiv_pos_site_id
 _symmetry_equiv_pos_as_xyz
  1  'x, y, z'
loop_
 _atom_site_type_symbol
 _atom_site_label
 _atom_site_symmetry_multiplicity
 _atom_site_fract_x
 _atom_site_fract_y
 _atom_site_fract_z
 _atom_site_occupancy
  Eu  Eu0  1  0.521436  0.677513  0.594693  1
  Eu  Eu1  1  0.022324  0.822175  0.904794  1
  Eu  Eu2  1  0.477983  0.321022  0.095335  1
  Eu  Eu3  1  0.978572  0.177359  0.405336  1
  Eu  Eu4  1  0.477983  0.321022  0.404665  1
  Eu  Eu5  1  0.978572  0.177359  0.094664  1
  Eu  Eu6  1  0.521436  0.677513  0.905307  1
  Eu  Eu7  1  0.022324  0.822175  0.595206  1
  Tm  Tm8  1  0.678559  0.178604  0.625550  1
  Tm  Tm9  1  0.185969  0.325437  0.874883  1
  Tm  Tm10  1  0.317559  0.822391  0.122444  1
  Tm  Tm11  1  0.817642  0.675517  0.378381  1
  Tm  Tm12  1  0.317559  0.822391  0.377556  1
  Tm  Tm13  1  0.817642  0.675517  0.121619  1
  Tm  Tm14  1  0.678559  0.178604  0.874450  1
  Tm  Tm15  1  0.185969  0.325437  0.625117  1
  Tm  Tm16  1  0.842355  0.515995  0.750000  1
  Tm  Tm17  1  0.351950  0.981730  0.750000  1
  Tm  Tm18  1  0.150330  0.481374  0.250000  1
  Tm  Tm19  1  0.649776  0.016055  0.250000  1
  Si  Si20  1  0.641277  0.967676  0.458190  1
  Si  Si21  1  0.142538  0.531152  0.041956  1
  Si  Si22  1  0.358025  0.030578  0.959914  1
  Si  Si23  1  0.858854  0.468455  0.540567  1
  Si  Si24  1  0.358025  0.030578  0.540086  1
  Si  Si25  1  0.858854  0.468455  0.959433  1
  Si  Si26  1  0.641277  0.967676  0.041810  1
  Si  Si27  1  0.142538  0.531152  0.458044  1
  Si  Si28  1  0.980546  0.111030  0.750000  1
  Si  Si29  1  0.524825  0.614174  0.250000  1
  Si  Si30  1  0.023464  0.886269  0.250000  1
  Si  Si31  1  0.738391  0.889003  0.750000  1
  Si  Si32  1  0.229771  0.619906  0.750000  1
  Si  Si33  1  0.263460  0.109759  0.250000  1
  Si  Si34  1  0.763631  0.388538  0.250000  1
  Pt  Pt35  1  0.480021  0.390408  0.750000  1
