# generated using pymatgen
data_AlS23
_symmetry_space_group_name_H-M   'P 1'
_cell_length_a   5.45556065
_cell_length_b   9.35382023
_cell_length_c   15.89152000
_cell_angle_alpha   82.42591985
_cell_angle_beta   85.98404661
_cell_angle_gamma   91.36398717
_symmetry_Int_Tables_number   1
_chemical_formula_structural   AlS23
_chemical_formula_sum   'Al1 S23'
_cell_volume   801.45279356
_cell_formula_units_Z   1
loop_
 _symmetry_equiv_pos_site_id
 _symmetry_equiv_pos_as_xyz
  1  'x, y, z'
loop_
 _atom_site_type_symbol
 _atom_site_label
 _atom_site_symmetry_multiplicity
 _atom_site_fract_x
 _atom_site_fract_y
 _atom_site_fract_z
 _atom_site_occupancy
  Al  Al0  1  0.603944  0.165669  0.419657  1
  S  S1  1  0.695257  0.946530  0.387641  1
  S  S2  1  0.018361  0.306543  0.099368  1
  S  S3  1  0.708826  0.229933  0.543878  1
  S  S4  1  0.434891  0.885730  0.489745  1
  S  S5  1  0.177723  0.286367  0.980024  1
  S  S6  1  0.817724  0.734154  0.024079  1
  S  S7  1  0.194226  0.209617  0.393466  1
  S  S8  1  0.694098  0.369080  0.313142  1
  S  S9  1  0.854604  0.109983  0.151175  1
  S  S10  1  0.282187  0.870099  0.118461  1
  S  S11  1  0.705710  0.653176  0.629850  1
  S  S12  1  0.243472  0.435624  0.594462  1
  S  S13  1  0.154844  0.900728  0.854264  1
  S  S14  1  0.725999  0.142017  0.882586  1
  S  S15  1  0.071591  0.685295  0.113183  1
  S  S16  1  0.608644  0.864332  0.602546  1
  S  S17  1  0.364181  0.229222  0.609207  1
  S  S18  1  0.973541  0.709066  0.904937  1
  S  S19  1  0.921863  0.330629  0.891145  1
  S  S20  1  0.328115  0.380996  0.308431  1
  S  S21  1  0.116578  0.983228  0.208718  1
  S  S22  1  0.396393  0.538397  0.686979  1
  S  S23  1  0.907228  0.033585  0.793060  1
