# generated using pymatgen
data_Hf18Ta3Tc5Ni2
_symmetry_space_group_name_H-M   'P 1'
_cell_length_a   8.48332400
_cell_length_b   8.66927601
_cell_length_c   8.69398400
_cell_angle_alpha   119.90462927
_cell_angle_beta   90.00000000
_cell_angle_gamma   90.00000000
_symmetry_Int_Tables_number   1
_chemical_formula_structural   Hf18Ta3Tc5Ni2
_chemical_formula_sum   'Hf18 Ta3 Tc5 Ni2'
_cell_volume   554.26175924
_cell_formula_units_Z   1
loop_
 _symmetry_equiv_pos_site_id
 _symmetry_equiv_pos_as_xyz
  1  'x, y, z'
loop_
 _atom_site_type_symbol
 _atom_site_label
 _atom_site_symmetry_multiplicity
 _atom_site_fract_x
 _atom_site_fract_y
 _atom_site_fract_z
 _atom_site_occupancy
  Hf  Hf0  1  0.557988  0.799385  0.598766  1
  Hf  Hf1  1  0.555590  0.799762  0.201157  1
  Hf  Hf2  1  0.555586  0.401375  0.201137  1
  Hf  Hf3  1  0.441059  0.201054  0.402116  1
  Hf  Hf4  1  0.443036  0.200418  0.799568  1
  Hf  Hf5  1  0.443031  0.599164  0.799589  1
  Hf  Hf6  1  0.058941  0.201054  0.402116  1
  Hf  Hf7  1  0.056964  0.200418  0.799568  1
  Hf  Hf8  1  0.056969  0.599164  0.799589  1
  Hf  Hf9  1  0.942012  0.799385  0.598766  1
  Hf  Hf10  1  0.944410  0.799762  0.201157  1
  Hf  Hf11  1  0.944414  0.401375  0.201137  1
  Hf  Hf12  1  0.750000  0.457780  0.915544  1
  Hf  Hf13  1  0.750000  0.458558  0.543299  1
  Hf  Hf14  1  0.750000  0.084731  0.543294  1
  Hf  Hf15  1  0.250000  0.542312  0.084653  1
  Hf  Hf16  1  0.250000  0.543838  0.458237  1
  Hf  Hf17  1  0.250000  0.914382  0.458219  1
  Ta  Ta18  1  0.750000  0.113276  0.226573  1
  Ta  Ta19  1  0.495262  0.998258  0.996522  1
  Ta  Ta20  1  0.004738  0.998258  0.996522  1
  Tc  Tc21  1  0.750000  0.113656  0.886230  1
  Tc  Tc22  1  0.750000  0.772563  0.886232  1
  Tc  Tc23  1  0.250000  0.885395  0.770762  1
  Tc  Tc24  1  0.250000  0.884057  0.113134  1
  Tc  Tc25  1  0.250000  0.229116  0.113134  1
  Ni  Ni26  1  0.750000  0.667012  0.333971  1
  Ni  Ni27  1  0.250000  0.334493  0.669007  1
