# generated using pymatgen
data_Eu5U2SnSe12
_symmetry_space_group_name_H-M   'P 1'
_cell_length_a   12.65445600
_cell_length_b   12.65445655
_cell_length_c   4.24633200
_cell_angle_alpha   90.00000000
_cell_angle_beta   90.00000000
_cell_angle_gamma   119.99999857
_symmetry_Int_Tables_number   1
_chemical_formula_structural   Eu5U2SnSe12
_chemical_formula_sum   'Eu5 U2 Sn1 Se12'
_cell_volume   588.88645267
_cell_formula_units_Z   1
loop_
 _symmetry_equiv_pos_site_id
 _symmetry_equiv_pos_as_xyz
  1  'x, y, z'
loop_
 _atom_site_type_symbol
 _atom_site_label
 _atom_site_symmetry_multiplicity
 _atom_site_fract_x
 _atom_site_fract_y
 _atom_site_fract_z
 _atom_site_occupancy
  Eu  Eu0  1  0.286334  0.286334  0.000000  1
  Eu  Eu1  1  0.713666  0.000000  0.000000  1
  Eu  Eu2  1  0.000000  0.713666  0.000000  1
  Eu  Eu3  1  0.666667  0.333333  0.000000  1
  Eu  Eu4  1  0.333333  0.666667  0.000000  1
  U  U5  1  0.674240  0.674240  0.500000  1
  U  U6  1  0.325760  0.000000  0.500000  1
  Sn  Sn7  1  0.000000  0.325760  0.500000  1
  Se  Se8  1  0.746295  0.196104  0.500000  1
  Se  Se9  1  0.803896  0.550192  0.500000  1
  Se  Se10  1  0.449808  0.253705  0.500000  1
  Se  Se11  1  0.196104  0.746295  0.500000  1
  Se  Se12  1  0.550192  0.803896  0.500000  1
  Se  Se13  1  0.253705  0.449808  0.500000  1
  Se  Se14  1  0.824972  0.824972  0.000000  1
  Se  Se15  1  0.175028  0.000000  0.000000  1
  Se  Se16  1  0.000000  0.175028  0.000000  1
  Se  Se17  1  0.526246  0.526246  0.000000  1
  Se  Se18  1  0.473754  0.000000  0.000000  1
  Se  Se19  1  0.000000  0.473754  0.000000  1
