# generated using pymatgen
data_La8Nd2Si2Br15
_symmetry_space_group_name_H-M   'P 1'
_cell_length_a   9.54485127
_cell_length_b   10.41494781
_cell_length_c   11.25603200
_cell_angle_alpha   91.13451975
_cell_angle_beta   114.49923265
_cell_angle_gamma   110.88041466
_symmetry_Int_Tables_number   1
_chemical_formula_structural   La8Nd2Si2Br15
_chemical_formula_sum   'La8 Nd2 Si2 Br15'
_cell_volume   932.67244649
_cell_formula_units_Z   1
loop_
 _symmetry_equiv_pos_site_id
 _symmetry_equiv_pos_as_xyz
  1  'x, y, z'
loop_
 _atom_site_type_symbol
 _atom_site_label
 _atom_site_symmetry_multiplicity
 _atom_site_fract_x
 _atom_site_fract_y
 _atom_site_fract_z
 _atom_site_occupancy
  La  La0  1  0.817564  0.426446  0.284404  1
  La  La1  1  0.182436  0.573554  0.715596  1
  La  La2  1  0.687959  0.740220  0.818282  1
  La  La3  1  0.312041  0.259780  0.181718  1
  La  La4  1  0.528222  0.691283  0.106794  1
  La  La5  1  0.471778  0.308717  0.893206  1
  La  La6  1  0.592459  0.035082  0.341717  1
  La  La7  1  0.407541  0.964918  0.658283  1
  Nd  Nd8  1  0.740970  0.079738  0.051267  1
  Nd  Nd9  1  0.259030  0.920262  0.948733  1
  Si  Si10  1  0.466980  0.823397  0.878832  1
  Si  Si11  1  0.533020  0.176603  0.121168  1
  Br  Br12  1  0.000000  0.000000  0.000000  1
  Br  Br13  1  0.639619  0.880920  0.583049  1
  Br  Br14  1  0.360381  0.119080  0.416951  1
  Br  Br15  1  0.885112  0.297122  0.530207  1
  Br  Br16  1  0.114888  0.702878  0.469793  1
  Br  Br17  1  0.289346  0.763814  0.179204  1
  Br  Br18  1  0.710654  0.236186  0.820796  1
  Br  Br19  1  0.058588  0.345979  0.228359  1
  Br  Br20  1  0.162451  0.056495  0.705469  1
  Br  Br21  1  0.837549  0.943505  0.294531  1
  Br  Br22  1  0.225986  0.408230  0.943515  1
  Br  Br23  1  0.774014  0.591770  0.056485  1
  Br  Br24  1  0.404490  0.463124  0.649197  1
  Br  Br25  1  0.595510  0.536876  0.350803  1
  Br  Br26  1  0.941412  0.654021  0.771641  1
