# generated using pymatgen
data_Er3Lu7(In2Au)4
_symmetry_space_group_name_H-M   'P 1'
_cell_length_a   3.61129500
_cell_length_b   8.12592903
_cell_length_c   18.20138207
_cell_angle_alpha   90.00975535
_cell_angle_beta   90.00000000
_cell_angle_gamma   90.00000000
_symmetry_Int_Tables_number   1
_chemical_formula_structural   Er3Lu7(In2Au)4
_chemical_formula_sum   'Er3 Lu7 In8 Au4'
_cell_volume   534.12185827
_cell_formula_units_Z   1
loop_
 _symmetry_equiv_pos_site_id
 _symmetry_equiv_pos_as_xyz
  1  'x, y, z'
loop_
 _atom_site_type_symbol
 _atom_site_label
 _atom_site_symmetry_multiplicity
 _atom_site_fract_x
 _atom_site_fract_y
 _atom_site_fract_z
 _atom_site_occupancy
  Er  Er0  1  0.000000  0.500392  0.500055  1
  Er  Er1  1  0.000000  0.999962  0.999994  1
  Er  Er2  1  0.000000  0.117185  0.420781  1
  Lu  Lu3  1  0.000000  0.736948  0.280881  1
  Lu  Lu4  1  0.000000  0.262883  0.719059  1
  Lu  Lu5  1  0.000000  0.762752  0.780959  1
  Lu  Lu6  1  0.000000  0.237376  0.219000  1
  Lu  Lu7  1  0.000000  0.617210  0.079741  1
  Lu  Lu8  1  0.000000  0.382890  0.920258  1
  Lu  Lu9  1  0.000000  0.882927  0.579902  1
  In  In10  1  0.500000  0.712408  0.933329  1
  In  In11  1  0.500000  0.287674  0.066624  1
  In  In12  1  0.500000  0.786050  0.433262  1
  In  In13  1  0.500000  0.212500  0.567364  1
  In  In14  1  0.500000  0.582110  0.646633  1
  In  In15  1  0.500000  0.419442  0.353053  1
  In  In16  1  0.500000  0.917505  0.146469  1
  In  In17  1  0.500000  0.082311  0.853409  1
  Au  Au18  1  0.500000  0.526173  0.196353  1
  Au  Au19  1  0.500000  0.474048  0.803654  1
  Au  Au20  1  0.500000  0.974064  0.696549  1
  Au  Au21  1  0.500000  0.025190  0.302671  1
