# generated using pymatgen
data_SmDy(Ni4B)2
_symmetry_space_group_name_H-M   'P 1'
_cell_length_a   5.00093300
_cell_length_b   5.00127445
_cell_length_c   6.96259200
_cell_angle_alpha   90.00000000
_cell_angle_beta   90.00000000
_cell_angle_gamma   119.99774820
_symmetry_Int_Tables_number   1
_chemical_formula_structural   SmDy(Ni4B)2
_chemical_formula_sum   'Sm1 Dy1 Ni8 B2'
_cell_volume   150.81451996
_cell_formula_units_Z   1
loop_
 _symmetry_equiv_pos_site_id
 _symmetry_equiv_pos_as_xyz
  1  'x, y, z'
loop_
 _atom_site_type_symbol
 _atom_site_label
 _atom_site_symmetry_multiplicity
 _atom_site_fract_x
 _atom_site_fract_y
 _atom_site_fract_z
 _atom_site_occupancy
  Sm  Sm0  1  0.500000  0.000000  0.000000  1
  Dy  Dy1  1  0.500000  0.000000  0.500000  1
  Ni  Ni2  1  0.833248  0.666494  0.000000  1
  Ni  Ni3  1  0.166752  0.333506  0.000000  1
  Ni  Ni4  1  0.000000  0.000000  0.705856  1
  Ni  Ni5  1  0.500000  0.500000  0.705545  1
  Ni  Ni6  1  0.000000  0.500000  0.705545  1
  Ni  Ni7  1  0.000000  0.000000  0.294144  1
  Ni  Ni8  1  0.500000  0.500000  0.294455  1
  Ni  Ni9  1  0.000000  0.500000  0.294455  1
  B  B10  1  0.833468  0.666934  0.500000  1
  B  B11  1  0.166532  0.333066  0.500000  1
