# generated using pymatgen
data_Er16MgCd3Ir2RuRh
_symmetry_space_group_name_H-M   'P 1'
_cell_length_a   9.59935842
_cell_length_b   9.59698951
_cell_length_c   9.57940900
_cell_angle_alpha   59.35193573
_cell_angle_beta   59.33249113
_cell_angle_gamma   59.41048628
_symmetry_Int_Tables_number   1
_chemical_formula_structural   Er16MgCd3Ir2RuRh
_chemical_formula_sum   'Er16 Mg1 Cd3 Ir2 Ru1 Rh1'
_cell_volume   615.00321276
_cell_formula_units_Z   1
loop_
 _symmetry_equiv_pos_site_id
 _symmetry_equiv_pos_as_xyz
  1  'x, y, z'
loop_
 _atom_site_type_symbol
 _atom_site_label
 _atom_site_symmetry_multiplicity
 _atom_site_fract_x
 _atom_site_fract_y
 _atom_site_fract_z
 _atom_site_occupancy
  Er  Er0  1  0.600492  0.600400  0.601880  1
  Er  Er1  1  0.597225  0.597282  0.209389  1
  Er  Er2  1  0.598092  0.208516  0.597058  1
  Er  Er3  1  0.208351  0.598170  0.597100  1
  Er  Er4  1  0.062123  0.439265  0.439050  1
  Er  Er5  1  0.436967  0.060823  0.061589  1
  Er  Er6  1  0.439306  0.062141  0.439038  1
  Er  Er7  1  0.060836  0.436935  0.061568  1
  Er  Er8  1  0.438967  0.438960  0.061945  1
  Er  Er9  1  0.061246  0.061288  0.435953  1
  Er  Er10  1  0.187670  0.814369  0.811607  1
  Er  Er11  1  0.810688  0.187356  0.186723  1
  Er  Er12  1  0.814563  0.187424  0.811717  1
  Er  Er13  1  0.187465  0.810483  0.186753  1
  Er  Er14  1  0.811653  0.811467  0.189447  1
  Er  Er15  1  0.187264  0.187262  0.810610  1
  Mg  Mg16  1  0.823927  0.824072  0.823709  1
  Cd  Cd17  1  0.831768  0.831840  0.503617  1
  Cd  Cd18  1  0.831064  0.503952  0.831508  1
  Cd  Cd19  1  0.504006  0.831184  0.831343  1
  Ir  Ir20  1  0.394936  0.825937  0.395266  1
  Ir  Ir21  1  0.825933  0.395005  0.395090  1
  Ru  Ru22  1  0.391754  0.392132  0.391935  1
  Rh  Rh23  1  0.393704  0.393736  0.826105  1
