# generated using pymatgen
data_HfTaNb2(SiIr)4
_symmetry_space_group_name_H-M   'P 1'
_cell_length_a   3.84841200
_cell_length_b   6.47285226
_cell_length_c   7.35746591
_cell_angle_alpha   90.13152465
_cell_angle_beta   90.00000000
_cell_angle_gamma   90.00000000
_symmetry_Int_Tables_number   1
_chemical_formula_structural   HfTaNb2(SiIr)4
_chemical_formula_sum   'Hf1 Ta1 Nb2 Si4 Ir4'
_cell_volume   183.27548148
_cell_formula_units_Z   1
loop_
 _symmetry_equiv_pos_site_id
 _symmetry_equiv_pos_as_xyz
  1  'x, y, z'
loop_
 _atom_site_type_symbol
 _atom_site_label
 _atom_site_symmetry_multiplicity
 _atom_site_fract_x
 _atom_site_fract_y
 _atom_site_fract_z
 _atom_site_occupancy
  Hf  Hf0  1  0.750000  0.523461  0.824216  1
  Ta  Ta1  1  0.750000  0.024421  0.671294  1
  Nb  Nb2  1  0.250000  0.977105  0.327107  1
  Nb  Nb3  1  0.250000  0.475937  0.176960  1
  Si  Si4  1  0.250000  0.225793  0.878989  1
  Si  Si5  1  0.250000  0.734992  0.619673  1
  Si  Si6  1  0.750000  0.772201  0.127588  1
  Si  Si7  1  0.750000  0.270634  0.374436  1
  Ir  Ir8  1  0.250000  0.850801  0.935320  1
  Ir  Ir9  1  0.250000  0.351734  0.565715  1
  Ir  Ir10  1  0.750000  0.647006  0.438052  1
  Ir  Ir11  1  0.750000  0.145915  0.060651  1
