# generated using pymatgen
data_EuEr(Al3Pd)3
_symmetry_space_group_name_H-M   'P 1'
_cell_length_a   7.67973503
_cell_length_b   7.68711432
_cell_length_c   9.57728600
_cell_angle_alpha   90.00000000
_cell_angle_beta   90.00000000
_cell_angle_gamma   119.62261275
_symmetry_Int_Tables_number   1
_chemical_formula_structural   EuEr(Al3Pd)3
_chemical_formula_sum   'Eu2 Er2 Al18 Pd6'
_cell_volume   491.49790601
_cell_formula_units_Z   2
loop_
 _symmetry_equiv_pos_site_id
 _symmetry_equiv_pos_as_xyz
  1  'x, y, z'
loop_
 _atom_site_type_symbol
 _atom_site_label
 _atom_site_symmetry_multiplicity
 _atom_site_fract_x
 _atom_site_fract_y
 _atom_site_fract_z
 _atom_site_occupancy
  Eu  Eu0  1  0.995062  0.667937  0.250000  1
  Eu  Eu1  1  0.004938  0.332063  0.750000  1
  Er  Er2  1  0.668896  0.994817  0.250000  1
  Er  Er3  1  0.331104  0.005183  0.750000  1
  Al  Al4  1  0.129985  0.130182  0.250000  1
  Al  Al5  1  0.870015  0.869818  0.750000  1
  Al  Al6  1  0.000296  0.333543  0.076298  1
  Al  Al7  1  0.999704  0.666457  0.923702  1
  Al  Al8  1  0.999704  0.666457  0.576298  1
  Al  Al9  1  0.335262  0.000137  0.425587  1
  Al  Al10  1  0.000296  0.333543  0.423702  1
  Al  Al11  1  0.664738  0.999863  0.574413  1
  Al  Al12  1  0.664738  0.999863  0.925587  1
  Al  Al13  1  0.335262  0.000137  0.074413  1
  Al  Al14  1  0.333274  0.332639  0.557231  1
  Al  Al15  1  0.666726  0.667361  0.442769  1
  Al  Al16  1  0.666726  0.667361  0.057231  1
  Al  Al17  1  0.333274  0.332639  0.942769  1
  Al  Al18  1  0.343054  0.548172  0.250000  1
  Al  Al19  1  0.656946  0.451828  0.750000  1
  Al  Al20  1  0.543913  0.335149  0.250000  1
  Al  Al21  1  0.456087  0.664851  0.750000  1
  Pd  Pd22  1  0.668593  0.327533  0.999682  1
  Pd  Pd23  1  0.331407  0.672467  0.000318  1
  Pd  Pd24  1  0.331407  0.672467  0.499682  1
  Pd  Pd25  1  0.668593  0.327533  0.500318  1
  Pd  Pd26  1  0.000000  0.000000  0.000000  1
  Pd  Pd27  1  0.000000  0.000000  0.500000  1
