# generated using pymatgen
data_Np3CrO12
_symmetry_space_group_name_H-M   'P 1'
_cell_length_a   5.59645130
_cell_length_b   5.53363692
_cell_length_c   7.92761771
_cell_angle_alpha   90.98910278
_cell_angle_beta   87.02117388
_cell_angle_gamma   90.18035148
_symmetry_Int_Tables_number   1
_chemical_formula_structural   Np3CrO12
_chemical_formula_sum   'Np3 Cr1 O12'
_cell_volume   245.13936522
_cell_formula_units_Z   1
loop_
 _symmetry_equiv_pos_site_id
 _symmetry_equiv_pos_as_xyz
  1  'x, y, z'
loop_
 _atom_site_type_symbol
 _atom_site_label
 _atom_site_symmetry_multiplicity
 _atom_site_fract_x
 _atom_site_fract_y
 _atom_site_fract_z
 _atom_site_occupancy
  Np  Np0  1  0.999889  0.750000  0.750039  1
  Np  Np1  1  0.499895  0.250022  0.749987  1
  Np  Np2  1  0.499845  0.249998  0.249945  1
  Cr  Cr3  1  0.999855  0.749836  0.249948  1
  O  O4  1  0.530145  0.356240  0.976155  1
  O  O5  1  0.980144  0.808531  0.511378  1
  O  O6  1  0.019528  0.691271  0.988686  1
  O  O7  1  0.469431  0.143929  0.523838  1
  O  O8  1  0.268300  0.506660  0.277533  1
  O  O9  1  0.244798  0.020793  0.220830  1
  O  O10  1  0.798291  0.400989  0.690310  1
  O  O11  1  0.702507  0.906425  0.801977  1
  O  O12  1  0.297295  0.593671  0.698048  1
  O  O13  1  0.201534  0.098999  0.809701  1
  O  O14  1  0.731433  0.993405  0.222454  1
  O  O15  1  0.754866  0.479232  0.279168  1
