# generated using pymatgen
data_Tm12Si12RuAu3
_symmetry_space_group_name_H-M   'P 1'
_cell_length_a   4.20517600
_cell_length_b   10.78014603
_cell_length_c   12.26418061
_cell_angle_alpha   89.96658266
_cell_angle_beta   90.00000000
_cell_angle_gamma   90.00000000
_symmetry_Int_Tables_number   1
_chemical_formula_structural   Tm12Si12RuAu3
_chemical_formula_sum   'Tm12 Si12 Ru1 Au3'
_cell_volume   555.96478548
_cell_formula_units_Z   1
loop_
 _symmetry_equiv_pos_site_id
 _symmetry_equiv_pos_as_xyz
  1  'x, y, z'
loop_
 _atom_site_type_symbol
 _atom_site_label
 _atom_site_symmetry_multiplicity
 _atom_site_fract_x
 _atom_site_fract_y
 _atom_site_fract_z
 _atom_site_occupancy
  Tm  Tm0  1  0.250000  0.876073  0.018132  1
  Tm  Tm1  1  0.250000  0.625197  0.521866  1
  Tm  Tm2  1  0.750000  0.120646  0.978018  1
  Tm  Tm3  1  0.750000  0.374238  0.481093  1
  Tm  Tm4  1  0.250000  0.921805  0.603535  1
  Tm  Tm5  1  0.250000  0.579101  0.099025  1
  Tm  Tm6  1  0.750000  0.077357  0.399434  1
  Tm  Tm7  1  0.750000  0.421627  0.896675  1
  Tm  Tm8  1  0.250000  0.666837  0.801692  1
  Tm  Tm9  1  0.250000  0.836146  0.302007  1
  Tm  Tm10  1  0.750000  0.336517  0.197622  1
  Tm  Tm11  1  0.750000  0.156090  0.701064  1
  Si  Si12  1  0.250000  0.010429  0.823838  1
  Si  Si13  1  0.250000  0.475052  0.326784  1
  Si  Si14  1  0.750000  0.974995  0.176389  1
  Si  Si15  1  0.750000  0.527835  0.671730  1
  Si  Si16  1  0.250000  0.241241  0.847395  1
  Si  Si17  1  0.250000  0.252158  0.347973  1
  Si  Si18  1  0.750000  0.754179  0.151118  1
  Si  Si19  1  0.750000  0.754483  0.660974  1
  Si  Si20  1  0.250000  0.184338  0.539239  1
  Si  Si21  1  0.250000  0.317064  0.035690  1
  Si  Si22  1  0.750000  0.815293  0.464148  1
  Si  Si23  1  0.750000  0.700440  0.954327  1
  Ru  Ru24  1  0.750000  0.890417  0.820375  1
  Au  Au25  1  0.250000  0.389505  0.682128  1
  Au  Au26  1  0.250000  0.110194  0.180157  1
  Au  Au27  1  0.750000  0.610744  0.317572  1
