# generated using pymatgen
data_Sr21MgGa8Si5Sn
_symmetry_space_group_name_H-M   'P 1'
_cell_length_a   11.88486704
_cell_length_b   11.88486797
_cell_length_c   11.97437700
_cell_angle_alpha   59.75054806
_cell_angle_beta   59.75054544
_cell_angle_gamma   60.49891128
_symmetry_Int_Tables_number   1
_chemical_formula_structural   Sr21MgGa8Si5Sn
_chemical_formula_sum   'Sr21 Mg1 Ga8 Si5 Sn1'
_cell_volume   1195.85076889
_cell_formula_units_Z   1
loop_
 _symmetry_equiv_pos_site_id
 _symmetry_equiv_pos_as_xyz
  1  'x, y, z'
loop_
 _atom_site_type_symbol
 _atom_site_label
 _atom_site_symmetry_multiplicity
 _atom_site_fract_x
 _atom_site_fract_y
 _atom_site_fract_z
 _atom_site_occupancy
  Sr  Sr0  1  0.872184  0.872184  0.382859  1
  Sr  Sr1  1  0.617141  0.127227  0.127816  1
  Sr  Sr2  1  0.865271  0.385501  0.874614  1
  Sr  Sr3  1  0.125386  0.125386  0.134729  1
  Sr  Sr4  1  0.385501  0.865271  0.874614  1
  Sr  Sr5  1  0.872184  0.872184  0.872773  1
  Sr  Sr6  1  0.172822  0.827107  0.500036  1
  Sr  Sr7  1  0.825597  0.497404  0.502596  1
  Sr  Sr8  1  0.125386  0.125386  0.614499  1
  Sr  Sr9  1  0.827107  0.172822  0.500036  1
  Sr  Sr10  1  0.172185  0.508618  0.491382  1
  Sr  Sr11  1  0.127227  0.617141  0.127816  1
  Sr  Sr12  1  0.499964  0.499964  0.172893  1
  Sr  Sr13  1  0.508618  0.172185  0.827815  1
  Sr  Sr14  1  0.497404  0.825597  0.174403  1
  Sr  Sr15  1  0.499964  0.499964  0.827178  1
  Sr  Sr16  1  0.508618  0.172185  0.491382  1
  Sr  Sr17  1  0.172185  0.508618  0.827815  1
  Sr  Sr18  1  0.998694  0.998694  0.001306  1
  Sr  Sr19  1  0.497404  0.825597  0.502596  1
  Sr  Sr20  1  0.825597  0.497404  0.174403  1
  Mg  Mg21  1  0.499433  0.499433  0.500567  1
  Ga  Ga22  1  0.694051  0.921226  0.692362  1
  Ga  Ga23  1  0.693290  0.693290  0.920685  1
  Ga  Ga24  1  0.693290  0.693290  0.692736  1
  Ga  Ga25  1  0.307264  0.079315  0.306710  1
  Ga  Ga26  1  0.921226  0.694051  0.692362  1
  Ga  Ga27  1  0.307638  0.307638  0.078774  1
  Ga  Ga28  1  0.079315  0.307264  0.306710  1
  Ga  Ga29  1  0.307638  0.307638  0.305949  1
  Si  Si30  1  0.787003  0.212493  0.787507  1
  Si  Si31  1  0.787003  0.212493  0.212997  1
  Si  Si32  1  0.212493  0.787003  0.212997  1
  Si  Si33  1  0.212493  0.787003  0.787507  1
  Si  Si34  1  0.780822  0.780822  0.219178  1
  Sn  Sn35  1  0.220606  0.220606  0.779394  1
