# generated using pymatgen
data_HoEr2(In2Pd)2
_symmetry_space_group_name_H-M   'P 1'
_cell_length_a   7.87093921
_cell_length_b   7.86702118
_cell_length_c   3.84480600
_cell_angle_alpha   90.00000000
_cell_angle_beta   90.00000000
_cell_angle_gamma   119.99025719
_symmetry_Int_Tables_number   1
_chemical_formula_structural   HoEr2(In2Pd)2
_chemical_formula_sum   'Ho1 Er2 In4 Pd2'
_cell_volume   206.19805705
_cell_formula_units_Z   1
loop_
 _symmetry_equiv_pos_site_id
 _symmetry_equiv_pos_as_xyz
  1  'x, y, z'
loop_
 _atom_site_type_symbol
 _atom_site_label
 _atom_site_symmetry_multiplicity
 _atom_site_fract_x
 _atom_site_fract_y
 _atom_site_fract_z
 _atom_site_occupancy
  Ho  Ho0  1  0.692638  0.948265  0.500000  1
  Er  Er1  1  0.255516  0.306897  0.500000  1
  Er  Er2  1  0.051471  0.744548  0.500000  1
  In  In3  1  0.925728  0.334025  0.000000  1
  In  In4  1  0.408164  0.074431  0.000000  1
  In  In5  1  0.666255  0.591688  0.000000  1
  In  In6  1  0.333091  0.666520  0.000000  1
  Pd  Pd7  1  0.666687  0.333533  0.500000  1
  Pd  Pd8  1  0.000450  0.000091  0.000000  1
