# generated using pymatgen
data_La2Pr2P7Ir8
_symmetry_space_group_name_H-M   'P 1'
_cell_length_a   4.01156900
_cell_length_b   12.92035141
_cell_length_c   13.32652242
_cell_angle_alpha   80.93366788
_cell_angle_beta   90.00000000
_cell_angle_gamma   90.00000000
_symmetry_Int_Tables_number   1
_chemical_formula_structural   La2Pr2P7Ir8
_chemical_formula_sum   'La4 Pr4 P14 Ir16'
_cell_volume   682.09587233
_cell_formula_units_Z   2
loop_
 _symmetry_equiv_pos_site_id
 _symmetry_equiv_pos_as_xyz
  1  'x, y, z'
loop_
 _atom_site_type_symbol
 _atom_site_label
 _atom_site_symmetry_multiplicity
 _atom_site_fract_x
 _atom_site_fract_y
 _atom_site_fract_z
 _atom_site_occupancy
  La  La0  1  0.250000  0.104412  0.789273  1
  La  La1  1  0.750000  0.895588  0.210727  1
  La  La2  1  0.250000  0.280838  0.104681  1
  La  La3  1  0.750000  0.719162  0.895319  1
  Pr  Pr4  1  0.250000  0.518023  0.293355  1
  Pr  Pr5  1  0.750000  0.481977  0.706645  1
  Pr  Pr6  1  0.250000  0.209505  0.438777  1
  Pr  Pr7  1  0.750000  0.790495  0.561223  1
  P  P8  1  0.250000  0.053357  0.097532  1
  P  P9  1  0.750000  0.946643  0.902468  1
  P  P10  1  0.250000  0.314528  0.687227  1
  P  P11  1  0.750000  0.685472  0.312773  1
  P  P12  1  0.250000  0.606956  0.562404  1
  P  P13  1  0.750000  0.393044  0.437596  1
  P  P14  1  0.250000  0.845057  0.718279  1
  P  P15  1  0.750000  0.154943  0.281721  1
  P  P16  1  0.750000  0.258319  0.918586  1
  P  P17  1  0.250000  0.741681  0.081414  1
  P  P18  1  0.750000  0.091308  0.590100  1
  P  P19  1  0.250000  0.908692  0.409900  1
  P  P20  1  0.750000  0.474088  0.127074  1
  P  P21  1  0.250000  0.525912  0.872926  1
  Ir  Ir22  1  0.250000  0.989255  0.576746  1
  Ir  Ir23  1  0.750000  0.010745  0.423254  1
  Ir  Ir24  1  0.250000  0.663209  0.731087  1
  Ir  Ir25  1  0.750000  0.336791  0.268913  1
  Ir  Ir26  1  0.250000  0.552091  0.047450  1
  Ir  Ir27  1  0.750000  0.447909  0.952550  1
  Ir  Ir28  1  0.250000  0.061196  0.272235  1
  Ir  Ir29  1  0.750000  0.938804  0.727765  1
  Ir  Ir30  1  0.250000  0.423681  0.526962  1
  Ir  Ir31  1  0.750000  0.576319  0.473038  1
  Ir  Ir32  1  0.250000  0.915869  0.998356  1
  Ir  Ir33  1  0.750000  0.084131  0.001644  1
  Ir  Ir34  1  0.250000  0.728139  0.395708  1
  Ir  Ir35  1  0.750000  0.271861  0.604292  1
  Ir  Ir36  1  0.250000  0.341749  0.858635  1
  Ir  Ir37  1  0.750000  0.658251  0.141365  1
