# generated using pymatgen
data_LaYb(CdPt)2
_symmetry_space_group_name_H-M   'P 1'
_cell_length_a   4.26397300
_cell_length_b   7.35401400
_cell_length_c   8.84872900
_cell_angle_alpha   90.00000000
_cell_angle_beta   90.00000000
_cell_angle_gamma   90.00000000
_symmetry_Int_Tables_number   1
_chemical_formula_structural   LaYb(CdPt)2
_chemical_formula_sum   'La2 Yb2 Cd4 Pt4'
_cell_volume   277.47240152
_cell_formula_units_Z   2
loop_
 _symmetry_equiv_pos_site_id
 _symmetry_equiv_pos_as_xyz
  1  'x, y, z'
loop_
 _atom_site_type_symbol
 _atom_site_label
 _atom_site_symmetry_multiplicity
 _atom_site_fract_x
 _atom_site_fract_y
 _atom_site_fract_z
 _atom_site_occupancy
  La  La0  1  0.250000  0.038969  0.327093  1
  La  La1  1  0.250000  0.538969  0.172907  1
  Yb  Yb2  1  0.750000  0.957078  0.687424  1
  Yb  Yb3  1  0.750000  0.457078  0.812576  1
  Cd  Cd4  1  0.250000  0.141810  0.931846  1
  Cd  Cd5  1  0.250000  0.641810  0.568154  1
  Cd  Cd6  1  0.750000  0.863954  0.055274  1
  Cd  Cd7  1  0.750000  0.363954  0.444726  1
  Pt  Pt8  1  0.250000  0.245490  0.627246  1
  Pt  Pt9  1  0.250000  0.745490  0.872754  1
  Pt  Pt10  1  0.750000  0.752700  0.367887  1
  Pt  Pt11  1  0.750000  0.252700  0.132113  1
