# generated using pymatgen
data_Ca3Al12IrOs3
_symmetry_space_group_name_H-M   'P 1'
_cell_length_a   8.85205329
_cell_length_b   8.85205350
_cell_length_c   9.68187100
_cell_angle_alpha   90.00000000
_cell_angle_beta   90.00000000
_cell_angle_gamma   119.90207413
_symmetry_Int_Tables_number   1
_chemical_formula_structural   Ca3Al12IrOs3
_chemical_formula_sum   'Ca6 Al24 Ir2 Os6'
_cell_volume   657.66643184
_cell_formula_units_Z   2
loop_
 _symmetry_equiv_pos_site_id
 _symmetry_equiv_pos_as_xyz
  1  'x, y, z'
loop_
 _atom_site_type_symbol
 _atom_site_label
 _atom_site_symmetry_multiplicity
 _atom_site_fract_x
 _atom_site_fract_y
 _atom_site_fract_z
 _atom_site_occupancy
  Ca  Ca0  1  0.191330  0.386600  0.250000  1
  Ca  Ca1  1  0.808670  0.613400  0.750000  1
  Ca  Ca2  1  0.613400  0.808670  0.250000  1
  Ca  Ca3  1  0.386600  0.191330  0.750000  1
  Ca  Ca4  1  0.194809  0.805191  0.250000  1
  Ca  Ca5  1  0.805191  0.194809  0.750000  1
  Al  Al6  1  0.332815  0.667185  0.003941  1
  Al  Al7  1  0.667185  0.332815  0.996059  1
  Al  Al8  1  0.667185  0.332815  0.503941  1
  Al  Al9  1  0.332815  0.667185  0.496059  1
  Al  Al10  1  0.161395  0.323916  0.574115  1
  Al  Al11  1  0.838605  0.676084  0.425885  1
  Al  Al12  1  0.676084  0.838605  0.574115  1
  Al  Al13  1  0.838605  0.676084  0.074115  1
  Al  Al14  1  0.323916  0.161395  0.425885  1
  Al  Al15  1  0.161395  0.323916  0.925885  1
  Al  Al16  1  0.162515  0.837485  0.572133  1
  Al  Al17  1  0.323916  0.161395  0.074115  1
  Al  Al18  1  0.837485  0.162515  0.427867  1
  Al  Al19  1  0.676084  0.838605  0.925885  1
  Al  Al20  1  0.837485  0.162515  0.072133  1
  Al  Al21  1  0.162515  0.837485  0.927867  1
  Al  Al22  1  0.559359  0.123495  0.250000  1
  Al  Al23  1  0.440641  0.876505  0.750000  1
  Al  Al24  1  0.876505  0.440641  0.250000  1
  Al  Al25  1  0.123495  0.559359  0.750000  1
  Al  Al26  1  0.561632  0.438368  0.250000  1
  Al  Al27  1  0.438368  0.561632  0.750000  1
  Al  Al28  1  0.000291  0.999709  0.250000  1
  Al  Al29  1  0.999709  0.000291  0.750000  1
  Ir  Ir30  1  0.500000  0.500000  0.000000  1
  Ir  Ir31  1  0.500000  0.500000  0.500000  1
  Os  Os32  1  0.500000  0.000000  0.000000  1
  Os  Os33  1  0.000000  0.500000  0.000000  1
  Os  Os34  1  0.500000  0.000000  0.500000  1
  Os  Os35  1  0.000000  0.500000  0.500000  1
  Os  Os36  1  0.000000  0.000000  0.000000  1
  Os  Os37  1  0.000000  0.000000  0.500000  1
