# generated using pymatgen
data_Tb6Y4Cd3Tc
_symmetry_space_group_name_H-M   'P 1'
_cell_length_a   9.60412700
_cell_length_b   9.60412592
_cell_length_c   9.99382100
_cell_angle_alpha   90.00000000
_cell_angle_beta   90.00000000
_cell_angle_gamma   120.00000029
_symmetry_Int_Tables_number   1
_chemical_formula_structural   Tb6Y4Cd3Tc
_chemical_formula_sum   'Tb12 Y8 Cd6 Tc2'
_cell_volume   798.32170383
_cell_formula_units_Z   2
loop_
 _symmetry_equiv_pos_site_id
 _symmetry_equiv_pos_as_xyz
  1  'x, y, z'
loop_
 _atom_site_type_symbol
 _atom_site_label
 _atom_site_symmetry_multiplicity
 _atom_site_fract_x
 _atom_site_fract_y
 _atom_site_fract_z
 _atom_site_occupancy
  Tb  Tb0  1  0.210003  0.789997  0.440918  1
  Tb  Tb1  1  0.210003  0.420005  0.440918  1
  Tb  Tb2  1  0.579995  0.789997  0.440918  1
  Tb  Tb3  1  0.789997  0.210003  0.559082  1
  Tb  Tb4  1  0.789997  0.579995  0.559082  1
  Tb  Tb5  1  0.420005  0.210003  0.559082  1
  Tb  Tb6  1  0.789997  0.210003  0.940918  1
  Tb  Tb7  1  0.789997  0.579995  0.940918  1
  Tb  Tb8  1  0.420005  0.210003  0.940918  1
  Tb  Tb9  1  0.210003  0.789997  0.059082  1
  Tb  Tb10  1  0.210003  0.420005  0.059082  1
  Tb  Tb11  1  0.579995  0.789997  0.059082  1
  Y  Y12  1  0.000000  0.000000  0.500000  1
  Y  Y13  1  0.000000  0.000000  0.000000  1
  Y  Y14  1  0.539765  0.460235  0.250000  1
  Y  Y15  1  0.539765  0.079531  0.250000  1
  Y  Y16  1  0.920469  0.460235  0.250000  1
  Y  Y17  1  0.460235  0.539765  0.750000  1
  Y  Y18  1  0.460235  0.920469  0.750000  1
  Y  Y19  1  0.079531  0.539765  0.750000  1
  Cd  Cd20  1  0.885472  0.114528  0.250000  1
  Cd  Cd21  1  0.885472  0.770945  0.250000  1
  Cd  Cd22  1  0.229055  0.114528  0.250000  1
  Cd  Cd23  1  0.114528  0.885472  0.750000  1
  Cd  Cd24  1  0.114528  0.229055  0.750000  1
  Cd  Cd25  1  0.770945  0.885472  0.750000  1
  Tc  Tc26  1  0.333333  0.666667  0.250000  1
  Tc  Tc27  1  0.666667  0.333333  0.750000  1
