# generated using pymatgen
data_CuTc12Br25
_symmetry_space_group_name_H-M   'P 1'
_cell_length_a   9.90332050
_cell_length_b   11.08514156
_cell_length_c   11.77208883
_cell_angle_alpha   82.85570216
_cell_angle_beta   83.04006055
_cell_angle_gamma   93.98953673
_symmetry_Int_Tables_number   1
_chemical_formula_structural   CuTc12Br25
_chemical_formula_sum   'Cu1 Tc12 Br25'
_cell_volume   1268.14456610
_cell_formula_units_Z   1
loop_
 _symmetry_equiv_pos_site_id
 _symmetry_equiv_pos_as_xyz
  1  'x, y, z'
loop_
 _atom_site_type_symbol
 _atom_site_label
 _atom_site_symmetry_multiplicity
 _atom_site_fract_x
 _atom_site_fract_y
 _atom_site_fract_z
 _atom_site_occupancy
  Cu  Cu0  1  0.500000  0.000000  0.000000  1
  Tc  Tc1  1  0.802516  0.247595  0.112696  1
  Tc  Tc2  1  0.197484  0.752405  0.887304  1
  Tc  Tc3  1  0.733138  0.111592  0.264149  1
  Tc  Tc4  1  0.266862  0.888408  0.735851  1
  Tc  Tc5  1  0.043892  0.279903  0.193867  1
  Tc  Tc6  1  0.956108  0.720097  0.806133  1
  Tc  Tc7  1  0.842725  0.420863  0.249922  1
  Tc  Tc8  1  0.157275  0.579137  0.750078  1
  Tc  Tc9  1  0.770389  0.285102  0.402667  1
  Tc  Tc10  1  0.229611  0.714898  0.597333  1
  Tc  Tc11  1  0.973725  0.144448  0.347777  1
  Tc  Tc12  1  0.026275  0.855552  0.652223  1
  Br  Br13  1  0.905414  0.958579  0.261205  1
  Br  Br14  1  0.094586  0.041421  0.738795  1
  Br  Br15  1  0.972155  0.271237  0.508709  1
  Br  Br16  1  0.027845  0.728763  0.491291  1
  Br  Br17  1  0.644768  0.411072  0.136157  1
  Br  Br18  1  0.355232  0.588928  0.863843  1
  Br  Br19  1  0.085164  0.470247  0.283233  1
  Br  Br20  1  0.914836  0.529753  0.716767  1
  Br  Br21  1  0.000000  0.500000  0.000000  1
  Br  Br22  1  0.564204  0.958278  0.199632  1
  Br  Br23  1  0.435796  0.041722  0.800368  1
  Br  Br24  1  0.181422  0.047435  0.411207  1
  Br  Br25  1  0.818578  0.952565  0.588793  1
  Br  Br26  1  0.540553  0.201092  0.369320  1
  Br  Br27  1  0.459447  0.798908  0.630680  1
  Br  Br28  1  0.013601  0.164651  0.027649  1
  Br  Br29  1  0.986399  0.835349  0.972351  1
  Br  Br30  1  0.784578  0.627576  0.291866  1
  Br  Br31  1  0.215422  0.372424  0.708134  1
  Br  Br32  1  0.678084  0.180802  0.949403  1
  Br  Br33  1  0.321916  0.819198  0.050597  1
  Br  Br34  1  0.294695  0.279932  0.137038  1
  Br  Br35  1  0.705305  0.720068  0.862962  1
  Br  Br36  1  0.654348  0.384284  0.560749  1
  Br  Br37  1  0.345652  0.615716  0.439251  1
