# generated using pymatgen
data_Cd4RhAu
_symmetry_space_group_name_H-M   'P 1'
_cell_length_a   5.65985158
_cell_length_b   5.65985109
_cell_length_c   5.65985140
_cell_angle_alpha   105.90636994
_cell_angle_beta   105.90636140
_cell_angle_gamma   116.86359980
_symmetry_Int_Tables_number   1
_chemical_formula_structural   Cd4RhAu
_chemical_formula_sum   'Cd4 Rh1 Au1'
_cell_volume   137.80650813
_cell_formula_units_Z   1
loop_
 _symmetry_equiv_pos_site_id
 _symmetry_equiv_pos_as_xyz
  1  'x, y, z'
loop_
 _atom_site_type_symbol
 _atom_site_label
 _atom_site_symmetry_multiplicity
 _atom_site_fract_x
 _atom_site_fract_y
 _atom_site_fract_z
 _atom_site_occupancy
  Cd  Cd0  1  0.999287  0.499287  0.998573  1
  Cd  Cd1  1  0.500713  0.000713  0.001427  1
  Cd  Cd2  1  0.000713  0.999287  0.500000  1
  Cd  Cd3  1  0.499287  0.500713  0.500000  1
  Rh  Rh4  1  0.500000  0.500000  0.000000  1
  Au  Au5  1  0.000000  0.000000  0.000000  1
