# generated using pymatgen
data_Pr15NdGa6CoRu
_symmetry_space_group_name_H-M   'P 1'
_cell_length_a   10.51296100
_cell_length_b   10.51296225
_cell_length_c   7.25064400
_cell_angle_alpha   89.99999605
_cell_angle_beta   90.00001335
_cell_angle_gamma   120.00064173
_symmetry_Int_Tables_number   1
_chemical_formula_structural   Pr15NdGa6CoRu
_chemical_formula_sum   'Pr15 Nd1 Ga6 Co1 Ru1'
_cell_volume   693.99215892
_cell_formula_units_Z   1
loop_
 _symmetry_equiv_pos_site_id
 _symmetry_equiv_pos_as_xyz
  1  'x, y, z'
loop_
 _atom_site_type_symbol
 _atom_site_label
 _atom_site_symmetry_multiplicity
 _atom_site_fract_x
 _atom_site_fract_y
 _atom_site_fract_z
 _atom_site_occupancy
  Pr  Pr0  1  0.831507  0.663010  0.483742  1
  Pr  Pr1  1  0.336989  0.168493  0.483742  1
  Pr  Pr2  1  0.831507  0.168492  0.483737  1
  Pr  Pr3  1  0.171070  0.342144  0.986908  1
  Pr  Pr4  1  0.657857  0.828931  0.986907  1
  Pr  Pr5  1  0.171071  0.828929  0.986898  1
  Pr  Pr6  1  0.666664  0.333336  0.168305  1
  Pr  Pr7  1  0.333334  0.666666  0.679214  1
  Pr  Pr8  1  0.538688  0.077373  0.793657  1
  Pr  Pr9  1  0.922627  0.461312  0.793657  1
  Pr  Pr10  1  0.538687  0.461313  0.793658  1
  Pr  Pr11  1  0.460405  0.920810  0.294133  1
  Pr  Pr12  1  0.079189  0.539595  0.294132  1
  Pr  Pr13  1  0.460406  0.539594  0.294132  1
  Pr  Pr14  1  0.000004  0.999996  0.772278  1
  Nd  Nd15  1  0.999997  0.000003  0.266369  1
  Ga  Ga16  1  0.836919  0.673837  0.042611  1
  Ga  Ga17  1  0.326163  0.163081  0.042611  1
  Ga  Ga18  1  0.836920  0.163080  0.042607  1
  Ga  Ga19  1  0.165325  0.330652  0.545755  1
  Ga  Ga20  1  0.669347  0.834674  0.545756  1
  Ga  Ga21  1  0.165324  0.834677  0.545752  1
  Co  Co22  1  0.333331  0.666668  0.053158  1
  Ru  Ru23  1  0.666668  0.333332  0.546525  1
