# generated using pymatgen
data_YbDyLu8(In2Pt)4
_symmetry_space_group_name_H-M   'P 1'
_cell_length_a   3.54988200
_cell_length_b   8.09560129
_cell_length_c   18.10573610
_cell_angle_alpha   89.91045512
_cell_angle_beta   90.00000000
_cell_angle_gamma   90.00000000
_symmetry_Int_Tables_number   1
_chemical_formula_structural   YbDyLu8(In2Pt)4
_chemical_formula_sum   'Yb1 Dy1 Lu8 In8 Pt4'
_cell_volume   520.32978155
_cell_formula_units_Z   1
loop_
 _symmetry_equiv_pos_site_id
 _symmetry_equiv_pos_as_xyz
  1  'x, y, z'
loop_
 _atom_site_type_symbol
 _atom_site_label
 _atom_site_symmetry_multiplicity
 _atom_site_fract_x
 _atom_site_fract_y
 _atom_site_fract_z
 _atom_site_occupancy
  Yb  Yb0  1  0.000000  0.000000  0.000000  1
  Dy  Dy1  1  0.000000  0.500000  0.500000  1
  Lu  Lu2  1  0.000000  0.117303  0.413708  1
  Lu  Lu3  1  0.000000  0.882697  0.586292  1
  Lu  Lu4  1  0.000000  0.381628  0.913557  1
  Lu  Lu5  1  0.000000  0.618372  0.086443  1
  Lu  Lu6  1  0.000000  0.243951  0.221128  1
  Lu  Lu7  1  0.000000  0.756049  0.778872  1
  Lu  Lu8  1  0.000000  0.256026  0.721293  1
  Lu  Lu9  1  0.000000  0.743974  0.278707  1
  In  In10  1  0.500000  0.423431  0.351189  1
  In  In11  1  0.500000  0.576569  0.648811  1
  In  In12  1  0.500000  0.074647  0.851087  1
  In  In13  1  0.500000  0.925353  0.148913  1
  In  In14  1  0.500000  0.294918  0.066591  1
  In  In15  1  0.500000  0.705082  0.933409  1
  In  In16  1  0.500000  0.205288  0.566256  1
  In  In17  1  0.500000  0.794712  0.433744  1
  Pt  Pt18  1  0.500000  0.025692  0.303370  1
  Pt  Pt19  1  0.500000  0.974308  0.696630  1
  Pt  Pt20  1  0.500000  0.475496  0.803061  1
  Pt  Pt21  1  0.500000  0.524504  0.196939  1
