# generated using pymatgen
data_Yb3PrTm2(Si3Ru)8
_symmetry_space_group_name_H-M   'P 1'
_cell_length_a   10.16792089
_cell_length_b   10.16789808
_cell_length_c   8.14465022
_cell_angle_alpha   89.88439486
_cell_angle_beta   90.11552967
_cell_angle_gamma   132.77777362
_symmetry_Int_Tables_number   1
_chemical_formula_structural   Yb3PrTm2(Si3Ru)8
_chemical_formula_sum   'Yb3 Pr1 Tm2 Si24 Ru8'
_cell_volume   618.05464105
_cell_formula_units_Z   1
loop_
 _symmetry_equiv_pos_site_id
 _symmetry_equiv_pos_as_xyz
  1  'x, y, z'
loop_
 _atom_site_type_symbol
 _atom_site_label
 _atom_site_symmetry_multiplicity
 _atom_site_fract_x
 _atom_site_fract_y
 _atom_site_fract_z
 _atom_site_occupancy
  Yb  Yb0  1  0.500348  0.500320  0.499867  1
  Yb  Yb1  1  0.000320  0.000348  0.000134  1
  Yb  Yb2  1  0.502245  0.002244  0.750000  1
  Pr  Pr3  1  0.002360  0.502363  0.750001  1
  Tm  Tm4  1  0.999892  0.499892  0.249998  1
  Tm  Tm5  1  0.499435  0.999435  0.249997  1
  Si  Si6  1  0.793273  0.201202  0.496996  1
  Si  Si7  1  0.299837  0.708162  0.002759  1
  Si  Si8  1  0.208163  0.799839  0.497240  1
  Si  Si9  1  0.701199  0.293273  0.003007  1
  Si  Si10  1  0.332677  0.334490  0.832286  1
  Si  Si11  1  0.665440  0.668698  0.167030  1
  Si  Si12  1  0.168698  0.165437  0.332973  1
  Si  Si13  1  0.834490  0.832676  0.667716  1
  Si  Si14  1  0.124590  0.891792  0.731203  1
  Si  Si15  1  0.107811  0.876463  0.270152  1
  Si  Si16  1  0.607896  0.376771  0.229511  1
  Si  Si17  1  0.621508  0.389130  0.769352  1
  Si  Si18  1  0.876770  0.107896  0.270490  1
  Si  Si19  1  0.889131  0.121510  0.730648  1
  Si  Si20  1  0.391790  0.624589  0.768795  1
  Si  Si21  1  0.376465  0.607811  0.229845  1
  Si  Si22  1  0.346489  0.114382  0.505489  1
  Si  Si23  1  0.885814  0.653236  0.491238  1
  Si  Si24  1  0.385768  0.153308  0.007072  1
  Si  Si25  1  0.845409  0.614203  0.994800  1
  Si  Si26  1  0.653312  0.885770  0.492922  1
  Si  Si27  1  0.114206  0.345417  0.505205  1
  Si  Si28  1  0.614381  0.846487  0.994516  1
  Si  Si29  1  0.153238  0.385812  0.008758  1
  Ru  Ru30  1  0.670240  0.327689  0.496064  1
  Ru  Ru31  1  0.171040  0.829118  0.004273  1
  Ru  Ru32  1  0.329124  0.671048  0.495719  1
  Ru  Ru33  1  0.827688  0.170241  0.003938  1
  Ru  Ru34  1  0.125923  0.126005  0.626175  1
  Ru  Ru35  1  0.873467  0.873555  0.374839  1
  Ru  Ru36  1  0.373558  0.373465  0.125165  1
  Ru  Ru37  1  0.626006  0.625923  0.873825  1
