# generated using pymatgen
data_DyHo3Co2(Si2Ru)2
_symmetry_space_group_name_H-M   'P 1'
_cell_length_a   4.25991200
_cell_length_b   6.99809538
_cell_length_c   6.90891209
_cell_angle_alpha   90.12923660
_cell_angle_beta   90.00000000
_cell_angle_gamma   90.00000000
_symmetry_Int_Tables_number   1
_chemical_formula_structural   DyHo3Co2(Si2Ru)2
_chemical_formula_sum   'Dy1 Ho3 Co2 Si4 Ru2'
_cell_volume   205.96292309
_cell_formula_units_Z   1
loop_
 _symmetry_equiv_pos_site_id
 _symmetry_equiv_pos_as_xyz
  1  'x, y, z'
loop_
 _atom_site_type_symbol
 _atom_site_label
 _atom_site_symmetry_multiplicity
 _atom_site_fract_x
 _atom_site_fract_y
 _atom_site_fract_z
 _atom_site_occupancy
  Dy  Dy0  1  0.250000  0.179761  0.984047  1
  Ho  Ho1  1  0.750000  0.818700  0.016187  1
  Ho  Ho2  1  0.250000  0.305339  0.486138  1
  Ho  Ho3  1  0.750000  0.694861  0.513996  1
  Co  Co4  1  0.250000  0.934265  0.649375  1
  Co  Co5  1  0.750000  0.065218  0.350247  1
  Si  Si6  1  0.250000  0.609064  0.800242  1
  Si  Si7  1  0.750000  0.391826  0.199902  1
  Si  Si8  1  0.250000  0.895749  0.308917  1
  Si  Si9  1  0.750000  0.103882  0.691042  1
  Ru  Ru10  1  0.250000  0.569551  0.154381  1
  Ru  Ru11  1  0.750000  0.431785  0.845525  1
