# generated using pymatgen
data_Th6Sb(P3Rh5)4
_symmetry_space_group_name_H-M   'P 1'
_cell_length_a   13.58674500
_cell_length_b   13.58674447
_cell_length_c   3.99417000
_cell_angle_alpha   90.00000000
_cell_angle_beta   90.00000000
_cell_angle_gamma   119.99999886
_symmetry_Int_Tables_number   1
_chemical_formula_structural   Th6Sb(P3Rh5)4
_chemical_formula_sum   'Th6 Sb1 P12 Rh20'
_cell_volume   638.53986209
_cell_formula_units_Z   1
loop_
 _symmetry_equiv_pos_site_id
 _symmetry_equiv_pos_as_xyz
  1  'x, y, z'
loop_
 _atom_site_type_symbol
 _atom_site_label
 _atom_site_symmetry_multiplicity
 _atom_site_fract_x
 _atom_site_fract_y
 _atom_site_fract_z
 _atom_site_occupancy
  Th  Th0  1  0.527641  0.717839  0.253606  1
  Th  Th1  1  0.282161  0.809801  0.253606  1
  Th  Th2  1  0.190199  0.472359  0.253606  1
  Th  Th3  1  0.472359  0.282161  0.746394  1
  Th  Th4  1  0.717839  0.190199  0.746394  1
  Th  Th5  1  0.809801  0.527641  0.746394  1
  Sb  Sb6  1  0.000000  0.000000  0.000000  1
  P  P7  1  0.524389  0.136902  0.246373  1
  P  P8  1  0.863098  0.387487  0.246373  1
  P  P9  1  0.612513  0.475611  0.246373  1
  P  P10  1  0.949040  0.717253  0.242638  1
  P  P11  1  0.282747  0.231787  0.242638  1
  P  P12  1  0.768213  0.050960  0.242638  1
  P  P13  1  0.387487  0.524389  0.753627  1
  P  P14  1  0.475611  0.863098  0.753627  1
  P  P15  1  0.136902  0.612513  0.753627  1
  P  P16  1  0.717253  0.768213  0.757362  1
  P  P17  1  0.231787  0.949040  0.757362  1
  P  P18  1  0.050960  0.282747  0.757362  1
  Rh  Rh19  1  0.333333  0.666667  0.742045  1
  Rh  Rh20  1  0.919780  0.250972  0.234058  1
  Rh  Rh21  1  0.749028  0.668808  0.234058  1
  Rh  Rh22  1  0.331192  0.080220  0.234058  1
  Rh  Rh23  1  0.436707  0.019284  0.744702  1
  Rh  Rh24  1  0.980716  0.417424  0.744702  1
  Rh  Rh25  1  0.582576  0.563293  0.744702  1
  Rh  Rh26  1  0.666667  0.333333  0.257955  1
  Rh  Rh27  1  0.097920  0.202509  0.283484  1
  Rh  Rh28  1  0.797491  0.895411  0.283484  1
  Rh  Rh29  1  0.104589  0.902080  0.283484  1
  Rh  Rh30  1  0.019284  0.582576  0.255298  1
  Rh  Rh31  1  0.417424  0.436707  0.255298  1
  Rh  Rh32  1  0.563293  0.980716  0.255298  1
  Rh  Rh33  1  0.668808  0.919780  0.765942  1
  Rh  Rh34  1  0.080220  0.749028  0.765942  1
  Rh  Rh35  1  0.250972  0.331192  0.765942  1
  Rh  Rh36  1  0.902080  0.797491  0.716516  1
  Rh  Rh37  1  0.202509  0.104589  0.716516  1
  Rh  Rh38  1  0.895411  0.097920  0.716516  1
