# generated using pymatgen
data_Zr11Sc(CoOs)6
_symmetry_space_group_name_H-M   'P 1'
_cell_length_a   4.59884300
_cell_length_b   6.47535000
_cell_length_c   13.82158500
_cell_angle_alpha   90.00166496
_cell_angle_beta   90.00042321
_cell_angle_gamma   89.99994853
_symmetry_Int_Tables_number   1
_chemical_formula_structural   Zr11Sc(CoOs)6
_chemical_formula_sum   'Zr11 Sc1 Co6 Os6'
_cell_volume   411.59461085
_cell_formula_units_Z   1
loop_
 _symmetry_equiv_pos_site_id
 _symmetry_equiv_pos_as_xyz
  1  'x, y, z'
loop_
 _atom_site_type_symbol
 _atom_site_label
 _atom_site_symmetry_multiplicity
 _atom_site_fract_x
 _atom_site_fract_y
 _atom_site_fract_z
 _atom_site_occupancy
  Zr  Zr0  1  0.500001  0.250892  0.999415  1
  Zr  Zr1  1  0.499995  0.749427  0.997893  1
  Zr  Zr2  1  0.999846  0.249421  0.166515  1
  Zr  Zr3  1  0.999854  0.750836  0.166321  1
  Zr  Zr4  1  0.499850  0.250419  0.333338  1
  Zr  Zr5  1  0.499848  0.749288  0.333336  1
  Zr  Zr6  1  0.000001  0.249419  0.500156  1
  Zr  Zr7  1  0.000001  0.750837  0.500350  1
  Zr  Zr8  1  0.500148  0.250879  0.667254  1
  Zr  Zr9  1  0.500149  0.749434  0.668769  1
  Zr  Zr10  1  0.000153  0.249351  0.833333  1
  Sc  Sc11  1  0.000153  0.750177  0.833314  1
  Co  Co12  1  0.999999  0.500169  0.000153  1
  Co  Co13  1  0.499802  0.999721  0.166710  1
  Co  Co14  1  0.999800  0.500346  0.333327  1
  Co  Co15  1  0.500000  0.999721  0.499964  1
  Co  Co16  1  0.000195  0.500160  0.666522  1
  Co  Co17  1  0.500201  0.999688  0.833326  1
  Os  Os18  1  0.000001  0.001375  0.000491  1
  Os  Os19  1  0.499831  0.500163  0.166356  1
  Os  Os20  1  0.999830  0.999761  0.333338  1
  Os  Os21  1  0.499998  0.500163  0.500311  1
  Os  Os22  1  0.000167  0.001383  0.666170  1
  Os  Os23  1  0.500172  0.496974  0.833337  1
