# generated using pymatgen
data_Er5NbCo16(P6W)2
_symmetry_space_group_name_H-M   'P 1'
_cell_length_a   12.06687819
_cell_length_b   12.06687760
_cell_length_c   3.68598800
_cell_angle_alpha   90.00000000
_cell_angle_beta   90.00000000
_cell_angle_gamma   119.97976211
_symmetry_Int_Tables_number   1
_chemical_formula_structural   Er5NbCo16(P6W)2
_chemical_formula_sum   'Er5 Nb1 Co16 P12 W2'
_cell_volume   464.90360577
_cell_formula_units_Z   1
loop_
 _symmetry_equiv_pos_site_id
 _symmetry_equiv_pos_as_xyz
  1  'x, y, z'
loop_
 _atom_site_type_symbol
 _atom_site_label
 _atom_site_symmetry_multiplicity
 _atom_site_fract_x
 _atom_site_fract_y
 _atom_site_fract_z
 _atom_site_occupancy
  Er  Er0  1  0.814974  0.000033  0.500000  1
  Er  Er1  1  0.000033  0.814974  0.500000  1
  Er  Er2  1  0.182418  0.182418  0.500000  1
  Er  Er3  1  0.333038  0.666752  0.000000  1
  Er  Er4  1  0.666752  0.333038  0.000000  1
  Nb  Nb5  1  0.555819  0.555819  0.000000  1
  Co  Co6  1  0.280652  0.999577  0.500000  1
  Co  Co7  1  0.999577  0.280652  0.500000  1
  Co  Co8  1  0.721331  0.721331  0.500000  1
  Co  Co9  1  0.625409  0.804429  0.000000  1
  Co  Co10  1  0.199150  0.823539  0.000000  1
  Co  Co11  1  0.175277  0.373367  0.000000  1
  Co  Co12  1  0.373367  0.175277  0.000000  1
  Co  Co13  1  0.804429  0.625409  0.000000  1
  Co  Co14  1  0.823539  0.199150  0.000000  1
  Co  Co15  1  0.517708  0.874611  0.500000  1
  Co  Co16  1  0.128040  0.644958  0.500000  1
  Co  Co17  1  0.352154  0.480743  0.500000  1
  Co  Co18  1  0.480743  0.352154  0.500000  1
  Co  Co19  1  0.874611  0.517708  0.500000  1
  Co  Co20  1  0.644958  0.128040  0.500000  1
  Co  Co21  1  0.999529  0.999529  0.000000  1
  P  P22  1  0.176732  0.998889  0.000000  1
  P  P23  1  0.998889  0.176732  0.000000  1
  P  P24  1  0.822161  0.822161  0.000000  1
  P  P25  1  0.519722  0.689052  0.500000  1
  P  P26  1  0.314521  0.834057  0.500000  1
  P  P27  1  0.165302  0.479797  0.500000  1
  P  P28  1  0.479797  0.165302  0.500000  1
  P  P29  1  0.689052  0.519722  0.500000  1
  P  P30  1  0.834057  0.314521  0.500000  1
  P  P31  1  0.641943  0.001891  0.000000  1
  P  P32  1  0.001891  0.641943  0.000000  1
  P  P33  1  0.354517  0.354517  0.000000  1
  W  W34  1  0.447163  0.000747  0.000000  1
  W  W35  1  0.000747  0.447163  0.000000  1
