# generated using pymatgen
data_ZnPtBr6
_symmetry_space_group_name_H-M   'P 1'
_cell_length_a   6.59181800
_cell_length_b   6.59181727
_cell_length_c   13.38440400
_cell_angle_alpha   90.00000000
_cell_angle_beta   90.00000000
_cell_angle_gamma   120.00000367
_symmetry_Int_Tables_number   1
_chemical_formula_structural   ZnPtBr6
_chemical_formula_sum   'Zn2 Pt2 Br12'
_cell_volume   503.66296808
_cell_formula_units_Z   2
loop_
 _symmetry_equiv_pos_site_id
 _symmetry_equiv_pos_as_xyz
  1  'x, y, z'
loop_
 _atom_site_type_symbol
 _atom_site_label
 _atom_site_symmetry_multiplicity
 _atom_site_fract_x
 _atom_site_fract_y
 _atom_site_fract_z
 _atom_site_occupancy
  Zn  Zn0  1  0.000000  0.000000  0.250000  1
  Zn  Zn1  1  0.000000  0.000000  0.750000  1
  Pt  Pt2  1  0.333333  0.666667  0.250000  1
  Pt  Pt3  1  0.666667  0.333333  0.750000  1
  Br  Br4  1  0.650156  0.968469  0.141642  1
  Br  Br5  1  0.031531  0.681687  0.141642  1
  Br  Br6  1  0.318313  0.349844  0.141642  1
  Br  Br7  1  0.031531  0.349844  0.358358  1
  Br  Br8  1  0.349844  0.318313  0.641642  1
  Br  Br9  1  0.681687  0.031531  0.641642  1
  Br  Br10  1  0.968469  0.650156  0.641642  1
  Br  Br11  1  0.681687  0.650156  0.858358  1
  Br  Br12  1  0.968469  0.318313  0.858358  1
  Br  Br13  1  0.349844  0.031531  0.858358  1
  Br  Br14  1  0.650156  0.681687  0.358358  1
  Br  Br15  1  0.318313  0.968469  0.358358  1
