# generated using pymatgen
data_Zr10Al9Zn3CoRh7
_symmetry_space_group_name_H-M   'P 1'
_cell_length_a   9.00990431
_cell_length_b   9.00990373
_cell_length_c   9.00990529
_cell_angle_alpha   59.72291700
_cell_angle_beta   59.72291732
_cell_angle_gamma   59.72292912
_symmetry_Int_Tables_number   1
_chemical_formula_structural   Zr10Al9Zn3CoRh7
_chemical_formula_sum   'Zr10 Al9 Zn3 Co1 Rh7'
_cell_volume   513.92996249
_cell_formula_units_Z   1
loop_
 _symmetry_equiv_pos_site_id
 _symmetry_equiv_pos_as_xyz
  1  'x, y, z'
loop_
 _atom_site_type_symbol
 _atom_site_label
 _atom_site_symmetry_multiplicity
 _atom_site_fract_x
 _atom_site_fract_y
 _atom_site_fract_z
 _atom_site_occupancy
  Zr  Zr0  1  0.199464  0.199464  0.800135  1
  Zr  Zr1  1  0.800135  0.199464  0.199464  1
  Zr  Zr2  1  0.199464  0.800135  0.199464  1
  Zr  Zr3  1  0.800981  0.800981  0.201698  1
  Zr  Zr4  1  0.201698  0.800981  0.800981  1
  Zr  Zr5  1  0.800981  0.201698  0.800981  1
  Zr  Zr6  1  0.380032  0.380032  0.380032  1
  Zr  Zr7  1  0.380174  0.859035  0.380174  1
  Zr  Zr8  1  0.859035  0.380174  0.380174  1
  Zr  Zr9  1  0.380174  0.380174  0.859035  1
  Al  Al10  1  0.161143  0.161143  0.161143  1
  Al  Al11  1  0.161544  0.514041  0.161544  1
  Al  Al12  1  0.514041  0.161544  0.161544  1
  Al  Al13  1  0.161544  0.161544  0.514041  1
  Al  Al14  1  0.624372  0.624372  0.624372  1
  Al  Al15  1  0.622445  0.128722  0.622445  1
  Al  Al16  1  0.128722  0.622445  0.622445  1
  Al  Al17  1  0.622445  0.622445  0.128722  1
  Al  Al18  1  0.835584  0.835584  0.835584  1
  Zn  Zn19  1  0.833691  0.498479  0.833691  1
  Zn  Zn20  1  0.498479  0.833691  0.833691  1
  Zn  Zn21  1  0.833691  0.833691  0.498479  1
  Co  Co22  1  0.000828  0.000828  0.000828  1
  Rh  Rh23  1  0.000922  0.000922  0.502333  1
  Rh  Rh24  1  0.502333  0.000922  0.000922  1
  Rh  Rh25  1  0.000922  0.502333  0.000922  1
  Rh  Rh26  1  0.495934  0.495934  0.003483  1
  Rh  Rh27  1  0.003483  0.495934  0.495934  1
  Rh  Rh28  1  0.495934  0.003483  0.495934  1
  Rh  Rh29  1  0.499802  0.499802  0.499802  1
