# generated using pymatgen
data_In4B4SbIr9
_symmetry_space_group_name_H-M   'P 1'
_cell_length_a   5.63256300
_cell_length_b   5.63256306
_cell_length_c   10.41901100
_cell_angle_alpha   90.00000000
_cell_angle_beta   90.00000000
_cell_angle_gamma   119.99999380
_symmetry_Int_Tables_number   1
_chemical_formula_structural   In4B4SbIr9
_chemical_formula_sum   'In4 B4 Sb1 Ir9'
_cell_volume   286.26567441
_cell_formula_units_Z   1
loop_
 _symmetry_equiv_pos_site_id
 _symmetry_equiv_pos_as_xyz
  1  'x, y, z'
loop_
 _atom_site_type_symbol
 _atom_site_label
 _atom_site_symmetry_multiplicity
 _atom_site_fract_x
 _atom_site_fract_y
 _atom_site_fract_z
 _atom_site_occupancy
  In  In0  1  0.000000  0.000000  0.993397  1
  In  In1  1  0.666667  0.333333  0.500317  1
  In  In2  1  0.000000  0.000000  0.341427  1
  In  In3  1  0.333333  0.666667  0.500317  1
  B  B4  1  0.666667  0.333333  0.148043  1
  B  B5  1  0.333333  0.666667  0.856170  1
  B  B6  1  0.666667  0.333333  0.856170  1
  B  B7  1  0.333333  0.666667  0.148043  1
  Sb  Sb8  1  0.000000  0.000000  0.650803  1
  Ir  Ir9  1  0.000000  0.484479  0.276154  1
  Ir  Ir10  1  0.452985  0.000000  0.724585  1
  Ir  Ir11  1  0.484479  0.000000  0.276154  1
  Ir  Ir12  1  0.000000  0.477538  0.001032  1
  Ir  Ir13  1  0.547015  0.547015  0.724585  1
  Ir  Ir14  1  0.000000  0.452985  0.724585  1
  Ir  Ir15  1  0.522462  0.522462  0.001032  1
  Ir  Ir16  1  0.477538  0.000000  0.001032  1
  Ir  Ir17  1  0.515521  0.515521  0.276154  1
