# generated using pymatgen
data_DyMgNi3Pt
_symmetry_space_group_name_H-M   'P 1'
_cell_length_a   4.96803215
_cell_length_b   4.96803329
_cell_length_c   5.13256339
_cell_angle_alpha   61.05486029
_cell_angle_beta   61.05484688
_cell_angle_gamma   59.99999968
_symmetry_Int_Tables_number   1
_chemical_formula_structural   DyMgNi3Pt
_chemical_formula_sum   'Dy1 Mg1 Ni3 Pt1'
_cell_volume   90.97701750
_cell_formula_units_Z   1
loop_
 _symmetry_equiv_pos_site_id
 _symmetry_equiv_pos_as_xyz
  1  'x, y, z'
loop_
 _atom_site_type_symbol
 _atom_site_label
 _atom_site_symmetry_multiplicity
 _atom_site_fract_x
 _atom_site_fract_y
 _atom_site_fract_z
 _atom_site_occupancy
  Dy  Dy0  1  0.248226  0.248226  0.255322  1
  Mg  Mg1  1  0.004416  0.004416  0.986754  1
  Ni  Ni2  1  0.624697  0.122302  0.628305  1
  Ni  Ni3  1  0.122302  0.624697  0.628305  1
  Ni  Ni4  1  0.624697  0.624697  0.628305  1
  Pt  Pt5  1  0.625664  0.625664  0.123009  1
