# generated using pymatgen
data_Th10Sn3Bi4Pd
_symmetry_space_group_name_H-M   'P 1'
_cell_length_a   9.68749200
_cell_length_b   9.68749185
_cell_length_c   6.62102400
_cell_angle_alpha   90.00000000
_cell_angle_beta   90.00000000
_cell_angle_gamma   120.00000051
_symmetry_Int_Tables_number   1
_chemical_formula_structural   Th10Sn3Bi4Pd
_chemical_formula_sum   'Th10 Sn3 Bi4 Pd1'
_cell_volume   538.11921343
_cell_formula_units_Z   1
loop_
 _symmetry_equiv_pos_site_id
 _symmetry_equiv_pos_as_xyz
  1  'x, y, z'
loop_
 _atom_site_type_symbol
 _atom_site_label
 _atom_site_symmetry_multiplicity
 _atom_site_fract_x
 _atom_site_fract_y
 _atom_site_fract_z
 _atom_site_occupancy
  Th  Th0  1  0.000000  0.726727  0.766197  1
  Th  Th1  1  0.273273  0.273273  0.766197  1
  Th  Th2  1  0.333333  0.666667  0.494844  1
  Th  Th3  1  0.666667  0.333333  0.494844  1
  Th  Th4  1  0.726357  0.726357  0.234846  1
  Th  Th5  1  0.726727  0.000000  0.766197  1
  Th  Th6  1  0.000000  0.273643  0.234846  1
  Th  Th7  1  0.273643  0.000000  0.234846  1
  Th  Th8  1  0.333333  0.666667  0.004099  1
  Th  Th9  1  0.666667  0.333333  0.004099  1
  Sn  Sn10  1  0.618865  0.000000  0.254310  1
  Sn  Sn11  1  0.381135  0.381135  0.254310  1
  Sn  Sn12  1  0.000000  0.618865  0.254310  1
  Bi  Bi13  1  0.617629  0.617629  0.744050  1
  Bi  Bi14  1  0.000000  0.382371  0.744050  1
  Bi  Bi15  1  0.382371  0.000000  0.744050  1
  Bi  Bi16  1  0.000000  0.000000  0.500210  1
  Pd  Pd17  1  0.000000  0.000000  0.003695  1
