# generated using pymatgen
data_ErZrZn14Cu3
_symmetry_space_group_name_H-M   'P 1'
_cell_length_a   8.78324400
_cell_length_b   8.78324413
_cell_length_c   8.66547000
_cell_angle_alpha   90.00000000
_cell_angle_beta   90.00000000
_cell_angle_gamma   120.00000706
_symmetry_Int_Tables_number   1
_chemical_formula_structural   ErZrZn14Cu3
_chemical_formula_sum   'Er2 Zr2 Zn28 Cu6'
_cell_volume   578.93875855
_cell_formula_units_Z   2
loop_
 _symmetry_equiv_pos_site_id
 _symmetry_equiv_pos_as_xyz
  1  'x, y, z'
loop_
 _atom_site_type_symbol
 _atom_site_label
 _atom_site_symmetry_multiplicity
 _atom_site_fract_x
 _atom_site_fract_y
 _atom_site_fract_z
 _atom_site_occupancy
  Er  Er0  1  0.333333  0.666667  0.750000  1
  Er  Er1  1  0.666667  0.333333  0.250000  1
  Zr  Zr2  1  0.000000  0.000000  0.250000  1
  Zr  Zr3  1  0.000000  0.000000  0.750000  1
  Zn  Zn4  1  0.333333  0.666667  0.404466  1
  Zn  Zn5  1  0.666667  0.333333  0.595534  1
  Zn  Zn6  1  0.666667  0.333333  0.904466  1
  Zn  Zn7  1  0.333333  0.666667  0.095534  1
  Zn  Zn8  1  0.330510  0.364904  0.250000  1
  Zn  Zn9  1  0.635096  0.965607  0.250000  1
  Zn  Zn10  1  0.034393  0.669490  0.250000  1
  Zn  Zn11  1  0.635096  0.669490  0.250000  1
  Zn  Zn12  1  0.034393  0.364904  0.250000  1
  Zn  Zn13  1  0.330510  0.965607  0.250000  1
  Zn  Zn14  1  0.669490  0.635096  0.750000  1
  Zn  Zn15  1  0.364904  0.034393  0.750000  1
  Zn  Zn16  1  0.965607  0.330510  0.750000  1
  Zn  Zn17  1  0.364904  0.330510  0.750000  1
  Zn  Zn18  1  0.965607  0.635096  0.750000  1
  Zn  Zn19  1  0.669490  0.034393  0.750000  1
  Zn  Zn20  1  0.162273  0.837727  0.521215  1
  Zn  Zn21  1  0.162273  0.324547  0.521215  1
  Zn  Zn22  1  0.675453  0.837727  0.521215  1
  Zn  Zn23  1  0.837727  0.162273  0.478785  1
  Zn  Zn24  1  0.837727  0.675453  0.478785  1
  Zn  Zn25  1  0.324547  0.162273  0.478785  1
  Zn  Zn26  1  0.837727  0.162273  0.021215  1
  Zn  Zn27  1  0.837727  0.675453  0.021215  1
  Zn  Zn28  1  0.324547  0.162273  0.021215  1
  Zn  Zn29  1  0.162273  0.837727  0.978785  1
  Zn  Zn30  1  0.162273  0.324547  0.978785  1
  Zn  Zn31  1  0.675453  0.837727  0.978785  1
  Cu  Cu32  1  0.500000  0.500000  0.500000  1
  Cu  Cu33  1  0.500000  0.000000  0.500000  1
  Cu  Cu34  1  0.000000  0.500000  0.500000  1
  Cu  Cu35  1  0.500000  0.500000  0.000000  1
  Cu  Cu36  1  0.500000  0.000000  0.000000  1
  Cu  Cu37  1  0.000000  0.500000  0.000000  1
