# generated using pymatgen
data_Hf2InIr5
_symmetry_space_group_name_H-M   'P 1'
_cell_length_a   4.12542700
_cell_length_b   5.63766700
_cell_length_c   11.28073300
_cell_angle_alpha   90.00000000
_cell_angle_beta   90.00000000
_cell_angle_gamma   90.00000000
_symmetry_Int_Tables_number   1
_chemical_formula_structural   Hf2InIr5
_chemical_formula_sum   'Hf4 In2 Ir10'
_cell_volume   262.36484763
_cell_formula_units_Z   2
loop_
 _symmetry_equiv_pos_site_id
 _symmetry_equiv_pos_as_xyz
  1  'x, y, z'
loop_
 _atom_site_type_symbol
 _atom_site_label
 _atom_site_symmetry_multiplicity
 _atom_site_fract_x
 _atom_site_fract_y
 _atom_site_fract_z
 _atom_site_occupancy
  Hf  Hf0  1  0.500000  0.203834  0.636566  1
  Hf  Hf1  1  0.500000  0.796166  0.363434  1
  Hf  Hf2  1  0.500000  0.703834  0.863434  1
  Hf  Hf3  1  0.500000  0.296166  0.136566  1
  In  In4  1  0.000000  0.500000  0.500000  1
  In  In5  1  0.000000  0.000000  0.000000  1
  Ir  Ir6  1  0.500000  0.220957  0.878363  1
  Ir  Ir7  1  0.500000  0.779043  0.121637  1
  Ir  Ir8  1  0.500000  0.720957  0.621637  1
  Ir  Ir9  1  0.500000  0.279043  0.378363  1
  Ir  Ir10  1  0.000000  0.462543  0.754506  1
  Ir  Ir11  1  0.000000  0.537457  0.245494  1
  Ir  Ir12  1  0.000000  0.000000  0.500000  1
  Ir  Ir13  1  0.000000  0.500000  0.000000  1
  Ir  Ir14  1  0.000000  0.037457  0.254506  1
  Ir  Ir15  1  0.000000  0.962543  0.745494  1
