# generated using pymatgen
data_Er4Lu8Fe3Pb2
_symmetry_space_group_name_H-M   'P 1'
_cell_length_a   8.25060776
_cell_length_b   8.25060928
_cell_length_c   8.25060923
_cell_angle_alpha   108.42455395
_cell_angle_beta   108.42455933
_cell_angle_gamma   111.58546368
_symmetry_Int_Tables_number   1
_chemical_formula_structural   Er4Lu8Fe3Pb2
_chemical_formula_sum   'Er4 Lu8 Fe3 Pb2'
_cell_volume   431.90726787
_cell_formula_units_Z   1
loop_
 _symmetry_equiv_pos_site_id
 _symmetry_equiv_pos_as_xyz
  1  'x, y, z'
loop_
 _atom_site_type_symbol
 _atom_site_label
 _atom_site_symmetry_multiplicity
 _atom_site_fract_x
 _atom_site_fract_y
 _atom_site_fract_z
 _atom_site_occupancy
  Er  Er0  1  0.307229  0.307229  0.614458  1
  Er  Er1  1  0.692771  0.692771  0.385542  1
  Er  Er2  1  0.692771  0.307229  0.000000  1
  Er  Er3  1  0.307229  0.692771  0.000000  1
  Lu  Lu4  1  0.191782  0.424526  0.232743  1
  Lu  Lu5  1  0.808218  0.575474  0.767257  1
  Lu  Lu6  1  0.191782  0.959038  0.767257  1
  Lu  Lu7  1  0.959038  0.191782  0.767257  1
  Lu  Lu8  1  0.808218  0.040962  0.232743  1
  Lu  Lu9  1  0.040962  0.808218  0.232743  1
  Lu  Lu10  1  0.424526  0.191782  0.232743  1
  Lu  Lu11  1  0.575474  0.808218  0.767257  1
  Fe  Fe12  1  0.383781  0.383781  0.000000  1
  Fe  Fe13  1  0.616219  0.616219  0.000000  1
  Fe  Fe14  1  0.000000  0.000000  0.000000  1
  Pb  Pb15  1  0.000000  0.500000  0.500000  1
  Pb  Pb16  1  0.500000  0.000000  0.500000  1
