# generated using pymatgen
data_Cu(BrO3)2
_symmetry_space_group_name_H-M   'P 1'
_cell_length_a   5.61144800
_cell_length_b   5.46880295
_cell_length_c   8.92296683
_cell_angle_alpha   97.03556569
_cell_angle_beta   90.00000000
_cell_angle_gamma   90.00000000
_symmetry_Int_Tables_number   1
_chemical_formula_structural   Cu(BrO3)2
_chemical_formula_sum   'Cu2 Br4 O12'
_cell_volume   271.76531083
_cell_formula_units_Z   2
loop_
 _symmetry_equiv_pos_site_id
 _symmetry_equiv_pos_as_xyz
  1  'x, y, z'
loop_
 _atom_site_type_symbol
 _atom_site_label
 _atom_site_symmetry_multiplicity
 _atom_site_fract_x
 _atom_site_fract_y
 _atom_site_fract_z
 _atom_site_occupancy
  Cu  Cu0  1  0.836581  0.727161  0.244931  1
  Cu  Cu1  1  0.336581  0.272839  0.755069  1
  Br  Br2  1  0.694978  0.229995  0.439581  1
  Br  Br3  1  0.194978  0.770005  0.560419  1
  Br  Br4  1  0.700300  0.752021  0.902533  1
  Br  Br5  1  0.200300  0.247979  0.097467  1
  O  O6  1  0.634936  0.626410  0.066294  1
  O  O7  1  0.134936  0.373590  0.933706  1
  O  O8  1  0.031330  0.874626  0.416798  1
  O  O9  1  0.531330  0.125374  0.583202  1
  O  O10  1  0.557402  0.479245  0.392743  1
  O  O11  1  0.057402  0.520755  0.607257  1
  O  O12  1  0.576889  0.030090  0.917655  1
  O  O13  1  0.076889  0.969910  0.082345  1
  O  O14  1  0.525935  0.577157  0.770920  1
  O  O15  1  0.025935  0.422843  0.229080  1
  O  O16  1  0.616899  0.009060  0.292744  1
  O  O17  1  0.116899  0.990940  0.707256  1
