# generated using pymatgen
data_EuErTl4(SbO7)2
_symmetry_space_group_name_H-M   'P 1'
_cell_length_a   6.50265341
_cell_length_b   6.50265209
_cell_length_c   7.73704161
_cell_angle_alpha   89.98218494
_cell_angle_beta   90.01781683
_cell_angle_gamma   111.65373703
_symmetry_Int_Tables_number   1
_chemical_formula_structural   EuErTl4(SbO7)2
_chemical_formula_sum   'Eu1 Er1 Tl4 Sb2 O14'
_cell_volume   304.06966473
_cell_formula_units_Z   1
loop_
 _symmetry_equiv_pos_site_id
 _symmetry_equiv_pos_as_xyz
  1  'x, y, z'
loop_
 _atom_site_type_symbol
 _atom_site_label
 _atom_site_symmetry_multiplicity
 _atom_site_fract_x
 _atom_site_fract_y
 _atom_site_fract_z
 _atom_site_occupancy
  Eu  Eu0  1  0.500000  0.500000  0.000000  1
  Er  Er1  1  0.500000  0.500000  0.500000  1
  Tl  Tl2  1  0.522202  0.996030  0.747459  1
  Tl  Tl3  1  0.996030  0.522202  0.252541  1
  Tl  Tl4  1  0.477798  0.003970  0.252541  1
  Tl  Tl5  1  0.003970  0.477798  0.747459  1
  Sb  Sb6  1  0.000000  0.000000  0.500000  1
  Sb  Sb7  1  0.000000  0.000000  0.000000  1
  O  O8  1  0.672480  0.913745  0.474983  1
  O  O9  1  0.913745  0.672480  0.525017  1
  O  O10  1  0.673160  0.919567  0.025030  1
  O  O11  1  0.919567  0.673160  0.974970  1
  O  O12  1  0.327520  0.086255  0.525017  1
  O  O13  1  0.086255  0.327520  0.474983  1
  O  O14  1  0.326840  0.080433  0.974970  1
  O  O15  1  0.080433  0.326840  0.025030  1
  O  O16  1  0.944714  0.055286  0.750106  1
  O  O17  1  0.055286  0.944714  0.249894  1
  O  O18  1  0.372059  0.627941  0.741201  1
  O  O19  1  0.627941  0.372059  0.258799  1
  O  O20  1  0.641263  0.358737  0.742042  1
  O  O21  1  0.358737  0.641263  0.257958  1
