# generated using pymatgen
data_Dy17Ho3Si15Pt
_symmetry_space_group_name_H-M   'P 1'
_cell_length_a   7.44648336
_cell_length_b   7.68617373
_cell_length_c   14.61436025
_cell_angle_alpha   89.81180087
_cell_angle_beta   89.66962440
_cell_angle_gamma   90.19598908
_symmetry_Int_Tables_number   1
_chemical_formula_structural   Dy17Ho3Si15Pt
_chemical_formula_sum   'Dy17 Ho3 Si15 Pt1'
_cell_volume   836.42902900
_cell_formula_units_Z   1
loop_
 _symmetry_equiv_pos_site_id
 _symmetry_equiv_pos_as_xyz
  1  'x, y, z'
loop_
 _atom_site_type_symbol
 _atom_site_label
 _atom_site_symmetry_multiplicity
 _atom_site_fract_x
 _atom_site_fract_y
 _atom_site_fract_z
 _atom_site_occupancy
  Dy  Dy0  1  0.351725  0.011082  0.751267  1
  Dy  Dy1  1  0.973521  0.817091  0.098568  1
  Dy  Dy2  1  0.471446  0.682974  0.401377  1
  Dy  Dy3  1  0.528699  0.321858  0.900689  1
  Dy  Dy4  1  0.029275  0.183835  0.599161  1
  Dy  Dy5  1  0.028749  0.183286  0.900999  1
  Dy  Dy6  1  0.529745  0.317392  0.598651  1
  Dy  Dy7  1  0.473788  0.682092  0.099859  1
  Dy  Dy8  1  0.969691  0.816727  0.400458  1
  Dy  Dy9  1  0.681185  0.816222  0.880520  1
  Dy  Dy10  1  0.179774  0.681107  0.621831  1
  Dy  Dy11  1  0.818565  0.330012  0.120203  1
  Dy  Dy12  1  0.316927  0.178295  0.376460  1
  Dy  Dy13  1  0.320688  0.178646  0.123461  1
  Dy  Dy14  1  0.819211  0.319810  0.377305  1
  Dy  Dy15  1  0.178053  0.675367  0.877931  1
  Dy  Dy16  1  0.682343  0.819859  0.622611  1
  Ho  Ho17  1  0.648239  0.991776  0.249328  1
  Ho  Ho18  1  0.148841  0.511204  0.248191  1
  Ho  Ho19  1  0.847341  0.488236  0.755754  1
  Si  Si20  1  0.765220  0.629235  0.252122  1
  Si  Si21  1  0.266019  0.872442  0.250885  1
  Si  Si22  1  0.733671  0.124652  0.748786  1
  Si  Si23  1  0.233581  0.373753  0.746649  1
  Si  Si24  1  0.020094  0.104738  0.249306  1
  Si  Si25  1  0.522920  0.396646  0.251524  1
  Si  Si26  1  0.473189  0.605413  0.746856  1
  Si  Si27  1  0.977312  0.896271  0.748408  1
  Si  Si28  1  0.354367  0.971909  0.539819  1
  Si  Si29  1  0.646717  0.026994  0.042318  1
  Si  Si30  1  0.147298  0.470351  0.460064  1
  Si  Si31  1  0.156202  0.472211  0.041832  1
  Si  Si32  1  0.644729  0.028676  0.459541  1
  Si  Si33  1  0.353213  0.969326  0.961333  1
  Si  Si34  1  0.854668  0.528940  0.539300  1
  Pt  Pt35  1  0.852994  0.521573  0.956636  1
