# generated using pymatgen
data_Hf2Mg(TaRe12)2
_symmetry_space_group_name_H-M   'P 1'
_cell_length_a   8.44234252
_cell_length_b   8.44234133
_cell_length_c   8.43248224
_cell_angle_alpha   109.50497431
_cell_angle_beta   109.50497212
_cell_angle_gamma   109.45111909
_symmetry_Int_Tables_number   1
_chemical_formula_structural   Hf2Mg(TaRe12)2
_chemical_formula_sum   'Hf2 Mg1 Ta2 Re24'
_cell_volume   462.38633470
_cell_formula_units_Z   1
loop_
 _symmetry_equiv_pos_site_id
 _symmetry_equiv_pos_as_xyz
  1  'x, y, z'
loop_
 _atom_site_type_symbol
 _atom_site_label
 _atom_site_symmetry_multiplicity
 _atom_site_fract_x
 _atom_site_fract_y
 _atom_site_fract_z
 _atom_site_occupancy
  Hf  Hf0  1  0.000298  0.000298  0.634004  1
  Hf  Hf1  1  0.366294  0.366294  0.365996  1
  Mg  Mg2  1  0.999427  0.999427  0.000000  1
  Ta  Ta3  1  0.634043  0.000316  0.000000  1
  Ta  Ta4  1  0.000316  0.634043  0.000000  1
  Re  Re5  1  0.399165  0.680753  0.000000  1
  Re  Re6  1  0.716782  0.320164  0.319021  1
  Re  Re7  1  0.397761  0.001143  0.680979  1
  Re  Re8  1  0.680753  0.399165  0.000000  1
  Re  Re9  1  0.001143  0.397761  0.680979  1
  Re  Re10  1  0.320164  0.716782  0.319021  1
  Re  Re11  1  0.324084  0.324084  0.717934  1
  Re  Re12  1  0.000707  0.676236  0.395885  1
  Re  Re13  1  0.676236  0.000707  0.395885  1
  Re  Re14  1  0.606151  0.606151  0.282066  1
  Re  Re15  1  0.280350  0.604822  0.604115  1
  Re  Re16  1  0.604822  0.280350  0.604115  1
  Re  Re17  1  0.376450  0.192951  0.000000  1
  Re  Re18  1  0.181040  0.805239  0.806567  1
  Re  Re19  1  0.374472  0.998671  0.193433  1
  Re  Re20  1  0.192951  0.376450  0.000000  1
  Re  Re21  1  0.998671  0.374472  0.193433  1
  Re  Re22  1  0.805239  0.181040  0.806567  1
  Re  Re23  1  0.805945  0.805945  0.180714  1
  Re  Re24  1  0.998339  0.192148  0.374734  1
  Re  Re25  1  0.192148  0.998339  0.374734  1
  Re  Re26  1  0.625231  0.625231  0.819286  1
  Re  Re27  1  0.817414  0.623605  0.625266  1
  Re  Re28  1  0.623605  0.817414  0.625266  1
