# generated using pymatgen
data_AcTb(BOs)8
_symmetry_space_group_name_H-M   'P 1'
_cell_length_a   7.64993400
_cell_length_b   7.64993400
_cell_length_c   4.00813200
_cell_angle_alpha   90.00000000
_cell_angle_beta   90.00000000
_cell_angle_gamma   90.00000000
_symmetry_Int_Tables_number   1
_chemical_formula_structural   AcTb(BOs)8
_chemical_formula_sum   'Ac1 Tb1 B8 Os8'
_cell_volume   234.56185758
_cell_formula_units_Z   1
loop_
 _symmetry_equiv_pos_site_id
 _symmetry_equiv_pos_as_xyz
  1  'x, y, z'
loop_
 _atom_site_type_symbol
 _atom_site_label
 _atom_site_symmetry_multiplicity
 _atom_site_fract_x
 _atom_site_fract_y
 _atom_site_fract_z
 _atom_site_occupancy
  Ac  Ac0  1  0.500000  0.500000  0.000000  1
  Tb  Tb1  1  0.000000  0.000000  0.500000  1
  B  B2  1  0.667055  0.787811  0.607847  1
  B  B3  1  0.161712  0.273630  0.886806  1
  B  B4  1  0.273630  0.838288  0.113194  1
  B  B5  1  0.726370  0.161712  0.113194  1
  B  B6  1  0.332945  0.212189  0.607847  1
  B  B7  1  0.838288  0.726370  0.886806  1
  B  B8  1  0.212189  0.667055  0.392153  1
  B  B9  1  0.787811  0.332945  0.392153  1
  Os  Os10  1  0.350835  0.104203  0.111721  1
  Os  Os11  1  0.649165  0.895797  0.111721  1
  Os  Os12  1  0.609036  0.142253  0.610611  1
  Os  Os13  1  0.104203  0.649165  0.888279  1
  Os  Os14  1  0.142253  0.390964  0.389389  1
  Os  Os15  1  0.857747  0.609036  0.389389  1
  Os  Os16  1  0.895797  0.350835  0.888279  1
  Os  Os17  1  0.390964  0.857747  0.610611  1
