# generated using pymatgen
data_Sb12PdRu2Rh
_symmetry_space_group_name_H-M   'P 1'
_cell_length_a   8.13627607
_cell_length_b   8.13247127
_cell_length_c   9.38799295
_cell_angle_alpha   54.79400295
_cell_angle_beta   54.68957656
_cell_angle_gamma   70.52508493
_symmetry_Int_Tables_number   1
_chemical_formula_structural   Sb12PdRu2Rh
_chemical_formula_sum   'Sb12 Pd1 Ru2 Rh1'
_cell_volume   414.18597508
_cell_formula_units_Z   1
loop_
 _symmetry_equiv_pos_site_id
 _symmetry_equiv_pos_as_xyz
  1  'x, y, z'
loop_
 _atom_site_type_symbol
 _atom_site_label
 _atom_site_symmetry_multiplicity
 _atom_site_fract_x
 _atom_site_fract_y
 _atom_site_fract_z
 _atom_site_occupancy
  Sb  Sb0  1  0.156693  0.156862  0.179488  1
  Sb  Sb1  1  0.843307  0.843138  0.820512  1
  Sb  Sb2  1  0.849116  0.842815  0.498936  1
  Sb  Sb3  1  0.150884  0.157185  0.501064  1
  Sb  Sb4  1  0.817692  0.504657  0.337417  1
  Sb  Sb5  1  0.182308  0.495343  0.662583  1
  Sb  Sb6  1  0.502195  0.810571  0.338713  1
  Sb  Sb7  1  0.497805  0.189429  0.661287  1
  Sb  Sb8  1  0.659484  0.337302  0.844871  1
  Sb  Sb9  1  0.340516  0.662698  0.155129  1
  Sb  Sb10  1  0.661607  0.348259  0.149494  1
  Sb  Sb11  1  0.338393  0.651741  0.850506  1
  Pd  Pd12  1  0.500000  0.000000  0.500000  1
  Ru  Ru13  1  0.000000  0.500000  0.000000  1
  Ru  Ru14  1  0.500000  0.000000  0.000000  1
  Rh  Rh15  1  0.000000  0.500000  0.500000  1
