# generated using pymatgen
data_YHo7(Sc3Pt4)4
_symmetry_space_group_name_H-M   'P 1'
_cell_length_a   7.25066906
_cell_length_b   7.29662813
_cell_length_c   14.17349215
_cell_angle_alpha   89.98426881
_cell_angle_beta   90.00482853
_cell_angle_gamma   90.01436824
_symmetry_Int_Tables_number   1
_chemical_formula_structural   YHo7(Sc3Pt4)4
_chemical_formula_sum   'Y1 Ho7 Sc12 Pt16'
_cell_volume   749.85472460
_cell_formula_units_Z   1
loop_
 _symmetry_equiv_pos_site_id
 _symmetry_equiv_pos_as_xyz
  1  'x, y, z'
loop_
 _atom_site_type_symbol
 _atom_site_label
 _atom_site_symmetry_multiplicity
 _atom_site_fract_x
 _atom_site_fract_y
 _atom_site_fract_z
 _atom_site_occupancy
  Y  Y0  1  0.496588  0.676866  0.592474  1
  Ho  Ho1  1  0.997077  0.822836  0.907421  1
  Ho  Ho2  1  0.502973  0.322862  0.092540  1
  Ho  Ho3  1  0.002997  0.177189  0.407419  1
  Ho  Ho4  1  0.502914  0.322616  0.407369  1
  Ho  Ho5  1  0.003003  0.177175  0.092537  1
  Ho  Ho6  1  0.497029  0.677120  0.907343  1
  Ho  Ho7  1  0.997010  0.822831  0.592600  1
  Sc  Sc8  1  0.655492  0.168086  0.624510  1
  Sc  Sc9  1  0.155577  0.331951  0.875519  1
  Sc  Sc10  1  0.344473  0.831891  0.124475  1
  Sc  Sc11  1  0.844377  0.668112  0.375543  1
  Sc  Sc12  1  0.344332  0.831994  0.375471  1
  Sc  Sc13  1  0.844495  0.668050  0.124497  1
  Sc  Sc14  1  0.655572  0.168099  0.875556  1
  Sc  Sc15  1  0.155450  0.331860  0.624528  1
  Sc  Sc16  1  0.821634  0.503441  0.750040  1
  Sc  Sc17  1  0.321548  0.996651  0.750107  1
  Sc  Sc18  1  0.178431  0.496509  0.249981  1
  Sc  Sc19  1  0.678473  0.003451  0.250000  1
  Pt  Pt20  1  0.681179  0.959806  0.458584  1
  Pt  Pt21  1  0.180801  0.540666  0.041195  1
  Pt  Pt22  1  0.319038  0.040690  0.958841  1
  Pt  Pt23  1  0.820051  0.458621  0.541017  1
  Pt  Pt24  1  0.318930  0.041480  0.540982  1
  Pt  Pt25  1  0.819132  0.459366  0.958805  1
  Pt  Pt26  1  0.680812  0.959278  0.041118  1
  Pt  Pt27  1  0.180495  0.540478  0.458600  1
  Pt  Pt28  1  0.457425  0.380116  0.750281  1
  Pt  Pt29  1  0.957540  0.119514  0.750063  1
  Pt  Pt30  1  0.542462  0.619488  0.249985  1
  Pt  Pt31  1  0.042467  0.880523  0.249986  1
  Pt  Pt32  1  0.684265  0.856029  0.750496  1
  Pt  Pt33  1  0.183357  0.644336  0.750211  1
  Pt  Pt34  1  0.316276  0.144436  0.249968  1
  Pt  Pt35  1  0.816323  0.355583  0.249939  1
