# generated using pymatgen
data_Th2Tc17C3
_symmetry_space_group_name_H-M   'P 1'
_cell_length_a   7.01074142
_cell_length_b   7.01074002
_cell_length_c   7.01074136
_cell_angle_alpha   83.22107431
_cell_angle_beta   83.22106408
_cell_angle_gamma   83.22107104
_symmetry_Int_Tables_number   1
_chemical_formula_structural   Th2Tc17C3
_chemical_formula_sum   'Th2 Tc17 C3'
_cell_volume   337.88125852
_cell_formula_units_Z   1
loop_
 _symmetry_equiv_pos_site_id
 _symmetry_equiv_pos_as_xyz
  1  'x, y, z'
loop_
 _atom_site_type_symbol
 _atom_site_label
 _atom_site_symmetry_multiplicity
 _atom_site_fract_x
 _atom_site_fract_y
 _atom_site_fract_z
 _atom_site_occupancy
  Th  Th0  1  0.651239  0.651239  0.651239  1
  Th  Th1  1  0.348761  0.348761  0.348761  1
  Tc  Tc2  1  0.000000  0.000000  0.500000  1
  Tc  Tc3  1  0.500000  0.000000  0.000000  1
  Tc  Tc4  1  0.000000  0.500000  0.000000  1
  Tc  Tc5  1  0.722391  0.277609  0.000000  1
  Tc  Tc6  1  0.000000  0.722391  0.277609  1
  Tc  Tc7  1  0.277609  0.000000  0.722391  1
  Tc  Tc8  1  0.000000  0.277609  0.722391  1
  Tc  Tc9  1  0.722391  0.000000  0.277609  1
  Tc  Tc10  1  0.277609  0.722391  0.000000  1
  Tc  Tc11  1  0.348086  0.348086  0.861679  1
  Tc  Tc12  1  0.861679  0.348086  0.348086  1
  Tc  Tc13  1  0.348086  0.861679  0.348086  1
  Tc  Tc14  1  0.651914  0.651914  0.138321  1
  Tc  Tc15  1  0.138321  0.651914  0.651914  1
  Tc  Tc16  1  0.651914  0.138321  0.651914  1
  Tc  Tc17  1  0.901645  0.901645  0.901645  1
  Tc  Tc18  1  0.098355  0.098355  0.098355  1
  C  C19  1  0.500000  0.500000  0.000000  1
  C  C20  1  0.000000  0.500000  0.500000  1
  C  C21  1  0.500000  0.000000  0.500000  1
