# generated using pymatgen
data_KPmF3
_symmetry_space_group_name_H-M   'P 1'
_cell_length_a   6.43454621
_cell_length_b   6.43454581
_cell_length_c   6.70733611
_cell_angle_alpha   61.33649019
_cell_angle_beta   61.33649297
_cell_angle_gamma   59.99999564
_symmetry_Int_Tables_number   1
_chemical_formula_structural   KPmF3
_chemical_formula_sum   'K2 Pm2 F6'
_cell_volume   200.24185537
_cell_formula_units_Z   2
loop_
 _symmetry_equiv_pos_site_id
 _symmetry_equiv_pos_as_xyz
  1  'x, y, z'
loop_
 _atom_site_type_symbol
 _atom_site_label
 _atom_site_symmetry_multiplicity
 _atom_site_fract_x
 _atom_site_fract_y
 _atom_site_fract_z
 _atom_site_occupancy
  K  K0  1  0.640853  0.640853  0.077443  1
  K  K1  1  0.359148  0.359148  0.922556  1
  Pm  Pm2  1  0.872315  0.872315  0.383054  1
  Pm  Pm3  1  0.127683  0.127683  0.616947  1
  F  F4  1  0.937886  0.504436  0.336337  1
  F  F5  1  0.221342  0.937887  0.336337  1
  F  F6  1  0.504434  0.221342  0.336337  1
  F  F7  1  0.495566  0.778657  0.663663  1
  F  F8  1  0.778658  0.062113  0.663663  1
  F  F9  1  0.062115  0.495565  0.663663  1
