# generated using pymatgen
data_Th8Ta5Nb7Si16
_symmetry_space_group_name_H-M   'P 1'
_cell_length_a   7.18298908
_cell_length_b   7.18202051
_cell_length_c   13.39351003
_cell_angle_alpha   89.95754029
_cell_angle_beta   89.98528492
_cell_angle_gamma   90.00842113
_symmetry_Int_Tables_number   1
_chemical_formula_structural   Th8Ta5Nb7Si16
_chemical_formula_sum   'Th8 Ta5 Nb7 Si16'
_cell_volume   690.94919670
_cell_formula_units_Z   1
loop_
 _symmetry_equiv_pos_site_id
 _symmetry_equiv_pos_as_xyz
  1  'x, y, z'
loop_
 _atom_site_type_symbol
 _atom_site_label
 _atom_site_symmetry_multiplicity
 _atom_site_fract_x
 _atom_site_fract_y
 _atom_site_fract_z
 _atom_site_occupancy
  Th  Th0  1  0.999087  0.337182  0.218079  1
  Th  Th1  1  0.000853  0.662668  0.718142  1
  Th  Th2  1  0.162564  0.499229  0.468139  1
  Th  Th3  1  0.501085  0.837388  0.031870  1
  Th  Th4  1  0.837293  0.500850  0.968199  1
  Th  Th5  1  0.499122  0.162597  0.531867  1
  Th  Th6  1  0.337359  0.999086  0.781852  1
  Th  Th7  1  0.662611  0.000899  0.281865  1
  Ta  Ta8  1  0.167841  0.167620  0.000182  1
  Ta  Ta9  1  0.832010  0.831992  0.499932  1
  Ta  Ta10  1  0.331588  0.668343  0.249809  1
  Ta  Ta11  1  0.668102  0.331897  0.749962  1
  Ta  Ta12  1  0.005263  0.839848  0.125924  1
  Nb  Nb13  1  0.160167  0.995018  0.374030  1
  Nb  Nb14  1  0.839591  0.004970  0.874058  1
  Nb  Nb15  1  0.504995  0.660227  0.624138  1
  Nb  Nb16  1  0.339641  0.495048  0.876015  1
  Nb  Nb17  1  0.495092  0.339610  0.124060  1
  Nb  Nb18  1  0.660421  0.505108  0.375872  1
  Nb  Nb19  1  0.994993  0.160274  0.625959  1
  Si  Si20  1  0.288694  0.038891  0.186121  1
  Si  Si21  1  0.711278  0.960939  0.686166  1
  Si  Si22  1  0.460951  0.788726  0.436200  1
  Si  Si23  1  0.211093  0.539396  0.063902  1
  Si  Si24  1  0.538977  0.211235  0.936095  1
  Si  Si25  1  0.788720  0.461008  0.563800  1
  Si  Si26  1  0.039116  0.288726  0.813780  1
  Si  Si27  1  0.961018  0.711332  0.313661  1
  Si  Si28  1  0.375732  0.299149  0.313738  1
  Si  Si29  1  0.624210  0.700836  0.813659  1
  Si  Si30  1  0.200884  0.875712  0.563634  1
  Si  Si31  1  0.124069  0.799183  0.936519  1
  Si  Si32  1  0.799460  0.123971  0.063921  1
  Si  Si33  1  0.875733  0.200850  0.436358  1
  Si  Si34  1  0.299118  0.375751  0.686326  1
  Si  Si35  1  0.701271  0.624441  0.186168  1
