# generated using pymatgen
data_Sc4Ge7PRh16
_symmetry_space_group_name_H-M   'P 1'
_cell_length_a   4.12329400
_cell_length_b   9.09788930
_cell_length_c   11.30714579
_cell_angle_alpha   89.80332085
_cell_angle_beta   90.00000000
_cell_angle_gamma   90.00000000
_symmetry_Int_Tables_number   1
_chemical_formula_structural   Sc4Ge7PRh16
_chemical_formula_sum   'Sc4 Ge7 P1 Rh16'
_cell_volume   424.16554023
_cell_formula_units_Z   1
loop_
 _symmetry_equiv_pos_site_id
 _symmetry_equiv_pos_as_xyz
  1  'x, y, z'
loop_
 _atom_site_type_symbol
 _atom_site_label
 _atom_site_symmetry_multiplicity
 _atom_site_fract_x
 _atom_site_fract_y
 _atom_site_fract_z
 _atom_site_occupancy
  Sc  Sc0  1  0.250000  0.146004  0.826656  1
  Sc  Sc1  1  0.250000  0.355270  0.324887  1
  Sc  Sc2  1  0.750000  0.853810  0.174904  1
  Sc  Sc3  1  0.750000  0.640279  0.675859  1
  Ge  Ge4  1  0.250000  0.084528  0.139820  1
  Ge  Ge5  1  0.750000  0.583478  0.360442  1
  Ge  Ge6  1  0.750000  0.914509  0.860044  1
  Ge  Ge7  1  0.250000  0.620531  0.060147  1
  Ge  Ge8  1  0.250000  0.877990  0.558523  1
  Ge  Ge9  1  0.750000  0.379430  0.939670  1
  Ge  Ge10  1  0.750000  0.121794  0.441960  1
  P  P11  1  0.250000  0.414659  0.638290  1
  Rh  Rh12  1  0.250000  0.607028  0.505759  1
  Rh  Rh13  1  0.250000  0.883707  0.999137  1
  Rh  Rh14  1  0.750000  0.385999  0.503319  1
  Rh  Rh15  1  0.750000  0.114970  0.000683  1
  Rh  Rh16  1  0.250000  0.704038  0.269104  1
  Rh  Rh17  1  0.250000  0.796673  0.765569  1
  Rh  Rh18  1  0.750000  0.301198  0.731086  1
  Rh  Rh19  1  0.750000  0.205030  0.233625  1
  Rh  Rh20  1  0.250000  0.183616  0.568625  1
  Rh  Rh21  1  0.250000  0.330758  0.061486  1
  Rh  Rh22  1  0.750000  0.826739  0.437474  1
  Rh  Rh23  1  0.750000  0.666467  0.934119  1
  Rh  Rh24  1  0.250000  0.009331  0.346771  1
  Rh  Rh25  1  0.250000  0.489926  0.830424  1
  Rh  Rh26  1  0.750000  0.995791  0.654896  1
  Rh  Rh27  1  0.750000  0.506446  0.156723  1
