# generated using pymatgen
data_Co2GeSe5
_symmetry_space_group_name_H-M   'P 1'
_cell_length_a   3.57729900
_cell_length_b   7.45118041
_cell_length_c   12.64025603
_cell_angle_alpha   78.37093873
_cell_angle_beta   90.00000000
_cell_angle_gamma   90.00000000
_symmetry_Int_Tables_number   1
_chemical_formula_structural   Co2GeSe5
_chemical_formula_sum   'Co4 Ge2 Se10'
_cell_volume   330.01122994
_cell_formula_units_Z   2
loop_
 _symmetry_equiv_pos_site_id
 _symmetry_equiv_pos_as_xyz
  1  'x, y, z'
loop_
 _atom_site_type_symbol
 _atom_site_label
 _atom_site_symmetry_multiplicity
 _atom_site_fract_x
 _atom_site_fract_y
 _atom_site_fract_z
 _atom_site_occupancy
  Co  Co0  1  0.000000  0.250417  0.147943  1
  Co  Co1  1  0.000000  0.749583  0.852057  1
  Co  Co2  1  0.500000  0.747240  0.144285  1
  Co  Co3  1  0.500000  0.252760  0.855715  1
  Ge  Ge4  1  0.500000  0.165426  0.683871  1
  Ge  Ge5  1  0.500000  0.834574  0.316129  1
  Se  Se6  1  0.000000  0.952925  0.104799  1
  Se  Se7  1  0.000000  0.047075  0.895201  1
  Se  Se8  1  0.000000  0.464226  0.786456  1
  Se  Se9  1  0.000000  0.535774  0.213544  1
  Se  Se10  1  0.500000  0.670339  0.973639  1
  Se  Se11  1  0.500000  0.329661  0.026361  1
  Se  Se12  1  0.500000  0.176126  0.277965  1
  Se  Se13  1  0.500000  0.823874  0.722035  1
  Se  Se14  1  0.000000  0.241343  0.556624  1
  Se  Se15  1  0.000000  0.758657  0.443376  1
