# generated using pymatgen
data_Tb5Dy(ThS6)2
_symmetry_space_group_name_H-M   'P 1'
_cell_length_a   3.92425900
_cell_length_b   10.49731449
_cell_length_c   10.73658746
_cell_angle_alpha   89.52312297
_cell_angle_beta   90.00000000
_cell_angle_gamma   90.00000000
_symmetry_Int_Tables_number   1
_chemical_formula_structural   Tb5Dy(ThS6)2
_chemical_formula_sum   'Tb5 Dy1 Th2 S12'
_cell_volume   442.26960634
_cell_formula_units_Z   1
loop_
 _symmetry_equiv_pos_site_id
 _symmetry_equiv_pos_as_xyz
  1  'x, y, z'
loop_
 _atom_site_type_symbol
 _atom_site_label
 _atom_site_symmetry_multiplicity
 _atom_site_fract_x
 _atom_site_fract_y
 _atom_site_fract_z
 _atom_site_occupancy
  Tb  Tb0  1  0.750000  0.490671  0.690468  1
  Tb  Tb1  1  0.250000  0.509296  0.309571  1
  Tb  Tb2  1  0.250000  0.190816  0.484278  1
  Tb  Tb3  1  0.750000  0.809195  0.515719  1
  Tb  Tb4  1  0.750000  0.682046  0.008916  1
  Dy  Dy5  1  0.250000  0.318079  0.991216  1
  Th  Th6  1  0.250000  0.005046  0.802743  1
  Th  Th7  1  0.750000  0.994978  0.197231  1
  S  S8  1  0.250000  0.294987  0.729787  1
  S  S9  1  0.750000  0.704955  0.270542  1
  S  S10  1  0.750000  0.804151  0.774470  1
  S  S11  1  0.250000  0.195999  0.225206  1
  S  S12  1  0.250000  0.943295  0.386271  1
  S  S13  1  0.750000  0.056728  0.613727  1
  S  S14  1  0.750000  0.445856  0.123513  1
  S  S15  1  0.250000  0.553320  0.876223  1
  S  S16  1  0.250000  0.869059  0.043674  1
  S  S17  1  0.750000  0.131542  0.956436  1
  S  S18  1  0.750000  0.375474  0.451326  1
  S  S19  1  0.250000  0.624507  0.548682  1
