# generated using pymatgen
data_RbSb12(RuPt)2
_symmetry_space_group_name_H-M   'P 1'
_cell_length_a   8.22826250
_cell_length_b   8.24141806
_cell_length_c   8.22826353
_cell_angle_alpha   109.40613609
_cell_angle_beta   109.48554639
_cell_angle_gamma   109.45734477
_symmetry_Int_Tables_number   1
_chemical_formula_structural   RbSb12(RuPt)2
_chemical_formula_sum   'Rb1 Sb12 Ru2 Pt2'
_cell_volume   429.87497997
_cell_formula_units_Z   1
loop_
 _symmetry_equiv_pos_site_id
 _symmetry_equiv_pos_as_xyz
  1  'x, y, z'
loop_
 _atom_site_type_symbol
 _atom_site_label
 _atom_site_symmetry_multiplicity
 _atom_site_fract_x
 _atom_site_fract_y
 _atom_site_fract_z
 _atom_site_occupancy
  Rb  Rb0  1  0.000000  0.000000  0.000000  1
  Sb  Sb1  1  0.153968  0.806124  0.652156  1
  Sb  Sb2  1  0.158887  0.498005  0.339119  1
  Sb  Sb3  1  0.499874  0.651099  0.838676  1
  Sb  Sb4  1  0.338902  0.839235  0.187561  1
  Sb  Sb5  1  0.812423  0.651099  0.151225  1
  Sb  Sb6  1  0.651674  0.839235  0.500333  1
  Sb  Sb7  1  0.187577  0.348901  0.848775  1
  Sb  Sb8  1  0.661098  0.160765  0.812439  1
  Sb  Sb9  1  0.348326  0.160765  0.499667  1
  Sb  Sb10  1  0.500126  0.348901  0.161324  1
  Sb  Sb11  1  0.841113  0.501995  0.660881  1
  Sb  Sb12  1  0.846032  0.193876  0.347844  1
  Ru  Ru13  1  0.500000  0.500000  0.500000  1
  Ru  Ru14  1  0.000000  0.500000  0.000000  1
  Pt  Pt15  1  0.000000  0.000000  0.500000  1
  Pt  Pt16  1  0.500000  0.000000  0.000000  1
