# generated using pymatgen
data_Rb3Na2VP3
_symmetry_space_group_name_H-M   'P 1'
_cell_length_a   10.44485813
_cell_length_b   10.44485734
_cell_length_c   15.43525200
_cell_angle_alpha   90.00000000
_cell_angle_beta   90.00000000
_cell_angle_gamma   142.50617835
_symmetry_Int_Tables_number   1
_chemical_formula_structural   Rb3Na2VP3
_chemical_formula_sum   'Rb12 Na8 V4 P12'
_cell_volume   1024.95517385
_cell_formula_units_Z   4
loop_
 _symmetry_equiv_pos_site_id
 _symmetry_equiv_pos_as_xyz
  1  'x, y, z'
loop_
 _atom_site_type_symbol
 _atom_site_label
 _atom_site_symmetry_multiplicity
 _atom_site_fract_x
 _atom_site_fract_y
 _atom_site_fract_z
 _atom_site_occupancy
  Rb  Rb0  1  0.939640  0.606427  0.826538  1
  Rb  Rb1  1  0.560360  0.893573  0.326538  1
  Rb  Rb2  1  0.393573  0.060360  0.173462  1
  Rb  Rb3  1  0.060360  0.393573  0.173462  1
  Rb  Rb4  1  0.893573  0.560360  0.326538  1
  Rb  Rb5  1  0.439640  0.106427  0.673462  1
  Rb  Rb6  1  0.606427  0.939640  0.826538  1
  Rb  Rb7  1  0.274051  0.274051  0.314243  1
  Rb  Rb8  1  0.774051  0.774051  0.185757  1
  Rb  Rb9  1  0.225949  0.225949  0.814243  1
  Rb  Rb10  1  0.725949  0.725949  0.685757  1
  Rb  Rb11  1  0.106427  0.439640  0.673462  1
  Na  Na12  1  0.920783  0.079217  0.000000  1
  Na  Na13  1  0.579217  0.420783  0.500000  1
  Na  Na14  1  0.079217  0.920783  0.000000  1
  Na  Na15  1  0.420783  0.579217  0.500000  1
  Na  Na16  1  0.755277  0.244723  0.000000  1
  Na  Na17  1  0.744723  0.255277  0.500000  1
  Na  Na18  1  0.244723  0.755277  0.000000  1
  Na  Na19  1  0.255277  0.744723  0.500000  1
  V  V20  1  0.580623  0.419377  0.000000  1
  V  V21  1  0.919377  0.080623  0.500000  1
  V  V22  1  0.419377  0.580623  0.000000  1
  V  V23  1  0.080623  0.919377  0.500000  1
  P  P24  1  0.848509  0.548445  0.090515  1
  P  P25  1  0.451555  0.151491  0.909485  1
  P  P26  1  0.651491  0.951555  0.590515  1
  P  P27  1  0.951555  0.651491  0.590515  1
  P  P28  1  0.151491  0.451555  0.909485  1
  P  P29  1  0.548445  0.848509  0.090515  1
  P  P30  1  0.348509  0.048445  0.409485  1
  P  P31  1  0.185215  0.185215  0.581134  1
  P  P32  1  0.685215  0.685215  0.918866  1
  P  P33  1  0.314785  0.314785  0.081134  1
  P  P34  1  0.048445  0.348509  0.409485  1
  P  P35  1  0.814785  0.814785  0.418866  1
