# generated using pymatgen
data_ZrNp6Sb10Mo
_symmetry_space_group_name_H-M   'P 1'
_cell_length_a   9.21636800
_cell_length_b   9.21636679
_cell_length_c   6.14126400
_cell_angle_alpha   90.00000000
_cell_angle_beta   90.00000000
_cell_angle_gamma   119.99999716
_symmetry_Int_Tables_number   1
_chemical_formula_structural   ZrNp6Sb10Mo
_chemical_formula_sum   'Zr1 Np6 Sb10 Mo1'
_cell_volume   451.76020213
_cell_formula_units_Z   1
loop_
 _symmetry_equiv_pos_site_id
 _symmetry_equiv_pos_as_xyz
  1  'x, y, z'
loop_
 _atom_site_type_symbol
 _atom_site_label
 _atom_site_symmetry_multiplicity
 _atom_site_fract_x
 _atom_site_fract_y
 _atom_site_fract_z
 _atom_site_occupancy
  Zr  Zr0  1  0.000000  0.000000  0.500000  1
  Np  Np1  1  0.613377  0.000000  0.256055  1
  Np  Np2  1  0.386623  0.000000  0.743945  1
  Np  Np3  1  0.000000  0.613377  0.256055  1
  Np  Np4  1  0.000000  0.386623  0.743945  1
  Np  Np5  1  0.386623  0.386623  0.256055  1
  Np  Np6  1  0.613377  0.613377  0.743945  1
  Sb  Sb7  1  0.265755  0.000000  0.238669  1
  Sb  Sb8  1  0.734245  0.000000  0.761331  1
  Sb  Sb9  1  0.000000  0.265755  0.238669  1
  Sb  Sb10  1  0.000000  0.734245  0.761331  1
  Sb  Sb11  1  0.734245  0.734245  0.238669  1
  Sb  Sb12  1  0.265755  0.265755  0.761331  1
  Sb  Sb13  1  0.333333  0.666667  0.000000  1
  Sb  Sb14  1  0.666667  0.333333  0.000000  1
  Sb  Sb15  1  0.666667  0.333333  0.500000  1
  Sb  Sb16  1  0.333333  0.666667  0.500000  1
  Mo  Mo17  1  0.000000  0.000000  0.000000  1
