# generated using pymatgen
data_Gd4Si8Tc5Rh
_symmetry_space_group_name_H-M   'P 1'
_cell_length_a   6.77560144
_cell_length_b   6.80911098
_cell_length_c   6.73505400
_cell_angle_alpha   69.83909388
_cell_angle_beta   90.02066693
_cell_angle_gamma   89.94767404
_symmetry_Int_Tables_number   1
_chemical_formula_structural   Gd4Si8Tc5Rh
_chemical_formula_sum   'Gd4 Si8 Tc5 Rh1'
_cell_volume   291.68830271
_cell_formula_units_Z   1
loop_
 _symmetry_equiv_pos_site_id
 _symmetry_equiv_pos_as_xyz
  1  'x, y, z'
loop_
 _atom_site_type_symbol
 _atom_site_label
 _atom_site_symmetry_multiplicity
 _atom_site_fract_x
 _atom_site_fract_y
 _atom_site_fract_z
 _atom_site_occupancy
  Gd  Gd0  1  0.665316  0.438878  0.192430  1
  Gd  Gd1  1  0.164738  0.064676  0.808807  1
  Gd  Gd2  1  0.327267  0.552810  0.812627  1
  Gd  Gd3  1  0.828123  0.943494  0.189524  1
  Si  Si4  1  0.436216  0.110327  0.109114  1
  Si  Si5  1  0.932123  0.391409  0.890118  1
  Si  Si6  1  0.547964  0.870315  0.893475  1
  Si  Si7  1  0.050914  0.627434  0.104561  1
  Si  Si8  1  0.864856  0.135531  0.504847  1
  Si  Si9  1  0.359489  0.366666  0.490750  1
  Si  Si10  1  0.148882  0.874145  0.474827  1
  Si  Si11  1  0.658233  0.624661  0.542083  1
  Tc  Tc12  1  0.499846  0.984702  0.498464  1
  Tc  Tc13  1  0.998185  0.513378  0.499402  1
  Tc  Tc14  1  0.151516  0.254885  0.246070  1
  Tc  Tc15  1  0.646414  0.240457  0.748310  1
  Tc  Tc16  1  0.859996  0.778660  0.769401  1
  Rh  Rh17  1  0.359920  0.727570  0.225189  1
