# generated using pymatgen
data_Ba4Er(TcO6)2
_symmetry_space_group_name_H-M   'P 1'
_cell_length_a   10.07674812
_cell_length_b   10.07674856
_cell_length_c   10.07674819
_cell_angle_alpha   33.90461752
_cell_angle_beta   33.90461208
_cell_angle_gamma   33.90461036
_symmetry_Int_Tables_number   1
_chemical_formula_structural   Ba4Er(TcO6)2
_chemical_formula_sum   'Ba4 Er1 Tc2 O12'
_cell_volume   283.74550116
_cell_formula_units_Z   1
loop_
 _symmetry_equiv_pos_site_id
 _symmetry_equiv_pos_as_xyz
  1  'x, y, z'
loop_
 _atom_site_type_symbol
 _atom_site_label
 _atom_site_symmetry_multiplicity
 _atom_site_fract_x
 _atom_site_fract_y
 _atom_site_fract_z
 _atom_site_occupancy
  Ba  Ba0  1  0.710519  0.710519  0.710519  1
  Ba  Ba1  1  0.289481  0.289481  0.289481  1
  Ba  Ba2  1  0.867718  0.867718  0.867718  1
  Ba  Ba3  1  0.132282  0.132282  0.132282  1
  Er  Er4  1  0.000000  0.000000  0.000000  1
  Tc  Tc5  1  0.577901  0.577901  0.577901  1
  Tc  Tc6  1  0.422099  0.422099  0.422099  1
  O  O7  1  0.222843  0.689501  0.222843  1
  O  O8  1  0.222843  0.222843  0.689501  1
  O  O9  1  0.689501  0.222843  0.222843  1
  O  O10  1  0.777157  0.310499  0.777157  1
  O  O11  1  0.777157  0.777157  0.310499  1
  O  O12  1  0.310499  0.777157  0.777157  1
  O  O13  1  0.388254  0.857888  0.388254  1
  O  O14  1  0.388254  0.388254  0.857888  1
  O  O15  1  0.857888  0.388254  0.388254  1
  O  O16  1  0.611746  0.142112  0.611746  1
  O  O17  1  0.611746  0.611746  0.142112  1
  O  O18  1  0.142112  0.611746  0.611746  1
