# generated using pymatgen
data_Er2TmPa(Ga3Ir)6
_symmetry_space_group_name_H-M   'P 1'
_cell_length_a   7.61035600
_cell_length_b   7.59987428
_cell_length_c   9.42815500
_cell_angle_alpha   90.00000000
_cell_angle_beta   90.00000000
_cell_angle_gamma   119.93508138
_symmetry_Int_Tables_number   1
_chemical_formula_structural   Er2TmPa(Ga3Ir)6
_chemical_formula_sum   'Er2 Tm1 Pa1 Ga18 Ir6'
_cell_volume   472.55509941
_cell_formula_units_Z   1
loop_
 _symmetry_equiv_pos_site_id
 _symmetry_equiv_pos_as_xyz
  1  'x, y, z'
loop_
 _atom_site_type_symbol
 _atom_site_label
 _atom_site_symmetry_multiplicity
 _atom_site_fract_x
 _atom_site_fract_y
 _atom_site_fract_z
 _atom_site_occupancy
  Er  Er0  1  0.003824  0.331490  0.250000  1
  Er  Er1  1  0.669167  0.996586  0.750000  1
  Tm  Tm2  1  0.331336  0.003061  0.250000  1
  Pa  Pa3  1  0.997151  0.668643  0.750000  1
  Ga  Ga4  1  0.129426  0.129825  0.750000  1
  Ga  Ga5  1  0.873657  0.874539  0.250000  1
  Ga  Ga6  1  0.997958  0.330320  0.580087  1
  Ga  Ga7  1  0.002070  0.665874  0.415837  1
  Ga  Ga8  1  0.002070  0.665874  0.084163  1
  Ga  Ga9  1  0.338198  0.002002  0.919927  1
  Ga  Ga10  1  0.997958  0.330320  0.919913  1
  Ga  Ga11  1  0.665806  0.002198  0.081966  1
  Ga  Ga12  1  0.665806  0.002198  0.418034  1
  Ga  Ga13  1  0.338198  0.002002  0.580073  1
  Ga  Ga14  1  0.331189  0.331089  0.068807  1
  Ga  Ga15  1  0.664527  0.668409  0.933728  1
  Ga  Ga16  1  0.664527  0.668409  0.566272  1
  Ga  Ga17  1  0.331189  0.331089  0.431193  1
  Ga  Ga18  1  0.339687  0.545185  0.750000  1
  Ga  Ga19  1  0.660195  0.451930  0.250000  1
  Ga  Ga20  1  0.543847  0.338871  0.750000  1
  Ga  Ga21  1  0.452411  0.661081  0.250000  1
  Ir  Ir22  1  0.673669  0.330939  0.501736  1
  Ir  Ir23  1  0.326394  0.671364  0.501858  1
  Ir  Ir24  1  0.326394  0.671364  0.998142  1
  Ir  Ir25  1  0.673669  0.330939  0.998264  1
  Ir  Ir26  1  0.999838  0.997201  0.501994  1
  Ir  Ir27  1  0.999838  0.997201  0.998006  1
