# generated using pymatgen
data_Nd16Mg3Cd(OsPd)2
_symmetry_space_group_name_H-M   'P 1'
_cell_length_a   10.01415204
_cell_length_b   10.02765628
_cell_length_c   10.10150400
_cell_angle_alpha   59.75609356
_cell_angle_beta   59.71103506
_cell_angle_gamma   59.69478738
_symmetry_Int_Tables_number   1
_chemical_formula_structural   Nd16Mg3Cd(OsPd)2
_chemical_formula_sum   'Nd16 Mg3 Cd1 Os2 Pd2'
_cell_volume   712.72185735
_cell_formula_units_Z   1
loop_
 _symmetry_equiv_pos_site_id
 _symmetry_equiv_pos_as_xyz
  1  'x, y, z'
loop_
 _atom_site_type_symbol
 _atom_site_label
 _atom_site_symmetry_multiplicity
 _atom_site_fract_x
 _atom_site_fract_y
 _atom_site_fract_z
 _atom_site_occupancy
  Nd  Nd0  1  0.346396  0.347501  0.354740  1
  Nd  Nd1  1  0.346396  0.347501  0.951364  1
  Nd  Nd2  1  0.342768  0.958959  0.349137  1
  Nd  Nd3  1  0.960694  0.342521  0.348392  1
  Nd  Nd4  1  0.817302  0.186799  0.189914  1
  Nd  Nd5  1  0.188387  0.816291  0.804484  1
  Nd  Nd6  1  0.188387  0.816291  0.190840  1
  Nd  Nd7  1  0.817302  0.186799  0.805986  1
  Nd  Nd8  1  0.188569  0.188237  0.811597  1
  Nd  Nd9  1  0.808922  0.808872  0.191103  1
  Nd  Nd10  1  0.938947  0.556263  0.566714  1
  Nd  Nd11  1  0.556792  0.937262  0.939114  1
  Nd  Nd12  1  0.556792  0.937262  0.566831  1
  Nd  Nd13  1  0.938947  0.556263  0.938074  1
  Nd  Nd14  1  0.563992  0.563225  0.936391  1
  Nd  Nd15  1  0.941026  0.937385  0.560795  1
  Mg  Mg16  1  0.576467  0.578832  0.579308  1
  Mg  Mg17  1  0.576467  0.578832  0.265394  1
  Mg  Mg18  1  0.577255  0.263453  0.579646  1
  Cd  Cd19  1  0.257666  0.580816  0.580759  1
  Os  Os20  1  0.145020  0.144653  0.135926  1
  Os  Os21  1  0.145020  0.144653  0.574401  1
  Pd  Pd22  1  0.146874  0.574210  0.139457  1
  Pd  Pd23  1  0.573614  0.147121  0.139632  1
