# generated using pymatgen
data_Yb2Dy2MnRu7
_symmetry_space_group_name_H-M   'P 1'
_cell_length_a   5.29085386
_cell_length_b   5.29232587
_cell_length_c   8.72536410
_cell_angle_alpha   90.00000199
_cell_angle_beta   89.98146389
_cell_angle_gamma   59.99077275
_symmetry_Int_Tables_number   1
_chemical_formula_structural   Yb2Dy2MnRu7
_chemical_formula_sum   'Yb2 Dy2 Mn1 Ru7'
_cell_volume   211.56611727
_cell_formula_units_Z   1
loop_
 _symmetry_equiv_pos_site_id
 _symmetry_equiv_pos_as_xyz
  1  'x, y, z'
loop_
 _atom_site_type_symbol
 _atom_site_label
 _atom_site_symmetry_multiplicity
 _atom_site_fract_x
 _atom_site_fract_y
 _atom_site_fract_z
 _atom_site_occupancy
  Yb  Yb0  1  0.666642  0.666679  0.062588  1
  Yb  Yb1  1  0.333358  0.333321  0.937412  1
  Dy  Dy2  1  0.333273  0.333363  0.572635  1
  Dy  Dy3  1  0.666727  0.666637  0.427365  1
  Mn  Mn4  1  0.000000  0.000000  0.000000  1
  Ru  Ru5  1  0.000000  0.000000  0.500000  1
  Ru  Ru6  1  0.829096  0.341747  0.752345  1
  Ru  Ru7  1  0.341876  0.829062  0.752304  1
  Ru  Ru8  1  0.829096  0.829156  0.752345  1
  Ru  Ru9  1  0.170904  0.658253  0.247655  1
  Ru  Ru10  1  0.658124  0.170938  0.247696  1
  Ru  Ru11  1  0.170904  0.170844  0.247655  1
