# generated using pymatgen
data_Y12Er4MgAg3Rh4
_symmetry_space_group_name_H-M   'P 1'
_cell_length_a   9.55193013
_cell_length_b   9.57699301
_cell_length_c   9.57701631
_cell_angle_alpha   60.22897619
_cell_angle_beta   60.21650881
_cell_angle_gamma   60.21633971
_symmetry_Int_Tables_number   1
_chemical_formula_structural   Y12Er4MgAg3Rh4
_chemical_formula_sum   'Y12 Er4 Mg1 Ag3 Rh4'
_cell_volume   622.58594301
_cell_formula_units_Z   1
loop_
 _symmetry_equiv_pos_site_id
 _symmetry_equiv_pos_as_xyz
  1  'x, y, z'
loop_
 _atom_site_type_symbol
 _atom_site_label
 _atom_site_symmetry_multiplicity
 _atom_site_fract_x
 _atom_site_fract_y
 _atom_site_fract_z
 _atom_site_occupancy
  Y  Y0  1  0.059316  0.438894  0.438898  1
  Y  Y1  1  0.436117  0.062548  0.062542  1
  Y  Y2  1  0.436352  0.062526  0.436951  1
  Y  Y3  1  0.059191  0.439056  0.060600  1
  Y  Y4  1  0.436355  0.436951  0.062526  1
  Y  Y5  1  0.059192  0.060582  0.439067  1
  Y  Y6  1  0.185696  0.813117  0.813125  1
  Y  Y7  1  0.814722  0.185968  0.185954  1
  Y  Y8  1  0.813148  0.186759  0.814218  1
  Y  Y9  1  0.185372  0.813177  0.187316  1
  Y  Y10  1  0.813143  0.814238  0.186767  1
  Y  Y11  1  0.185354  0.187315  0.813176  1
  Er  Er12  1  0.601104  0.598308  0.598310  1
  Er  Er13  1  0.599659  0.598187  0.204779  1
  Er  Er14  1  0.599641  0.204794  0.598182  1
  Er  Er15  1  0.187598  0.604377  0.604380  1
  Mg  Mg16  1  0.539432  0.820806  0.820799  1
  Ag  Ag17  1  0.832047  0.834222  0.834228  1
  Ag  Ag18  1  0.832873  0.834560  0.499684  1
  Ag  Ag19  1  0.832874  0.499673  0.834558  1
  Rh  Rh20  1  0.389693  0.395904  0.395893  1
  Rh  Rh21  1  0.391192  0.397061  0.817051  1
  Rh  Rh22  1  0.391207  0.817047  0.397038  1
  Rh  Rh23  1  0.818724  0.393935  0.393958  1
