# generated using pymatgen
data_Ho3Er5In3Ru
_symmetry_space_group_name_H-M   'P 1'
_cell_length_a   10.33177600
_cell_length_b   10.33177508
_cell_length_c   7.01031400
_cell_angle_alpha   90.00000000
_cell_angle_beta   90.00000000
_cell_angle_gamma   119.99999653
_symmetry_Int_Tables_number   1
_chemical_formula_structural   Ho3Er5In3Ru
_chemical_formula_sum   'Ho6 Er10 In6 Ru2'
_cell_volume   648.06421758
_cell_formula_units_Z   2
loop_
 _symmetry_equiv_pos_site_id
 _symmetry_equiv_pos_as_xyz
  1  'x, y, z'
loop_
 _atom_site_type_symbol
 _atom_site_label
 _atom_site_symmetry_multiplicity
 _atom_site_fract_x
 _atom_site_fract_y
 _atom_site_fract_z
 _atom_site_occupancy
  Ho  Ho0  1  0.532672  0.065345  0.794426  1
  Ho  Ho1  1  0.934655  0.467328  0.794426  1
  Ho  Ho2  1  0.532672  0.467328  0.794426  1
  Ho  Ho3  1  0.467328  0.934655  0.294426  1
  Ho  Ho4  1  0.065345  0.532672  0.294426  1
  Ho  Ho5  1  0.467328  0.532672  0.294426  1
  Er  Er6  1  0.822815  0.645628  0.498976  1
  Er  Er7  1  0.354372  0.177185  0.498976  1
  Er  Er8  1  0.822815  0.177185  0.498976  1
  Er  Er9  1  0.177185  0.354372  0.998976  1
  Er  Er10  1  0.645628  0.822815  0.998976  1
  Er  Er11  1  0.177185  0.822815  0.998976  1
  Er  Er12  1  0.666667  0.333333  0.171393  1
  Er  Er13  1  0.333333  0.666667  0.671393  1
  Er  Er14  1  0.000000  0.000000  0.778652  1
  Er  Er15  1  0.000000  0.000000  0.278652  1
  In  In16  1  0.837266  0.674532  0.039694  1
  In  In17  1  0.325468  0.162734  0.039694  1
  In  In18  1  0.837266  0.162734  0.039694  1
  In  In19  1  0.162734  0.325468  0.539694  1
  In  In20  1  0.674532  0.837266  0.539694  1
  In  In21  1  0.162734  0.837266  0.539694  1
  Ru  Ru22  1  0.666667  0.333333  0.568616  1
  Ru  Ru23  1  0.333333  0.666667  0.068616  1
