# generated using pymatgen
data_Nb9IrOs5
_symmetry_space_group_name_H-M   'P 1'
_cell_length_a   9.92431857
_cell_length_b   9.93584942
_cell_length_c   5.10157300
_cell_angle_alpha   90.00000000
_cell_angle_beta   90.00000000
_cell_angle_gamma   90.09264452
_symmetry_Int_Tables_number   1
_chemical_formula_structural   Nb9IrOs5
_chemical_formula_sum   'Nb18 Ir2 Os10'
_cell_volume   503.04777848
_cell_formula_units_Z   2
loop_
 _symmetry_equiv_pos_site_id
 _symmetry_equiv_pos_as_xyz
  1  'x, y, z'
loop_
 _atom_site_type_symbol
 _atom_site_label
 _atom_site_symmetry_multiplicity
 _atom_site_fract_x
 _atom_site_fract_y
 _atom_site_fract_z
 _atom_site_occupancy
  Nb  Nb0  1  0.895543  0.895345  0.498087  1
  Nb  Nb1  1  0.104457  0.104655  0.498087  1
  Nb  Nb2  1  0.601403  0.397581  0.004628  1
  Nb  Nb3  1  0.398597  0.602419  0.004628  1
  Nb  Nb4  1  0.629120  0.959394  0.499282  1
  Nb  Nb5  1  0.370880  0.040606  0.499282  1
  Nb  Nb6  1  0.870436  0.465678  0.995494  1
  Nb  Nb7  1  0.129564  0.534322  0.995494  1
  Nb  Nb8  1  0.039285  0.371921  0.497683  1
  Nb  Nb9  1  0.960715  0.628079  0.497683  1
  Nb  Nb10  1  0.535606  0.128245  0.996666  1
  Nb  Nb11  1  0.464394  0.871755  0.996666  1
  Nb  Nb12  1  0.819200  0.182132  0.249249  1
  Nb  Nb13  1  0.180800  0.817868  0.249249  1
  Nb  Nb14  1  0.319136  0.320780  0.249216  1
  Nb  Nb15  1  0.680864  0.679220  0.249216  1
  Nb  Nb16  1  0.180680  0.817411  0.749704  1
  Nb  Nb17  1  0.819320  0.182589  0.749704  1
  Ir  Ir18  1  0.565223  0.240771  0.498343  1
  Ir  Ir19  1  0.434777  0.759229  0.498343  1
  Os  Os20  1  0.500000  0.500000  0.528909  1
  Os  Os21  1  0.000000  0.000000  0.000380  1
  Os  Os22  1  0.928468  0.741179  0.997175  1
  Os  Os23  1  0.071532  0.258821  0.997175  1
  Os  Os24  1  0.757336  0.434512  0.498486  1
  Os  Os25  1  0.242664  0.565488  0.498486  1
  Os  Os26  1  0.260336  0.070502  0.998344  1
  Os  Os27  1  0.739664  0.929498  0.998344  1
  Os  Os28  1  0.680176  0.679482  0.752998  1
  Os  Os29  1  0.319824  0.320518  0.752998  1
