# generated using pymatgen
data_Ce4Nd4Co3Si12Pd
_symmetry_space_group_name_H-M   'P 1'
_cell_length_a   8.08550586
_cell_length_b   8.15240685
_cell_length_c   8.34147801
_cell_angle_alpha   89.97730947
_cell_angle_beta   90.07739619
_cell_angle_gamma   119.72071031
_symmetry_Int_Tables_number   1
_chemical_formula_structural   Ce4Nd4Co3Si12Pd
_chemical_formula_sum   'Ce4 Nd4 Co3 Si12 Pd1'
_cell_volume   477.50908259
_cell_formula_units_Z   1
loop_
 _symmetry_equiv_pos_site_id
 _symmetry_equiv_pos_as_xyz
  1  'x, y, z'
loop_
 _atom_site_type_symbol
 _atom_site_label
 _atom_site_symmetry_multiplicity
 _atom_site_fract_x
 _atom_site_fract_y
 _atom_site_fract_z
 _atom_site_occupancy
  Ce  Ce0  1  0.496552  0.503232  0.754392  1
  Ce  Ce1  1  0.496071  0.503824  0.246268  1
  Ce  Ce2  1  0.006709  0.503250  0.754397  1
  Ce  Ce3  1  0.007686  0.503777  0.246281  1
  Nd  Nd4  1  0.497823  0.995668  0.751982  1
  Nd  Nd5  1  0.499261  0.998521  0.248088  1
  Nd  Nd6  1  0.999769  0.999525  0.751071  1
  Nd  Nd7  1  0.999920  0.999832  0.249015  1
  Co  Co8  1  0.670816  0.341545  0.995656  1
  Co  Co9  1  0.329107  0.658301  0.003872  1
  Co  Co10  1  0.329446  0.658970  0.496528  1
  Si  Si11  1  0.827614  0.172671  0.999667  1
  Si  Si12  1  0.171958  0.829246  0.000156  1
  Si  Si13  1  0.345042  0.172632  0.999706  1
  Si  Si14  1  0.172442  0.826998  0.500151  1
  Si  Si15  1  0.657325  0.829295  0.000197  1
  Si  Si16  1  0.835354  0.164084  0.499988  1
  Si  Si17  1  0.830219  0.660355  0.000181  1
  Si  Si18  1  0.654592  0.827029  0.500141  1
  Si  Si19  1  0.168606  0.337294  0.999695  1
  Si  Si20  1  0.328701  0.164045  0.499992  1
  Si  Si21  1  0.170370  0.340783  0.500896  1
  Si  Si22  1  0.836246  0.672427  0.499849  1
  Pd  Pd23  1  0.668368  0.336700  0.501828  1
