# generated using pymatgen
data_Nb12Zn3Ga8CoN4
_symmetry_space_group_name_H-M   'P 1'
_cell_length_a   8.25840070
_cell_length_b   8.31544846
_cell_length_c   8.25840200
_cell_angle_alpha   60.22668649
_cell_angle_beta   60.00000279
_cell_angle_gamma   60.22669245
_symmetry_Int_Tables_number   1
_chemical_formula_structural   Nb12Zn3Ga8CoN4
_chemical_formula_sum   'Nb12 Zn3 Ga8 Co1 N4'
_cell_volume   402.38544392
_cell_formula_units_Z   1
loop_
 _symmetry_equiv_pos_site_id
 _symmetry_equiv_pos_as_xyz
  1  'x, y, z'
loop_
 _atom_site_type_symbol
 _atom_site_label
 _atom_site_symmetry_multiplicity
 _atom_site_fract_x
 _atom_site_fract_y
 _atom_site_fract_z
 _atom_site_occupancy
  Nb  Nb0  1  0.440002  0.442755  0.058621  1
  Nb  Nb1  1  0.058621  0.442755  0.058621  1
  Nb  Nb2  1  0.436990  0.059312  0.066707  1
  Nb  Nb3  1  0.066707  0.059312  0.436990  1
  Nb  Nb4  1  0.436990  0.059312  0.436990  1
  Nb  Nb5  1  0.058621  0.442755  0.440002  1
  Nb  Nb6  1  0.809998  0.807245  0.191379  1
  Nb  Nb7  1  0.191379  0.807245  0.191379  1
  Nb  Nb8  1  0.813010  0.190688  0.183293  1
  Nb  Nb9  1  0.183293  0.190688  0.813010  1
  Nb  Nb10  1  0.813010  0.190688  0.813010  1
  Nb  Nb11  1  0.191379  0.807245  0.809998  1
  Zn  Zn12  1  0.625000  0.625000  0.125000  1
  Zn  Zn13  1  0.125000  0.625000  0.625000  1
  Zn  Zn14  1  0.625000  0.625000  0.625000  1
  Ga  Ga15  1  0.831075  0.848706  0.489146  1
  Ga  Ga16  1  0.836660  0.490021  0.836660  1
  Ga  Ga17  1  0.489146  0.848706  0.831075  1
  Ga  Ga18  1  0.831075  0.848706  0.831075  1
  Ga  Ga19  1  0.418925  0.401294  0.760854  1
  Ga  Ga20  1  0.413340  0.759979  0.413340  1
  Ga  Ga21  1  0.760854  0.401294  0.418925  1
  Ga  Ga22  1  0.418925  0.401294  0.418925  1
  Co  Co23  1  0.625000  0.125000  0.625000  1
  N  N24  1  0.125000  0.125000  0.625000  1
  N  N25  1  0.125000  0.625000  0.125000  1
  N  N26  1  0.625000  0.125000  0.125000  1
  N  N27  1  0.125000  0.125000  0.125000  1
