# generated using pymatgen
data_DyTm2Cd3Ga2Ag
_symmetry_space_group_name_H-M   'P 1'
_cell_length_a   7.33032805
_cell_length_b   7.32888647
_cell_length_c   4.31532000
_cell_angle_alpha   90.00000000
_cell_angle_beta   90.00000000
_cell_angle_gamma   119.99349475
_symmetry_Int_Tables_number   1
_chemical_formula_structural   DyTm2Cd3Ga2Ag
_chemical_formula_sum   'Dy1 Tm2 Cd3 Ga2 Ag1'
_cell_volume   200.78603676
_cell_formula_units_Z   1
loop_
 _symmetry_equiv_pos_site_id
 _symmetry_equiv_pos_as_xyz
  1  'x, y, z'
loop_
 _atom_site_type_symbol
 _atom_site_label
 _atom_site_symmetry_multiplicity
 _atom_site_fract_x
 _atom_site_fract_y
 _atom_site_fract_z
 _atom_site_occupancy
  Dy  Dy0  1  0.000000  0.578764  0.500000  1
  Tm  Tm1  1  0.420953  0.420813  0.500000  1
  Tm  Tm2  1  0.579047  0.999860  0.500000  1
  Cd  Cd3  1  0.747655  0.747862  0.000000  1
  Cd  Cd4  1  0.252345  0.000206  0.000000  1
  Cd  Cd5  1  0.000000  0.251725  0.000000  1
  Ga  Ga6  1  0.665891  0.332882  0.000000  1
  Ga  Ga7  1  0.334109  0.666993  0.000000  1
  Ag  Ag8  1  0.000000  0.000895  0.500000  1
