# generated using pymatgen
data_KTiIrSe4
_symmetry_space_group_name_H-M   'P 1'
_cell_length_a   8.26012066
_cell_length_b   8.26012066
_cell_length_c   5.96732735
_cell_angle_alpha   80.85570430
_cell_angle_beta   80.85570441
_cell_angle_gamma   26.17062154
_symmetry_Int_Tables_number   1
_chemical_formula_structural   KTiIrSe4
_chemical_formula_sum   'K1 Ti1 Ir1 Se4'
_cell_volume   177.16476651
_cell_formula_units_Z   1
loop_
 _symmetry_equiv_pos_site_id
 _symmetry_equiv_pos_as_xyz
  1  'x, y, z'
loop_
 _atom_site_type_symbol
 _atom_site_label
 _atom_site_symmetry_multiplicity
 _atom_site_fract_x
 _atom_site_fract_y
 _atom_site_fract_z
 _atom_site_occupancy
  K  K0  1  0.242976  0.242976  0.845065  1
  Ti  Ti1  1  0.496908  0.496908  0.453602  1
  Ir  Ir2  1  0.990503  0.990503  0.053144  1
  Se  Se3  1  0.911608  0.911608  0.716920  1
  Se  Se4  1  0.388729  0.388729  0.216045  1
  Se  Se5  1  0.570331  0.570331  0.830914  1
  Se  Se6  1  0.099944  0.099944  0.317310  1
