# generated using pymatgen
data_Nb10AlIr4
_symmetry_space_group_name_H-M   'P 1'
_cell_length_a   9.93078900
_cell_length_b   9.93078900
_cell_length_c   5.17667500
_cell_angle_alpha   90.00000000
_cell_angle_beta   90.00000000
_cell_angle_gamma   90.00000000
_symmetry_Int_Tables_number   1
_chemical_formula_structural   Nb10AlIr4
_chemical_formula_sum   'Nb20 Al2 Ir8'
_cell_volume   510.52664005
_cell_formula_units_Z   2
loop_
 _symmetry_equiv_pos_site_id
 _symmetry_equiv_pos_as_xyz
  1  'x, y, z'
loop_
 _atom_site_type_symbol
 _atom_site_label
 _atom_site_symmetry_multiplicity
 _atom_site_fract_x
 _atom_site_fract_y
 _atom_site_fract_z
 _atom_site_occupancy
  Nb  Nb0  1  0.396720  0.396720  0.000000  1
  Nb  Nb1  1  0.896720  0.103280  0.500000  1
  Nb  Nb2  1  0.103280  0.896720  0.500000  1
  Nb  Nb3  1  0.603280  0.603280  0.000000  1
  Nb  Nb4  1  0.127952  0.464982  0.000000  1
  Nb  Nb5  1  0.964982  0.372048  0.500000  1
  Nb  Nb6  1  0.035018  0.627952  0.500000  1
  Nb  Nb7  1  0.872048  0.535018  0.000000  1
  Nb  Nb8  1  0.372048  0.964982  0.500000  1
  Nb  Nb9  1  0.627952  0.035018  0.500000  1
  Nb  Nb10  1  0.464982  0.127952  0.000000  1
  Nb  Nb11  1  0.535018  0.872048  0.000000  1
  Nb  Nb12  1  0.183756  0.183756  0.252904  1
  Nb  Nb13  1  0.683756  0.316244  0.752904  1
  Nb  Nb14  1  0.316244  0.683756  0.752904  1
  Nb  Nb15  1  0.816244  0.816244  0.252904  1
  Nb  Nb16  1  0.316244  0.683756  0.247096  1
  Nb  Nb17  1  0.683756  0.316244  0.247096  1
  Nb  Nb18  1  0.183756  0.183756  0.747096  1
  Nb  Nb19  1  0.816244  0.816244  0.747096  1
  Al  Al20  1  0.000000  0.000000  0.000000  1
  Al  Al21  1  0.500000  0.500000  0.500000  1
  Ir  Ir22  1  0.258481  0.937861  0.000000  1
  Ir  Ir23  1  0.437861  0.241519  0.500000  1
  Ir  Ir24  1  0.562139  0.758481  0.500000  1
  Ir  Ir25  1  0.741519  0.062139  0.000000  1
  Ir  Ir26  1  0.241519  0.437861  0.500000  1
  Ir  Ir27  1  0.758481  0.562139  0.500000  1
  Ir  Ir28  1  0.937861  0.258481  0.000000  1
  Ir  Ir29  1  0.062139  0.741519  0.000000  1
