# generated using pymatgen
data_Tm4P7Ir8
_symmetry_space_group_name_H-M   'P 1'
_cell_length_a   3.94426400
_cell_length_b   12.57002070
_cell_length_c   13.11075098
_cell_angle_alpha   80.79135890
_cell_angle_beta   90.00000000
_cell_angle_gamma   90.00000000
_symmetry_Int_Tables_number   1
_chemical_formula_structural   Tm4P7Ir8
_chemical_formula_sum   'Tm8 P14 Ir16'
_cell_volume   641.64679753
_cell_formula_units_Z   2
loop_
 _symmetry_equiv_pos_site_id
 _symmetry_equiv_pos_as_xyz
  1  'x, y, z'
loop_
 _atom_site_type_symbol
 _atom_site_label
 _atom_site_symmetry_multiplicity
 _atom_site_fract_x
 _atom_site_fract_y
 _atom_site_fract_z
 _atom_site_occupancy
  Tm  Tm0  1  0.750000  0.790653  0.562540  1
  Tm  Tm1  1  0.250000  0.209347  0.437460  1
  Tm  Tm2  1  0.750000  0.479626  0.706846  1
  Tm  Tm3  1  0.250000  0.520374  0.293154  1
  Tm  Tm4  1  0.750000  0.718290  0.898987  1
  Tm  Tm5  1  0.250000  0.100811  0.792047  1
  Tm  Tm6  1  0.750000  0.899189  0.207953  1
  Tm  Tm7  1  0.250000  0.281710  0.101013  1
  P  P8  1  0.250000  0.906497  0.413264  1
  P  P9  1  0.750000  0.470808  0.129812  1
  P  P10  1  0.250000  0.529192  0.870188  1
  P  P11  1  0.750000  0.093503  0.586736  1
  P  P12  1  0.250000  0.741440  0.079616  1
  P  P13  1  0.750000  0.258560  0.920384  1
  P  P14  1  0.750000  0.156786  0.281376  1
  P  P15  1  0.250000  0.843214  0.718624  1
  P  P16  1  0.250000  0.052957  0.100609  1
  P  P17  1  0.750000  0.947043  0.899391  1
  P  P18  1  0.250000  0.310786  0.690098  1
  P  P19  1  0.750000  0.689214  0.309902  1
  P  P20  1  0.250000  0.608429  0.566559  1
  P  P21  1  0.750000  0.391571  0.433441  1
  Ir  Ir22  1  0.250000  0.990588  0.575756  1
  Ir  Ir23  1  0.750000  0.009412  0.424244  1
  Ir  Ir24  1  0.250000  0.662061  0.728892  1
  Ir  Ir25  1  0.750000  0.337939  0.271108  1
  Ir  Ir26  1  0.250000  0.554553  0.045108  1
  Ir  Ir27  1  0.750000  0.445447  0.954892  1
  Ir  Ir28  1  0.250000  0.059669  0.273418  1
  Ir  Ir29  1  0.750000  0.940331  0.726582  1
  Ir  Ir30  1  0.250000  0.421109  0.522989  1
  Ir  Ir31  1  0.750000  0.578891  0.477011  1
  Ir  Ir32  1  0.250000  0.915273  0.997689  1
  Ir  Ir33  1  0.750000  0.084727  0.002311  1
  Ir  Ir34  1  0.250000  0.728981  0.394682  1
  Ir  Ir35  1  0.750000  0.271019  0.605318  1
  Ir  Ir36  1  0.250000  0.342011  0.857950  1
  Ir  Ir37  1  0.750000  0.657989  0.142050  1
