# generated using pymatgen
data_Nd9Er(IrPt)3
_symmetry_space_group_name_H-M   'P 1'
_cell_length_a   11.39239326
_cell_length_b   11.36895300
_cell_length_c   6.49615258
_cell_angle_alpha   90.00000000
_cell_angle_beta   90.16254776
_cell_angle_gamma   90.00000000
_symmetry_Int_Tables_number   1
_chemical_formula_structural   Nd9Er(IrPt)3
_chemical_formula_sum   'Nd18 Er2 Ir6 Pt6'
_cell_volume   841.37559140
_cell_formula_units_Z   2
loop_
 _symmetry_equiv_pos_site_id
 _symmetry_equiv_pos_as_xyz
  1  'x, y, z'
loop_
 _atom_site_type_symbol
 _atom_site_label
 _atom_site_symmetry_multiplicity
 _atom_site_fract_x
 _atom_site_fract_y
 _atom_site_fract_z
 _atom_site_occupancy
  Nd  Nd0  1  0.295440  0.091774  0.374044  1
  Nd  Nd1  1  0.295440  0.908226  0.874044  1
  Nd  Nd2  1  0.704013  0.088123  0.873525  1
  Nd  Nd3  1  0.704013  0.911877  0.373525  1
  Nd  Nd4  1  0.584614  0.788895  0.874790  1
  Nd  Nd5  1  0.584614  0.211105  0.374790  1
  Nd  Nd6  1  0.410068  0.790427  0.380688  1
  Nd  Nd7  1  0.410068  0.209573  0.880688  1
  Nd  Nd8  1  0.212183  0.413216  0.621060  1
  Nd  Nd9  1  0.212183  0.586784  0.121060  1
  Nd  Nd10  1  0.792970  0.411568  0.123443  1
  Nd  Nd11  1  0.792970  0.588432  0.623443  1
  Nd  Nd12  1  0.913250  0.704445  0.126305  1
  Nd  Nd13  1  0.913250  0.295555  0.626305  1
  Nd  Nd14  1  0.093005  0.703649  0.626538  1
  Nd  Nd15  1  0.093005  0.296351  0.126538  1
  Nd  Nd16  1  0.999731  0.998933  0.500023  1
  Nd  Nd17  1  0.999731  0.001067  0.000023  1
  Er  Er18  1  0.496696  0.498801  0.000392  1
  Er  Er19  1  0.496696  0.501199  0.500392  1
  Ir  Ir20  1  0.354693  0.353459  0.250073  1
  Ir  Ir21  1  0.354693  0.646541  0.750073  1
  Ir  Ir22  1  0.500169  0.999224  0.114580  1
  Ir  Ir23  1  0.500169  0.000776  0.614580  1
  Ir  Ir24  1  0.999017  0.500101  0.884958  1
  Ir  Ir25  1  0.999017  0.499899  0.384958  1
  Pt  Pt26  1  0.844135  0.154657  0.250077  1
  Pt  Pt27  1  0.844135  0.845343  0.750077  1
  Pt  Pt28  1  0.154286  0.154870  0.749411  1
  Pt  Pt29  1  0.154286  0.845130  0.249411  1
  Pt  Pt30  1  0.645731  0.354617  0.750091  1
  Pt  Pt31  1  0.645731  0.645383  0.250091  1
