# generated using pymatgen
data_YbSb12Ru3Rh
_symmetry_space_group_name_H-M   'P 1'
_cell_length_a   8.13107679
_cell_length_b   8.15513607
_cell_length_c   8.13441325
_cell_angle_alpha   109.51529766
_cell_angle_beta   109.40260745
_cell_angle_gamma   109.51548201
_symmetry_Int_Tables_number   1
_chemical_formula_structural   YbSb12Ru3Rh
_chemical_formula_sum   'Yb1 Sb12 Ru3 Rh1'
_cell_volume   415.12360289
_cell_formula_units_Z   1
loop_
 _symmetry_equiv_pos_site_id
 _symmetry_equiv_pos_as_xyz
  1  'x, y, z'
loop_
 _atom_site_type_symbol
 _atom_site_label
 _atom_site_symmetry_multiplicity
 _atom_site_fract_x
 _atom_site_fract_y
 _atom_site_fract_z
 _atom_site_occupancy
  Yb  Yb0  1  0.000001  0.000000  0.000001  1
  Sb  Sb1  1  0.339160  0.181834  0.842287  1
  Sb  Sb2  1  0.660840  0.818166  0.157713  1
  Sb  Sb3  1  0.658296  0.503195  0.842505  1
  Sb  Sb4  1  0.341706  0.496805  0.157496  1
  Sb  Sb5  1  0.184360  0.845293  0.341265  1
  Sb  Sb6  1  0.815640  0.154707  0.658736  1
  Sb  Sb7  1  0.503816  0.842764  0.661019  1
  Sb  Sb8  1  0.496184  0.157236  0.338981  1
  Sb  Sb9  1  0.842528  0.338948  0.184097  1
  Sb  Sb10  1  0.157472  0.661052  0.815902  1
  Sb  Sb11  1  0.842512  0.661202  0.503511  1
  Sb  Sb12  1  0.157488  0.338798  0.496490  1
  Ru  Ru13  1  0.000000  0.999999  0.499999  1
  Ru  Ru14  1  0.500001  0.000000  0.000003  1
  Ru  Ru15  1  0.499998  0.499999  0.499997  1
  Rh  Rh16  1  0.999996  0.500000  0.999999  1
