# generated using pymatgen
data_Ho10Tl7InPd3Ru
_symmetry_space_group_name_H-M   'P 1'
_cell_length_a   3.60588500
_cell_length_b   8.21808611
_cell_length_c   18.42475658
_cell_angle_alpha   89.97347237
_cell_angle_beta   90.00000000
_cell_angle_gamma   90.00000000
_symmetry_Int_Tables_number   1
_chemical_formula_structural   Ho10Tl7InPd3Ru
_chemical_formula_sum   'Ho10 Tl7 In1 Pd3 Ru1'
_cell_volume   545.98947570
_cell_formula_units_Z   1
loop_
 _symmetry_equiv_pos_site_id
 _symmetry_equiv_pos_as_xyz
  1  'x, y, z'
loop_
 _atom_site_type_symbol
 _atom_site_label
 _atom_site_symmetry_multiplicity
 _atom_site_fract_x
 _atom_site_fract_y
 _atom_site_fract_z
 _atom_site_occupancy
  Ho  Ho0  1  0.000000  0.500121  0.499698  1
  Ho  Ho1  1  0.000000  0.001437  0.000167  1
  Ho  Ho2  1  0.000000  0.728117  0.277810  1
  Ho  Ho3  1  0.000000  0.259577  0.719897  1
  Ho  Ho4  1  0.000000  0.759542  0.780372  1
  Ho  Ho5  1  0.000000  0.253062  0.219961  1
  Ho  Ho6  1  0.000000  0.614459  0.088041  1
  Ho  Ho7  1  0.000000  0.383553  0.914752  1
  Ho  Ho8  1  0.000000  0.885364  0.585412  1
  Ho  Ho9  1  0.000000  0.116518  0.413127  1
  Tl  Tl10  1  0.500000  0.710225  0.933254  1
  Tl  Tl11  1  0.500000  0.293734  0.067196  1
  Tl  Tl12  1  0.500000  0.793344  0.434410  1
  Tl  Tl13  1  0.500000  0.207493  0.565643  1
  Tl  Tl14  1  0.500000  0.582364  0.649224  1
  Tl  Tl15  1  0.500000  0.421764  0.350850  1
  Tl  Tl16  1  0.500000  0.917971  0.149743  1
  In  In17  1  0.500000  0.081567  0.850032  1
  Pd  Pd18  1  0.500000  0.473178  0.803870  1
  Pd  Pd19  1  0.500000  0.976464  0.697688  1
  Pd  Pd20  1  0.500000  0.021010  0.303279  1
  Ru  Ru21  1  0.500000  0.519137  0.195574  1
