# generated using pymatgen
data_Y10In2FeHg
_symmetry_space_group_name_H-M   'P 1'
_cell_length_a   9.75347480
_cell_length_b   9.75347622
_cell_length_c   9.66775300
_cell_angle_alpha   90.00000000
_cell_angle_beta   90.00000000
_cell_angle_gamma   120.28326220
_symmetry_Int_Tables_number   1
_chemical_formula_structural   Y10In2FeHg
_chemical_formula_sum   'Y20 In4 Fe2 Hg2'
_cell_volume   794.19703283
_cell_formula_units_Z   2
loop_
 _symmetry_equiv_pos_site_id
 _symmetry_equiv_pos_as_xyz
  1  'x, y, z'
loop_
 _atom_site_type_symbol
 _atom_site_label
 _atom_site_symmetry_multiplicity
 _atom_site_fract_x
 _atom_site_fract_y
 _atom_site_fract_z
 _atom_site_occupancy
  Y  Y0  1  0.995605  0.004395  0.513990  1
  Y  Y1  1  0.995605  0.004395  0.986010  1
  Y  Y2  1  0.541489  0.458511  0.250000  1
  Y  Y3  1  0.538783  0.078666  0.250000  1
  Y  Y4  1  0.921334  0.461216  0.250000  1
  Y  Y5  1  0.461053  0.538947  0.750000  1
  Y  Y6  1  0.464483  0.916057  0.750000  1
  Y  Y7  1  0.083943  0.535517  0.750000  1
  Y  Y8  1  0.210634  0.789366  0.436831  1
  Y  Y9  1  0.211700  0.422291  0.434617  1
  Y  Y10  1  0.577709  0.788300  0.434617  1
  Y  Y11  1  0.788077  0.211923  0.565123  1
  Y  Y12  1  0.791122  0.579016  0.566392  1
  Y  Y13  1  0.420984  0.208878  0.566392  1
  Y  Y14  1  0.788077  0.211923  0.934877  1
  Y  Y15  1  0.791122  0.579016  0.933608  1
  Y  Y16  1  0.420984  0.208878  0.933608  1
  Y  Y17  1  0.210634  0.789366  0.063169  1
  Y  Y18  1  0.211700  0.422291  0.065383  1
  Y  Y19  1  0.577709  0.788300  0.065383  1
  In  In20  1  0.884858  0.115142  0.250000  1
  In  In21  1  0.887203  0.773021  0.250000  1
  In  In22  1  0.226979  0.112797  0.250000  1
  In  In23  1  0.121247  0.878753  0.750000  1
  Fe  Fe24  1  0.331635  0.668365  0.250000  1
  Fe  Fe25  1  0.665781  0.334219  0.750000  1
  Hg  Hg26  1  0.123193  0.243645  0.750000  1
  Hg  Hg27  1  0.756355  0.876807  0.750000  1
