# generated using pymatgen
data_AcIn3Au
_symmetry_space_group_name_H-M   'P 1'
_cell_length_a   4.70344264
_cell_length_b   4.70344238
_cell_length_c   6.99800177
_cell_angle_alpha   109.63678067
_cell_angle_beta   109.63677998
_cell_angle_gamma   90.00000302
_symmetry_Int_Tables_number   1
_chemical_formula_structural   AcIn3Au
_chemical_formula_sum   'Ac1 In3 Au1'
_cell_volume   136.21136585
_cell_formula_units_Z   1
loop_
 _symmetry_equiv_pos_site_id
 _symmetry_equiv_pos_as_xyz
  1  'x, y, z'
loop_
 _atom_site_type_symbol
 _atom_site_label
 _atom_site_symmetry_multiplicity
 _atom_site_fract_x
 _atom_site_fract_y
 _atom_site_fract_z
 _atom_site_occupancy
  Ac  Ac0  1  0.006877  0.006877  0.013754  1
  In  In1  1  0.616276  0.616276  0.232552  1
  In  In2  1  0.768761  0.268761  0.537521  1
  In  In3  1  0.268761  0.768761  0.537521  1
  Au  Au4  1  0.397555  0.397555  0.795111  1
