# generated using pymatgen
data_Zr10Al2Bi5Pb
_symmetry_space_group_name_H-M   'P 1'
_cell_length_a   8.88473100
_cell_length_b   8.89692479
_cell_length_c   5.95928700
_cell_angle_alpha   90.00000000
_cell_angle_beta   90.00000000
_cell_angle_gamma   119.95466880
_symmetry_Int_Tables_number   1
_chemical_formula_structural   Zr10Al2Bi5Pb
_chemical_formula_sum   'Zr10 Al2 Bi5 Pb1'
_cell_volume   408.13828468
_cell_formula_units_Z   1
loop_
 _symmetry_equiv_pos_site_id
 _symmetry_equiv_pos_as_xyz
  1  'x, y, z'
loop_
 _atom_site_type_symbol
 _atom_site_label
 _atom_site_symmetry_multiplicity
 _atom_site_fract_x
 _atom_site_fract_y
 _atom_site_fract_z
 _atom_site_occupancy
  Zr  Zr0  1  0.333880  0.667382  0.998502  1
  Zr  Zr1  1  0.666499  0.332618  0.501498  1
  Zr  Zr2  1  0.666499  0.332618  0.998502  1
  Zr  Zr3  1  0.333880  0.667382  0.501498  1
  Zr  Zr4  1  0.266966  0.000000  0.250000  1
  Zr  Zr5  1  0.268675  0.268551  0.750000  1
  Zr  Zr6  1  0.000124  0.731449  0.750000  1
  Zr  Zr7  1  0.000130  0.267018  0.250000  1
  Zr  Zr8  1  0.733113  0.732982  0.250000  1
  Zr  Zr9  1  0.731784  0.000000  0.750000  1
  Al  Al10  1  0.000155  0.000000  0.999709  1
  Al  Al11  1  0.000155  0.000000  0.500291  1
  Bi  Bi12  1  0.611003  0.000000  0.250000  1
  Bi  Bi13  1  0.613435  0.613225  0.750000  1
  Bi  Bi14  1  0.000210  0.386775  0.750000  1
  Bi  Bi15  1  0.000662  0.612809  0.250000  1
  Bi  Bi16  1  0.387853  0.387191  0.250000  1
  Pb  Pb17  1  0.384976  0.000000  0.750000  1
