# generated using pymatgen
data_PrNd2ThTe6
_symmetry_space_group_name_H-M   'P 1'
_cell_length_a   4.42889200
_cell_length_b   12.05579515
_cell_length_c   12.35276900
_cell_angle_alpha   89.85969505
_cell_angle_beta   90.00000000
_cell_angle_gamma   90.00000000
_symmetry_Int_Tables_number   1
_chemical_formula_structural   PrNd2ThTe6
_chemical_formula_sum   'Pr2 Nd4 Th2 Te12'
_cell_volume   659.55948120
_cell_formula_units_Z   2
loop_
 _symmetry_equiv_pos_site_id
 _symmetry_equiv_pos_as_xyz
  1  'x, y, z'
loop_
 _atom_site_type_symbol
 _atom_site_label
 _atom_site_symmetry_multiplicity
 _atom_site_fract_x
 _atom_site_fract_y
 _atom_site_fract_z
 _atom_site_occupancy
  Pr  Pr0  1  0.750000  0.005867  0.804604  1
  Pr  Pr1  1  0.250000  0.994133  0.195396  1
  Nd  Nd2  1  0.250000  0.185466  0.517599  1
  Nd  Nd3  1  0.750000  0.814534  0.482401  1
  Nd  Nd4  1  0.750000  0.690484  0.978696  1
  Nd  Nd5  1  0.250000  0.309516  0.021304  1
  Th  Th6  1  0.250000  0.488871  0.697671  1
  Th  Th7  1  0.750000  0.511129  0.302329  1
  Te  Te8  1  0.250000  0.876073  0.952036  1
  Te  Te9  1  0.750000  0.123927  0.047964  1
  Te  Te10  1  0.750000  0.378226  0.540682  1
  Te  Te11  1  0.250000  0.621774  0.459318  1
  Te  Te12  1  0.250000  0.210643  0.772570  1
  Te  Te13  1  0.750000  0.789357  0.227430  1
  Te  Te14  1  0.750000  0.687873  0.717968  1
  Te  Te15  1  0.250000  0.312127  0.282032  1
  Te  Te16  1  0.250000  0.555232  0.116159  1
  Te  Te17  1  0.750000  0.444768  0.883841  1
  Te  Te18  1  0.750000  0.056785  0.378221  1
  Te  Te19  1  0.250000  0.943215  0.621779  1
