# generated using pymatgen
data_TbHoSi2NiRu
_symmetry_space_group_name_H-M   'P 1'
_cell_length_a   4.24888500
_cell_length_b   6.94312345
_cell_length_c   7.16743462
_cell_angle_alpha   91.55790867
_cell_angle_beta   90.00000000
_cell_angle_gamma   90.00000000
_symmetry_Int_Tables_number   1
_chemical_formula_structural   TbHoSi2NiRu
_chemical_formula_sum   'Tb2 Ho2 Si4 Ni2 Ru2'
_cell_volume   211.36498396
_cell_formula_units_Z   2
loop_
 _symmetry_equiv_pos_site_id
 _symmetry_equiv_pos_as_xyz
  1  'x, y, z'
loop_
 _atom_site_type_symbol
 _atom_site_label
 _atom_site_symmetry_multiplicity
 _atom_site_fract_x
 _atom_site_fract_y
 _atom_site_fract_z
 _atom_site_occupancy
  Tb  Tb0  1  0.250000  0.989692  0.799133  1
  Tb  Tb1  1  0.750000  0.010308  0.200867  1
  Ho  Ho2  1  0.250000  0.488140  0.682948  1
  Ho  Ho3  1  0.750000  0.511860  0.317052  1
  Si  Si4  1  0.250000  0.302025  0.098385  1
  Si  Si5  1  0.750000  0.697975  0.901615  1
  Si  Si6  1  0.250000  0.803107  0.398381  1
  Si  Si7  1  0.750000  0.196893  0.601619  1
  Ni  Ni8  1  0.750000  0.834571  0.575326  1
  Ni  Ni9  1  0.250000  0.165429  0.424674  1
  Ru  Ru10  1  0.750000  0.345459  0.929957  1
  Ru  Ru11  1  0.250000  0.654541  0.070043  1
