# generated using pymatgen
data_Ta6CdS12
_symmetry_space_group_name_H-M   'P 1'
_cell_length_a   5.82798258
_cell_length_b   5.82798150
_cell_length_c   13.68722252
_cell_angle_alpha   85.84311854
_cell_angle_beta   85.84312137
_cell_angle_gamma   119.99286666
_symmetry_Int_Tables_number   1
_chemical_formula_structural   Ta6CdS12
_chemical_formula_sum   'Ta6 Cd1 S12'
_cell_volume   398.38408558
_cell_formula_units_Z   1
loop_
 _symmetry_equiv_pos_site_id
 _symmetry_equiv_pos_as_xyz
  1  'x, y, z'
loop_
 _atom_site_type_symbol
 _atom_site_label
 _atom_site_symmetry_multiplicity
 _atom_site_fract_x
 _atom_site_fract_y
 _atom_site_fract_z
 _atom_site_occupancy
  Ta  Ta0  1  0.085913  0.085913  0.744590  1
  Ta  Ta1  1  0.418306  0.750630  0.746072  1
  Ta  Ta2  1  0.750630  0.418306  0.746072  1
  Ta  Ta3  1  0.249370  0.581694  0.253928  1
  Ta  Ta4  1  0.581694  0.249370  0.253928  1
  Ta  Ta5  1  0.914087  0.914087  0.255410  1
  Cd  Cd6  1  0.000000  0.000000  0.000000  1
  S  S7  1  0.292416  0.292416  0.137984  1
  S  S8  1  0.616644  0.955061  0.138059  1
  S  S9  1  0.955061  0.616644  0.138059  1
  S  S10  1  0.044939  0.383356  0.861941  1
  S  S11  1  0.383356  0.044939  0.861941  1
  S  S12  1  0.707584  0.707584  0.862016  1
  S  S13  1  0.209916  0.209916  0.367208  1
  S  S14  1  0.542700  0.877171  0.366994  1
  S  S15  1  0.877171  0.542700  0.366994  1
  S  S16  1  0.122829  0.457300  0.633006  1
  S  S17  1  0.457300  0.122829  0.633006  1
  S  S18  1  0.790084  0.790084  0.632792  1
