# generated using pymatgen
data_Ho3Er9Ga2(NiRu)2
_symmetry_space_group_name_H-M   'P 1'
_cell_length_a   8.28142264
_cell_length_b   8.28124456
_cell_length_c   8.28142350
_cell_angle_alpha   112.94625622
_cell_angle_beta   110.22296489
_cell_angle_gamma   105.33558853
_symmetry_Int_Tables_number   1
_chemical_formula_structural   Ho3Er9Ga2(NiRu)2
_chemical_formula_sum   'Ho3 Er9 Ga2 Ni2 Ru2'
_cell_volume   435.24037210
_cell_formula_units_Z   1
loop_
 _symmetry_equiv_pos_site_id
 _symmetry_equiv_pos_as_xyz
  1  'x, y, z'
loop_
 _atom_site_type_symbol
 _atom_site_label
 _atom_site_symmetry_multiplicity
 _atom_site_fract_x
 _atom_site_fract_y
 _atom_site_fract_z
 _atom_site_occupancy
  Ho  Ho0  1  0.670994  0.360094  0.689099  1
  Ho  Ho1  1  0.329014  0.017968  0.688954  1
  Ho  Ho2  1  0.670900  0.981832  0.310932  1
  Er  Er3  1  0.434928  0.241647  0.193406  1
  Er  Er4  1  0.565002  0.758429  0.806489  1
  Er  Er5  1  0.048240  0.241647  0.806719  1
  Er  Er6  1  0.951940  0.758429  0.193427  1
  Er  Er7  1  0.180163  0.279184  0.459304  1
  Er  Er8  1  0.819723  0.720805  0.540612  1
  Er  Er9  1  0.180194  0.720805  0.901082  1
  Er  Er10  1  0.819879  0.279184  0.099022  1
  Er  Er11  1  0.329125  0.640258  0.311134  1
  Ga  Ga12  1  0.499965  0.500019  0.000055  1
  Ga  Ga13  1  0.999992  0.999994  0.000002  1
  Ni  Ni14  1  0.117995  0.617916  0.499921  1
  Ni  Ni15  1  0.882140  0.382147  0.500007  1
  Ru  Ru16  1  0.329301  0.999821  0.329315  1
  Ru  Ru17  1  0.670506  0.999821  0.670520  1
