# generated using pymatgen
data_CaPrB4RuRh4
_symmetry_space_group_name_H-M   'P 1'
_cell_length_a   7.53164292
_cell_length_b   6.33574712
_cell_length_c   5.65172554
_cell_angle_alpha   77.61670548
_cell_angle_beta   55.24990261
_cell_angle_gamma   47.21886692
_symmetry_Int_Tables_number   1
_chemical_formula_structural   CaPrB4RuRh4
_chemical_formula_sum   'Ca1 Pr1 B4 Ru1 Rh4'
_cell_volume   155.82681684
_cell_formula_units_Z   1
loop_
 _symmetry_equiv_pos_site_id
 _symmetry_equiv_pos_as_xyz
  1  'x, y, z'
loop_
 _atom_site_type_symbol
 _atom_site_label
 _atom_site_symmetry_multiplicity
 _atom_site_fract_x
 _atom_site_fract_y
 _atom_site_fract_z
 _atom_site_occupancy
  Ca  Ca0  1  0.147861  0.147861  0.852139  1
  Pr  Pr1  1  0.860168  0.860168  0.139832  1
  B  B2  1  0.787104  0.473468  0.537679  1
  B  B3  1  0.197130  0.537646  0.476373  1
  B  B4  1  0.537646  0.197130  0.788851  1
  B  B5  1  0.473468  0.787104  0.201749  1
  Ru  Ru6  1  0.747821  0.747821  0.752179  1
  Rh  Rh7  1  0.500902  0.500902  0.499098  1
  Rh  Rh8  1  0.498686  0.498686  0.001314  1
  Rh  Rh9  1  0.001080  0.001080  0.498920  1
  Rh  Rh10  1  0.248136  0.248136  0.251864  1
