# generated using pymatgen
data_Pr8Ho12Si15Pb
_symmetry_space_group_name_H-M   'P 1'
_cell_length_a   7.56318079
_cell_length_b   7.85953091
_cell_length_c   14.87215800
_cell_angle_alpha   90.00000000
_cell_angle_beta   90.00000000
_cell_angle_gamma   89.88553616
_symmetry_Int_Tables_number   1
_chemical_formula_structural   Pr8Ho12Si15Pb
_chemical_formula_sum   'Pr8 Ho12 Si15 Pb1'
_cell_volume   884.04471427
_cell_formula_units_Z   1
loop_
 _symmetry_equiv_pos_site_id
 _symmetry_equiv_pos_as_xyz
  1  'x, y, z'
loop_
 _atom_site_type_symbol
 _atom_site_label
 _atom_site_symmetry_multiplicity
 _atom_site_fract_x
 _atom_site_fract_y
 _atom_site_fract_z
 _atom_site_occupancy
  Pr  Pr0  1  0.984042  0.831462  0.089516  1
  Pr  Pr1  1  0.468328  0.680729  0.405351  1
  Pr  Pr2  1  0.525383  0.320206  0.900850  1
  Pr  Pr3  1  0.025149  0.180255  0.600103  1
  Pr  Pr4  1  0.025149  0.180255  0.899897  1
  Pr  Pr5  1  0.525383  0.320206  0.599150  1
  Pr  Pr6  1  0.468328  0.680729  0.094649  1
  Pr  Pr7  1  0.984042  0.831462  0.410484  1
  Ho  Ho8  1  0.642310  0.005140  0.250000  1
  Ho  Ho9  1  0.164538  0.506590  0.250000  1
  Ho  Ho10  1  0.849399  0.489698  0.750000  1
  Ho  Ho11  1  0.350056  0.010141  0.750000  1
  Ho  Ho12  1  0.681543  0.821548  0.876409  1
  Ho  Ho13  1  0.180814  0.677205  0.623953  1
  Ho  Ho14  1  0.822075  0.313923  0.120026  1
  Ho  Ho15  1  0.314378  0.175986  0.379048  1
  Ho  Ho16  1  0.314378  0.175986  0.120952  1
  Ho  Ho17  1  0.822075  0.313923  0.379974  1
  Ho  Ho18  1  0.180814  0.677205  0.876047  1
  Ho  Ho19  1  0.681543  0.821548  0.623591  1
  Si  Si20  1  0.267116  0.879130  0.250000  1
  Si  Si21  1  0.731215  0.119683  0.750000  1
  Si  Si22  1  0.231798  0.379662  0.750000  1
  Si  Si23  1  0.022518  0.112604  0.250000  1
  Si  Si24  1  0.519800  0.367945  0.250000  1
  Si  Si25  1  0.475972  0.613644  0.750000  1
  Si  Si26  1  0.975624  0.886669  0.750000  1
  Si  Si27  1  0.855604  0.530832  0.959474  1
  Si  Si28  1  0.355164  0.968479  0.542016  1
  Si  Si29  1  0.640870  0.028287  0.039721  1
  Si  Si30  1  0.142790  0.468896  0.460542  1
  Si  Si31  1  0.142790  0.468896  0.039458  1
  Si  Si32  1  0.640870  0.028287  0.460279  1
  Si  Si33  1  0.355164  0.968479  0.957984  1
  Si  Si34  1  0.855604  0.530832  0.540526  1
  Pb  Pb35  1  0.777373  0.633479  0.250000  1
