# generated using pymatgen
data_Nd4OsWC4
_symmetry_space_group_name_H-M   'P 1'
_cell_length_a   5.35638400
_cell_length_b   6.74357600
_cell_length_c   10.25886800
_cell_angle_alpha   90.00000000
_cell_angle_beta   90.00000000
_cell_angle_gamma   90.00000000
_symmetry_Int_Tables_number   1
_chemical_formula_structural   Nd4OsWC4
_chemical_formula_sum   'Nd8 Os2 W2 C8'
_cell_volume   370.56244419
_cell_formula_units_Z   2
loop_
 _symmetry_equiv_pos_site_id
 _symmetry_equiv_pos_as_xyz
  1  'x, y, z'
loop_
 _atom_site_type_symbol
 _atom_site_label
 _atom_site_symmetry_multiplicity
 _atom_site_fract_x
 _atom_site_fract_y
 _atom_site_fract_z
 _atom_site_occupancy
  Nd  Nd0  1  0.250000  0.470046  0.781115  1
  Nd  Nd1  1  0.750000  0.029954  0.281115  1
  Nd  Nd2  1  0.250000  0.973348  0.712243  1
  Nd  Nd3  1  0.750000  0.526652  0.212243  1
  Nd  Nd4  1  0.250000  0.814250  0.051460  1
  Nd  Nd5  1  0.750000  0.685750  0.551460  1
  Nd  Nd6  1  0.250000  0.311299  0.446645  1
  Nd  Nd7  1  0.750000  0.188701  0.946645  1
  Os  Os8  1  0.250000  0.270345  0.141914  1
  Os  Os9  1  0.750000  0.229655  0.641914  1
  W  W10  1  0.250000  0.770884  0.358887  1
  W  W11  1  0.750000  0.729116  0.858887  1
  C  C12  1  0.250000  0.684609  0.542201  1
  C  C13  1  0.750000  0.815391  0.042201  1
  C  C14  1  0.250000  0.186838  0.964884  1
  C  C15  1  0.750000  0.313162  0.464884  1
  C  C16  1  0.250000  0.037505  0.258456  1
  C  C17  1  0.750000  0.462495  0.758456  1
  C  C18  1  0.250000  0.530995  0.242196  1
  C  C19  1  0.750000  0.969005  0.742196  1
