# generated using pymatgen
data_Dy2GaNiIr
_symmetry_space_group_name_H-M   'P 1'
_cell_length_a   4.20845659
_cell_length_b   5.53105478
_cell_length_c   5.45072963
_cell_angle_alpha   120.48870367
_cell_angle_beta   112.70863220
_cell_angle_gamma   90.00000527
_symmetry_Int_Tables_number   1
_chemical_formula_structural   Dy2GaNiIr
_chemical_formula_sum   'Dy2 Ga1 Ni1 Ir1'
_cell_volume   97.74910755
_cell_formula_units_Z   1
loop_
 _symmetry_equiv_pos_site_id
 _symmetry_equiv_pos_as_xyz
  1  'x, y, z'
loop_
 _atom_site_type_symbol
 _atom_site_label
 _atom_site_symmetry_multiplicity
 _atom_site_fract_x
 _atom_site_fract_y
 _atom_site_fract_z
 _atom_site_occupancy
  Dy  Dy0  1  0.800582  0.295539  0.601163  1
  Dy  Dy1  1  0.199418  0.694376  0.398837  1
  Ga  Ga2  1  0.000000  0.989792  0.000000  1
  Ni  Ni3  1  0.500000  0.744619  0.000000  1
  Ir  Ir4  1  0.500000  0.275674  0.000000  1
