# generated using pymatgen
data_Dy3Y4TmPt4
_symmetry_space_group_name_H-M   'P 1'
_cell_length_a   4.76564700
_cell_length_b   7.17604314
_cell_length_c   8.81711858
_cell_angle_alpha   89.92153360
_cell_angle_beta   90.00000000
_cell_angle_gamma   90.00000000
_symmetry_Int_Tables_number   1
_chemical_formula_structural   Dy3Y4TmPt4
_chemical_formula_sum   'Dy3 Y4 Tm1 Pt4'
_cell_volume   301.53184496
_cell_formula_units_Z   1
loop_
 _symmetry_equiv_pos_site_id
 _symmetry_equiv_pos_as_xyz
  1  'x, y, z'
loop_
 _atom_site_type_symbol
 _atom_site_label
 _atom_site_symmetry_multiplicity
 _atom_site_fract_x
 _atom_site_fract_y
 _atom_site_fract_z
 _atom_site_occupancy
  Dy  Dy0  1  0.250000  0.855309  0.919920  1
  Dy  Dy1  1  0.250000  0.355986  0.579295  1
  Dy  Dy2  1  0.750000  0.144923  0.080302  1
  Y  Y3  1  0.250000  0.989228  0.331573  1
  Y  Y4  1  0.250000  0.490807  0.169383  1
  Y  Y5  1  0.750000  0.008992  0.668871  1
  Y  Y6  1  0.750000  0.510342  0.830602  1
  Tm  Tm7  1  0.750000  0.644425  0.420268  1
  Pt  Pt8  1  0.250000  0.257079  0.906305  1
  Pt  Pt9  1  0.250000  0.756031  0.592603  1
  Pt  Pt10  1  0.750000  0.742770  0.094728  1
  Pt  Pt11  1  0.750000  0.244107  0.406149  1
