# generated using pymatgen
data_Ho5Np(SnRu2)6
_symmetry_space_group_name_H-M   'P 1'
_cell_length_a   4.62856200
_cell_length_b   6.60578200
_cell_length_c   13.80965200
_cell_angle_alpha   89.99947091
_cell_angle_beta   89.99798226
_cell_angle_gamma   89.99999998
_symmetry_Int_Tables_number   1
_chemical_formula_structural   Ho5Np(SnRu2)6
_chemical_formula_sum   'Ho5 Np1 Sn6 Ru12'
_cell_volume   422.23385985
_cell_formula_units_Z   1
loop_
 _symmetry_equiv_pos_site_id
 _symmetry_equiv_pos_as_xyz
  1  'x, y, z'
loop_
 _atom_site_type_symbol
 _atom_site_label
 _atom_site_symmetry_multiplicity
 _atom_site_fract_x
 _atom_site_fract_y
 _atom_site_fract_z
 _atom_site_occupancy
  Ho  Ho0  1  0.499958  0.499978  0.167541  1
  Ho  Ho1  1  0.999946  0.999995  0.335437  1
  Ho  Ho2  1  0.500000  0.499977  0.500013  1
  Ho  Ho3  1  0.000054  0.000010  0.664533  1
  Ho  Ho4  1  0.500054  0.499956  0.832416  1
  Np  Np5  1  0.000003  0.999920  0.000014  1
  Sn  Sn6  1  0.999994  0.500002  0.000078  1
  Sn  Sn7  1  0.499968  0.999972  0.174302  1
  Sn  Sn8  1  0.999919  0.499963  0.334713  1
  Sn  Sn9  1  0.499993  0.000418  0.500022  1
  Sn  Sn10  1  0.000088  0.499955  0.665256  1
  Sn  Sn11  1  0.500050  0.999970  0.825680  1
  Ru  Ru12  1  0.500006  0.235781  0.000001  1
  Ru  Ru13  1  0.499988  0.764203  0.000001  1
  Ru  Ru14  1  0.999934  0.234445  0.154597  1
  Ru  Ru15  1  0.999934  0.765518  0.154593  1
  Ru  Ru16  1  0.499942  0.252155  0.332084  1
  Ru  Ru17  1  0.499951  0.747825  0.332088  1
  Ru  Ru18  1  0.000002  0.250927  0.500000  1
  Ru  Ru19  1  0.999993  0.749102  0.500000  1
  Ru  Ru20  1  0.500052  0.252145  0.667903  1
  Ru  Ru21  1  0.500048  0.747828  0.667901  1
  Ru  Ru22  1  0.000063  0.234436  0.845412  1
  Ru  Ru23  1  0.000055  0.765525  0.845417  1
