# generated using pymatgen
data_Pa3Co2Si7
_symmetry_space_group_name_H-M   'P 1'
_cell_length_a   12.39348759
_cell_length_b   12.39348740
_cell_length_c   4.03887700
_cell_angle_alpha   90.00000000
_cell_angle_beta   90.00000000
_cell_angle_gamma   161.17414447
_symmetry_Int_Tables_number   1
_chemical_formula_structural   Pa3Co2Si7
_chemical_formula_sum   'Pa3 Co2 Si7'
_cell_volume   200.18753753
_cell_formula_units_Z   1
loop_
 _symmetry_equiv_pos_site_id
 _symmetry_equiv_pos_as_xyz
  1  'x, y, z'
loop_
 _atom_site_type_symbol
 _atom_site_label
 _atom_site_symmetry_multiplicity
 _atom_site_fract_x
 _atom_site_fract_y
 _atom_site_fract_z
 _atom_site_occupancy
  Pa  Pa0  1  0.901872  0.098128  0.500000  1
  Pa  Pa1  1  0.533674  0.466326  0.500000  1
  Pa  Pa2  1  0.218439  0.781561  0.000000  1
  Co  Co3  1  0.348451  0.651549  0.000000  1
  Co  Co4  1  0.088661  0.911339  0.000000  1
  Si  Si5  1  0.630112  0.369888  0.000000  1
  Si  Si6  1  0.442715  0.557285  0.000000  1
  Si  Si7  1  0.129864  0.870136  0.500000  1
  Si  Si8  1  0.993562  0.006438  0.000000  1
  Si  Si9  1  0.805349  0.194651  0.000000  1
  Si  Si10  1  0.705050  0.294950  0.500000  1
  Si  Si11  1  0.305547  0.694453  0.500000  1
