# generated using pymatgen
data_Dy2Si2Te
_symmetry_space_group_name_H-M   'P 1'
_cell_length_a   4.13543900
_cell_length_b   4.13543992
_cell_length_c   15.69419000
_cell_angle_alpha   90.00000000
_cell_angle_beta   90.00000000
_cell_angle_gamma   120.00000066
_symmetry_Int_Tables_number   1
_chemical_formula_structural   Dy2Si2Te
_chemical_formula_sum   'Dy4 Si4 Te2'
_cell_volume   232.44107183
_cell_formula_units_Z   2
loop_
 _symmetry_equiv_pos_site_id
 _symmetry_equiv_pos_as_xyz
  1  'x, y, z'
loop_
 _atom_site_type_symbol
 _atom_site_label
 _atom_site_symmetry_multiplicity
 _atom_site_fract_x
 _atom_site_fract_y
 _atom_site_fract_z
 _atom_site_occupancy
  Dy  Dy0  1  0.000000  0.000000  0.119728  1
  Dy  Dy1  1  0.000000  0.000000  0.880272  1
  Dy  Dy2  1  0.000000  0.000000  0.619728  1
  Dy  Dy3  1  0.000000  0.000000  0.380272  1
  Si  Si4  1  0.333333  0.666667  0.504924  1
  Si  Si5  1  0.666667  0.333333  0.495076  1
  Si  Si6  1  0.666667  0.333333  0.004924  1
  Si  Si7  1  0.333333  0.666667  0.995076  1
  Te  Te8  1  0.333333  0.666667  0.250000  1
  Te  Te9  1  0.666667  0.333333  0.750000  1
