# generated using pymatgen
data_Dy3Ho7Cd3Ru
_symmetry_space_group_name_H-M   'P 1'
_cell_length_a   9.56464000
_cell_length_b   9.56463981
_cell_length_c   9.81237800
_cell_angle_alpha   90.00000000
_cell_angle_beta   90.00000000
_cell_angle_gamma   120.00000065
_symmetry_Int_Tables_number   1
_chemical_formula_structural   Dy3Ho7Cd3Ru
_chemical_formula_sum   'Dy6 Ho14 Cd6 Ru2'
_cell_volume   777.39572343
_cell_formula_units_Z   2
loop_
 _symmetry_equiv_pos_site_id
 _symmetry_equiv_pos_as_xyz
  1  'x, y, z'
loop_
 _atom_site_type_symbol
 _atom_site_label
 _atom_site_symmetry_multiplicity
 _atom_site_fract_x
 _atom_site_fract_y
 _atom_site_fract_z
 _atom_site_occupancy
  Dy  Dy0  1  0.541157  0.458843  0.250000  1
  Dy  Dy1  1  0.541157  0.082313  0.250000  1
  Dy  Dy2  1  0.917687  0.458843  0.250000  1
  Dy  Dy3  1  0.458843  0.541157  0.750000  1
  Dy  Dy4  1  0.458843  0.917687  0.750000  1
  Dy  Dy5  1  0.082313  0.541157  0.750000  1
  Ho  Ho6  1  0.000000  0.000000  0.500000  1
  Ho  Ho7  1  0.000000  0.000000  0.000000  1
  Ho  Ho8  1  0.209969  0.790031  0.439871  1
  Ho  Ho9  1  0.209969  0.419938  0.439871  1
  Ho  Ho10  1  0.580062  0.790031  0.439871  1
  Ho  Ho11  1  0.790031  0.209969  0.560129  1
  Ho  Ho12  1  0.790031  0.580062  0.560129  1
  Ho  Ho13  1  0.419938  0.209969  0.560129  1
  Ho  Ho14  1  0.790031  0.209969  0.939871  1
  Ho  Ho15  1  0.790031  0.580062  0.939871  1
  Ho  Ho16  1  0.419938  0.209969  0.939871  1
  Ho  Ho17  1  0.209969  0.790031  0.060129  1
  Ho  Ho18  1  0.209969  0.419938  0.060129  1
  Ho  Ho19  1  0.580062  0.790031  0.060129  1
  Cd  Cd20  1  0.885451  0.114549  0.250000  1
  Cd  Cd21  1  0.885451  0.770903  0.250000  1
  Cd  Cd22  1  0.229097  0.114549  0.250000  1
  Cd  Cd23  1  0.114549  0.885451  0.750000  1
  Cd  Cd24  1  0.114549  0.229097  0.750000  1
  Cd  Cd25  1  0.770903  0.885451  0.750000  1
  Ru  Ru26  1  0.333333  0.666667  0.250000  1
  Ru  Ru27  1  0.666667  0.333333  0.750000  1
