# generated using pymatgen
data_LiGd7Y3Si3B16
_symmetry_space_group_name_H-M   'P 1'
_cell_length_a   7.27453006
_cell_length_b   7.27752031
_cell_length_c   8.27349539
_cell_angle_alpha   89.97046057
_cell_angle_beta   90.01305507
_cell_angle_gamma   89.36406714
_symmetry_Int_Tables_number   1
_chemical_formula_structural   LiGd7Y3Si3B16
_chemical_formula_sum   'Li1 Gd7 Y3 Si3 B16'
_cell_volume   437.97626704
_cell_formula_units_Z   1
loop_
 _symmetry_equiv_pos_site_id
 _symmetry_equiv_pos_as_xyz
  1  'x, y, z'
loop_
 _atom_site_type_symbol
 _atom_site_label
 _atom_site_symmetry_multiplicity
 _atom_site_fract_x
 _atom_site_fract_y
 _atom_site_fract_z
 _atom_site_occupancy
  Li  Li0  1  0.110787  0.609667  0.499353  1
  Gd  Gd1  1  0.681340  0.181339  0.225106  1
  Gd  Gd2  1  0.325422  0.825619  0.777773  1
  Gd  Gd3  1  0.325523  0.825481  0.222649  1
  Gd  Gd4  1  0.814322  0.682246  0.219041  1
  Gd  Gd5  1  0.813941  0.682601  0.781469  1
  Gd  Gd6  1  0.681171  0.181362  0.775109  1
  Gd  Gd7  1  0.182451  0.314033  0.781150  1
  Y  Y8  1  0.182662  0.313575  0.216330  1
  Y  Y9  1  0.998666  0.011127  0.499625  1
  Y  Y10  1  0.510904  0.498545  0.499631  1
  Si  Si11  1  0.884921  0.384061  0.499090  1
  Si  Si12  1  0.381438  0.115125  0.499420  1
  Si  Si13  1  0.614130  0.882326  0.499661  1
  B  B14  1  0.171245  0.038682  0.000063  1
  B  B15  1  0.828073  0.961338  0.000448  1
  B  B16  1  0.958683  0.172158  0.000155  1
  B  B17  1  0.327408  0.540675  0.000109  1
  B  B18  1  0.040808  0.827620  0.000465  1
  B  B19  1  0.672029  0.458752  0.000456  1
  B  B20  1  0.538598  0.671076  0.000436  1
  B  B21  1  0.460988  0.328030  0.000227  1
  B  B22  1  0.090152  0.590080  0.000348  1
  B  B23  1  0.908913  0.408818  0.000238  1
  B  B24  1  0.408770  0.091244  0.999893  1
  B  B25  1  0.591268  0.908787  0.000201  1
  B  B26  1  0.000002  0.998319  0.159428  1
  B  B27  1  0.999802  0.997837  0.841343  1
  B  B28  1  0.497992  0.499762  0.841201  1
  B  B29  1  0.497590  0.499715  0.159580  1
