# generated using pymatgen
data_Nd8TaW3C8
_symmetry_space_group_name_H-M   'P 1'
_cell_length_a   5.87430562
_cell_length_b   5.87430562
_cell_length_c   10.39318800
_cell_angle_alpha   90.00000000
_cell_angle_beta   90.00000000
_cell_angle_gamma   90.46142578
_symmetry_Int_Tables_number   1
_chemical_formula_structural   Nd8TaW3C8
_chemical_formula_sum   'Nd8 Ta1 W3 C8'
_cell_volume   358.63095716
_cell_formula_units_Z   1
loop_
 _symmetry_equiv_pos_site_id
 _symmetry_equiv_pos_as_xyz
  1  'x, y, z'
loop_
 _atom_site_type_symbol
 _atom_site_label
 _atom_site_symmetry_multiplicity
 _atom_site_fract_x
 _atom_site_fract_y
 _atom_site_fract_z
 _atom_site_occupancy
  Nd  Nd0  1  0.196428  0.196428  0.343880  1
  Nd  Nd1  1  0.802242  0.802242  0.655908  1
  Nd  Nd2  1  0.302060  0.697236  0.842040  1
  Nd  Nd3  1  0.802242  0.802242  0.344092  1
  Nd  Nd4  1  0.196428  0.196428  0.656120  1
  Nd  Nd5  1  0.697236  0.302060  0.157960  1
  Nd  Nd6  1  0.697236  0.302060  0.842040  1
  Nd  Nd7  1  0.302060  0.697236  0.157960  1
  Ta  Ta8  1  0.182813  0.182813  0.000000  1
  W  W9  1  0.825103  0.825103  0.000000  1
  W  W10  1  0.323202  0.676393  0.500000  1
  W  W11  1  0.676393  0.323202  0.500000  1
  C  C12  1  0.997967  0.997967  0.142175  1
  C  C13  1  0.499905  0.499905  0.358301  1
  C  C14  1  0.499905  0.499905  0.641699  1
  C  C15  1  0.507184  0.993434  0.000000  1
  C  C16  1  0.993434  0.507184  0.000000  1
  C  C17  1  0.997967  0.997967  0.857825  1
  C  C18  1  0.500273  0.999922  0.500000  1
  C  C19  1  0.999922  0.500273  0.500000  1
