# generated using pymatgen
data_SrLaTb5CoI12
_symmetry_space_group_name_H-M   'P 1'
_cell_length_a   9.89082240
_cell_length_b   9.88160033
_cell_length_c   9.80718465
_cell_angle_alpha   106.61264856
_cell_angle_beta   105.98672424
_cell_angle_gamma   106.17444682
_symmetry_Int_Tables_number   1
_chemical_formula_structural   SrLaTb5CoI12
_chemical_formula_sum   'Sr1 La1 Tb5 Co1 I12'
_cell_volume   813.86852021
_cell_formula_units_Z   1
loop_
 _symmetry_equiv_pos_site_id
 _symmetry_equiv_pos_as_xyz
  1  'x, y, z'
loop_
 _atom_site_type_symbol
 _atom_site_label
 _atom_site_symmetry_multiplicity
 _atom_site_fract_x
 _atom_site_fract_y
 _atom_site_fract_z
 _atom_site_occupancy
  Sr  Sr0  1  0.500708  0.500089  0.499354  1
  La  La1  1  0.017976  0.090389  0.286338  1
  Tb  Tb2  1  0.093849  0.294490  0.020589  1
  Tb  Tb3  1  0.293315  0.019169  0.091416  1
  Tb  Tb4  1  0.981278  0.912117  0.726266  1
  Tb  Tb5  1  0.906347  0.705034  0.979796  1
  Tb  Tb6  1  0.705937  0.979729  0.904180  1
  Co  Co7  1  0.999372  0.001560  0.005882  1
  I  I8  1  0.143420  0.459712  0.368249  1
  I  I9  1  0.445162  0.365477  0.132783  1
  I  I10  1  0.378352  0.138697  0.449208  1
  I  I11  1  0.864214  0.555042  0.631724  1
  I  I12  1  0.554356  0.634728  0.865429  1
  I  I13  1  0.635907  0.862797  0.551478  1
  I  I14  1  0.665506  0.070894  0.216062  1
  I  I15  1  0.073278  0.220816  0.681902  1
  I  I16  1  0.221438  0.678130  0.071479  1
  I  I17  1  0.318132  0.925393  0.772874  1
  I  I18  1  0.923009  0.764182  0.318249  1
  I  I19  1  0.778447  0.321555  0.926742  1
