# generated using pymatgen
data_Sr2Cu7NiPd2
_symmetry_space_group_name_H-M   'P 1'
_cell_length_a   4.05064800
_cell_length_b   5.14624243
_cell_length_c   9.42913392
_cell_angle_alpha   90.00167473
_cell_angle_beta   90.00000000
_cell_angle_gamma   90.00000000
_symmetry_Int_Tables_number   1
_chemical_formula_structural   Sr2Cu7NiPd2
_chemical_formula_sum   'Sr2 Cu7 Ni1 Pd2'
_cell_volume   196.55611070
_cell_formula_units_Z   1
loop_
 _symmetry_equiv_pos_site_id
 _symmetry_equiv_pos_as_xyz
  1  'x, y, z'
loop_
 _atom_site_type_symbol
 _atom_site_label
 _atom_site_symmetry_multiplicity
 _atom_site_fract_x
 _atom_site_fract_y
 _atom_site_fract_z
 _atom_site_occupancy
  Sr  Sr0  1  0.000000  0.254769  0.753065  1
  Sr  Sr1  1  0.000000  0.745231  0.246935  1
  Cu  Cu2  1  0.000000  0.237019  0.070802  1
  Cu  Cu3  1  0.000000  0.751628  0.571463  1
  Cu  Cu4  1  0.000000  0.762981  0.929198  1
  Cu  Cu5  1  0.000000  0.248372  0.428537  1
  Cu  Cu6  1  0.500000  0.500000  0.500000  1
  Cu  Cu7  1  0.500000  0.500000  0.000000  1
  Cu  Cu8  1  0.500000  0.000000  0.500000  1
  Ni  Ni9  1  0.500000  0.000000  0.000000  1
  Pd  Pd10  1  0.500000  0.754210  0.750877  1
  Pd  Pd11  1  0.500000  0.245790  0.249123  1
