# generated using pymatgen
data_Tm12Tc2NiPt
_symmetry_space_group_name_H-M   'P 1'
_cell_length_a   6.31369997
_cell_length_b   7.16653701
_cell_length_c   9.03462700
_cell_angle_alpha   90.00000000
_cell_angle_beta   90.00000000
_cell_angle_gamma   89.68774096
_symmetry_Int_Tables_number   1
_chemical_formula_structural   Tm12Tc2NiPt
_chemical_formula_sum   'Tm12 Tc2 Ni1 Pt1'
_cell_volume   408.78699030
_cell_formula_units_Z   1
loop_
 _symmetry_equiv_pos_site_id
 _symmetry_equiv_pos_as_xyz
  1  'x, y, z'
loop_
 _atom_site_type_symbol
 _atom_site_label
 _atom_site_symmetry_multiplicity
 _atom_site_fract_x
 _atom_site_fract_y
 _atom_site_fract_z
 _atom_site_occupancy
  Tm  Tm0  1  0.325903  0.679507  0.064487  1
  Tm  Tm1  1  0.171008  0.177412  0.437164  1
  Tm  Tm2  1  0.670856  0.318106  0.556099  1
  Tm  Tm3  1  0.827312  0.822257  0.937333  1
  Tm  Tm4  1  0.670856  0.318106  0.943901  1
  Tm  Tm5  1  0.827312  0.822257  0.562667  1
  Tm  Tm6  1  0.325903  0.679507  0.435513  1
  Tm  Tm7  1  0.171008  0.177412  0.062836  1
  Tm  Tm8  1  0.876348  0.543215  0.250000  1
  Tm  Tm9  1  0.631368  0.035530  0.250000  1
  Tm  Tm10  1  0.123338  0.458285  0.750000  1
  Tm  Tm11  1  0.374615  0.970027  0.750000  1
  Tc  Tc12  1  0.467674  0.390942  0.250000  1
  Tc  Tc13  1  0.959787  0.108441  0.750000  1
  Ni  Ni14  1  0.040029  0.888754  0.250000  1
  Pt  Pt15  1  0.536683  0.610243  0.750000  1
