# generated using pymatgen
data_LiEr3Si2Ag2Sn
_symmetry_space_group_name_H-M   'P 1'
_cell_length_a   7.11882249
_cell_length_b   7.07469697
_cell_length_c   4.28671700
_cell_angle_alpha   90.00000000
_cell_angle_beta   90.00000000
_cell_angle_gamma   119.79517029
_symmetry_Int_Tables_number   1
_chemical_formula_structural   LiEr3Si2Ag2Sn
_chemical_formula_sum   'Li1 Er3 Si2 Ag2 Sn1'
_cell_volume   187.35450480
_cell_formula_units_Z   1
loop_
 _symmetry_equiv_pos_site_id
 _symmetry_equiv_pos_as_xyz
  1  'x, y, z'
loop_
 _atom_site_type_symbol
 _atom_site_label
 _atom_site_symmetry_multiplicity
 _atom_site_fract_x
 _atom_site_fract_y
 _atom_site_fract_z
 _atom_site_occupancy
  Li  Li0  1  0.000000  0.247158  0.500000  1
  Er  Er1  1  0.000000  0.563793  0.000000  1
  Er  Er2  1  0.439158  0.438001  0.000000  1
  Er  Er3  1  0.560842  0.998842  0.000000  1
  Si  Si4  1  0.671444  0.334507  0.500000  1
  Si  Si5  1  0.328556  0.663065  0.500000  1
  Ag  Ag6  1  0.739600  0.741698  0.500000  1
  Ag  Ag7  1  0.260400  0.002098  0.500000  1
  Sn  Sn8  1  0.000000  0.010838  0.000000  1
