# generated using pymatgen
data_YHo3Ga18(Ir2Pt)2
_symmetry_space_group_name_H-M   'P 1'
_cell_length_a   7.62390510
_cell_length_b   7.62389586
_cell_length_c   9.46950100
_cell_angle_alpha   90.00000000
_cell_angle_beta   90.00000000
_cell_angle_gamma   119.93755003
_symmetry_Int_Tables_number   1
_chemical_formula_structural   YHo3Ga18(Ir2Pt)2
_chemical_formula_sum   'Y1 Ho3 Ga18 Ir4 Pt2'
_cell_volume   476.96346648
_cell_formula_units_Z   1
loop_
 _symmetry_equiv_pos_site_id
 _symmetry_equiv_pos_as_xyz
  1  'x, y, z'
loop_
 _atom_site_type_symbol
 _atom_site_label
 _atom_site_symmetry_multiplicity
 _atom_site_fract_x
 _atom_site_fract_y
 _atom_site_fract_z
 _atom_site_occupancy
  Y  Y0  1  0.996653  0.669429  0.250000  1
  Ho  Ho1  1  0.003303  0.330609  0.750000  1
  Ho  Ho2  1  0.669360  0.996679  0.250000  1
  Ho  Ho3  1  0.330639  0.003308  0.750000  1
  Ga  Ga4  1  0.131246  0.131396  0.250000  1
  Ga  Ga5  1  0.868777  0.868788  0.750000  1
  Ga  Ga6  1  0.998100  0.337421  0.081650  1
  Ga  Ga7  1  0.001909  0.662361  0.918075  1
  Ga  Ga8  1  0.001909  0.662361  0.581925  1
  Ga  Ga9  1  0.337842  0.998299  0.418338  1
  Ga  Ga10  1  0.998100  0.337421  0.418350  1
  Ga  Ga11  1  0.662369  0.001896  0.581787  1
  Ga  Ga12  1  0.662369  0.001896  0.918213  1
  Ga  Ga13  1  0.337842  0.998299  0.081662  1
  Ga  Ga14  1  0.335381  0.335379  0.568579  1
  Ga  Ga15  1  0.664426  0.664613  0.431557  1
  Ga  Ga16  1  0.664426  0.664613  0.068443  1
  Ga  Ga17  1  0.335381  0.335379  0.931421  1
  Ga  Ga18  1  0.337603  0.546658  0.250000  1
  Ga  Ga19  1  0.662534  0.453338  0.750000  1
  Ga  Ga20  1  0.546459  0.337274  0.250000  1
  Ga  Ga21  1  0.453337  0.662539  0.750000  1
  Ir  Ir22  1  0.671216  0.328619  0.999917  1
  Ir  Ir23  1  0.328795  0.671307  0.999913  1
  Ir  Ir24  1  0.328795  0.671307  0.500087  1
  Ir  Ir25  1  0.671216  0.328619  0.500083  1
  Pt  Pt26  1  0.000005  0.000096  0.999933  1
  Pt  Pt27  1  0.000005  0.000096  0.500067  1
