# generated using pymatgen
data_Hf12Zr8Si15Sb
_symmetry_space_group_name_H-M   'P 1'
_cell_length_a   7.15119678
_cell_length_b   7.12633698
_cell_length_c   12.99554682
_cell_angle_alpha   89.94118230
_cell_angle_beta   89.68569145
_cell_angle_gamma   90.20115590
_symmetry_Int_Tables_number   1
_chemical_formula_structural   Hf12Zr8Si15Sb
_chemical_formula_sum   'Hf12 Zr8 Si15 Sb1'
_cell_volume   662.26254462
_cell_formula_units_Z   1
loop_
 _symmetry_equiv_pos_site_id
 _symmetry_equiv_pos_as_xyz
  1  'x, y, z'
loop_
 _atom_site_type_symbol
 _atom_site_label
 _atom_site_symmetry_multiplicity
 _atom_site_fract_x
 _atom_site_fract_y
 _atom_site_fract_z
 _atom_site_occupancy
  Hf  Hf0  1  0.677258  0.324391  0.749085  1
  Hf  Hf1  1  0.324635  0.675933  0.251080  1
  Hf  Hf2  1  0.823394  0.824407  0.500324  1
  Hf  Hf3  1  0.181578  0.174909  0.998537  1
  Hf  Hf4  1  0.489686  0.359834  0.125571  1
  Hf  Hf5  1  0.500946  0.646166  0.626275  1
  Hf  Hf6  1  0.853119  0.000565  0.872329  1
  Hf  Hf7  1  0.147898  0.999323  0.377363  1
  Hf  Hf8  1  0.647372  0.501345  0.374232  1
  Hf  Hf9  1  0.351825  0.500405  0.871811  1
  Hf  Hf10  1  0.011650  0.840903  0.126445  1
  Hf  Hf11  1  0.999016  0.146748  0.623201  1
  Zr  Zr12  1  0.498231  0.151025  0.534650  1
  Zr  Zr13  1  0.495305  0.842906  0.031628  1
  Zr  Zr14  1  0.648617  0.999170  0.288849  1
  Zr  Zr15  1  0.346241  0.995068  0.782202  1
  Zr  Zr16  1  0.850224  0.509696  0.963074  1
  Zr  Zr17  1  0.151748  0.498023  0.466415  1
  Zr  Zr18  1  0.001429  0.651057  0.714601  1
  Zr  Zr19  1  0.010342  0.357511  0.222953  1
  Si  Si20  1  0.204666  0.855220  0.572669  1
  Si  Si21  1  0.644114  0.704312  0.820885  1
  Si  Si22  1  0.357442  0.295922  0.323571  1
  Si  Si23  1  0.855584  0.204622  0.428056  1
  Si  Si24  1  0.143230  0.796423  0.926945  1
  Si  Si25  1  0.703602  0.645976  0.178519  1
  Si  Si26  1  0.295369  0.354619  0.676620  1
  Si  Si27  1  0.540782  0.199943  0.929463  1
  Si  Si28  1  0.448430  0.797752  0.437737  1
  Si  Si29  1  0.699760  0.950112  0.685177  1
  Si  Si30  1  0.300216  0.051055  0.187020  1
  Si  Si31  1  0.799311  0.449818  0.563152  1
  Si  Si32  1  0.200078  0.548549  0.061741  1
  Si  Si33  1  0.948774  0.702821  0.315942  1
  Si  Si34  1  0.050189  0.299727  0.813005  1
  Sb  Sb35  1  0.797938  0.143742  0.078872  1
