# generated using pymatgen
data_Tm9Lu3Co8Se
_symmetry_space_group_name_H-M   'P 1'
_cell_length_a   11.22862000
_cell_length_b   11.22862122
_cell_length_c   3.98333300
_cell_angle_alpha   90.00000000
_cell_angle_beta   90.00000000
_cell_angle_gamma   120.00000230
_symmetry_Int_Tables_number   1
_chemical_formula_structural   Tm9Lu3Co8Se
_chemical_formula_sum   'Tm9 Lu3 Co8 Se1'
_cell_volume   434.94070322
_cell_formula_units_Z   1
loop_
 _symmetry_equiv_pos_site_id
 _symmetry_equiv_pos_as_xyz
  1  'x, y, z'
loop_
 _atom_site_type_symbol
 _atom_site_label
 _atom_site_symmetry_multiplicity
 _atom_site_fract_x
 _atom_site_fract_y
 _atom_site_fract_z
 _atom_site_occupancy
  Tm  Tm0  1  0.482685  0.618832  0.749871  1
  Tm  Tm1  1  0.136146  0.517315  0.749871  1
  Tm  Tm2  1  0.381168  0.863854  0.749871  1
  Tm  Tm3  1  0.975013  0.235886  0.254736  1
  Tm  Tm4  1  0.260873  0.024987  0.254736  1
  Tm  Tm5  1  0.764114  0.739127  0.254736  1
  Tm  Tm6  1  0.024580  0.763859  0.745207  1
  Tm  Tm7  1  0.739280  0.975420  0.745207  1
  Tm  Tm8  1  0.236141  0.260720  0.745207  1
  Lu  Lu9  1  0.517801  0.380865  0.250169  1
  Lu  Lu10  1  0.863065  0.482199  0.250169  1
  Lu  Lu11  1  0.619135  0.136935  0.250169  1
  Co  Co12  1  0.333333  0.666667  0.248611  1
  Co  Co13  1  0.666667  0.333333  0.751429  1
  Co  Co14  1  0.157210  0.719857  0.251995  1
  Co  Co15  1  0.562647  0.842790  0.251995  1
  Co  Co16  1  0.280143  0.437353  0.251995  1
  Co  Co17  1  0.842388  0.280112  0.748023  1
  Co  Co18  1  0.437725  0.157612  0.748023  1
  Co  Co19  1  0.719888  0.562275  0.748023  1
  Se  Se20  1  0.000000  0.000000  0.499960  1
