# generated using pymatgen
data_Er2MoRuC3
_symmetry_space_group_name_H-M   'P 1'
_cell_length_a   5.99452238
_cell_length_b   5.99452231
_cell_length_c   5.64676010
_cell_angle_alpha   68.08761202
_cell_angle_beta   68.08761382
_cell_angle_gamma   32.40047764
_symmetry_Int_Tables_number   1
_chemical_formula_structural   Er2MoRuC3
_chemical_formula_sum   'Er2 Mo1 Ru1 C3'
_cell_volume   100.18116201
_cell_formula_units_Z   1
loop_
 _symmetry_equiv_pos_site_id
 _symmetry_equiv_pos_as_xyz
  1  'x, y, z'
loop_
 _atom_site_type_symbol
 _atom_site_label
 _atom_site_symmetry_multiplicity
 _atom_site_fract_x
 _atom_site_fract_y
 _atom_site_fract_z
 _atom_site_occupancy
  Er  Er0  1  0.609759  0.609759  0.178389  1
  Er  Er1  1  0.391091  0.391091  0.831268  1
  Mo  Mo2  1  0.157757  0.157757  0.675969  1
  Ru  Ru3  1  0.841411  0.841411  0.319675  1
  C  C4  1  0.754828  0.754828  0.729922  1
  C  C5  1  0.246549  0.246549  0.267785  1
  C  C6  1  0.998604  0.998604  0.996992  1
