# generated using pymatgen
data_CeY4(FeB3)2
_symmetry_space_group_name_H-M   'P 1'
_cell_length_a   5.45465242
_cell_length_b   5.45465161
_cell_length_c   8.01114274
_cell_angle_alpha   70.09622189
_cell_angle_beta   70.09621609
_cell_angle_gamma   59.99999484
_symmetry_Int_Tables_number   1
_chemical_formula_structural   CeY4(FeB3)2
_chemical_formula_sum   'Ce1 Y4 Fe2 B6'
_cell_volume   189.80483024
_cell_formula_units_Z   1
loop_
 _symmetry_equiv_pos_site_id
 _symmetry_equiv_pos_as_xyz
  1  'x, y, z'
loop_
 _atom_site_type_symbol
 _atom_site_label
 _atom_site_symmetry_multiplicity
 _atom_site_fract_x
 _atom_site_fract_y
 _atom_site_fract_z
 _atom_site_occupancy
  Ce  Ce0  1  0.000000  0.000000  0.000000  1
  Y  Y1  1  0.746778  0.746778  0.759668  1
  Y  Y2  1  0.253222  0.253222  0.240332  1
  Y  Y3  1  0.585919  0.585919  0.242245  1
  Y  Y4  1  0.414081  0.414081  0.757755  1
  Fe  Fe5  1  0.889398  0.889398  0.331805  1
  Fe  Fe6  1  0.110602  0.110602  0.668195  1
  B  B7  1  0.500000  0.166659  0.500000  1
  B  B8  1  0.833341  0.500000  0.500000  1
  B  B9  1  0.166659  0.833341  0.500000  1
  B  B10  1  0.166659  0.500000  0.500000  1
  B  B11  1  0.833341  0.166659  0.500000  1
  B  B12  1  0.500000  0.833341  0.500000  1
