# generated using pymatgen
data_Sc4MoOs7
_symmetry_space_group_name_H-M   'P 1'
_cell_length_a   5.32057200
_cell_length_b   5.16448366
_cell_length_c   8.65498400
_cell_angle_alpha   90.00000000
_cell_angle_beta   90.00000000
_cell_angle_gamma   121.00492202
_symmetry_Int_Tables_number   1
_chemical_formula_structural   Sc4MoOs7
_chemical_formula_sum   'Sc4 Mo1 Os7'
_cell_volume   203.84247202
_cell_formula_units_Z   1
loop_
 _symmetry_equiv_pos_site_id
 _symmetry_equiv_pos_as_xyz
  1  'x, y, z'
loop_
 _atom_site_type_symbol
 _atom_site_label
 _atom_site_symmetry_multiplicity
 _atom_site_fract_x
 _atom_site_fract_y
 _atom_site_fract_z
 _atom_site_occupancy
  Sc  Sc0  1  0.332763  0.665527  0.432988  1
  Sc  Sc1  1  0.668938  0.337876  0.564217  1
  Sc  Sc2  1  0.668938  0.337876  0.935783  1
  Sc  Sc3  1  0.332763  0.665527  0.067012  1
  Mo  Mo4  1  0.169721  0.339441  0.750000  1
  Os  Os5  1  0.172042  0.825192  0.750000  1
  Os  Os6  1  0.344193  0.169623  0.250000  1
  Os  Os7  1  0.826423  0.652847  0.250000  1
  Os  Os8  1  0.653150  0.825192  0.750000  1
  Os  Os9  1  0.002820  0.005639  0.001517  1
  Os  Os10  1  0.825429  0.169623  0.250000  1
  Os  Os11  1  0.002820  0.005639  0.498483  1
