# generated using pymatgen
data_BPPd6
_symmetry_space_group_name_H-M   'P 1'
_cell_length_a   5.13040700
_cell_length_b   5.71951000
_cell_length_c   7.62893200
_cell_angle_alpha   90.00000000
_cell_angle_beta   90.00000000
_cell_angle_gamma   90.00000000
_symmetry_Int_Tables_number   1
_chemical_formula_structural   BPPd6
_chemical_formula_sum   'B2 P2 Pd12'
_cell_volume   223.85891113
_cell_formula_units_Z   2
loop_
 _symmetry_equiv_pos_site_id
 _symmetry_equiv_pos_as_xyz
  1  'x, y, z'
loop_
 _atom_site_type_symbol
 _atom_site_label
 _atom_site_symmetry_multiplicity
 _atom_site_fract_x
 _atom_site_fract_y
 _atom_site_fract_z
 _atom_site_occupancy
  B  B0  1  0.945830  0.615037  0.750000  1
  B  B1  1  0.445830  0.884963  0.250000  1
  P  P2  1  0.544824  0.114522  0.750000  1
  P  P3  1  0.044824  0.385478  0.250000  1
  Pd  Pd4  1  0.680881  0.809389  0.933057  1
  Pd  Pd5  1  0.180881  0.690611  0.066943  1
  Pd  Pd6  1  0.841253  0.334968  0.567346  1
  Pd  Pd7  1  0.341253  0.165032  0.432654  1
  Pd  Pd8  1  0.838718  0.017749  0.250000  1
  Pd  Pd9  1  0.338718  0.482251  0.750000  1
  Pd  Pd10  1  0.626361  0.538322  0.250000  1
  Pd  Pd11  1  0.126361  0.961678  0.750000  1
  Pd  Pd12  1  0.680881  0.809389  0.566943  1
  Pd  Pd13  1  0.180881  0.690611  0.433057  1
  Pd  Pd14  1  0.841253  0.334968  0.932654  1
  Pd  Pd15  1  0.341253  0.165032  0.067346  1
