# generated using pymatgen
data_TbSmLu4(Co3P2)6
_symmetry_space_group_name_H-M   'P 1'
_cell_length_a   3.67812100
_cell_length_b   10.48661300
_cell_length_c   12.13502600
_cell_angle_alpha   90.00000000
_cell_angle_beta   90.00000000
_cell_angle_gamma   90.00000000
_symmetry_Int_Tables_number   1
_chemical_formula_structural   TbSmLu4(Co3P2)6
_chemical_formula_sum   'Tb1 Sm1 Lu4 Co18 P12'
_cell_volume   468.06047003
_cell_formula_units_Z   1
loop_
 _symmetry_equiv_pos_site_id
 _symmetry_equiv_pos_as_xyz
  1  'x, y, z'
loop_
 _atom_site_type_symbol
 _atom_site_label
 _atom_site_symmetry_multiplicity
 _atom_site_fract_x
 _atom_site_fract_y
 _atom_site_fract_z
 _atom_site_occupancy
  Tb  Tb0  1  0.500000  0.000000  0.477282  1
  Sm  Sm1  1  0.000000  0.500000  0.522926  1
  Lu  Lu2  1  0.500000  0.818565  0.205385  1
  Lu  Lu3  1  0.500000  0.181435  0.205385  1
  Lu  Lu4  1  0.000000  0.681949  0.794951  1
  Lu  Lu5  1  0.000000  0.318051  0.794951  1
  Co  Co6  1  0.500000  0.500000  0.157689  1
  Co  Co7  1  0.000000  0.000000  0.841321  1
  Co  Co8  1  0.500000  0.500000  0.706693  1
  Co  Co9  1  0.000000  0.000000  0.294241  1
  Co  Co10  1  0.000000  0.500000  0.986928  1
  Co  Co11  1  0.500000  0.000000  0.013421  1
  Co  Co12  1  0.500000  0.332814  0.994754  1
  Co  Co13  1  0.500000  0.667186  0.994754  1
  Co  Co14  1  0.000000  0.166761  0.005174  1
  Co  Co15  1  0.000000  0.833239  0.005174  1
  Co  Co16  1  0.500000  0.295587  0.429543  1
  Co  Co17  1  0.500000  0.704413  0.429543  1
  Co  Co18  1  0.000000  0.201920  0.570367  1
  Co  Co19  1  0.000000  0.798080  0.570367  1
  Co  Co20  1  0.500000  0.878730  0.711331  1
  Co  Co21  1  0.500000  0.121270  0.711331  1
  Co  Co22  1  0.000000  0.622012  0.288454  1
  Co  Co23  1  0.000000  0.377988  0.288454  1
  P  P24  1  0.500000  0.500000  0.883232  1
  P  P25  1  0.000000  0.000000  0.117196  1
  P  P26  1  0.500000  0.500000  0.341710  1
  P  P27  1  0.000000  0.000000  0.656589  1
  P  P28  1  0.500000  0.309069  0.618401  1
  P  P29  1  0.500000  0.690931  0.618401  1
  P  P30  1  0.000000  0.189012  0.382194  1
  P  P31  1  0.000000  0.810988  0.382194  1
  P  P32  1  0.500000  0.846298  0.892419  1
  P  P33  1  0.500000  0.153702  0.892419  1
  P  P34  1  0.000000  0.654327  0.107413  1
  P  P35  1  0.000000  0.345673  0.107413  1
