# generated using pymatgen
data_TbNd4DyNiBr10
_symmetry_space_group_name_H-M   'P 1'
_cell_length_a   7.47882603
_cell_length_b   9.50249918
_cell_length_c   9.50511023
_cell_angle_alpha   108.43512228
_cell_angle_beta   95.34564544
_cell_angle_gamma   105.30268063
_symmetry_Int_Tables_number   1
_chemical_formula_structural   TbNd4DyNiBr10
_chemical_formula_sum   'Tb1 Nd4 Dy1 Ni1 Br10'
_cell_volume   606.49465048
_cell_formula_units_Z   1
loop_
 _symmetry_equiv_pos_site_id
 _symmetry_equiv_pos_as_xyz
  1  'x, y, z'
loop_
 _atom_site_type_symbol
 _atom_site_label
 _atom_site_symmetry_multiplicity
 _atom_site_fract_x
 _atom_site_fract_y
 _atom_site_fract_z
 _atom_site_occupancy
  Tb  Tb0  1  0.652761  0.874812  0.829954  1
  Nd  Nd1  1  0.132717  0.048900  0.756194  1
  Nd  Nd2  1  0.868514  0.951714  0.244320  1
  Nd  Nd3  1  0.968858  0.295844  0.096767  1
  Nd  Nd4  1  0.032344  0.704365  0.903821  1
  Dy  Dy5  1  0.346659  0.124871  0.169645  1
  Ni  Ni6  1  0.999624  0.999836  0.999734  1
  Br  Br7  1  0.549513  0.173844  0.920753  1
  Br  Br8  1  0.450211  0.826908  0.080413  1
  Br  Br9  1  0.355649  0.438482  0.266665  1
  Br  Br10  1  0.645161  0.560079  0.733748  1
  Br  Br11  1  0.249780  0.081785  0.444312  1
  Br  Br12  1  0.751724  0.919116  0.555289  1
  Br  Br13  1  0.757237  0.246181  0.339708  1
  Br  Br14  1  0.239588  0.752929  0.658431  1
  Br  Br15  1  0.087754  0.367820  0.828805  1
  Br  Br16  1  0.911906  0.632516  0.171441  1
