# generated using pymatgen
data_Ho6ReTcB14
_symmetry_space_group_name_H-M   'P 1'
_cell_length_a   8.05555610
_cell_length_b   8.05555604
_cell_length_c   9.33088600
_cell_angle_alpha   90.00000000
_cell_angle_beta   90.00000000
_cell_angle_gamma   154.70902698
_symmetry_Int_Tables_number   1
_chemical_formula_structural   Ho6ReTcB14
_chemical_formula_sum   'Ho6 Re1 Tc1 B14'
_cell_volume   258.67880858
_cell_formula_units_Z   1
loop_
 _symmetry_equiv_pos_site_id
 _symmetry_equiv_pos_as_xyz
  1  'x, y, z'
loop_
 _atom_site_type_symbol
 _atom_site_label
 _atom_site_symmetry_multiplicity
 _atom_site_fract_x
 _atom_site_fract_y
 _atom_site_fract_z
 _atom_site_occupancy
  Ho  Ho0  1  0.894943  0.105057  0.060446  1
  Ho  Ho1  1  0.105242  0.894758  0.559551  1
  Ho  Ho2  1  0.105242  0.894758  0.940449  1
  Ho  Ho3  1  0.894943  0.105057  0.439554  1
  Ho  Ho4  1  0.242094  0.757906  0.250000  1
  Ho  Ho5  1  0.757552  0.242448  0.750000  1
  Re  Re6  1  0.947414  0.052585  0.750000  1
  Tc  Tc7  1  0.052755  0.947245  0.250000  1
  B  B8  1  0.456765  0.543235  0.250000  1
  B  B9  1  0.543504  0.456496  0.750000  1
  B  B10  1  0.727187  0.272813  0.033297  1
  B  B11  1  0.272750  0.727250  0.533376  1
  B  B12  1  0.272750  0.727250  0.966624  1
  B  B13  1  0.727187  0.272813  0.466703  1
  B  B14  1  0.631973  0.368027  0.349124  1
  B  B15  1  0.367780  0.632220  0.849372  1
  B  B16  1  0.367780  0.632220  0.650628  1
  B  B17  1  0.631973  0.368027  0.150876  1
  B  B18  1  0.520652  0.479348  0.404505  1
  B  B19  1  0.479430  0.520570  0.904903  1
  B  B20  1  0.479430  0.520570  0.595097  1
  B  B21  1  0.520652  0.479348  0.095495  1
