# generated using pymatgen
data_Y3Lu2P12Ru16Pt3
_symmetry_space_group_name_H-M   'P 1'
_cell_length_a   12.58037900
_cell_length_b   12.58037929
_cell_length_c   3.98051400
_cell_angle_alpha   90.00000000
_cell_angle_beta   90.00000000
_cell_angle_gamma   119.99999136
_symmetry_Int_Tables_number   1
_chemical_formula_structural   Y3Lu2P12Ru16Pt3
_chemical_formula_sum   'Y3 Lu2 P12 Ru16 Pt3'
_cell_volume   545.57854731
_cell_formula_units_Z   1
loop_
 _symmetry_equiv_pos_site_id
 _symmetry_equiv_pos_as_xyz
  1  'x, y, z'
loop_
 _atom_site_type_symbol
 _atom_site_label
 _atom_site_symmetry_multiplicity
 _atom_site_fract_x
 _atom_site_fract_y
 _atom_site_fract_z
 _atom_site_occupancy
  Y  Y0  1  0.000000  0.182044  0.500000  1
  Y  Y1  1  0.817956  0.817956  0.500000  1
  Y  Y2  1  0.182044  0.000000  0.500000  1
  Lu  Lu3  1  0.666667  0.333333  0.000000  1
  Lu  Lu4  1  0.333333  0.666667  0.000000  1
  P  P5  1  0.000000  0.814774  0.000000  1
  P  P6  1  0.185226  0.185226  0.000000  1
  P  P7  1  0.814774  0.000000  0.000000  1
  P  P8  1  0.699533  0.181099  0.500000  1
  P  P9  1  0.818901  0.518434  0.500000  1
  P  P10  1  0.481566  0.300467  0.500000  1
  P  P11  1  0.181099  0.699533  0.500000  1
  P  P12  1  0.518434  0.818901  0.500000  1
  P  P13  1  0.300467  0.481566  0.500000  1
  P  P14  1  0.000000  0.365363  0.000000  1
  P  P15  1  0.634637  0.634637  0.000000  1
  P  P16  1  0.365363  0.000000  0.000000  1
  Ru  Ru17  1  0.000000  0.710601  0.500000  1
  Ru  Ru18  1  0.289399  0.289399  0.500000  1
  Ru  Ru19  1  0.710601  0.000000  0.500000  1
  Ru  Ru20  1  0.805859  0.185509  0.000000  1
  Ru  Ru21  1  0.814491  0.620352  0.000000  1
  Ru  Ru22  1  0.379648  0.194141  0.000000  1
  Ru  Ru23  1  0.185509  0.805859  0.000000  1
  Ru  Ru24  1  0.620352  0.814491  0.000000  1
  Ru  Ru25  1  0.194141  0.379648  0.000000  1
  Ru  Ru26  1  0.874201  0.369498  0.500000  1
  Ru  Ru27  1  0.630502  0.504703  0.500000  1
  Ru  Ru28  1  0.495297  0.125799  0.500000  1
  Ru  Ru29  1  0.369498  0.874201  0.500000  1
  Ru  Ru30  1  0.504703  0.630502  0.500000  1
  Ru  Ru31  1  0.125799  0.495297  0.500000  1
  Ru  Ru32  1  0.000000  0.000000  0.000000  1
  Pt  Pt33  1  0.000000  0.551335  0.000000  1
  Pt  Pt34  1  0.448665  0.448665  0.000000  1
  Pt  Pt35  1  0.551335  0.000000  0.000000  1
