# generated using pymatgen
data_Ho6Er2Sc12Si15Os
_symmetry_space_group_name_H-M   'P 1'
_cell_length_a   7.06532502
_cell_length_b   7.41893745
_cell_length_c   13.92490208
_cell_angle_alpha   89.98804807
_cell_angle_beta   89.99781028
_cell_angle_gamma   90.21101517
_symmetry_Int_Tables_number   1
_chemical_formula_structural   Ho6Er2Sc12Si15Os
_chemical_formula_sum   'Ho6 Er2 Sc12 Si15 Os1'
_cell_volume   729.89947142
_cell_formula_units_Z   1
loop_
 _symmetry_equiv_pos_site_id
 _symmetry_equiv_pos_as_xyz
  1  'x, y, z'
loop_
 _atom_site_type_symbol
 _atom_site_label
 _atom_site_symmetry_multiplicity
 _atom_site_fract_x
 _atom_site_fract_y
 _atom_site_fract_z
 _atom_site_occupancy
  Ho  Ho0  1  0.488453  0.676866  0.904170  1
  Ho  Ho1  1  0.990914  0.827890  0.596284  1
  Ho  Ho2  1  0.510989  0.322843  0.096260  1
  Ho  Ho3  1  0.011332  0.178952  0.403800  1
  Ho  Ho4  1  0.510951  0.322854  0.403728  1
  Ho  Ho5  1  0.488471  0.676846  0.595848  1
  Er  Er6  1  0.011318  0.179021  0.096241  1
  Er  Er7  1  0.990919  0.827869  0.903634  1
  Sc  Sc8  1  0.156051  0.497276  0.750013  1
  Sc  Sc9  1  0.837968  0.495212  0.249982  1
  Sc  Sc10  1  0.339059  0.005555  0.249988  1
  Sc  Sc11  1  0.668941  0.997781  0.750015  1
  Sc  Sc12  1  0.318120  0.172160  0.627351  1
  Sc  Sc13  1  0.671789  0.825304  0.373779  1
  Sc  Sc14  1  0.171048  0.678071  0.374049  1
  Sc  Sc15  1  0.671814  0.825333  0.126206  1
  Sc  Sc16  1  0.837426  0.319027  0.627449  1
  Sc  Sc17  1  0.318006  0.172107  0.872667  1
  Sc  Sc18  1  0.837468  0.318970  0.872563  1
  Sc  Sc19  1  0.171020  0.678099  0.125931  1
  Si  Si20  1  0.968755  0.885720  0.249967  1
  Si  Si21  1  0.469171  0.613700  0.249998  1
  Si  Si22  1  0.529487  0.389713  0.750009  1
  Si  Si23  1  0.286362  0.866215  0.750052  1
  Si  Si24  1  0.713415  0.130840  0.249952  1
  Si  Si25  1  0.213556  0.370147  0.249943  1
  Si  Si26  1  0.778812  0.627363  0.750044  1
  Si  Si27  1  0.160154  0.469012  0.536905  1
  Si  Si28  1  0.843962  0.535805  0.461495  1
  Si  Si29  1  0.344566  0.965988  0.459954  1
  Si  Si30  1  0.844022  0.535784  0.038510  1
  Si  Si31  1  0.655752  0.034016  0.538170  1
  Si  Si32  1  0.160098  0.469033  0.963100  1
  Si  Si33  1  0.655920  0.033961  0.961817  1
  Si  Si34  1  0.344386  0.966040  0.040062  1
  Os  Os35  1  0.029523  0.108627  0.750067  1
