# generated using pymatgen
data_Y6Ti5Al11Ir7
_symmetry_space_group_name_H-M   'P 1'
_cell_length_a   9.02018434
_cell_length_b   9.02018502
_cell_length_c   8.98578704
_cell_angle_alpha   59.87328420
_cell_angle_beta   59.87327994
_cell_angle_gamma   60.00000320
_symmetry_Int_Tables_number   1
_chemical_formula_structural   Y6Ti5Al11Ir7
_chemical_formula_sum   'Y6 Ti5 Al11 Ir7'
_cell_volume   515.98551562
_cell_formula_units_Z   1
loop_
 _symmetry_equiv_pos_site_id
 _symmetry_equiv_pos_as_xyz
  1  'x, y, z'
loop_
 _atom_site_type_symbol
 _atom_site_label
 _atom_site_symmetry_multiplicity
 _atom_site_fract_x
 _atom_site_fract_y
 _atom_site_fract_z
 _atom_site_occupancy
  Y  Y0  1  0.704473  0.704473  0.297756  1
  Y  Y1  1  0.293298  0.704473  0.297756  1
  Y  Y2  1  0.704473  0.293298  0.297756  1
  Y  Y3  1  0.298516  0.298516  0.704601  1
  Y  Y4  1  0.698367  0.298516  0.704601  1
  Y  Y5  1  0.298516  0.698367  0.704601  1
  Ti  Ti6  1  0.880628  0.880628  0.358118  1
  Ti  Ti7  1  0.878494  0.360949  0.882064  1
  Ti  Ti8  1  0.360949  0.878494  0.882064  1
  Ti  Ti9  1  0.878494  0.878494  0.882064  1
  Ti  Ti10  1  0.123334  0.123334  0.629998  1
  Al  Al11  1  0.118061  0.644363  0.119514  1
  Al  Al12  1  0.644363  0.118061  0.119514  1
  Al  Al13  1  0.118061  0.118061  0.119514  1
  Al  Al14  1  0.668663  0.668663  0.994009  1
  Al  Al15  1  0.669576  0.991749  0.669097  1
  Al  Al16  1  0.991749  0.669576  0.669097  1
  Al  Al17  1  0.669576  0.669576  0.669097  1
  Al  Al18  1  0.329099  0.329099  0.012704  1
  Al  Al19  1  0.329731  0.013263  0.327276  1
  Al  Al20  1  0.013263  0.329731  0.327276  1
  Al  Al21  1  0.329731  0.329731  0.327276  1
  Ir  Ir22  1  0.004374  0.004374  0.986877  1
  Ir  Ir23  1  0.998660  0.998660  0.504779  1
  Ir  Ir24  1  0.497902  0.998660  0.504779  1
  Ir  Ir25  1  0.998660  0.497902  0.504779  1
  Ir  Ir26  1  0.500164  0.500164  0.001012  1
  Ir  Ir27  1  0.998661  0.500164  0.001012  1
  Ir  Ir28  1  0.500164  0.998661  0.001012  1
