# generated using pymatgen
data_Sm2Tm2TcB12Ru
_symmetry_space_group_name_H-M   'P 1'
_cell_length_a   3.68240800
_cell_length_b   9.16069130
_cell_length_c   11.58741400
_cell_angle_alpha   89.86638195
_cell_angle_beta   90.00000000
_cell_angle_gamma   90.00000000
_symmetry_Int_Tables_number   1
_chemical_formula_structural   Sm2Tm2TcB12Ru
_chemical_formula_sum   'Sm4 Tm4 Tc2 B24 Ru2'
_cell_volume   390.88184263
_cell_formula_units_Z   2
loop_
 _symmetry_equiv_pos_site_id
 _symmetry_equiv_pos_as_xyz
  1  'x, y, z'
loop_
 _atom_site_type_symbol
 _atom_site_label
 _atom_site_symmetry_multiplicity
 _atom_site_fract_x
 _atom_site_fract_y
 _atom_site_fract_z
 _atom_site_occupancy
  Sm  Sm0  1  0.000000  0.324088  0.415344  1
  Sm  Sm1  1  0.000000  0.675912  0.584656  1
  Sm  Sm2  1  0.000000  0.821238  0.086799  1
  Sm  Sm3  1  0.000000  0.178762  0.913201  1
  Tm  Tm4  1  0.000000  0.942097  0.370338  1
  Tm  Tm5  1  0.000000  0.057903  0.629662  1
  Tm  Tm6  1  0.000000  0.443479  0.130219  1
  Tm  Tm7  1  0.000000  0.556521  0.869781  1
  Tc  Tc8  1  0.000000  0.639489  0.318776  1
  Tc  Tc9  1  0.000000  0.360511  0.681224  1
  B  B10  1  0.500000  0.554520  0.431451  1
  B  B11  1  0.500000  0.445480  0.568549  1
  B  B12  1  0.500000  0.055343  0.068690  1
  B  B13  1  0.500000  0.944657  0.931310  1
  B  B14  1  0.500000  0.750103  0.417144  1
  B  B15  1  0.500000  0.249897  0.582856  1
  B  B16  1  0.500000  0.250155  0.082944  1
  B  B17  1  0.500000  0.749845  0.917056  1
  B  B18  1  0.500000  0.791604  0.265447  1
  B  B19  1  0.500000  0.208396  0.734553  1
  B  B20  1  0.500000  0.290739  0.234154  1
  B  B21  1  0.500000  0.709261  0.765846  1
  B  B22  1  0.500000  0.630107  0.184917  1
  B  B23  1  0.500000  0.369893  0.815083  1
  B  B24  1  0.500000  0.129635  0.314328  1
  B  B25  1  0.500000  0.870365  0.685672  1
  B  B26  1  0.500000  0.983994  0.212921  1
  B  B27  1  0.500000  0.016006  0.787079  1
  B  B28  1  0.500000  0.483540  0.286550  1
  B  B29  1  0.500000  0.516460  0.713450  1
  B  B30  1  0.500000  0.599691  0.027042  1
  B  B31  1  0.500000  0.400309  0.972958  1
  B  B32  1  0.500000  0.099269  0.472631  1
  B  B33  1  0.500000  0.900731  0.527369  1
  Ru  Ru34  1  0.000000  0.138791  0.180271  1
  Ru  Ru35  1  0.000000  0.861209  0.819729  1
