# generated using pymatgen
data_DyZn2Cu2Ag
_symmetry_space_group_name_H-M   'P 1'
_cell_length_a   5.14122979
_cell_length_b   5.14123016
_cell_length_c   5.16648000
_cell_angle_alpha   59.83741677
_cell_angle_beta   59.83741439
_cell_angle_gamma   60.32122113
_symmetry_Int_Tables_number   1
_chemical_formula_structural   DyZn2Cu2Ag
_chemical_formula_sum   'Dy1 Zn2 Cu2 Ag1'
_cell_volume   96.55619564
_cell_formula_units_Z   1
loop_
 _symmetry_equiv_pos_site_id
 _symmetry_equiv_pos_as_xyz
  1  'x, y, z'
loop_
 _atom_site_type_symbol
 _atom_site_label
 _atom_site_symmetry_multiplicity
 _atom_site_fract_x
 _atom_site_fract_y
 _atom_site_fract_z
 _atom_site_occupancy
  Dy  Dy0  1  0.003288  0.003288  0.996712  1
  Zn  Zn1  1  0.622673  0.622673  0.623046  1
  Zn  Zn2  1  0.622673  0.622673  0.131606  1
  Cu  Cu3  1  0.126742  0.623578  0.624839  1
  Cu  Cu4  1  0.623578  0.126742  0.624839  1
  Ag  Ag5  1  0.251043  0.251043  0.248957  1
