# generated using pymatgen
data_Dy10CuRuPb6
_symmetry_space_group_name_H-M   'P 1'
_cell_length_a   9.20160000
_cell_length_b   9.20160069
_cell_length_c   6.78506900
_cell_angle_alpha   90.00000000
_cell_angle_beta   90.00000000
_cell_angle_gamma   120.00001189
_symmetry_Int_Tables_number   1
_chemical_formula_structural   Dy10CuRuPb6
_chemical_formula_sum   'Dy10 Cu1 Ru1 Pb6'
_cell_volume   497.52118860
_cell_formula_units_Z   1
loop_
 _symmetry_equiv_pos_site_id
 _symmetry_equiv_pos_as_xyz
  1  'x, y, z'
loop_
 _atom_site_type_symbol
 _atom_site_label
 _atom_site_symmetry_multiplicity
 _atom_site_fract_x
 _atom_site_fract_y
 _atom_site_fract_z
 _atom_site_occupancy
  Dy  Dy0  1  0.243505  0.000000  0.234102  1
  Dy  Dy1  1  0.756495  0.000000  0.765898  1
  Dy  Dy2  1  0.000000  0.243505  0.234102  1
  Dy  Dy3  1  0.000000  0.756495  0.765898  1
  Dy  Dy4  1  0.756495  0.756495  0.234102  1
  Dy  Dy5  1  0.243505  0.243505  0.765898  1
  Dy  Dy6  1  0.333333  0.666667  0.000000  1
  Dy  Dy7  1  0.666667  0.333333  0.000000  1
  Dy  Dy8  1  0.666667  0.333333  0.500000  1
  Dy  Dy9  1  0.333333  0.666667  0.500000  1
  Cu  Cu10  1  0.000000  0.000000  0.500000  1
  Ru  Ru11  1  0.000000  0.000000  0.000000  1
  Pb  Pb12  1  0.602078  0.000000  0.252684  1
  Pb  Pb13  1  0.397922  0.000000  0.747316  1
  Pb  Pb14  1  0.000000  0.602078  0.252684  1
  Pb  Pb15  1  0.000000  0.397922  0.747316  1
  Pb  Pb16  1  0.397922  0.397922  0.252684  1
  Pb  Pb17  1  0.602078  0.602078  0.747316  1
