# generated using pymatgen
data_Pr8Bi(IrO8)3
_symmetry_space_group_name_H-M   'P 1'
_cell_length_a   5.52512710
_cell_length_b   9.52046790
_cell_length_c   10.34661018
_cell_angle_alpha   89.79369002
_cell_angle_beta   89.86525565
_cell_angle_gamma   90.20706130
_symmetry_Int_Tables_number   1
_chemical_formula_structural   Pr8Bi(IrO8)3
_chemical_formula_sum   'Pr8 Bi1 Ir3 O24'
_cell_volume   544.24166610
_cell_formula_units_Z   1
loop_
 _symmetry_equiv_pos_site_id
 _symmetry_equiv_pos_as_xyz
  1  'x, y, z'
loop_
 _atom_site_type_symbol
 _atom_site_label
 _atom_site_symmetry_multiplicity
 _atom_site_fract_x
 _atom_site_fract_y
 _atom_site_fract_z
 _atom_site_occupancy
  Pr  Pr0  1  0.037544  0.219695  0.130081  1
  Pr  Pr1  1  0.467979  0.778531  0.635274  1
  Pr  Pr2  1  0.965873  0.717865  0.367827  1
  Pr  Pr3  1  0.533265  0.283195  0.863770  1
  Pr  Pr4  1  0.030411  0.103109  0.540657  1
  Pr  Pr5  1  0.472469  0.899893  0.035441  1
  Pr  Pr6  1  0.978480  0.605169  0.966603  1
  Pr  Pr7  1  0.520781  0.401086  0.458138  1
  Bi  Bi8  1  0.040231  0.491100  0.647700  1
  Ir  Ir9  1  0.545462  0.001748  0.354823  1
  Ir  Ir10  1  0.956158  0.998021  0.858511  1
  Ir  Ir11  1  0.457745  0.503795  0.142785  1
  O  O12  1  0.435781  0.148173  0.468741  1
  O  O13  1  0.062102  0.854249  0.981812  1
  O  O14  1  0.564616  0.651792  0.025656  1
  O  O15  1  0.918731  0.338933  0.510343  1
  O  O16  1  0.723191  0.388787  0.072758  1
  O  O17  1  0.759768  0.613565  0.554524  1
  O  O18  1  0.282328  0.891154  0.432804  1
  O  O19  1  0.221545  0.111760  0.936572  1
  O  O20  1  0.253455  0.411981  0.008026  1
  O  O21  1  0.256576  0.597487  0.501437  1
  O  O22  1  0.754042  0.914260  0.490547  1
  O  O23  1  0.749073  0.089211  0.993820  1
  O  O24  1  0.189220  0.629894  0.181829  1
  O  O25  1  0.328335  0.342714  0.669200  1
  O  O26  1  0.811789  0.125300  0.316292  1
  O  O27  1  0.686819  0.870699  0.822533  1
  O  O28  1  0.336415  0.054675  0.214303  1
  O  O29  1  0.161491  0.944753  0.718280  1
  O  O30  1  0.658712  0.562673  0.281158  1
  O  O31  1  0.817252  0.451356  0.806567  1
  O  O32  1  0.324284  0.360883  0.255294  1
  O  O33  1  0.200279  0.642629  0.770390  1
  O  O34  1  0.669751  0.860551  0.241800  1
  O  O35  1  0.828047  0.139314  0.743710  1
