# generated using pymatgen
data_Sc3Nb(Fe3Si)2
_symmetry_space_group_name_H-M   'P 1'
_cell_length_a   4.93282319
_cell_length_b   4.93255096
_cell_length_c   7.88600700
_cell_angle_alpha   89.99987805
_cell_angle_beta   89.99927673
_cell_angle_gamma   120.00084228
_symmetry_Int_Tables_number   1
_chemical_formula_structural   Sc3Nb(Fe3Si)2
_chemical_formula_sum   'Sc3 Nb1 Fe6 Si2'
_cell_volume   166.16946969
_cell_formula_units_Z   1
loop_
 _symmetry_equiv_pos_site_id
 _symmetry_equiv_pos_as_xyz
  1  'x, y, z'
loop_
 _atom_site_type_symbol
 _atom_site_label
 _atom_site_symmetry_multiplicity
 _atom_site_fract_x
 _atom_site_fract_y
 _atom_site_fract_z
 _atom_site_occupancy
  Sc  Sc0  1  0.333359  0.666657  0.935749  1
  Sc  Sc1  1  0.333345  0.666669  0.561978  1
  Sc  Sc2  1  0.666685  0.333339  0.437810  1
  Nb  Nb3  1  0.666673  0.333335  0.064012  1
  Fe  Fe4  1  0.829124  0.658253  0.753688  1
  Fe  Fe5  1  0.829133  0.170863  0.753679  1
  Fe  Fe6  1  0.341774  0.170887  0.753692  1
  Fe  Fe7  1  0.171152  0.342335  0.246477  1
  Fe  Fe8  1  0.171163  0.828832  0.246493  1
  Fe  Fe9  1  0.657693  0.828862  0.246478  1
  Si  Si10  1  0.999947  0.999994  0.499898  1
  Si  Si11  1  0.999950  0.999976  0.000045  1
