# generated using pymatgen
data_HoTh3(PdPt2)4
_symmetry_space_group_name_H-M   'P 1'
_cell_length_a   5.93357100
_cell_length_b   5.93618268
_cell_length_c   9.74600400
_cell_angle_alpha   90.00000000
_cell_angle_beta   90.00000000
_cell_angle_gamma   119.98544174
_symmetry_Int_Tables_number   1
_chemical_formula_structural   HoTh3(PdPt2)4
_chemical_formula_sum   'Ho1 Th3 Pd4 Pt8'
_cell_volume   297.33381953
_cell_formula_units_Z   1
loop_
 _symmetry_equiv_pos_site_id
 _symmetry_equiv_pos_as_xyz
  1  'x, y, z'
loop_
 _atom_site_type_symbol
 _atom_site_label
 _atom_site_symmetry_multiplicity
 _atom_site_fract_x
 _atom_site_fract_y
 _atom_site_fract_z
 _atom_site_occupancy
  Ho  Ho0  1  0.334165  0.668331  0.250000  1
  Th  Th1  1  0.000193  0.000386  0.495615  1
  Th  Th2  1  0.000193  0.000386  0.004385  1
  Th  Th3  1  0.665511  0.331021  0.750000  1
  Pd  Pd4  1  0.349316  0.173924  0.250000  1
  Pd  Pd5  1  0.824607  0.173924  0.250000  1
  Pd  Pd6  1  0.651926  0.826173  0.750000  1
  Pd  Pd7  1  0.174247  0.826173  0.750000  1
  Pt  Pt8  1  0.499395  0.501335  0.497616  1
  Pt  Pt9  1  0.499145  0.998290  0.497978  1
  Pt  Pt10  1  0.001940  0.501335  0.497616  1
  Pt  Pt11  1  0.499395  0.501335  0.002384  1
  Pt  Pt12  1  0.499145  0.998290  0.002022  1
  Pt  Pt13  1  0.001940  0.501335  0.002384  1
  Pt  Pt14  1  0.822989  0.645977  0.250000  1
  Pt  Pt15  1  0.175892  0.351783  0.750000  1
