# generated using pymatgen
data_CeEr4ZnRu4
_symmetry_space_group_name_H-M   'P 1'
_cell_length_a   3.41313400
_cell_length_b   3.41313400
_cell_length_c   17.34860200
_cell_angle_alpha   90.00000000
_cell_angle_beta   90.00000000
_cell_angle_gamma   90.00000000
_symmetry_Int_Tables_number   1
_chemical_formula_structural   CeEr4ZnRu4
_chemical_formula_sum   'Ce1 Er4 Zn1 Ru4'
_cell_volume   202.10225625
_cell_formula_units_Z   1
loop_
 _symmetry_equiv_pos_site_id
 _symmetry_equiv_pos_as_xyz
  1  'x, y, z'
loop_
 _atom_site_type_symbol
 _atom_site_label
 _atom_site_symmetry_multiplicity
 _atom_site_fract_x
 _atom_site_fract_y
 _atom_site_fract_z
 _atom_site_occupancy
  Ce  Ce0  1  0.000000  0.000000  0.000000  1
  Er  Er1  1  0.000000  0.000000  0.197873  1
  Er  Er2  1  0.000000  0.000000  0.387066  1
  Er  Er3  1  0.000000  0.000000  0.612934  1
  Er  Er4  1  0.000000  0.000000  0.802127  1
  Zn  Zn5  1  0.500000  0.500000  0.500000  1
  Ru  Ru6  1  0.500000  0.500000  0.090866  1
  Ru  Ru7  1  0.500000  0.500000  0.295485  1
  Ru  Ru8  1  0.500000  0.500000  0.704515  1
  Ru  Ru9  1  0.500000  0.500000  0.909134  1
