# generated using pymatgen
data_PuUBiN2
_symmetry_space_group_name_H-M   'P 1'
_cell_length_a   6.92452403
_cell_length_b   6.92452420
_cell_length_c   6.92452556
_cell_angle_alpha   147.07887859
_cell_angle_beta   147.07888335
_cell_angle_gamma   47.24700312
_symmetry_Int_Tables_number   1
_chemical_formula_structural   PuUBiN2
_chemical_formula_sum   'Pu1 U1 Bi1 N2'
_cell_volume   97.69716864
_cell_formula_units_Z   1
loop_
 _symmetry_equiv_pos_site_id
 _symmetry_equiv_pos_as_xyz
  1  'x, y, z'
loop_
 _atom_site_type_symbol
 _atom_site_label
 _atom_site_symmetry_multiplicity
 _atom_site_fract_x
 _atom_site_fract_y
 _atom_site_fract_z
 _atom_site_occupancy
  Pu  Pu0  1  0.338302  0.338302  0.000000  1
  U  U1  1  0.665925  0.665925  0.000000  1
  Bi  Bi2  1  0.997938  0.997938  0.000000  1
  N  N3  1  0.248918  0.748918  0.500000  1
  N  N4  1  0.748918  0.248918  0.500000  1
