# generated using pymatgen
data_RbTa2ReSe6
_symmetry_space_group_name_H-M   'P 1'
_cell_length_a   5.93256000
_cell_length_b   5.93256165
_cell_length_c   18.20630100
_cell_angle_alpha   90.00000000
_cell_angle_beta   90.00000000
_cell_angle_gamma   120.00000194
_symmetry_Int_Tables_number   1
_chemical_formula_structural   RbTa2ReSe6
_chemical_formula_sum   'Rb2 Ta4 Re2 Se12'
_cell_volume   554.92813108
_cell_formula_units_Z   2
loop_
 _symmetry_equiv_pos_site_id
 _symmetry_equiv_pos_as_xyz
  1  'x, y, z'
loop_
 _atom_site_type_symbol
 _atom_site_label
 _atom_site_symmetry_multiplicity
 _atom_site_fract_x
 _atom_site_fract_y
 _atom_site_fract_z
 _atom_site_occupancy
  Rb  Rb0  1  0.000000  0.000000  0.000000  1
  Rb  Rb1  1  0.000000  0.000000  0.500000  1
  Ta  Ta2  1  0.333333  0.666667  0.250000  1
  Ta  Ta3  1  0.666667  0.333333  0.750000  1
  Ta  Ta4  1  0.666667  0.333333  0.250000  1
  Ta  Ta5  1  0.333333  0.666667  0.750000  1
  Re  Re6  1  0.000000  0.000000  0.750000  1
  Re  Re7  1  0.000000  0.000000  0.250000  1
  Se  Se8  1  0.327662  0.000000  0.158839  1
  Se  Se9  1  0.000000  0.327662  0.158839  1
  Se  Se10  1  0.672338  0.672338  0.158839  1
  Se  Se11  1  0.327662  0.327662  0.658839  1
  Se  Se12  1  0.672338  0.672338  0.341161  1
  Se  Se13  1  0.672338  0.000000  0.658839  1
  Se  Se14  1  0.000000  0.672338  0.658839  1
  Se  Se15  1  0.000000  0.672338  0.841161  1
  Se  Se16  1  0.327662  0.327662  0.841161  1
  Se  Se17  1  0.000000  0.327662  0.341161  1
  Se  Se18  1  0.327662  0.000000  0.341161  1
  Se  Se19  1  0.672338  0.000000  0.841161  1
