# generated using pymatgen
data_Na2BiSb(PSe3)4
_symmetry_space_group_name_H-M   'P 1'
_cell_length_a   6.96989098
_cell_length_b   7.88403247
_cell_length_c   9.90338897
_cell_angle_alpha   89.88231999
_cell_angle_beta   92.02923312
_cell_angle_gamma   89.88517348
_symmetry_Int_Tables_number   1
_chemical_formula_structural   Na2BiSb(PSe3)4
_chemical_formula_sum   'Na2 Bi1 Sb1 P4 Se12'
_cell_volume   543.85601586
_cell_formula_units_Z   1
loop_
 _symmetry_equiv_pos_site_id
 _symmetry_equiv_pos_as_xyz
  1  'x, y, z'
loop_
 _atom_site_type_symbol
 _atom_site_label
 _atom_site_symmetry_multiplicity
 _atom_site_fract_x
 _atom_site_fract_y
 _atom_site_fract_z
 _atom_site_occupancy
  Na  Na0  1  0.307075  0.951401  0.494565  1
  Na  Na1  1  0.697425  0.453962  0.504167  1
  Bi  Bi2  1  0.195493  0.222746  0.015729  1
  Sb  Sb3  1  0.809407  0.735177  0.982868  1
  P  P4  1  0.309809  0.665693  0.182839  1
  P  P5  1  0.190241  0.457217  0.314553  1
  P  P6  1  0.807775  0.957496  0.684836  1
  P  P7  1  0.690482  0.166951  0.815330  1
  Se  Se8  1  0.647562  0.045481  0.021217  1
  Se  Se9  1  0.076730  0.864226  0.178667  1
  Se  Se10  1  0.932158  0.373445  0.191694  1
  Se  Se11  1  0.572643  0.765134  0.279796  1
  Se  Se12  1  0.409179  0.255536  0.299244  1
  Se  Se13  1  0.868909  0.063699  0.491404  1
  Se  Se14  1  0.132271  0.564961  0.508154  1
  Se  Se15  1  0.592760  0.755196  0.703776  1
  Se  Se16  1  0.421598  0.259656  0.721113  1
  Se  Se17  1  0.065312  0.873263  0.812513  1
  Se  Se18  1  0.916713  0.365671  0.818810  1
  Se  Se19  1  0.356462  0.549693  0.978731  1
