# generated using pymatgen
data_Hf3Ti3Sn4Sb
_symmetry_space_group_name_H-M   'P 1'
_cell_length_a   9.53077348
_cell_length_b   9.59189994
_cell_length_c   5.76471500
_cell_angle_alpha   90.00000000
_cell_angle_beta   90.00000000
_cell_angle_gamma   120.21239268
_symmetry_Int_Tables_number   1
_chemical_formula_structural   Hf3Ti3Sn4Sb
_chemical_formula_sum   'Hf6 Ti6 Sn8 Sb2'
_cell_volume   455.41548664
_cell_formula_units_Z   2
loop_
 _symmetry_equiv_pos_site_id
 _symmetry_equiv_pos_as_xyz
  1  'x, y, z'
loop_
 _atom_site_type_symbol
 _atom_site_label
 _atom_site_symmetry_multiplicity
 _atom_site_fract_x
 _atom_site_fract_y
 _atom_site_fract_z
 _atom_site_occupancy
  Hf  Hf0  1  0.845342  0.686759  0.750000  1
  Hf  Hf1  1  0.154658  0.841417  0.250000  1
  Hf  Hf2  1  0.692081  0.848224  0.250000  1
  Hf  Hf3  1  0.307919  0.156143  0.750000  1
  Hf  Hf4  1  0.850336  0.157088  0.750000  1
  Hf  Hf5  1  0.149664  0.306752  0.250000  1
  Ti  Ti6  1  0.501879  0.002175  0.499269  1
  Ti  Ti7  1  0.498121  0.500296  0.999269  1
  Ti  Ti8  1  0.000000  0.498750  0.000000  1
  Ti  Ti9  1  0.000000  0.498750  0.500000  1
  Ti  Ti10  1  0.501879  0.002175  0.000731  1
  Ti  Ti11  1  0.498121  0.500296  0.500731  1
  Sn  Sn12  1  0.417392  0.210999  0.250000  1
  Sn  Sn13  1  0.582608  0.793607  0.750000  1
  Sn  Sn14  1  0.211810  0.791636  0.750000  1
  Sn  Sn15  1  0.788190  0.579825  0.250000  1
  Sn  Sn16  1  0.665308  0.334143  0.750000  1
  Sn  Sn17  1  0.334692  0.668836  0.250000  1
  Sn  Sn18  1  0.000000  0.995548  0.500000  1
  Sn  Sn19  1  0.000000  0.995548  0.000000  1
  Sb  Sb20  1  0.208862  0.419948  0.750000  1
  Sb  Sb21  1  0.791138  0.211086  0.250000  1
