# generated using pymatgen
data_Dy3Tm5(AgRh)2
_symmetry_space_group_name_H-M   'P 1'
_cell_length_a   9.45939424
_cell_length_b   9.45779804
_cell_length_c   9.42647611
_cell_angle_alpha   60.11941246
_cell_angle_beta   60.10515844
_cell_angle_gamma   60.19415801
_symmetry_Int_Tables_number   1
_chemical_formula_structural   Dy3Tm5(AgRh)2
_chemical_formula_sum   'Dy6 Tm10 Ag4 Rh4'
_cell_volume   598.21609879
_cell_formula_units_Z   2
loop_
 _symmetry_equiv_pos_site_id
 _symmetry_equiv_pos_as_xyz
  1  'x, y, z'
loop_
 _atom_site_type_symbol
 _atom_site_label
 _atom_site_symmetry_multiplicity
 _atom_site_fract_x
 _atom_site_fract_y
 _atom_site_fract_z
 _atom_site_occupancy
  Dy  Dy0  1  0.065143  0.065139  0.434871  1
  Dy  Dy1  1  0.435233  0.064682  0.435712  1
  Dy  Dy2  1  0.064678  0.435231  0.064391  1
  Dy  Dy3  1  0.060436  0.646189  0.646386  1
  Dy  Dy4  1  0.436234  0.436233  0.063757  1
  Dy  Dy5  1  0.646195  0.060407  0.646980  1
  Tm  Tm6  1  0.187497  0.814013  0.186055  1
  Tm  Tm7  1  0.186638  0.186663  0.813360  1
  Tm  Tm8  1  0.813154  0.813136  0.186835  1
  Tm  Tm9  1  0.436456  0.063583  0.063486  1
  Tm  Tm10  1  0.814336  0.187048  0.185796  1
  Tm  Tm11  1  0.063589  0.436460  0.436481  1
  Tm  Tm12  1  0.814028  0.187492  0.812436  1
  Tm  Tm13  1  0.187036  0.814341  0.812823  1
  Tm  Tm14  1  0.646466  0.646938  0.059737  1
  Tm  Tm15  1  0.646929  0.646489  0.646860  1
  Ag  Ag16  1  0.416844  0.418059  0.417517  1
  Ag  Ag17  1  0.746203  0.418821  0.418325  1
  Ag  Ag18  1  0.418833  0.746203  0.416654  1
  Ag  Ag19  1  0.418073  0.416830  0.747597  1
  Rh  Rh20  1  0.856340  0.854818  0.428335  1
  Rh  Rh21  1  0.854852  0.856330  0.860426  1
  Rh  Rh22  1  0.430664  0.854168  0.858054  1
  Rh  Rh23  1  0.854142  0.430726  0.857125  1
