# generated using pymatgen
data_Tm12CdFe4Sn
_symmetry_space_group_name_H-M   'P 1'
_cell_length_a   8.25596123
_cell_length_b   8.25596128
_cell_length_c   8.25586700
_cell_angle_alpha   106.68997009
_cell_angle_beta   110.67484766
_cell_angle_gamma   111.08475144
_symmetry_Int_Tables_number   1
_chemical_formula_structural   Tm12CdFe4Sn
_chemical_formula_sum   'Tm12 Cd1 Fe4 Sn1'
_cell_volume   432.41914314
_cell_formula_units_Z   1
loop_
 _symmetry_equiv_pos_site_id
 _symmetry_equiv_pos_as_xyz
  1  'x, y, z'
loop_
 _atom_site_type_symbol
 _atom_site_label
 _atom_site_symmetry_multiplicity
 _atom_site_fract_x
 _atom_site_fract_y
 _atom_site_fract_z
 _atom_site_occupancy
  Tm  Tm0  1  0.713327  0.273309  0.986639  1
  Tm  Tm1  1  0.286838  0.726917  0.013753  1
  Tm  Tm2  1  0.713280  0.726670  0.439954  1
  Tm  Tm3  1  0.286796  0.273049  0.559840  1
  Tm  Tm4  1  0.799112  0.109871  0.310680  1
  Tm  Tm5  1  0.799025  0.488243  0.689161  1
  Tm  Tm6  1  0.200919  0.890137  0.689161  1
  Tm  Tm7  1  0.200808  0.511565  0.310678  1
  Tm  Tm8  1  0.601279  0.791226  0.810092  1
  Tm  Tm9  1  0.981077  0.791179  0.189923  1
  Tm  Tm10  1  0.018870  0.208812  0.810091  1
  Tm  Tm11  1  0.398743  0.208843  0.189922  1
  Cd  Cd12  1  0.499835  0.499992  0.999824  1
  Fe  Fe13  1  0.884723  0.499971  0.384754  1
  Fe  Fe14  1  0.115390  0.499989  0.615319  1
  Fe  Fe15  1  0.999998  0.109463  0.109494  1
  Fe  Fe16  1  0.999982  0.890776  0.890733  1
  Sn  Sn17  1  0.499993  0.999990  0.499979  1
