# generated using pymatgen
data_Y16Cd4CoIrPd2
_symmetry_space_group_name_H-M   'P 1'
_cell_length_a   9.69066871
_cell_length_b   9.66914620
_cell_length_c   9.65618100
_cell_angle_alpha   60.04434274
_cell_angle_beta   60.11765299
_cell_angle_gamma   60.23715946
_symmetry_Int_Tables_number   1
_chemical_formula_structural   Y16Cd4CoIrPd2
_chemical_formula_sum   'Y16 Cd4 Co1 Ir1 Pd2'
_cell_volume   641.70703969
_cell_formula_units_Z   1
loop_
 _symmetry_equiv_pos_site_id
 _symmetry_equiv_pos_as_xyz
  1  'x, y, z'
loop_
 _atom_site_type_symbol
 _atom_site_label
 _atom_site_symmetry_multiplicity
 _atom_site_fract_x
 _atom_site_fract_y
 _atom_site_fract_z
 _atom_site_occupancy
  Y  Y0  1  0.347634  0.355997  0.341255  1
  Y  Y1  1  0.347634  0.355997  0.955115  1
  Y  Y2  1  0.360485  0.937066  0.351224  1
  Y  Y3  1  0.943767  0.364724  0.345754  1
  Y  Y4  1  0.805341  0.190394  0.190488  1
  Y  Y5  1  0.190033  0.801042  0.819342  1
  Y  Y6  1  0.190033  0.801042  0.189582  1
  Y  Y7  1  0.805341  0.190394  0.813777  1
  Y  Y8  1  0.192397  0.190693  0.808455  1
  Y  Y9  1  0.815053  0.807836  0.188555  1
  Y  Y10  1  0.936296  0.566366  0.563602  1
  Y  Y11  1  0.564893  0.938813  0.935551  1
  Y  Y12  1  0.564893  0.938813  0.560744  1
  Y  Y13  1  0.936296  0.566366  0.933737  1
  Y  Y14  1  0.566050  0.564632  0.934659  1
  Y  Y15  1  0.936900  0.938674  0.562213  1
  Cd  Cd16  1  0.581685  0.579285  0.583278  1
  Cd  Cd17  1  0.581685  0.579285  0.255751  1
  Cd  Cd18  1  0.579727  0.257772  0.581251  1
  Cd  Cd19  1  0.256233  0.578529  0.582619  1
  Co  Co20  1  0.139774  0.575159  0.142534  1
  Ir  Ir21  1  0.572839  0.138755  0.144204  1
  Pd  Pd22  1  0.142504  0.141183  0.147400  1
  Pd  Pd23  1  0.142504  0.141183  0.568912  1
