# generated using pymatgen
data_Ac2Gd3Mg2Ru3
_symmetry_space_group_name_H-M   'P 1'
_cell_length_a   8.69415620
_cell_length_b   8.66612910
_cell_length_c   8.66604300
_cell_angle_alpha   109.69655883
_cell_angle_beta   109.29563068
_cell_angle_gamma   109.70180903
_symmetry_Int_Tables_number   1
_chemical_formula_structural   Ac2Gd3Mg2Ru3
_chemical_formula_sum   'Ac4 Gd6 Mg4 Ru6'
_cell_volume   500.88090669
_cell_formula_units_Z   2
loop_
 _symmetry_equiv_pos_site_id
 _symmetry_equiv_pos_as_xyz
  1  'x, y, z'
loop_
 _atom_site_type_symbol
 _atom_site_label
 _atom_site_symmetry_multiplicity
 _atom_site_fract_x
 _atom_site_fract_y
 _atom_site_fract_z
 _atom_site_occupancy
  Ac  Ac0  1  0.250598  0.681054  0.432167  1
  Ac  Ac1  1  0.752223  0.820609  0.068270  1
  Ac  Ac2  1  0.432139  0.249432  0.681046  1
  Ac  Ac3  1  0.683333  0.432180  0.252108  1
  Gd  Gd4  1  0.074167  0.750943  0.824462  1
  Gd  Gd5  1  0.825611  0.073459  0.751276  1
  Gd  Gd6  1  0.207371  0.207799  0.206029  1
  Gd  Gd7  1  0.497822  0.998370  0.287641  1
  Gd  Gd8  1  0.285522  0.499485  0.998229  1
  Gd  Gd9  1  0.997343  0.288569  0.502695  1
  Mg  Mg10  1  0.495571  0.996323  0.909377  1
  Mg  Mg11  1  0.596554  0.596562  0.593440  1
  Mg  Mg12  1  0.914687  0.497049  0.992953  1
  Mg  Mg13  1  0.997476  0.912733  0.506843  1
  Ru  Ru14  1  0.242820  0.130506  0.883350  1
  Ru  Ru15  1  0.754237  0.368344  0.614858  1
  Ru  Ru16  1  0.882757  0.244572  0.128649  1
  Ru  Ru17  1  0.136124  0.884366  0.246583  1
  Ru  Ru18  1  0.614195  0.755563  0.369122  1
  Ru  Ru19  1  0.359452  0.612085  0.750905  1
