# generated using pymatgen
data_Tm(Al3Pt)3
_symmetry_space_group_name_H-M   'P 1'
_cell_length_a   10.39197738
_cell_length_b   10.39197718
_cell_length_c   10.39197905
_cell_angle_alpha   42.21989169
_cell_angle_beta   42.21989434
_cell_angle_gamma   42.21988967
_symmetry_Int_Tables_number   1
_chemical_formula_structural   Tm(Al3Pt)3
_chemical_formula_sum   'Tm2 Al18 Pt6'
_cell_volume   458.60465155
_cell_formula_units_Z   2
loop_
 _symmetry_equiv_pos_site_id
 _symmetry_equiv_pos_as_xyz
  1  'x, y, z'
loop_
 _atom_site_type_symbol
 _atom_site_label
 _atom_site_symmetry_multiplicity
 _atom_site_fract_x
 _atom_site_fract_y
 _atom_site_fract_z
 _atom_site_occupancy
  Tm  Tm0  1  0.166873  0.166873  0.166873  1
  Tm  Tm1  1  0.833127  0.833127  0.833127  1
  Al  Al2  1  0.107706  0.436171  0.765209  1
  Al  Al3  1  0.436171  0.765209  0.107706  1
  Al  Al4  1  0.563829  0.892294  0.234791  1
  Al  Al5  1  0.949697  0.949697  0.949697  1
  Al  Al6  1  0.050303  0.050303  0.050303  1
  Al  Al7  1  0.295421  0.704579  0.500000  1
  Al  Al8  1  0.892294  0.234791  0.563829  1
  Al  Al9  1  0.385015  0.385015  0.385015  1
  Al  Al10  1  0.500000  0.295421  0.704579  1
  Al  Al11  1  0.234791  0.563829  0.892294  1
  Al  Al12  1  0.716500  0.716500  0.716500  1
  Al  Al13  1  0.614985  0.614985  0.614985  1
  Al  Al14  1  0.334097  0.000000  0.665903  1
  Al  Al15  1  0.704579  0.500000  0.295421  1
  Al  Al16  1  0.665903  0.334097  0.000000  1
  Al  Al17  1  0.283500  0.283500  0.283500  1
  Al  Al18  1  0.000000  0.665903  0.334097  1
  Al  Al19  1  0.765209  0.107706  0.436171  1
  Pt  Pt20  1  0.419013  0.077099  0.760570  1
  Pt  Pt21  1  0.580987  0.239430  0.922901  1
  Pt  Pt22  1  0.077099  0.760570  0.419013  1
  Pt  Pt23  1  0.760570  0.419013  0.077099  1
  Pt  Pt24  1  0.922901  0.580987  0.239430  1
  Pt  Pt25  1  0.239430  0.922901  0.580987  1
