# generated using pymatgen
data_Nd2Co2Os
_symmetry_space_group_name_H-M   'P 1'
_cell_length_a   5.70207663
_cell_length_b   5.70207635
_cell_length_c   7.21699500
_cell_angle_alpha   90.00000000
_cell_angle_beta   90.00000000
_cell_angle_gamma   123.50165322
_symmetry_Int_Tables_number   1
_chemical_formula_structural   Nd2Co2Os
_chemical_formula_sum   'Nd4 Co4 Os2'
_cell_volume   195.66843797
_cell_formula_units_Z   2
loop_
 _symmetry_equiv_pos_site_id
 _symmetry_equiv_pos_as_xyz
  1  'x, y, z'
loop_
 _atom_site_type_symbol
 _atom_site_label
 _atom_site_symmetry_multiplicity
 _atom_site_fract_x
 _atom_site_fract_y
 _atom_site_fract_z
 _atom_site_occupancy
  Nd  Nd0  1  0.660405  0.339595  0.902625  1
  Nd  Nd1  1  0.339595  0.660405  0.097375  1
  Nd  Nd2  1  0.839595  0.160405  0.402625  1
  Nd  Nd3  1  0.160405  0.839595  0.597375  1
  Co  Co4  1  0.665159  0.834841  0.750000  1
  Co  Co5  1  0.834841  0.665159  0.250000  1
  Co  Co6  1  0.334841  0.165159  0.250000  1
  Co  Co7  1  0.165159  0.334841  0.750000  1
  Os  Os8  1  0.500000  0.500000  0.500000  1
  Os  Os9  1  0.000000  0.000000  0.000000  1
