# generated using pymatgen
data_Tb5Tm3(CoAg)2
_symmetry_space_group_name_H-M   'P 1'
_cell_length_a   9.39632239
_cell_length_b   9.39632231
_cell_length_c   9.39632300
_cell_angle_alpha   60.00000110
_cell_angle_beta   60.00000136
_cell_angle_gamma   59.99999862
_symmetry_Int_Tables_number   1
_chemical_formula_structural   Tb5Tm3(CoAg)2
_chemical_formula_sum   'Tb10 Tm6 Co4 Ag4'
_cell_volume   586.62255555
_cell_formula_units_Z   2
loop_
 _symmetry_equiv_pos_site_id
 _symmetry_equiv_pos_as_xyz
  1  'x, y, z'
loop_
 _atom_site_type_symbol
 _atom_site_label
 _atom_site_symmetry_multiplicity
 _atom_site_fract_x
 _atom_site_fract_y
 _atom_site_fract_z
 _atom_site_occupancy
  Tb  Tb0  1  0.938273  0.561726  0.561727  1
  Tb  Tb1  1  0.561726  0.938273  0.938274  1
  Tb  Tb2  1  0.561727  0.938273  0.561727  1
  Tb  Tb3  1  0.938273  0.561726  0.938274  1
  Tb  Tb4  1  0.561727  0.561726  0.938274  1
  Tb  Tb5  1  0.938273  0.938273  0.561727  1
  Tb  Tb6  1  0.349258  0.349258  0.349258  1
  Tb  Tb7  1  0.349258  0.349258  0.952225  1
  Tb  Tb8  1  0.349258  0.952225  0.349258  1
  Tb  Tb9  1  0.952225  0.349258  0.349258  1
  Tm  Tm10  1  0.814279  0.185721  0.185721  1
  Tm  Tm11  1  0.185721  0.814279  0.814279  1
  Tm  Tm12  1  0.185721  0.814279  0.185721  1
  Tm  Tm13  1  0.814279  0.185721  0.814279  1
  Tm  Tm14  1  0.185721  0.185721  0.814279  1
  Tm  Tm15  1  0.814279  0.814279  0.185721  1
  Co  Co16  1  0.140957  0.140957  0.140957  1
  Co  Co17  1  0.140957  0.140957  0.577131  1
  Co  Co18  1  0.140957  0.577131  0.140957  1
  Co  Co19  1  0.577131  0.140957  0.140957  1
  Ag  Ag20  1  0.581205  0.581205  0.581205  1
  Ag  Ag21  1  0.581205  0.581205  0.256385  1
  Ag  Ag22  1  0.581205  0.256385  0.581205  1
  Ag  Ag23  1  0.256385  0.581205  0.581205  1
