# generated using pymatgen
data_Nd3In3GaPt2
_symmetry_space_group_name_H-M   'P 1'
_cell_length_a   7.60524700
_cell_length_b   7.60524529
_cell_length_c   4.29202300
_cell_angle_alpha   90.00000000
_cell_angle_beta   90.00000000
_cell_angle_gamma   119.99999437
_symmetry_Int_Tables_number   1
_chemical_formula_structural   Nd3In3GaPt2
_chemical_formula_sum   'Nd3 In3 Ga1 Pt2'
_cell_volume   214.99048844
_cell_formula_units_Z   1
loop_
 _symmetry_equiv_pos_site_id
 _symmetry_equiv_pos_as_xyz
  1  'x, y, z'
loop_
 _atom_site_type_symbol
 _atom_site_label
 _atom_site_symmetry_multiplicity
 _atom_site_fract_x
 _atom_site_fract_y
 _atom_site_fract_z
 _atom_site_occupancy
  Nd  Nd0  1  0.009156  0.594982  0.500000  1
  Nd  Nd1  1  0.585826  0.990844  0.500000  1
  Nd  Nd2  1  0.405018  0.414174  0.500000  1
  In  In3  1  0.003915  0.250591  0.000000  1
  In  In4  1  0.246675  0.996085  0.000000  1
  In  In5  1  0.749409  0.753325  0.000000  1
  Ga  Ga6  1  0.666667  0.333333  0.000000  1
  Pt  Pt7  1  0.000000  0.000000  0.500000  1
  Pt  Pt8  1  0.333333  0.666667  0.000000  1
