# generated using pymatgen
data_Eu3HoH10
_symmetry_space_group_name_H-M   'P 1'
_cell_length_a   6.58063892
_cell_length_b   6.58063939
_cell_length_c   6.58063902
_cell_angle_alpha   131.20855887
_cell_angle_beta   130.95984705
_cell_angle_gamma   71.67952212
_symmetry_Int_Tables_number   1
_chemical_formula_structural   Eu3HoH10
_chemical_formula_sum   'Eu3 Ho1 H10'
_cell_volume   158.39839665
_cell_formula_units_Z   1
loop_
 _symmetry_equiv_pos_site_id
 _symmetry_equiv_pos_as_xyz
  1  'x, y, z'
loop_
 _atom_site_type_symbol
 _atom_site_label
 _atom_site_symmetry_multiplicity
 _atom_site_fract_x
 _atom_site_fract_y
 _atom_site_fract_z
 _atom_site_occupancy
  Eu  Eu0  1  0.764860  0.764860  0.000000  1
  Eu  Eu1  1  0.986232  0.486232  0.500000  1
  Eu  Eu2  1  0.237238  0.237238  0.000000  1
  Ho  Ho3  1  0.516274  0.016274  0.500000  1
  H  H4  1  0.381156  0.389911  0.531360  1
  H  H5  1  0.858551  0.849797  0.468640  1
  H  H6  1  0.591816  0.119539  0.951250  1
  H  H7  1  0.168289  0.640566  0.048750  1
  H  H8  1  0.381156  0.849797  0.991245  1
  H  H9  1  0.858551  0.389911  0.008755  1
  H  H10  1  0.591816  0.640566  0.472277  1
  H  H11  1  0.168289  0.119539  0.527723  1
  H  H12  1  0.744859  0.244859  0.500000  1
  H  H13  1  0.000911  0.000911  0.000000  1
