# generated using pymatgen
data_Sc8In4Hg3Au5
_symmetry_space_group_name_H-M   'P 1'
_cell_length_a   7.75733922
_cell_length_b   7.75733922
_cell_length_c   7.12230943
_cell_angle_alpha   89.93295254
_cell_angle_beta   89.93295254
_cell_angle_gamma   89.75383411
_symmetry_Int_Tables_number   1
_chemical_formula_structural   Sc8In4Hg3Au5
_chemical_formula_sum   'Sc8 In4 Hg3 Au5'
_cell_volume   428.58977303
_cell_formula_units_Z   1
loop_
 _symmetry_equiv_pos_site_id
 _symmetry_equiv_pos_as_xyz
  1  'x, y, z'
loop_
 _atom_site_type_symbol
 _atom_site_label
 _atom_site_symmetry_multiplicity
 _atom_site_fract_x
 _atom_site_fract_y
 _atom_site_fract_z
 _atom_site_occupancy
  Sc  Sc0  1  0.149169  0.149169  0.994147  1
  Sc  Sc1  1  0.856772  0.856772  0.000894  1
  Sc  Sc2  1  0.648761  0.336188  0.505296  1
  Sc  Sc3  1  0.336188  0.648761  0.505296  1
  Sc  Sc4  1  0.687748  0.304633  0.995266  1
  Sc  Sc5  1  0.304633  0.687748  0.995266  1
  Sc  Sc6  1  0.827728  0.827728  0.499606  1
  Sc  Sc7  1  0.179933  0.179933  0.505017  1
  In  In8  1  0.499560  0.998717  0.254704  1
  In  In9  1  0.498573  0.004113  0.746399  1
  In  In10  1  0.998717  0.499560  0.254704  1
  In  In11  1  0.004113  0.498573  0.746399  1
  Hg  Hg12  1  0.367779  0.367779  0.213604  1
  Hg  Hg13  1  0.632743  0.632743  0.780871  1
  Hg  Hg14  1  0.631941  0.631941  0.221408  1
  Au  Au15  1  0.870471  0.130958  0.718364  1
  Au  Au16  1  0.871093  0.133358  0.280776  1
  Au  Au17  1  0.369764  0.369764  0.782846  1
  Au  Au18  1  0.133358  0.871093  0.280776  1
  Au  Au19  1  0.130958  0.870471  0.718364  1
