# generated using pymatgen
data_Dy15ErIn4(RuRh)2
_symmetry_space_group_name_H-M   'P 1'
_cell_length_a   9.65623220
_cell_length_b   9.64649749
_cell_length_c   9.64649755
_cell_angle_alpha   59.86108451
_cell_angle_beta   59.96660396
_cell_angle_gamma   59.96661286
_symmetry_Int_Tables_number   1
_chemical_formula_structural   Dy15ErIn4(RuRh)2
_chemical_formula_sum   'Dy15 Er1 In4 Ru2 Rh2'
_cell_volume   634.38817155
_cell_formula_units_Z   1
loop_
 _symmetry_equiv_pos_site_id
 _symmetry_equiv_pos_as_xyz
  1  'x, y, z'
loop_
 _atom_site_type_symbol
 _atom_site_label
 _atom_site_symmetry_multiplicity
 _atom_site_fract_x
 _atom_site_fract_y
 _atom_site_fract_z
 _atom_site_occupancy
  Dy  Dy0  1  0.692924  0.689117  0.310458  1
  Dy  Dy1  1  0.307501  0.689117  0.310458  1
  Dy  Dy2  1  0.936531  0.941880  0.561401  1
  Dy  Dy3  1  0.152032  0.152153  0.543781  1
  Dy  Dy4  1  0.560187  0.941880  0.561401  1
  Dy  Dy5  1  0.150866  0.151219  0.151219  1
  Dy  Dy6  1  0.307501  0.310458  0.689117  1
  Dy  Dy7  1  0.941381  0.558619  0.558619  1
  Dy  Dy8  1  0.560187  0.561401  0.941880  1
  Dy  Dy9  1  0.563098  0.936902  0.936902  1
  Dy  Dy10  1  0.936531  0.561401  0.941880  1
  Dy  Dy11  1  0.152032  0.543781  0.152153  1
  Dy  Dy12  1  0.307570  0.692430  0.692430  1
  Dy  Dy13  1  0.692924  0.310458  0.689117  1
  Dy  Dy14  1  0.546696  0.151219  0.151219  1
  Er  Er15  1  0.690703  0.309297  0.309297  1
  In  In16  1  0.916854  0.917645  0.248646  1
  In  In17  1  0.245832  0.918483  0.918483  1
  In  In18  1  0.916854  0.248646  0.917645  1
  In  In19  1  0.917203  0.918483  0.918483  1
  Ru  Ru20  1  0.361928  0.357989  0.357989  1
  Ru  Ru21  1  0.922096  0.357989  0.357989  1
  Rh  Rh22  1  0.360285  0.357753  0.921679  1
  Rh  Rh23  1  0.360285  0.921679  0.357753  1
