# generated using pymatgen
data_DyTm(ZrRh)2
_symmetry_space_group_name_H-M   'P 1'
_cell_length_a   4.57875200
_cell_length_b   7.06856309
_cell_length_c   8.26546468
_cell_angle_alpha   90.00156015
_cell_angle_beta   90.00000000
_cell_angle_gamma   90.00000000
_symmetry_Int_Tables_number   1
_chemical_formula_structural   DyTm(ZrRh)2
_chemical_formula_sum   'Dy2 Tm2 Zr4 Rh4'
_cell_volume   267.51339575
_cell_formula_units_Z   2
loop_
 _symmetry_equiv_pos_site_id
 _symmetry_equiv_pos_as_xyz
  1  'x, y, z'
loop_
 _atom_site_type_symbol
 _atom_site_label
 _atom_site_symmetry_multiplicity
 _atom_site_fract_x
 _atom_site_fract_y
 _atom_site_fract_z
 _atom_site_occupancy
  Dy  Dy0  1  0.750000  0.982677  0.677094  1
  Dy  Dy1  1  0.250000  0.017323  0.322906  1
  Tm  Tm2  1  0.250000  0.517792  0.174649  1
  Tm  Tm3  1  0.750000  0.482208  0.825351  1
  Zr  Zr4  1  0.250000  0.641400  0.577303  1
  Zr  Zr5  1  0.750000  0.358600  0.422697  1
  Zr  Zr6  1  0.750000  0.855516  0.075663  1
  Zr  Zr7  1  0.250000  0.144484  0.924337  1
  Rh  Rh8  1  0.250000  0.764704  0.909789  1
  Rh  Rh9  1  0.750000  0.235296  0.090211  1
  Rh  Rh10  1  0.750000  0.733393  0.409364  1
  Rh  Rh11  1  0.250000  0.266607  0.590636  1
