# generated using pymatgen
data_DyNb(SnRu2)2
_symmetry_space_group_name_H-M   'P 1'
_cell_length_a   4.60587000
_cell_length_b   6.51038200
_cell_length_c   13.81250801
_cell_angle_alpha   90.00160979
_cell_angle_beta   90.00011108
_cell_angle_gamma   90.00213466
_symmetry_Int_Tables_number   1
_chemical_formula_structural   DyNb(SnRu2)2
_chemical_formula_sum   'Dy3 Nb3 Sn6 Ru12'
_cell_volume   414.18149441
_cell_formula_units_Z   3
loop_
 _symmetry_equiv_pos_site_id
 _symmetry_equiv_pos_as_xyz
  1  'x, y, z'
loop_
 _atom_site_type_symbol
 _atom_site_label
 _atom_site_symmetry_multiplicity
 _atom_site_fract_x
 _atom_site_fract_y
 _atom_site_fract_z
 _atom_site_occupancy
  Dy  Dy0  1  0.000010  0.999929  0.997662  1
  Dy  Dy1  1  0.499980  0.500064  0.166662  1
  Dy  Dy2  1  0.999981  0.999925  0.335670  1
  Nb  Nb3  1  0.500004  0.500027  0.499894  1
  Nb  Nb4  1  0.000033  0.999966  0.666682  1
  Nb  Nb5  1  0.500000  0.500032  0.833446  1
  Sn  Sn6  1  0.000006  0.500011  0.999574  1
  Sn  Sn7  1  0.499984  0.000004  0.166671  1
  Sn  Sn8  1  0.999982  0.500005  0.333747  1
  Sn  Sn9  1  0.500000  0.999975  0.503088  1
  Sn  Sn10  1  0.000004  0.500035  0.666676  1
  Sn  Sn11  1  0.500026  0.999984  0.830239  1
  Ru  Ru12  1  0.500004  0.260394  0.987862  1
  Ru  Ru13  1  0.500014  0.739591  0.987861  1
  Ru  Ru14  1  0.999979  0.247930  0.166665  1
  Ru  Ru15  1  0.999970  0.752082  0.166659  1
  Ru  Ru16  1  0.499989  0.260415  0.345472  1
  Ru  Ru17  1  0.499978  0.739606  0.345461  1
  Ru  Ru18  1  0.000005  0.257045  0.509288  1
  Ru  Ru19  1  0.999992  0.742961  0.509284  1
  Ru  Ru20  1  0.500030  0.247607  0.666675  1
  Ru  Ru21  1  0.500010  0.752383  0.666678  1
  Ru  Ru22  1  0.000007  0.257074  0.824045  1
  Ru  Ru23  1  0.000012  0.742962  0.824042  1
