# generated using pymatgen
data_YHo3Co9Si5
_symmetry_space_group_name_H-M   'P 1'
_cell_length_a   11.31859445
_cell_length_b   11.31859412
_cell_length_c   11.31859401
_cell_angle_alpha   26.51882446
_cell_angle_beta   26.51882897
_cell_angle_gamma   26.51882656
_symmetry_Int_Tables_number   1
_chemical_formula_structural   YHo3Co9Si5
_chemical_formula_sum   'Y1 Ho3 Co9 Si5'
_cell_volume   254.80798955
_cell_formula_units_Z   1
loop_
 _symmetry_equiv_pos_site_id
 _symmetry_equiv_pos_as_xyz
  1  'x, y, z'
loop_
 _atom_site_type_symbol
 _atom_site_label
 _atom_site_symmetry_multiplicity
 _atom_site_fract_x
 _atom_site_fract_y
 _atom_site_fract_z
 _atom_site_occupancy
  Y  Y0  1  0.050646  0.050646  0.050646  1
  Ho  Ho1  1  0.949357  0.949357  0.949357  1
  Ho  Ho2  1  0.851814  0.851814  0.851814  1
  Ho  Ho3  1  0.148259  0.148259  0.148259  1
  Co  Co4  1  0.608256  0.608256  0.108052  1
  Co  Co5  1  0.892011  0.391800  0.391800  1
  Co  Co6  1  0.499919  0.999926  0.499919  1
  Co  Co7  1  0.391800  0.892011  0.391800  1
  Co  Co8  1  0.499919  0.499919  0.999926  1
  Co  Co9  1  0.108052  0.608256  0.608256  1
  Co  Co10  1  0.999926  0.499919  0.499919  1
  Co  Co11  1  0.391800  0.391800  0.892011  1
  Co  Co12  1  0.608256  0.108052  0.608256  1
  Si  Si13  1  0.278782  0.278782  0.278782  1
  Si  Si14  1  0.499990  0.499990  0.499990  1
  Si  Si15  1  0.387673  0.387673  0.387673  1
  Si  Si16  1  0.721221  0.721221  0.721221  1
  Si  Si17  1  0.612319  0.612319  0.612319  1
