# generated using pymatgen
data_Mg3Co5Bi16(SO7)8
_symmetry_space_group_name_H-M   'P 1'
_cell_length_a   5.52328698
_cell_length_b   14.46600348
_cell_length_c   16.09169028
_cell_angle_alpha   89.99175999
_cell_angle_beta   89.91818525
_cell_angle_gamma   90.11391881
_symmetry_Int_Tables_number   1
_chemical_formula_structural   Mg3Co5Bi16(SO7)8
_chemical_formula_sum   'Mg3 Co5 Bi16 S8 O56'
_cell_volume   1285.72039668
_cell_formula_units_Z   1
loop_
 _symmetry_equiv_pos_site_id
 _symmetry_equiv_pos_as_xyz
  1  'x, y, z'
loop_
 _atom_site_type_symbol
 _atom_site_label
 _atom_site_symmetry_multiplicity
 _atom_site_fract_x
 _atom_site_fract_y
 _atom_site_fract_z
 _atom_site_occupancy
  Mg  Mg0  1  0.711904  0.009234  0.329653  1
  Mg  Mg1  1  0.210845  0.490781  0.669965  1
  Mg  Mg2  1  0.289031  0.509135  0.169858  1
  Co  Co3  1  0.778102  0.987574  0.827427  1
  Co  Co4  1  0.278616  0.986884  0.674163  1
  Co  Co5  1  0.784212  0.512350  0.325218  1
  Co  Co6  1  0.716555  0.487914  0.825566  1
  Co  Co7  1  0.216719  0.011799  0.173702  1
  Bi  Bi8  1  0.712397  0.881752  0.156429  1
  Bi  Bi9  1  0.214431  0.617975  0.842873  1
  Bi  Bi10  1  0.286145  0.382089  0.342782  1
  Bi  Bi11  1  0.783238  0.118433  0.656555  1
  Bi  Bi12  1  0.282970  0.118524  0.844348  1
  Bi  Bi13  1  0.788254  0.381180  0.155689  1
  Bi  Bi14  1  0.711686  0.618653  0.655978  1
  Bi  Bi15  1  0.210947  0.881470  0.343324  1
  Bi  Bi16  1  0.750676  0.084000  0.018703  1
  Bi  Bi17  1  0.250295  0.415224  0.979748  1
  Bi  Bi18  1  0.250144  0.584746  0.479846  1
  Bi  Bi19  1  0.747671  0.915370  0.519690  1
  Bi  Bi20  1  0.245957  0.916119  0.982196  1
  Bi  Bi21  1  0.749202  0.582291  0.017216  1
  Bi  Bi22  1  0.750712  0.417804  0.516886  1
  Bi  Bi23  1  0.250928  0.082326  0.482749  1
  S  S24  1  0.815847  0.206852  0.392317  1
  S  S25  1  0.314985  0.293084  0.608275  1
  S  S26  1  0.184171  0.706859  0.108344  1
  S  S27  1  0.695263  0.793439  0.893830  1
  S  S28  1  0.194353  0.791726  0.607776  1
  S  S29  1  0.695792  0.708019  0.392268  1
  S  S30  1  0.803497  0.293130  0.892970  1
  S  S31  1  0.303767  0.207967  0.107108  1
  O  O32  1  0.475289  0.982619  0.083560  1
  O  O33  1  0.976279  0.517103  0.915359  1
  O  O34  1  0.525022  0.483264  0.415433  1
  O  O35  1  0.022287  0.017166  0.584417  1
  O  O36  1  0.520270  0.018105  0.916736  1
  O  O37  1  0.021418  0.482210  0.082126  1
  O  O38  1  0.478545  0.517906  0.582075  1
  O  O39  1  0.978782  0.982135  0.417683  1
  O  O40  1  0.963820  0.969530  0.079237  1
  O  O41  1  0.464361  0.530266  0.920050  1
  O  O42  1  0.036255  0.470337  0.419862  1
  O  O43  1  0.533820  0.029591  0.579872  1
  O  O44  1  0.032431  0.031006  0.921850  1
  O  O45  1  0.532083  0.467470  0.078074  1
  O  O46  1  0.967730  0.532358  0.578185  1
  O  O47  1  0.467766  0.967699  0.421587  1
  O  O48  1  0.962364  0.953008  0.249665  1
  O  O49  1  0.462308  0.546517  0.749931  1
  O  O50  1  0.038162  0.452974  0.249905  1
  O  O51  1  0.531594  0.047398  0.749426  1
  O  O52  1  0.031916  0.047299  0.751714  1
  O  O53  1  0.538889  0.452855  0.248465  1
  O  O54  1  0.961707  0.547648  0.748679  1
  O  O55  1  0.461617  0.953035  0.250980  1
  O  O56  1  0.740489  0.304657  0.376193  1
  O  O57  1  0.238241  0.195179  0.624045  1
  O  O58  1  0.259319  0.804703  0.124986  1
  O  O59  1  0.765354  0.695275  0.876461  1
  O  O60  1  0.264152  0.693776  0.626921  1
  O  O61  1  0.764700  0.806253  0.373556  1
  O  O62  1  0.734326  0.194877  0.875185  1
  O  O63  1  0.234115  0.306074  0.126146  1
  O  O64  1  0.818543  0.188351  0.483642  1
  O  O65  1  0.319505  0.311832  0.516961  1
  O  O66  1  0.180300  0.689331  0.016850  1
  O  O67  1  0.681706  0.809223  0.985360  1
  O  O68  1  0.181551  0.805277  0.515994  1
  O  O69  1  0.680584  0.694307  0.484029  1
  O  O70  1  0.819844  0.307933  0.984674  1
  O  O71  1  0.316066  0.194351  0.015220  1
  O  O72  1  0.636883  0.143288  0.351347  1
  O  O73  1  0.135848  0.356520  0.649166  1
  O  O74  1  0.364178  0.643302  0.148496  1
  O  O75  1  0.887622  0.855906  0.857378  1
  O  O76  1  0.386257  0.854922  0.643147  1
  O  O77  1  0.889173  0.645504  0.357225  1
  O  O78  1  0.609408  0.355484  0.857830  1
  O  O79  1  0.111948  0.144815  0.142840  1
  O  O80  1  0.061552  0.191180  0.357019  1
  O  O81  1  0.560235  0.308609  0.643897  1
  O  O82  1  0.939186  0.690348  0.143985  1
  O  O83  1  0.457320  0.813385  0.854942  1
  O  O84  1  0.955998  0.812342  0.646361  1
  O  O85  1  0.458585  0.686830  0.353267  1
  O  O86  1  0.040388  0.314303  0.853292  1
  O  O87  1  0.542597  0.187663  0.145262  1
