# generated using pymatgen
data_LiHo16In2HgIr4
_symmetry_space_group_name_H-M   'P 1'
_cell_length_a   9.57772443
_cell_length_b   9.57772439
_cell_length_c   9.60663002
_cell_angle_alpha   60.16396316
_cell_angle_beta   60.16397303
_cell_angle_gamma   60.04842964
_symmetry_Int_Tables_number   1
_chemical_formula_structural   LiHo16In2HgIr4
_chemical_formula_sum   'Li1 Ho16 In2 Hg1 Ir4'
_cell_volume   624.90232027
_cell_formula_units_Z   1
loop_
 _symmetry_equiv_pos_site_id
 _symmetry_equiv_pos_as_xyz
  1  'x, y, z'
loop_
 _atom_site_type_symbol
 _atom_site_label
 _atom_site_symmetry_multiplicity
 _atom_site_fract_x
 _atom_site_fract_y
 _atom_site_fract_z
 _atom_site_occupancy
  Li  Li0  1  0.427082  0.427082  0.716139  1
  Ho  Ho1  1  0.440184  0.440184  0.060680  1
  Ho  Ho2  1  0.648977  0.648977  0.052689  1
  Ho  Ho3  1  0.191142  0.810477  0.192340  1
  Ho  Ho4  1  0.060887  0.440279  0.061592  1
  Ho  Ho5  1  0.188851  0.812107  0.810679  1
  Ho  Ho6  1  0.064098  0.437854  0.437653  1
  Ho  Ho7  1  0.810477  0.191142  0.192340  1
  Ho  Ho8  1  0.653322  0.653322  0.649704  1
  Ho  Ho9  1  0.812107  0.188851  0.810679  1
  Ho  Ho10  1  0.187443  0.187443  0.815542  1
  Ho  Ho11  1  0.046584  0.650698  0.649496  1
  Ho  Ho12  1  0.440279  0.060887  0.061592  1
  Ho  Ho13  1  0.061502  0.061502  0.439062  1
  Ho  Ho14  1  0.650698  0.046584  0.649496  1
  Ho  Ho15  1  0.808024  0.808024  0.193201  1
  Ho  Ho16  1  0.437854  0.064098  0.437653  1
  In  In17  1  0.416736  0.744832  0.421524  1
  In  In18  1  0.744832  0.416736  0.421524  1
  Hg  Hg19  1  0.412903  0.412903  0.421193  1
  Ir  Ir20  1  0.424753  0.856237  0.860223  1
  Ir  Ir21  1  0.856713  0.856713  0.860637  1
  Ir  Ir22  1  0.856237  0.424753  0.860223  1
  Ir  Ir23  1  0.858316  0.858316  0.424139  1
