# generated using pymatgen
data_SmDy7(HgPt)2
_symmetry_space_group_name_H-M   'P 1'
_cell_length_a   9.68206942
_cell_length_b   9.68206900
_cell_length_c   9.67297000
_cell_angle_alpha   60.03108274
_cell_angle_beta   60.03108418
_cell_angle_gamma   59.93782628
_symmetry_Int_Tables_number   1
_chemical_formula_structural   SmDy7(HgPt)2
_chemical_formula_sum   'Sm2 Dy14 Hg4 Pt4'
_cell_volume   641.18066777
_cell_formula_units_Z   2
loop_
 _symmetry_equiv_pos_site_id
 _symmetry_equiv_pos_as_xyz
  1  'x, y, z'
loop_
 _atom_site_type_symbol
 _atom_site_label
 _atom_site_symmetry_multiplicity
 _atom_site_fract_x
 _atom_site_fract_y
 _atom_site_fract_z
 _atom_site_occupancy
  Sm  Sm0  1  0.566443  0.566443  0.933557  1
  Sm  Sm1  1  0.933557  0.933557  0.566443  1
  Dy  Dy2  1  0.354015  0.354015  0.352676  1
  Dy  Dy3  1  0.354015  0.354015  0.939294  1
  Dy  Dy4  1  0.352676  0.939294  0.354015  1
  Dy  Dy5  1  0.939294  0.352676  0.354015  1
  Dy  Dy6  1  0.810574  0.189426  0.189426  1
  Dy  Dy7  1  0.189426  0.810574  0.810574  1
  Dy  Dy8  1  0.189426  0.810574  0.189426  1
  Dy  Dy9  1  0.810574  0.189426  0.810574  1
  Dy  Dy10  1  0.189840  0.189840  0.810160  1
  Dy  Dy11  1  0.810160  0.810160  0.189840  1
  Dy  Dy12  1  0.937556  0.562444  0.562444  1
  Dy  Dy13  1  0.562444  0.937556  0.937556  1
  Dy  Dy14  1  0.562444  0.937556  0.562444  1
  Dy  Dy15  1  0.937556  0.562444  0.937556  1
  Hg  Hg16  1  0.587070  0.587070  0.583439  1
  Hg  Hg17  1  0.587070  0.587070  0.242419  1
  Hg  Hg18  1  0.583439  0.242419  0.587070  1
  Hg  Hg19  1  0.242419  0.583439  0.587070  1
  Pt  Pt20  1  0.144453  0.144453  0.141993  1
  Pt  Pt21  1  0.144453  0.144453  0.569100  1
  Pt  Pt22  1  0.141993  0.569100  0.144453  1
  Pt  Pt23  1  0.569100  0.141993  0.144453  1
