# generated using pymatgen
data_Lu7(PaRu2)3
_symmetry_space_group_name_H-M   'P 1'
_cell_length_a   6.22785100
_cell_length_b   7.91227774
_cell_length_c   8.06210442
_cell_angle_alpha   117.82785295
_cell_angle_beta   90.00000000
_cell_angle_gamma   90.00000000
_symmetry_Int_Tables_number   1
_chemical_formula_structural   Lu7(PaRu2)3
_chemical_formula_sum   'Lu7 Pa3 Ru6'
_cell_volume   351.32930239
_cell_formula_units_Z   1
loop_
 _symmetry_equiv_pos_site_id
 _symmetry_equiv_pos_as_xyz
  1  'x, y, z'
loop_
 _atom_site_type_symbol
 _atom_site_label
 _atom_site_symmetry_multiplicity
 _atom_site_fract_x
 _atom_site_fract_y
 _atom_site_fract_z
 _atom_site_occupancy
  Lu  Lu0  1  0.001624  0.667110  0.334566  1
  Lu  Lu1  1  0.001565  0.334533  0.671893  1
  Lu  Lu2  1  0.498435  0.334533  0.671893  1
  Lu  Lu3  1  0.498376  0.667110  0.334566  1
  Lu  Lu4  1  0.250000  0.996129  0.747174  1
  Lu  Lu5  1  0.750000  0.253041  0.999824  1
  Lu  Lu6  1  0.250000  0.749577  0.995975  1
  Pa  Pa7  1  0.750000  0.761319  0.754263  1
  Pa  Pa8  1  0.250000  0.246796  0.242539  1
  Pa  Pa9  1  0.750000  0.006026  0.248431  1
  Ru  Ru10  1  0.750000  0.365933  0.389914  1
  Ru  Ru11  1  0.250000  0.589832  0.592444  1
  Ru  Ru12  1  0.750000  0.977891  0.609615  1
  Ru  Ru13  1  0.250000  0.016998  0.382305  1
  Ru  Ru14  1  0.750000  0.644945  0.002110  1
  Ru  Ru15  1  0.250000  0.388225  0.022488  1
