# generated using pymatgen
data_Tb2Nd8Ir3Pt
_symmetry_space_group_name_H-M   'P 1'
_cell_length_a   6.69198923
_cell_length_b   7.26981944
_cell_length_c   9.00534101
_cell_angle_alpha   96.30423565
_cell_angle_beta   112.42441297
_cell_angle_gamma   89.96560539
_symmetry_Int_Tables_number   1
_chemical_formula_structural   Tb2Nd8Ir3Pt
_chemical_formula_sum   'Tb2 Nd8 Ir3 Pt1'
_cell_volume   402.12224141
_cell_formula_units_Z   1
loop_
 _symmetry_equiv_pos_site_id
 _symmetry_equiv_pos_as_xyz
  1  'x, y, z'
loop_
 _atom_site_type_symbol
 _atom_site_label
 _atom_site_symmetry_multiplicity
 _atom_site_fract_x
 _atom_site_fract_y
 _atom_site_fract_z
 _atom_site_occupancy
  Tb  Tb0  1  0.432791  0.752019  0.998638  1
  Tb  Tb1  1  0.562191  0.246249  0.997510  1
  Nd  Nd2  1  0.980225  0.927734  0.180880  1
  Nd  Nd3  1  0.795621  0.578184  0.815366  1
  Nd  Nd4  1  0.020764  0.079370  0.817246  1
  Nd  Nd5  1  0.211384  0.421991  0.183954  1
  Nd  Nd6  1  0.645677  0.813862  0.433724  1
  Nd  Nd7  1  0.218415  0.685179  0.568721  1
  Nd  Nd8  1  0.350230  0.186768  0.568092  1
  Nd  Nd9  1  0.784466  0.310874  0.437327  1
  Ir  Ir10  1  0.598417  0.928024  0.787365  1
  Ir  Ir11  1  0.186968  0.428944  0.785137  1
  Ir  Ir12  1  0.402663  0.071422  0.213172  1
  Pt  Pt13  1  0.810187  0.569378  0.212867  1
