# generated using pymatgen
data_HfZr3Sb4(OsPd)2
_symmetry_space_group_name_H-M   'P 1'
_cell_length_a   6.38537637
_cell_length_b   6.38487935
_cell_length_c   7.81221637
_cell_angle_alpha   65.80733373
_cell_angle_beta   65.87511663
_cell_angle_gamma   90.00018442
_symmetry_Int_Tables_number   1
_chemical_formula_structural   HfZr3Sb4(OsPd)2
_chemical_formula_sum   'Hf1 Zr3 Sb4 Os2 Pd2'
_cell_volume   259.73131198
_cell_formula_units_Z   1
loop_
 _symmetry_equiv_pos_site_id
 _symmetry_equiv_pos_as_xyz
  1  'x, y, z'
loop_
 _atom_site_type_symbol
 _atom_site_label
 _atom_site_symmetry_multiplicity
 _atom_site_fract_x
 _atom_site_fract_y
 _atom_site_fract_z
 _atom_site_occupancy
  Hf  Hf0  1  0.879372  0.374990  0.749993  1
  Zr  Zr1  1  0.624725  0.628887  0.249939  1
  Zr  Zr2  1  0.124683  0.121125  0.250045  1
  Zr  Zr3  1  0.370754  0.875013  0.750009  1
  Sb  Sb4  1  0.124719  0.630359  0.250555  1
  Sb  Sb5  1  0.625421  0.119639  0.249441  1
  Sb  Sb6  1  0.880923  0.874961  0.749961  1
  Sb  Sb7  1  0.368788  0.375037  0.750046  1
  Os  Os8  1  0.999364  0.002142  0.998521  1
  Os  Os9  1  0.247880  0.747851  0.501477  1
  Pd  Pd10  1  0.502478  0.499110  0.998426  1
  Pd  Pd11  1  0.750896  0.250889  0.501586  1
