# generated using pymatgen
data_Tb16AgHg3Rh4
_symmetry_space_group_name_H-M   'P 1'
_cell_length_a   9.61437960
_cell_length_b   9.61437862
_cell_length_c   9.61437806
_cell_angle_alpha   60.10580487
_cell_angle_beta   60.10580785
_cell_angle_gamma   60.10580672
_symmetry_Int_Tables_number   1
_chemical_formula_structural   Tb16AgHg3Rh4
_chemical_formula_sum   'Tb16 Ag1 Hg3 Rh4'
_cell_volume   629.92459968
_cell_formula_units_Z   1
loop_
 _symmetry_equiv_pos_site_id
 _symmetry_equiv_pos_as_xyz
  1  'x, y, z'
loop_
 _atom_site_type_symbol
 _atom_site_label
 _atom_site_symmetry_multiplicity
 _atom_site_fract_x
 _atom_site_fract_y
 _atom_site_fract_z
 _atom_site_occupancy
  Tb  Tb0  1  0.303494  0.898201  0.898201  1
  Tb  Tb1  1  0.686994  0.314679  0.686994  1
  Tb  Tb2  1  0.313678  0.686678  0.313678  1
  Tb  Tb3  1  0.061951  0.438994  0.438994  1
  Tb  Tb4  1  0.686678  0.313678  0.313678  1
  Tb  Tb5  1  0.438994  0.061951  0.438994  1
  Tb  Tb6  1  0.440228  0.060339  0.060339  1
  Tb  Tb7  1  0.899071  0.899071  0.899071  1
  Tb  Tb8  1  0.060339  0.440228  0.060339  1
  Tb  Tb9  1  0.898201  0.303494  0.898201  1
  Tb  Tb10  1  0.314679  0.686994  0.686994  1
  Tb  Tb11  1  0.898201  0.898201  0.303494  1
  Tb  Tb12  1  0.438994  0.438994  0.061951  1
  Tb  Tb13  1  0.313678  0.313678  0.686678  1
  Tb  Tb14  1  0.686994  0.686994  0.314679  1
  Tb  Tb15  1  0.060339  0.060339  0.440228  1
  Ag  Ag16  1  0.667762  0.667762  0.667762  1
  Hg  Hg17  1  0.003933  0.664389  0.664389  1
  Hg  Hg18  1  0.664389  0.003933  0.664389  1
  Hg  Hg19  1  0.664389  0.664389  0.003933  1
  Rh  Rh20  1  0.106038  0.106038  0.677563  1
  Rh  Rh21  1  0.106038  0.677563  0.106038  1
  Rh  Rh22  1  0.107374  0.107374  0.107374  1
  Rh  Rh23  1  0.677563  0.106038  0.106038  1
