# generated using pymatgen
data_DyEr7(Sc3Pt4)4
_symmetry_space_group_name_H-M   'P 1'
_cell_length_a   7.35603629
_cell_length_b   7.31167501
_cell_length_c   13.88939556
_cell_angle_alpha   90.00512355
_cell_angle_beta   90.03207105
_cell_angle_gamma   89.99570949
_symmetry_Int_Tables_number   1
_chemical_formula_structural   DyEr7(Sc3Pt4)4
_chemical_formula_sum   'Dy1 Er7 Sc12 Pt16'
_cell_volume   747.04027845
_cell_formula_units_Z   1
loop_
 _symmetry_equiv_pos_site_id
 _symmetry_equiv_pos_as_xyz
  1  'x, y, z'
loop_
 _atom_site_type_symbol
 _atom_site_label
 _atom_site_symmetry_multiplicity
 _atom_site_fract_x
 _atom_site_fract_y
 _atom_site_fract_z
 _atom_site_occupancy
  Dy  Dy0  1  0.005951  0.177184  0.093843  1
  Er  Er1  1  0.994388  0.821608  0.905373  1
  Er  Er2  1  0.494365  0.677793  0.905800  1
  Er  Er3  1  0.993916  0.822108  0.594153  1
  Er  Er4  1  0.506278  0.322476  0.094171  1
  Er  Er5  1  0.006037  0.177764  0.405766  1
  Er  Er6  1  0.506037  0.322395  0.406175  1
  Er  Er7  1  0.493913  0.677915  0.594128  1
  Sc  Sc8  1  0.168759  0.497907  0.749851  1
  Sc  Sc9  1  0.831424  0.501851  0.250303  1
  Sc  Sc10  1  0.331472  0.997867  0.250306  1
  Sc  Sc11  1  0.668737  0.002070  0.749787  1
  Sc  Sc12  1  0.335485  0.161975  0.623769  1
  Sc  Sc13  1  0.664121  0.837614  0.376528  1
  Sc  Sc14  1  0.164261  0.662018  0.376312  1
  Sc  Sc15  1  0.663769  0.837328  0.124005  1
  Sc  Sc16  1  0.835818  0.337738  0.623723  1
  Sc  Sc17  1  0.336075  0.162564  0.876203  1
  Sc  Sc18  1  0.835178  0.338194  0.875701  1
  Sc  Sc19  1  0.164200  0.662306  0.124039  1
  Pt  Pt20  1  0.032511  0.123088  0.750118  1
  Pt  Pt21  1  0.966880  0.876654  0.250479  1
  Pt  Pt22  1  0.467930  0.623343  0.250172  1
  Pt  Pt23  1  0.532161  0.377006  0.749784  1
  Pt  Pt24  1  0.296761  0.853304  0.749955  1
  Pt  Pt25  1  0.702134  0.146603  0.250529  1
  Pt  Pt26  1  0.204393  0.353728  0.250695  1
  Pt  Pt27  1  0.796080  0.646902  0.749722  1
  Pt  Pt28  1  0.176246  0.456071  0.542524  1
  Pt  Pt29  1  0.823741  0.543897  0.457642  1
  Pt  Pt30  1  0.323295  0.956310  0.457383  1
  Pt  Pt31  1  0.823566  0.544836  0.041912  1
  Pt  Pt32  1  0.676358  0.043601  0.542630  1
  Pt  Pt33  1  0.176269  0.457467  0.957244  1
  Pt  Pt34  1  0.676486  0.043258  0.956960  1
  Pt  Pt35  1  0.325006  0.955254  0.042316  1
