# generated using pymatgen
data_Sm2Y2Tc3Os5
_symmetry_space_group_name_H-M   'P 1'
_cell_length_a   5.29767021
_cell_length_b   5.31586156
_cell_length_c   9.17858601
_cell_angle_alpha   90.00000101
_cell_angle_beta   90.00432546
_cell_angle_gamma   120.11366689
_symmetry_Int_Tables_number   1
_chemical_formula_structural   Sm2Y2Tc3Os5
_chemical_formula_sum   'Sm2 Y2 Tc3 Os5'
_cell_volume   223.59723014
_cell_formula_units_Z   1
loop_
 _symmetry_equiv_pos_site_id
 _symmetry_equiv_pos_as_xyz
  1  'x, y, z'
loop_
 _atom_site_type_symbol
 _atom_site_label
 _atom_site_symmetry_multiplicity
 _atom_site_fract_x
 _atom_site_fract_y
 _atom_site_fract_z
 _atom_site_occupancy
  Sm  Sm0  1  0.670140  0.335069  0.937940  1
  Sm  Sm1  1  0.338037  0.669020  0.063630  1
  Y  Y2  1  0.337762  0.668882  0.435643  1
  Y  Y3  1  0.669101  0.334550  0.562392  1
  Tc  Tc4  1  0.164685  0.331922  0.747381  1
  Tc  Tc5  1  0.164685  0.832763  0.747381  1
  Tc  Tc6  1  0.323759  0.161880  0.252362  1
  Os  Os7  1  0.825515  0.654087  0.253086  1
  Os  Os8  1  0.652062  0.826031  0.746852  1
  Os  Os9  1  0.014690  0.007345  0.001630  1
  Os  Os10  1  0.825515  0.171428  0.253086  1
  Os  Os11  1  0.014049  0.007024  0.498619  1
