# generated using pymatgen
data_Dy2Lu6Co3Si12Rh
_symmetry_space_group_name_H-M   'P 1'
_cell_length_a   7.98222000
_cell_length_b   7.98222061
_cell_length_c   7.74085000
_cell_angle_alpha   90.00000000
_cell_angle_beta   90.00000000
_cell_angle_gamma   119.99999748
_symmetry_Int_Tables_number   1
_chemical_formula_structural   Dy2Lu6Co3Si12Rh
_chemical_formula_sum   'Dy2 Lu6 Co3 Si12 Rh1'
_cell_volume   427.13652912
_cell_formula_units_Z   1
loop_
 _symmetry_equiv_pos_site_id
 _symmetry_equiv_pos_as_xyz
  1  'x, y, z'
loop_
 _atom_site_type_symbol
 _atom_site_label
 _atom_site_symmetry_multiplicity
 _atom_site_fract_x
 _atom_site_fract_y
 _atom_site_fract_z
 _atom_site_occupancy
  Dy  Dy0  1  0.000000  0.000000  0.751468  1
  Dy  Dy1  1  0.000000  0.000000  0.248841  1
  Lu  Lu2  1  0.982906  0.491454  0.248386  1
  Lu  Lu3  1  0.508546  0.491454  0.248386  1
  Lu  Lu4  1  0.494718  0.989434  0.749967  1
  Lu  Lu5  1  0.010566  0.505282  0.749967  1
  Lu  Lu6  1  0.494718  0.505282  0.749967  1
  Lu  Lu7  1  0.508546  0.017094  0.248386  1
  Co  Co8  1  0.333333  0.666667  0.036440  1
  Co  Co9  1  0.666667  0.333333  0.965322  1
  Co  Co10  1  0.666667  0.333333  0.535429  1
  Si  Si11  1  0.166994  0.833006  0.501556  1
  Si  Si12  1  0.166994  0.333989  0.501556  1
  Si  Si13  1  0.666011  0.833006  0.501556  1
  Si  Si14  1  0.343845  0.171922  0.998701  1
  Si  Si15  1  0.827207  0.654414  0.500539  1
  Si  Si16  1  0.828078  0.171922  0.998701  1
  Si  Si17  1  0.828078  0.656155  0.998701  1
  Si  Si18  1  0.172752  0.345502  0.000393  1
  Si  Si19  1  0.654498  0.827248  0.000393  1
  Si  Si20  1  0.345586  0.172793  0.500539  1
  Si  Si21  1  0.827207  0.172793  0.500539  1
  Si  Si22  1  0.172752  0.827248  0.000393  1
  Rh  Rh23  1  0.333333  0.666667  0.463872  1
