# generated using pymatgen
data_Ho8Tl3Pt
_symmetry_space_group_name_H-M   'P 1'
_cell_length_a   10.47277400
_cell_length_b   10.47277371
_cell_length_c   6.96015600
_cell_angle_alpha   90.00000000
_cell_angle_beta   90.00000000
_cell_angle_gamma   120.00000091
_symmetry_Int_Tables_number   1
_chemical_formula_structural   Ho8Tl3Pt
_chemical_formula_sum   'Ho16 Tl6 Pt2'
_cell_volume   661.10897464
_cell_formula_units_Z   2
loop_
 _symmetry_equiv_pos_site_id
 _symmetry_equiv_pos_as_xyz
  1  'x, y, z'
loop_
 _atom_site_type_symbol
 _atom_site_label
 _atom_site_symmetry_multiplicity
 _atom_site_fract_x
 _atom_site_fract_y
 _atom_site_fract_z
 _atom_site_occupancy
  Ho  Ho0  1  0.531546  0.063091  0.508990  1
  Ho  Ho1  1  0.936909  0.468454  0.508990  1
  Ho  Ho2  1  0.531546  0.468454  0.508990  1
  Ho  Ho3  1  0.468454  0.936909  0.008990  1
  Ho  Ho4  1  0.063091  0.531546  0.008990  1
  Ho  Ho5  1  0.468454  0.531546  0.008990  1
  Ho  Ho6  1  0.175228  0.350457  0.714559  1
  Ho  Ho7  1  0.649543  0.824772  0.714559  1
  Ho  Ho8  1  0.175228  0.824772  0.714559  1
  Ho  Ho9  1  0.824772  0.649543  0.214559  1
  Ho  Ho10  1  0.350457  0.175228  0.214559  1
  Ho  Ho11  1  0.824772  0.175228  0.214559  1
  Ho  Ho12  1  0.666667  0.333333  0.883497  1
  Ho  Ho13  1  0.333333  0.666667  0.383497  1
  Ho  Ho14  1  0.000000  0.000000  0.489322  1
  Ho  Ho15  1  0.000000  0.000000  0.989322  1
  Tl  Tl16  1  0.837509  0.675018  0.751155  1
  Tl  Tl17  1  0.324982  0.162491  0.751155  1
  Tl  Tl18  1  0.837509  0.162491  0.751155  1
  Tl  Tl19  1  0.162491  0.324982  0.251155  1
  Tl  Tl20  1  0.675018  0.837509  0.251155  1
  Tl  Tl21  1  0.162491  0.837509  0.251155  1
  Pt  Pt22  1  0.666667  0.333333  0.282092  1
  Pt  Pt23  1  0.333333  0.666667  0.782092  1
