# generated using pymatgen
data_La2HoEr(AsPt)4
_symmetry_space_group_name_H-M   'P 1'
_cell_length_a   4.31856300
_cell_length_b   4.31856302
_cell_length_c   15.95668300
_cell_angle_alpha   90.00000000
_cell_angle_beta   90.00000000
_cell_angle_gamma   120.00000751
_symmetry_Int_Tables_number   1
_chemical_formula_structural   La2HoEr(AsPt)4
_chemical_formula_sum   'La2 Ho1 Er1 As4 Pt4'
_cell_volume   257.72214497
_cell_formula_units_Z   1
loop_
 _symmetry_equiv_pos_site_id
 _symmetry_equiv_pos_as_xyz
  1  'x, y, z'
loop_
 _atom_site_type_symbol
 _atom_site_label
 _atom_site_symmetry_multiplicity
 _atom_site_fract_x
 _atom_site_fract_y
 _atom_site_fract_z
 _atom_site_occupancy
  La  La0  1  0.000000  0.000000  0.500150  1
  La  La1  1  0.000000  0.000000  0.999850  1
  Ho  Ho2  1  0.000000  0.000000  0.250000  1
  Er  Er3  1  0.000000  0.000000  0.750000  1
  As  As4  1  0.333333  0.666667  0.878381  1
  As  As5  1  0.666667  0.333333  0.121363  1
  As  As6  1  0.666667  0.333333  0.378637  1
  As  As7  1  0.333333  0.666667  0.621619  1
  Pt  Pt8  1  0.333333  0.666667  0.355555  1
  Pt  Pt9  1  0.666667  0.333333  0.645445  1
  Pt  Pt10  1  0.666667  0.333333  0.854555  1
  Pt  Pt11  1  0.333333  0.666667  0.144445  1
