# generated using pymatgen
data_Ho4Al4Pd3Rh
_symmetry_space_group_name_H-M   'P 1'
_cell_length_a   4.41242500
_cell_length_b   6.81421222
_cell_length_c   7.82525643
_cell_angle_alpha   89.90867894
_cell_angle_beta   90.00000000
_cell_angle_gamma   90.00000000
_symmetry_Int_Tables_number   1
_chemical_formula_structural   Ho4Al4Pd3Rh
_chemical_formula_sum   'Ho4 Al4 Pd3 Rh1'
_cell_volume   235.28325379
_cell_formula_units_Z   1
loop_
 _symmetry_equiv_pos_site_id
 _symmetry_equiv_pos_as_xyz
  1  'x, y, z'
loop_
 _atom_site_type_symbol
 _atom_site_label
 _atom_site_symmetry_multiplicity
 _atom_site_fract_x
 _atom_site_fract_y
 _atom_site_fract_z
 _atom_site_occupancy
  Ho  Ho0  1  0.250000  0.534318  0.179556  1
  Ho  Ho1  1  0.750000  0.462671  0.818133  1
  Ho  Ho2  1  0.750000  0.972385  0.678860  1
  Ho  Ho3  1  0.250000  0.037941  0.323492  1
  Al  Al4  1  0.250000  0.636085  0.561322  1
  Al  Al5  1  0.750000  0.357792  0.441386  1
  Al  Al6  1  0.750000  0.858633  0.059900  1
  Al  Al7  1  0.250000  0.142777  0.937278  1
  Pd  Pd8  1  0.250000  0.769302  0.879925  1
  Pd  Pd9  1  0.750000  0.231494  0.121593  1
  Pd  Pd10  1  0.750000  0.731775  0.378835  1
  Rh  Rh11  1  0.250000  0.264827  0.619721  1
