# generated using pymatgen
data_Dy7Y5(Tm2Bi3)4
_symmetry_space_group_name_H-M   'P 1'
_cell_length_a   8.23427404
_cell_length_b   9.48614104
_cell_length_c   12.04553001
_cell_angle_alpha   90.00362888
_cell_angle_beta   89.99725950
_cell_angle_gamma   89.98970494
_symmetry_Int_Tables_number   1
_chemical_formula_structural   Dy7Y5(Tm2Bi3)4
_chemical_formula_sum   'Dy7 Y5 Tm8 Bi12'
_cell_volume   940.89421716
_cell_formula_units_Z   1
loop_
 _symmetry_equiv_pos_site_id
 _symmetry_equiv_pos_as_xyz
  1  'x, y, z'
loop_
 _atom_site_type_symbol
 _atom_site_label
 _atom_site_symmetry_multiplicity
 _atom_site_fract_x
 _atom_site_fract_y
 _atom_site_fract_z
 _atom_site_occupancy
  Dy  Dy0  1  0.186559  0.749754  0.718675  1
  Dy  Dy1  1  0.686575  0.750301  0.781361  1
  Dy  Dy2  1  0.813518  0.249653  0.281243  1
  Dy  Dy3  1  0.313424  0.250286  0.218657  1
  Dy  Dy4  1  0.693537  0.563187  0.059582  1
  Dy  Dy5  1  0.193610  0.936804  0.440353  1
  Dy  Dy6  1  0.306442  0.063165  0.940439  1
  Y  Y7  1  0.806483  0.437236  0.559642  1
  Y  Y8  1  0.354214  0.750162  0.215788  1
  Y  Y9  1  0.854172  0.749824  0.284245  1
  Y  Y10  1  0.645708  0.250045  0.784337  1
  Y  Y11  1  0.145882  0.249756  0.715775  1
  Tm  Tm12  1  0.025149  0.750212  0.988565  1
  Tm  Tm13  1  0.525102  0.749961  0.511352  1
  Tm  Tm14  1  0.974910  0.250056  0.011363  1
  Tm  Tm15  1  0.474638  0.249633  0.488652  1
  Tm  Tm16  1  0.306921  0.433981  0.940545  1
  Tm  Tm17  1  0.806875  0.065827  0.559499  1
  Tm  Tm18  1  0.693061  0.933985  0.059452  1
  Tm  Tm19  1  0.193257  0.566076  0.440468  1
  Bi  Bi20  1  0.434108  0.003554  0.672645  1
  Bi  Bi21  1  0.934177  0.496454  0.827392  1
  Bi  Bi22  1  0.565817  0.503540  0.327353  1
  Bi  Bi23  1  0.065864  0.996462  0.172633  1
  Bi  Bi24  1  0.566569  0.996161  0.327507  1
  Bi  Bi25  1  0.066548  0.503886  0.172500  1
  Bi  Bi26  1  0.433395  0.496049  0.672493  1
  Bi  Bi27  1  0.933454  0.003887  0.827477  1
  Bi  Bi28  1  0.407272  0.747911  0.957639  1
  Bi  Bi29  1  0.907351  0.752173  0.542372  1
  Bi  Bi30  1  0.592761  0.247894  0.042388  1
  Bi  Bi31  1  0.092650  0.252126  0.457606  1
