# generated using pymatgen
data_DySc2Co9(SiB2)2
_symmetry_space_group_name_H-M   'P 1'
_cell_length_a   5.05809500
_cell_length_b   5.05809459
_cell_length_c   9.26269500
_cell_angle_alpha   90.00000000
_cell_angle_beta   90.00000000
_cell_angle_gamma   120.00000924
_symmetry_Int_Tables_number   1
_chemical_formula_structural   DySc2Co9(SiB2)2
_chemical_formula_sum   'Dy1 Sc2 Co9 Si2 B4'
_cell_volume   205.23049074
_cell_formula_units_Z   1
loop_
 _symmetry_equiv_pos_site_id
 _symmetry_equiv_pos_as_xyz
  1  'x, y, z'
loop_
 _atom_site_type_symbol
 _atom_site_label
 _atom_site_symmetry_multiplicity
 _atom_site_fract_x
 _atom_site_fract_y
 _atom_site_fract_z
 _atom_site_occupancy
  Dy  Dy0  1  0.000000  0.000000  0.000000  1
  Sc  Sc1  1  0.000000  0.000000  0.659227  1
  Sc  Sc2  1  0.000000  0.000000  0.340773  1
  Co  Co3  1  0.500000  0.500000  0.500000  1
  Co  Co4  1  0.000000  0.500000  0.500000  1
  Co  Co5  1  0.500000  0.000000  0.198460  1
  Co  Co6  1  0.500000  0.500000  0.198460  1
  Co  Co7  1  0.000000  0.500000  0.198460  1
  Co  Co8  1  0.500000  0.000000  0.801540  1
  Co  Co9  1  0.500000  0.500000  0.801540  1
  Co  Co10  1  0.000000  0.500000  0.801540  1
  Co  Co11  1  0.500000  0.000000  0.500000  1
  Si  Si12  1  0.333333  0.666667  0.000000  1
  Si  Si13  1  0.666667  0.333333  0.000000  1
  B  B14  1  0.333333  0.666667  0.653549  1
  B  B15  1  0.666667  0.333333  0.653549  1
  B  B16  1  0.666667  0.333333  0.346451  1
  B  B17  1  0.333333  0.666667  0.346451  1
