# generated using pymatgen
data_Cs8TiBi4
_symmetry_space_group_name_H-M   'P 1'
_cell_length_a   12.71267432
_cell_length_b   12.71267415
_cell_length_c   12.71267400
_cell_angle_alpha   60.00000040
_cell_angle_beta   60.00000082
_cell_angle_gamma   60.00000012
_symmetry_Int_Tables_number   1
_chemical_formula_structural   Cs8TiBi4
_chemical_formula_sum   'Cs16 Ti2 Bi8'
_cell_volume   1452.76628792
_cell_formula_units_Z   2
loop_
 _symmetry_equiv_pos_site_id
 _symmetry_equiv_pos_as_xyz
  1  'x, y, z'
loop_
 _atom_site_type_symbol
 _atom_site_label
 _atom_site_symmetry_multiplicity
 _atom_site_fract_x
 _atom_site_fract_y
 _atom_site_fract_z
 _atom_site_occupancy
  Cs  Cs0  1  0.625000  0.125000  0.625000  1
  Cs  Cs1  1  0.625000  0.625000  0.125000  1
  Cs  Cs2  1  0.125000  0.625000  0.625000  1
  Cs  Cs3  1  0.625000  0.625000  0.625000  1
  Cs  Cs4  1  0.025185  0.025185  0.474815  1
  Cs  Cs5  1  0.775185  0.224815  0.224815  1
  Cs  Cs6  1  0.224815  0.775185  0.775185  1
  Cs  Cs7  1  0.775185  0.775185  0.224815  1
  Cs  Cs8  1  0.775185  0.224815  0.775185  1
  Cs  Cs9  1  0.224815  0.775185  0.224815  1
  Cs  Cs10  1  0.474815  0.025185  0.474815  1
  Cs  Cs11  1  0.474815  0.025185  0.025185  1
  Cs  Cs12  1  0.025185  0.474815  0.474815  1
  Cs  Cs13  1  0.025185  0.474815  0.025185  1
  Cs  Cs14  1  0.224815  0.224815  0.775185  1
  Cs  Cs15  1  0.474815  0.474815  0.025185  1
  Ti  Ti16  1  0.750000  0.750000  0.750000  1
  Ti  Ti17  1  0.500000  0.500000  0.500000  1
  Bi  Bi18  1  0.407128  0.778617  0.407128  1
  Bi  Bi19  1  0.842872  0.842872  0.471383  1
  Bi  Bi20  1  0.471383  0.842872  0.842872  1
  Bi  Bi21  1  0.842872  0.842872  0.842872  1
  Bi  Bi22  1  0.778617  0.407128  0.407128  1
  Bi  Bi23  1  0.407128  0.407128  0.407128  1
  Bi  Bi24  1  0.407128  0.407128  0.778617  1
  Bi  Bi25  1  0.842872  0.471383  0.842872  1
