# generated using pymatgen
data_Y4ErBi2Sb
_symmetry_space_group_name_H-M   'P 1'
_cell_length_a   8.19167900
_cell_length_b   9.47082800
_cell_length_c   12.03232700
_cell_angle_alpha   90.00000000
_cell_angle_beta   90.00000000
_cell_angle_gamma   90.00000000
_symmetry_Int_Tables_number   1
_chemical_formula_structural   Y4ErBi2Sb
_chemical_formula_sum   'Y16 Er4 Bi8 Sb4'
_cell_volume   933.49178684
_cell_formula_units_Z   4
loop_
 _symmetry_equiv_pos_site_id
 _symmetry_equiv_pos_as_xyz
  1  'x, y, z'
loop_
 _atom_site_type_symbol
 _atom_site_label
 _atom_site_symmetry_multiplicity
 _atom_site_fract_x
 _atom_site_fract_y
 _atom_site_fract_z
 _atom_site_occupancy
  Y  Y0  1  0.183504  0.750000  0.718339  1
  Y  Y1  1  0.683504  0.750000  0.781661  1
  Y  Y2  1  0.816496  0.250000  0.281661  1
  Y  Y3  1  0.316496  0.250000  0.218339  1
  Y  Y4  1  0.309496  0.438965  0.941249  1
  Y  Y5  1  0.809496  0.061035  0.558751  1
  Y  Y6  1  0.690504  0.938965  0.058751  1
  Y  Y7  1  0.190504  0.561035  0.441249  1
  Y  Y8  1  0.690504  0.561035  0.058751  1
  Y  Y9  1  0.190504  0.938965  0.441249  1
  Y  Y10  1  0.309496  0.061035  0.941249  1
  Y  Y11  1  0.809496  0.438965  0.558751  1
  Y  Y12  1  0.354120  0.750000  0.212722  1
  Y  Y13  1  0.854120  0.750000  0.287278  1
  Y  Y14  1  0.645880  0.250000  0.787278  1
  Y  Y15  1  0.145880  0.250000  0.712722  1
  Er  Er16  1  0.029316  0.750000  0.988490  1
  Er  Er17  1  0.529316  0.750000  0.511510  1
  Er  Er18  1  0.970684  0.250000  0.011510  1
  Er  Er19  1  0.470684  0.250000  0.488490  1
  Bi  Bi20  1  0.433737  0.003756  0.673378  1
  Bi  Bi21  1  0.933737  0.496244  0.826622  1
  Bi  Bi22  1  0.566263  0.503756  0.326622  1
  Bi  Bi23  1  0.066263  0.996244  0.173378  1
  Bi  Bi24  1  0.566263  0.996244  0.326622  1
  Bi  Bi25  1  0.066263  0.503756  0.173378  1
  Bi  Bi26  1  0.433737  0.496244  0.673378  1
  Bi  Bi27  1  0.933737  0.003756  0.826622  1
  Sb  Sb28  1  0.409801  0.750000  0.959287  1
  Sb  Sb29  1  0.909801  0.750000  0.540713  1
  Sb  Sb30  1  0.590199  0.250000  0.040713  1
  Sb  Sb31  1  0.090199  0.250000  0.459287  1
