# generated using pymatgen
data_Tm5Tl2Te
_symmetry_space_group_name_H-M   'P 1'
_cell_length_a   8.85669873
_cell_length_b   8.87248028
_cell_length_c   6.48174300
_cell_angle_alpha   90.00000000
_cell_angle_beta   90.00000000
_cell_angle_gamma   120.05896846
_symmetry_Int_Tables_number   1
_chemical_formula_structural   Tm5Tl2Te
_chemical_formula_sum   'Tm10 Tl4 Te2'
_cell_volume   440.83999317
_cell_formula_units_Z   2
loop_
 _symmetry_equiv_pos_site_id
 _symmetry_equiv_pos_as_xyz
  1  'x, y, z'
loop_
 _atom_site_type_symbol
 _atom_site_label
 _atom_site_symmetry_multiplicity
 _atom_site_fract_x
 _atom_site_fract_y
 _atom_site_fract_z
 _atom_site_occupancy
  Tm  Tm0  1  0.669410  0.337165  0.004008  1
  Tm  Tm1  1  0.330590  0.667756  0.004008  1
  Tm  Tm2  1  0.330590  0.667756  0.495992  1
  Tm  Tm3  1  0.669410  0.337165  0.495992  1
  Tm  Tm4  1  0.767081  0.760158  0.750000  1
  Tm  Tm5  1  0.232919  0.993077  0.750000  1
  Tm  Tm6  1  0.000000  0.235953  0.750000  1
  Tm  Tm7  1  0.235334  0.235919  0.250000  1
  Tm  Tm8  1  0.764666  0.000584  0.250000  1
  Tm  Tm9  1  0.000000  0.764872  0.250000  1
  Tl  Tl10  1  0.000000  0.599025  0.750000  1
  Tl  Tl11  1  0.603545  0.608345  0.250000  1
  Tl  Tl12  1  0.396455  0.004801  0.250000  1
  Tl  Tl13  1  0.000000  0.394719  0.250000  1
  Te  Te14  1  0.390373  0.391539  0.750000  1
  Te  Te15  1  0.609627  0.001167  0.750000  1
