# generated using pymatgen
data_CdIrRu3Pb3O14
_symmetry_space_group_name_H-M   'P 1'
_cell_length_a   7.38196096
_cell_length_b   7.38196010
_cell_length_c   7.29901883
_cell_angle_alpha   59.62338702
_cell_angle_beta   59.62338733
_cell_angle_gamma   60.00000191
_symmetry_Int_Tables_number   1
_chemical_formula_structural   CdIrRu3Pb3O14
_chemical_formula_sum   'Cd1 Ir1 Ru3 Pb3 O14'
_cell_volume   279.63859369
_cell_formula_units_Z   1
loop_
 _symmetry_equiv_pos_site_id
 _symmetry_equiv_pos_as_xyz
  1  'x, y, z'
loop_
 _atom_site_type_symbol
 _atom_site_label
 _atom_site_symmetry_multiplicity
 _atom_site_fract_x
 _atom_site_fract_y
 _atom_site_fract_z
 _atom_site_occupancy
  Cd  Cd0  1  0.125000  0.125000  0.625000  1
  Ir  Ir1  1  0.625000  0.625000  0.125000  1
  Ru  Ru2  1  0.625000  0.125000  0.625000  1
  Ru  Ru3  1  0.125000  0.625000  0.625000  1
  Ru  Ru4  1  0.625000  0.625000  0.625000  1
  Pb  Pb5  1  0.125000  0.625000  0.125000  1
  Pb  Pb6  1  0.625000  0.125000  0.125000  1
  Pb  Pb7  1  0.125000  0.125000  0.125000  1
  O  O8  1  0.701866  0.701866  0.296469  1
  O  O9  1  0.944345  0.562338  0.548970  1
  O  O10  1  0.548134  0.950200  0.953531  1
  O  O11  1  0.944345  0.944345  0.548970  1
  O  O12  1  0.950200  0.548134  0.953531  1
  O  O13  1  0.562338  0.944345  0.548970  1
  O  O14  1  0.299800  0.701866  0.296469  1
  O  O15  1  0.305655  0.687662  0.701030  1
  O  O16  1  0.701866  0.299800  0.296469  1
  O  O17  1  0.687662  0.305655  0.701030  1
  O  O18  1  0.548134  0.548134  0.953531  1
  O  O19  1  0.305655  0.305655  0.701030  1
  O  O20  1  0.242659  0.242659  0.272025  1
  O  O21  1  0.007341  0.007341  0.977975  1
