# generated using pymatgen
data_Tb3Th2Al2Ru3
_symmetry_space_group_name_H-M   'P 1'
_cell_length_a   8.42412454
_cell_length_b   8.42412438
_cell_length_c   8.42412397
_cell_angle_alpha   109.30196580
_cell_angle_beta   109.30195599
_cell_angle_gamma   109.30196756
_symmetry_Int_Tables_number   1
_chemical_formula_structural   Tb3Th2Al2Ru3
_chemical_formula_sum   'Tb6 Th4 Al4 Ru6'
_cell_volume   463.06761086
_cell_formula_units_Z   2
loop_
 _symmetry_equiv_pos_site_id
 _symmetry_equiv_pos_as_xyz
  1  'x, y, z'
loop_
 _atom_site_type_symbol
 _atom_site_label
 _atom_site_symmetry_multiplicity
 _atom_site_fract_x
 _atom_site_fract_y
 _atom_site_fract_z
 _atom_site_occupancy
  Tb  Tb0  1  0.472266  0.155473  0.219383  1
  Tb  Tb1  1  0.155473  0.219383  0.472266  1
  Tb  Tb2  1  0.219383  0.472266  0.155473  1
  Tb  Tb3  1  0.403030  0.687541  0.912305  1
  Tb  Tb4  1  0.687541  0.912305  0.403030  1
  Tb  Tb5  1  0.912305  0.403030  0.687541  1
  Th  Th6  1  0.654888  0.094744  0.848790  1
  Th  Th7  1  0.094744  0.848790  0.654888  1
  Th  Th8  1  0.848790  0.654888  0.094744  1
  Th  Th9  1  0.614692  0.614692  0.614692  1
  Al  Al10  1  0.405258  0.315709  0.912927  1
  Al  Al11  1  0.315709  0.912927  0.405258  1
  Al  Al12  1  0.912927  0.405258  0.315709  1
  Al  Al13  1  0.010963  0.010963  0.010963  1
  Ru  Ru14  1  0.030307  0.143642  0.776572  1
  Ru  Ru15  1  0.143642  0.776572  0.030307  1
  Ru  Ru16  1  0.776572  0.030307  0.143642  1
  Ru  Ru17  1  0.666460  0.540263  0.284788  1
  Ru  Ru18  1  0.540263  0.284788  0.666460  1
  Ru  Ru19  1  0.284788  0.666460  0.540263  1
