# generated using pymatgen
data_Ta3Fe6Ge2Ru
_symmetry_space_group_name_H-M   'P 1'
_cell_length_a   4.84275600
_cell_length_b   4.84275538
_cell_length_c   7.86557800
_cell_angle_alpha   90.00000000
_cell_angle_beta   90.00000000
_cell_angle_gamma   120.00000426
_symmetry_Int_Tables_number   1
_chemical_formula_structural   Ta3Fe6Ge2Ru
_chemical_formula_sum   'Ta3 Fe6 Ge2 Ru1'
_cell_volume   159.75202613
_cell_formula_units_Z   1
loop_
 _symmetry_equiv_pos_site_id
 _symmetry_equiv_pos_as_xyz
  1  'x, y, z'
loop_
 _atom_site_type_symbol
 _atom_site_label
 _atom_site_symmetry_multiplicity
 _atom_site_fract_x
 _atom_site_fract_y
 _atom_site_fract_z
 _atom_site_occupancy
  Ta  Ta0  1  0.666667  0.333333  0.548739  1
  Ta  Ta1  1  0.666667  0.333333  0.925926  1
  Ta  Ta2  1  0.333333  0.666667  0.086863  1
  Fe  Fe3  1  0.826575  0.173425  0.247052  1
  Fe  Fe4  1  0.826575  0.653152  0.247052  1
  Fe  Fe5  1  0.346848  0.173425  0.247052  1
  Fe  Fe6  1  0.172558  0.827442  0.750415  1
  Fe  Fe7  1  0.172558  0.345115  0.750415  1
  Fe  Fe8  1  0.654885  0.827442  0.750415  1
  Ge  Ge9  1  0.000000  0.000000  0.496152  1
  Ge  Ge10  1  0.000000  0.000000  0.999205  1
  Ru  Ru11  1  0.333333  0.666667  0.450715  1
