# generated using pymatgen
data_Nd2Ho8In8Pd3Rh
_symmetry_space_group_name_H-M   'P 1'
_cell_length_a   3.62713700
_cell_length_b   8.16891108
_cell_length_c   18.39926950
_cell_angle_alpha   89.99454397
_cell_angle_beta   90.00000000
_cell_angle_gamma   90.00000000
_symmetry_Int_Tables_number   1
_chemical_formula_structural   Nd2Ho8In8Pd3Rh
_chemical_formula_sum   'Nd2 Ho8 In8 Pd3 Rh1'
_cell_volume   545.16593015
_cell_formula_units_Z   1
loop_
 _symmetry_equiv_pos_site_id
 _symmetry_equiv_pos_as_xyz
  1  'x, y, z'
loop_
 _atom_site_type_symbol
 _atom_site_label
 _atom_site_symmetry_multiplicity
 _atom_site_fract_x
 _atom_site_fract_y
 _atom_site_fract_z
 _atom_site_occupancy
  Nd  Nd0  1  0.000000  0.499826  0.500540  1
  Nd  Nd1  1  0.000000  0.999162  0.000169  1
  Ho  Ho2  1  0.000000  0.731850  0.278845  1
  Ho  Ho3  1  0.000000  0.260881  0.717995  1
  Ho  Ho4  1  0.000000  0.760573  0.781611  1
  Ho  Ho5  1  0.000000  0.253432  0.218968  1
  Ho  Ho6  1  0.000000  0.617894  0.088132  1
  Ho  Ho7  1  0.000000  0.378178  0.915612  1
  Ho  Ho8  1  0.000000  0.878845  0.584168  1
  Ho  Ho9  1  0.000000  0.121403  0.414242  1
  In  In10  1  0.500000  0.699557  0.932053  1
  In  In11  1  0.500000  0.298006  0.069466  1
  In  In12  1  0.500000  0.798741  0.430792  1
  In  In13  1  0.500000  0.199540  0.567798  1
  In  In14  1  0.500000  0.581471  0.653561  1
  In  In15  1  0.500000  0.422609  0.347860  1
  In  In16  1  0.500000  0.921869  0.153132  1
  In  In17  1  0.500000  0.081045  0.846471  1
  Pd  Pd18  1  0.500000  0.474803  0.804117  1
  Pd  Pd19  1  0.500000  0.975472  0.695554  1
  Pd  Pd20  1  0.500000  0.023128  0.303758  1
  Rh  Rh21  1  0.500000  0.521715  0.195156  1
