# generated using pymatgen
data_HoPu3(NbN2)4
_symmetry_space_group_name_H-M   'P 1'
_cell_length_a   3.28397200
_cell_length_b   5.67631628
_cell_length_c   10.94218102
_cell_angle_alpha   90.09444458
_cell_angle_beta   90.00000000
_cell_angle_gamma   90.00000000
_symmetry_Int_Tables_number   1
_chemical_formula_structural   HoPu3(NbN2)4
_chemical_formula_sum   'Ho1 Pu3 Nb4 N8'
_cell_volume   203.97142832
_cell_formula_units_Z   1
loop_
 _symmetry_equiv_pos_site_id
 _symmetry_equiv_pos_as_xyz
  1  'x, y, z'
loop_
 _atom_site_type_symbol
 _atom_site_label
 _atom_site_symmetry_multiplicity
 _atom_site_fract_x
 _atom_site_fract_y
 _atom_site_fract_z
 _atom_site_occupancy
  Ho  Ho0  1  0.250000  0.581202  0.857683  1
  Pu  Pu1  1  0.750000  0.420850  0.140360  1
  Pu  Pu2  1  0.750000  0.919626  0.359610  1
  Pu  Pu3  1  0.250000  0.079679  0.640479  1
  Nb  Nb4  1  0.250000  0.918761  0.103070  1
  Nb  Nb5  1  0.750000  0.081629  0.896774  1
  Nb  Nb6  1  0.750000  0.580795  0.604596  1
  Nb  Nb7  1  0.250000  0.419204  0.396811  1
  N  N8  1  0.250000  0.656665  0.244280  1
  N  N9  1  0.750000  0.340509  0.755376  1
  N  N10  1  0.750000  0.842291  0.745441  1
  N  N11  1  0.250000  0.156933  0.255607  1
  N  N12  1  0.250000  0.755320  0.505989  1
  N  N13  1  0.750000  0.244518  0.494417  1
  N  N14  1  0.750000  0.748191  0.005788  1
  N  N15  1  0.250000  0.253827  0.993718  1
