# generated using pymatgen
data_Er5Ag4Hg
_symmetry_space_group_name_H-M   'P 1'
_cell_length_a   3.63672700
_cell_length_b   3.63672700
_cell_length_c   18.01316900
_cell_angle_alpha   90.00000000
_cell_angle_beta   90.00000000
_cell_angle_gamma   90.00000000
_symmetry_Int_Tables_number   1
_chemical_formula_structural   Er5Ag4Hg
_chemical_formula_sum   'Er5 Ag4 Hg1'
_cell_volume   238.23826925
_cell_formula_units_Z   1
loop_
 _symmetry_equiv_pos_site_id
 _symmetry_equiv_pos_as_xyz
  1  'x, y, z'
loop_
 _atom_site_type_symbol
 _atom_site_label
 _atom_site_symmetry_multiplicity
 _atom_site_fract_x
 _atom_site_fract_y
 _atom_site_fract_z
 _atom_site_occupancy
  Er  Er0  1  0.500000  0.500000  0.105659  1
  Er  Er1  1  0.500000  0.500000  0.302473  1
  Er  Er2  1  0.500000  0.500000  0.500000  1
  Er  Er3  1  0.500000  0.500000  0.697527  1
  Er  Er4  1  0.500000  0.500000  0.894341  1
  Ag  Ag5  1  0.000000  0.000000  0.204039  1
  Ag  Ag6  1  0.000000  0.000000  0.401854  1
  Ag  Ag7  1  0.000000  0.000000  0.598146  1
  Ag  Ag8  1  0.000000  0.000000  0.795961  1
  Hg  Hg9  1  0.000000  0.000000  0.000000  1
