# generated using pymatgen
data_NaDy4Tc3(P3Ir4)4
_symmetry_space_group_name_H-M   'P 1'
_cell_length_a   12.65484201
_cell_length_b   12.65389789
_cell_length_c   3.97629300
_cell_angle_alpha   90.00000000
_cell_angle_beta   90.00000000
_cell_angle_gamma   119.99752823
_symmetry_Int_Tables_number   1
_chemical_formula_structural   NaDy4Tc3(P3Ir4)4
_chemical_formula_sum   'Na1 Dy4 Tc3 P12 Ir16'
_cell_volume   551.44331998
_cell_formula_units_Z   1
loop_
 _symmetry_equiv_pos_site_id
 _symmetry_equiv_pos_as_xyz
  1  'x, y, z'
loop_
 _atom_site_type_symbol
 _atom_site_label
 _atom_site_symmetry_multiplicity
 _atom_site_fract_x
 _atom_site_fract_y
 _atom_site_fract_z
 _atom_site_occupancy
  Na  Na0  1  0.000000  0.816761  0.000000  1
  Dy  Dy1  1  0.334597  0.666863  0.500000  1
  Dy  Dy2  1  0.665403  0.332265  0.500000  1
  Dy  Dy3  1  0.185263  0.184247  0.000000  1
  Dy  Dy4  1  0.814737  0.998984  0.000000  1
  Tc  Tc5  1  0.000000  0.455240  0.500000  1
  Tc  Tc6  1  0.542955  0.545782  0.500000  1
  Tc  Tc7  1  0.457045  0.002827  0.500000  1
  P  P8  1  0.000000  0.640350  0.500000  1
  P  P9  1  0.361213  0.361269  0.500000  1
  P  P10  1  0.638787  0.000056  0.500000  1
  P  P11  1  0.516162  0.685457  0.000000  1
  P  P12  1  0.313264  0.830367  0.000000  1
  P  P13  1  0.168550  0.484191  0.000000  1
  P  P14  1  0.483838  0.169296  0.000000  1
  P  P15  1  0.686736  0.517103  0.000000  1
  P  P16  1  0.831450  0.315642  0.000000  1
  P  P17  1  0.000000  0.177365  0.500000  1
  P  P18  1  0.824346  0.820599  0.500000  1
  P  P19  1  0.175654  0.996253  0.500000  1
  Ir  Ir20  1  0.509116  0.868689  0.000000  1
  Ir  Ir21  1  0.131252  0.640397  0.000000  1
  Ir  Ir22  1  0.357667  0.490617  0.000000  1
  Ir  Ir23  1  0.490884  0.359572  0.000000  1
  Ir  Ir24  1  0.868748  0.509145  0.000000  1
  Ir  Ir25  1  0.642333  0.132949  0.000000  1
  Ir  Ir26  1  0.000000  0.288018  0.000000  1
  Ir  Ir27  1  0.710705  0.712271  0.000000  1
  Ir  Ir28  1  0.289295  0.001566  0.000000  1
  Ir  Ir29  1  0.625719  0.805753  0.500000  1
  Ir  Ir30  1  0.198483  0.819222  0.500000  1
  Ir  Ir31  1  0.179241  0.374117  0.500000  1
  Ir  Ir32  1  0.374281  0.180034  0.500000  1
  Ir  Ir33  1  0.801517  0.620739  0.500000  1
  Ir  Ir34  1  0.820759  0.194876  0.500000  1
  Ir  Ir35  1  0.000000  0.001117  0.500000  1
