# generated using pymatgen
data_Y4Er16Ag6PdRh
_symmetry_space_group_name_H-M   'P 1'
_cell_length_a   9.51487822
_cell_length_b   9.51116617
_cell_length_c   9.53945400
_cell_angle_alpha   90.00000000
_cell_angle_beta   90.00000000
_cell_angle_gamma   119.98710155
_symmetry_Int_Tables_number   1
_chemical_formula_structural   Y4Er16Ag6PdRh
_chemical_formula_sum   'Y4 Er16 Ag6 Pd1 Rh1'
_cell_volume   747.73478609
_cell_formula_units_Z   1
loop_
 _symmetry_equiv_pos_site_id
 _symmetry_equiv_pos_as_xyz
  1  'x, y, z'
loop_
 _atom_site_type_symbol
 _atom_site_label
 _atom_site_symmetry_multiplicity
 _atom_site_fract_x
 _atom_site_fract_y
 _atom_site_fract_z
 _atom_site_occupancy
  Y  Y0  1  0.914123  0.457063  0.750000  1
  Y  Y1  1  0.457082  0.542988  0.250000  1
  Y  Y2  1  0.457082  0.914094  0.250000  1
  Y  Y3  1  0.086014  0.543007  0.250000  1
  Er  Er4  1  0.209090  0.791972  0.940886  1
  Er  Er5  1  0.209090  0.417117  0.940886  1
  Er  Er6  1  0.583142  0.791571  0.940642  1
  Er  Er7  1  0.792522  0.206694  0.055911  1
  Er  Er8  1  0.792522  0.585827  0.055911  1
  Er  Er9  1  0.414550  0.207275  0.055477  1
  Er  Er10  1  0.792522  0.206694  0.444089  1
  Er  Er11  1  0.792522  0.585827  0.444089  1
  Er  Er12  1  0.414550  0.207275  0.444523  1
  Er  Er13  1  0.209090  0.791972  0.559114  1
  Er  Er14  1  0.209090  0.417117  0.559114  1
  Er  Er15  1  0.583142  0.791571  0.559358  1
  Er  Er16  1  0.542131  0.457499  0.750000  1
  Er  Er17  1  0.542131  0.084633  0.750000  1
  Er  Er18  1  0.000225  0.000112  0.000121  1
  Er  Er19  1  0.000225  0.000112  0.499879  1
  Ag  Ag20  1  0.883248  0.115035  0.750000  1
  Ag  Ag21  1  0.883248  0.768214  0.750000  1
  Ag  Ag22  1  0.233170  0.116586  0.750000  1
  Ag  Ag23  1  0.115269  0.884844  0.250000  1
  Ag  Ag24  1  0.115269  0.230425  0.250000  1
  Ag  Ag25  1  0.769608  0.884804  0.250000  1
  Pd  Pd26  1  0.667024  0.333512  0.250000  1
  Rh  Rh27  1  0.332321  0.666161  0.750000  1
