# generated using pymatgen
data_Sm2Co3Re14C3
_symmetry_space_group_name_H-M   'P 1'
_cell_length_a   6.91902607
_cell_length_b   6.91902624
_cell_length_c   6.91902761
_cell_angle_alpha   82.78586199
_cell_angle_beta   82.78585640
_cell_angle_gamma   82.78585728
_symmetry_Int_Tables_number   1
_chemical_formula_structural   Sm2Co3Re14C3
_chemical_formula_sum   'Sm2 Co3 Re14 C3'
_cell_volume   323.97522525
_cell_formula_units_Z   1
loop_
 _symmetry_equiv_pos_site_id
 _symmetry_equiv_pos_as_xyz
  1  'x, y, z'
loop_
 _atom_site_type_symbol
 _atom_site_label
 _atom_site_symmetry_multiplicity
 _atom_site_fract_x
 _atom_site_fract_y
 _atom_site_fract_z
 _atom_site_occupancy
  Sm  Sm0  1  0.650617  0.650617  0.650617  1
  Sm  Sm1  1  0.349383  0.349383  0.349383  1
  Co  Co2  1  0.000000  0.000000  0.500000  1
  Co  Co3  1  0.500000  0.000000  0.000000  1
  Co  Co4  1  0.000000  0.500000  0.000000  1
  Re  Re5  1  0.722517  0.277483  0.000000  1
  Re  Re6  1  0.000000  0.722517  0.277483  1
  Re  Re7  1  0.277483  0.000000  0.722517  1
  Re  Re8  1  0.000000  0.277483  0.722517  1
  Re  Re9  1  0.722517  0.000000  0.277483  1
  Re  Re10  1  0.277483  0.722517  0.000000  1
  Re  Re11  1  0.344970  0.344970  0.860119  1
  Re  Re12  1  0.860119  0.344970  0.344970  1
  Re  Re13  1  0.344970  0.860119  0.344970  1
  Re  Re14  1  0.655030  0.655030  0.139881  1
  Re  Re15  1  0.139881  0.655030  0.655030  1
  Re  Re16  1  0.655030  0.139881  0.655030  1
  Re  Re17  1  0.897697  0.897697  0.897697  1
  Re  Re18  1  0.102303  0.102303  0.102303  1
  C  C19  1  0.500000  0.500000  0.000000  1
  C  C20  1  0.000000  0.500000  0.500000  1
  C  C21  1  0.500000  0.000000  0.500000  1
