# generated using pymatgen
data_Hf5B4Ru10W
_symmetry_space_group_name_H-M   'P 1'
_cell_length_a   3.10745100
_cell_length_b   9.47978700
_cell_length_c   9.47978700
_cell_angle_alpha   90.00000000
_cell_angle_beta   90.00000000
_cell_angle_gamma   90.00000000
_symmetry_Int_Tables_number   1
_chemical_formula_structural   Hf5B4Ru10W
_chemical_formula_sum   'Hf5 B4 Ru10 W1'
_cell_volume   279.25531511
_cell_formula_units_Z   1
loop_
 _symmetry_equiv_pos_site_id
 _symmetry_equiv_pos_as_xyz
  1  'x, y, z'
loop_
 _atom_site_type_symbol
 _atom_site_label
 _atom_site_symmetry_multiplicity
 _atom_site_fract_x
 _atom_site_fract_y
 _atom_site_fract_z
 _atom_site_occupancy
  Hf  Hf0  1  0.000000  0.676550  0.824772  1
  Hf  Hf1  1  0.000000  0.323450  0.175228  1
  Hf  Hf2  1  0.000000  0.824772  0.323450  1
  Hf  Hf3  1  0.000000  0.175228  0.676550  1
  Hf  Hf4  1  0.000000  0.000000  0.000000  1
  B  B5  1  0.000000  0.880412  0.622564  1
  B  B6  1  0.000000  0.119588  0.377436  1
  B  B7  1  0.000000  0.622564  0.119588  1
  B  B8  1  0.000000  0.377436  0.880412  1
  Ru  Ru9  1  0.500000  0.715376  0.566193  1
  Ru  Ru10  1  0.500000  0.284624  0.433807  1
  Ru  Ru11  1  0.500000  0.778216  0.075394  1
  Ru  Ru12  1  0.500000  0.221784  0.924606  1
  Ru  Ru13  1  0.500000  0.566193  0.284624  1
  Ru  Ru14  1  0.500000  0.433807  0.715376  1
  Ru  Ru15  1  0.500000  0.075394  0.221784  1
  Ru  Ru16  1  0.500000  0.924606  0.778216  1
  Ru  Ru17  1  0.500000  0.000000  0.500000  1
  Ru  Ru18  1  0.500000  0.500000  0.000000  1
  W  W19  1  0.000000  0.500000  0.500000  1
