# generated using pymatgen
data_La2Yb2Zn3Sb8
_symmetry_space_group_name_H-M   'P 1'
_cell_length_a   11.49982672
_cell_length_b   11.49982598
_cell_length_c   11.50819535
_cell_angle_alpha   148.67340446
_cell_angle_beta   148.67339674
_cell_angle_gamma   44.79124359
_symmetry_Int_Tables_number   1
_chemical_formula_structural   La2Yb2Zn3Sb8
_chemical_formula_sum   'La2 Yb2 Zn3 Sb8'
_cell_volume   410.26325334
_cell_formula_units_Z   1
loop_
 _symmetry_equiv_pos_site_id
 _symmetry_equiv_pos_as_xyz
  1  'x, y, z'
loop_
 _atom_site_type_symbol
 _atom_site_label
 _atom_site_symmetry_multiplicity
 _atom_site_fract_x
 _atom_site_fract_y
 _atom_site_fract_z
 _atom_site_occupancy
  La  La0  1  0.625416  0.625416  0.506345  1
  La  La1  1  0.119071  0.119071  0.493655  1
  Yb  Yb2  1  0.370378  0.884069  0.000000  1
  Yb  Yb3  1  0.884069  0.370378  0.000000  1
  Zn  Zn4  1  0.005215  0.005215  0.000000  1
  Zn  Zn5  1  0.002303  0.502303  0.500000  1
  Zn  Zn6  1  0.502303  0.002303  0.500000  1
  Sb  Sb7  1  0.333886  0.333886  0.512480  1
  Sb  Sb8  1  0.821407  0.821407  0.487520  1
  Sb  Sb9  1  0.669636  0.172651  0.000000  1
  Sb  Sb10  1  0.172651  0.669636  0.000000  1
  Sb  Sb11  1  0.249739  0.249739  0.000000  1
  Sb  Sb12  1  0.747349  0.747349  0.000000  1
  Sb  Sb13  1  0.748287  0.248287  0.500000  1
  Sb  Sb14  1  0.248287  0.748287  0.500000  1
