# generated using pymatgen
data_HoTm7(Sc3Si4)4
_symmetry_space_group_name_H-M   'P 1'
_cell_length_a   7.06354443
_cell_length_b   7.35641802
_cell_length_c   13.92606579
_cell_angle_alpha   90.00570476
_cell_angle_beta   90.02664706
_cell_angle_gamma   90.01947674
_symmetry_Int_Tables_number   1
_chemical_formula_structural   HoTm7(Sc3Si4)4
_chemical_formula_sum   'Ho1 Tm7 Sc12 Si16'
_cell_volume   723.63147584
_cell_formula_units_Z   1
loop_
 _symmetry_equiv_pos_site_id
 _symmetry_equiv_pos_as_xyz
  1  'x, y, z'
loop_
 _atom_site_type_symbol
 _atom_site_label
 _atom_site_symmetry_multiplicity
 _atom_site_fract_x
 _atom_site_fract_y
 _atom_site_fract_z
 _atom_site_occupancy
  Ho  Ho0  1  0.011475  0.175955  0.096006  1
  Tm  Tm1  1  0.988050  0.823509  0.903289  1
  Tm  Tm2  1  0.488542  0.676558  0.903407  1
  Tm  Tm3  1  0.988186  0.823444  0.596404  1
  Tm  Tm4  1  0.511520  0.323795  0.096387  1
  Tm  Tm5  1  0.011799  0.176445  0.403463  1
  Tm  Tm6  1  0.511781  0.323497  0.403815  1
  Tm  Tm7  1  0.488156  0.676488  0.596358  1
  Sc  Sc8  1  0.161152  0.503317  0.749799  1
  Sc  Sc9  1  0.838903  0.495989  0.250091  1
  Sc  Sc10  1  0.338216  0.003571  0.250020  1
  Sc  Sc11  1  0.661004  0.996695  0.749796  1
  Sc  Sc12  1  0.331503  0.177167  0.625540  1
  Sc  Sc13  1  0.668550  0.822646  0.374914  1
  Sc  Sc14  1  0.168795  0.677118  0.375050  1
  Sc  Sc15  1  0.668174  0.822580  0.125794  1
  Sc  Sc16  1  0.831703  0.322751  0.625459  1
  Sc  Sc17  1  0.331864  0.177670  0.874357  1
  Sc  Sc18  1  0.831433  0.323203  0.874400  1
  Sc  Sc19  1  0.168936  0.676943  0.125245  1
  Si  Si20  1  0.033093  0.113422  0.749995  1
  Si  Si21  1  0.966644  0.885242  0.250303  1
  Si  Si22  1  0.466806  0.613589  0.250253  1
  Si  Si23  1  0.533480  0.386584  0.749869  1
  Si  Si24  1  0.285374  0.870824  0.749982  1
  Si  Si25  1  0.713834  0.128648  0.250442  1
  Si  Si26  1  0.215203  0.371467  0.250339  1
  Si  Si27  1  0.785462  0.629399  0.749918  1
  Si  Si28  1  0.159584  0.465178  0.539496  1
  Si  Si29  1  0.840530  0.534346  0.460667  1
  Si  Si30  1  0.340341  0.965585  0.460822  1
  Si  Si31  1  0.839646  0.535590  0.039063  1
  Si  Si32  1  0.659431  0.034834  0.539522  1
  Si  Si33  1  0.159889  0.466180  0.960252  1
  Si  Si34  1  0.659399  0.034800  0.960475  1
  Si  Si35  1  0.341545  0.964974  0.039009  1
