# generated using pymatgen
data_Tb2(Al3Co)3
_symmetry_space_group_name_H-M   'P 1'
_cell_length_a   7.37433433
_cell_length_b   7.37433319
_cell_length_c   9.32136900
_cell_angle_alpha   90.00000000
_cell_angle_beta   90.00000000
_cell_angle_gamma   119.24334893
_symmetry_Int_Tables_number   1
_chemical_formula_structural   Tb2(Al3Co)3
_chemical_formula_sum   'Tb4 Al18 Co6'
_cell_volume   442.30001847
_cell_formula_units_Z   2
loop_
 _symmetry_equiv_pos_site_id
 _symmetry_equiv_pos_as_xyz
  1  'x, y, z'
loop_
 _atom_site_type_symbol
 _atom_site_label
 _atom_site_symmetry_multiplicity
 _atom_site_fract_x
 _atom_site_fract_y
 _atom_site_fract_z
 _atom_site_occupancy
  Tb  Tb0  1  0.993135  0.671901  0.250000  1
  Tb  Tb1  1  0.006865  0.328099  0.750000  1
  Tb  Tb2  1  0.671901  0.993135  0.250000  1
  Tb  Tb3  1  0.328099  0.006865  0.750000  1
  Al  Al4  1  0.125163  0.125163  0.250000  1
  Al  Al5  1  0.874837  0.874837  0.750000  1
  Al  Al6  1  0.332237  0.332237  0.541935  1
  Al  Al7  1  0.667763  0.667763  0.041935  1
  Al  Al8  1  0.332237  0.332237  0.958065  1
  Al  Al9  1  0.667763  0.667763  0.458065  1
  Al  Al10  1  0.338670  0.553230  0.250000  1
  Al  Al11  1  0.661330  0.446770  0.750000  1
  Al  Al12  1  0.553230  0.338670  0.250000  1
  Al  Al13  1  0.446770  0.661330  0.750000  1
  Al  Al14  1  0.998288  0.335166  0.070777  1
  Al  Al15  1  0.001712  0.664834  0.570777  1
  Al  Al16  1  0.335166  0.998288  0.429223  1
  Al  Al17  1  0.664834  0.001712  0.929223  1
  Al  Al18  1  0.001712  0.664834  0.929223  1
  Al  Al19  1  0.998288  0.335166  0.429223  1
  Al  Al20  1  0.664834  0.001712  0.570777  1
  Al  Al21  1  0.335166  0.998288  0.070777  1
  Co  Co22  1  0.000000  0.000000  0.000000  1
  Co  Co23  1  0.000000  0.000000  0.500000  1
  Co  Co24  1  0.670873  0.329127  0.000000  1
  Co  Co25  1  0.329127  0.670873  0.500000  1
  Co  Co26  1  0.329127  0.670873  0.000000  1
  Co  Co27  1  0.670873  0.329127  0.500000  1
