# generated using pymatgen
data_Ti8Al15Cu2Os5
_symmetry_space_group_name_H-M   'P 1'
_cell_length_a   8.67024847
_cell_length_b   8.64018263
_cell_length_c   8.67024878
_cell_angle_alpha   120.28961350
_cell_angle_beta   119.91489430
_cell_angle_gamma   89.92324080
_symmetry_Int_Tables_number   1
_chemical_formula_structural   Ti8Al15Cu2Os5
_chemical_formula_sum   'Ti8 Al15 Cu2 Os5'
_cell_volume   458.15445183
_cell_formula_units_Z   1
loop_
 _symmetry_equiv_pos_site_id
 _symmetry_equiv_pos_as_xyz
  1  'x, y, z'
loop_
 _atom_site_type_symbol
 _atom_site_label
 _atom_site_symmetry_multiplicity
 _atom_site_fract_x
 _atom_site_fract_y
 _atom_site_fract_z
 _atom_site_occupancy
  Ti  Ti0  1  0.790059  0.286446  0.065979  1
  Ti  Ti1  1  0.220469  0.286446  0.496388  1
  Ti  Ti2  1  0.212064  0.709721  0.497657  1
  Ti  Ti3  1  0.209755  0.715771  0.927714  1
  Ti  Ti4  1  0.788057  0.715771  0.506016  1
  Ti  Ti5  1  0.779289  0.285236  0.505947  1
  Ti  Ti6  1  0.385701  0.127910  0.742208  1
  Ti  Ti7  1  0.378421  0.633513  0.255091  1
  Al  Al8  1  0.996223  0.494609  0.498385  1
  Al  Al9  1  0.155691  0.345311  0.189619  1
  Al  Al10  1  0.159079  0.969631  0.810552  1
  Al  Al11  1  0.151019  0.342112  0.802389  1
  Al  Al12  1  0.539722  0.342112  0.191093  1
  Al  Al13  1  0.844096  0.654187  0.810093  1
  Al  Al14  1  0.845358  0.040913  0.195555  1
  Al  Al15  1  0.845348  0.656254  0.192753  1
  Al  Al16  1  0.463501  0.656254  0.810907  1
  Al  Al17  1  0.375290  0.122603  0.259197  1
  Al  Al18  1  0.863407  0.122603  0.747312  1
  Al  Al19  1  0.617879  0.873955  0.256076  1
  Al  Al20  1  0.622239  0.368582  0.746343  1
  Al  Al21  1  0.621580  0.876080  0.739101  1
  Al  Al22  1  0.136977  0.876080  0.254500  1
  Cu  Cu23  1  0.000197  0.999471  0.498955  1
  Cu  Cu24  1  0.500516  0.999471  0.999272  1
  Os  Os25  1  0.498740  0.499968  0.001228  1
  Os  Os26  1  0.498508  0.498880  0.498695  1
  Os  Os27  1  0.000184  0.498880  0.000373  1
  Os  Os28  1  0.999839  0.000568  0.000730  1
  Os  Os29  1  0.500786  0.000660  0.499873  1
