# generated using pymatgen
data_Zr9TiFeRe3
_symmetry_space_group_name_H-M   'P 1'
_cell_length_a   8.74937900
_cell_length_b   8.74937833
_cell_length_c   8.43887000
_cell_angle_alpha   90.00000000
_cell_angle_beta   90.00000000
_cell_angle_gamma   119.99999874
_symmetry_Int_Tables_number   1
_chemical_formula_structural   Zr9TiFeRe3
_chemical_formula_sum   'Zr18 Ti2 Fe2 Re6'
_cell_volume   559.46041047
_cell_formula_units_Z   2
loop_
 _symmetry_equiv_pos_site_id
 _symmetry_equiv_pos_as_xyz
  1  'x, y, z'
loop_
 _atom_site_type_symbol
 _atom_site_label
 _atom_site_symmetry_multiplicity
 _atom_site_fract_x
 _atom_site_fract_y
 _atom_site_fract_z
 _atom_site_occupancy
  Zr  Zr0  1  0.200361  0.799639  0.440861  1
  Zr  Zr1  1  0.200361  0.400723  0.440861  1
  Zr  Zr2  1  0.599277  0.799639  0.440861  1
  Zr  Zr3  1  0.799639  0.200361  0.559139  1
  Zr  Zr4  1  0.799639  0.599277  0.559139  1
  Zr  Zr5  1  0.400723  0.200361  0.559139  1
  Zr  Zr6  1  0.799639  0.200361  0.940861  1
  Zr  Zr7  1  0.799639  0.599277  0.940861  1
  Zr  Zr8  1  0.400723  0.200361  0.940861  1
  Zr  Zr9  1  0.200361  0.799639  0.059139  1
  Zr  Zr10  1  0.200361  0.400723  0.059139  1
  Zr  Zr11  1  0.599277  0.799639  0.059139  1
  Zr  Zr12  1  0.542596  0.457404  0.250000  1
  Zr  Zr13  1  0.542596  0.085191  0.250000  1
  Zr  Zr14  1  0.914809  0.457404  0.250000  1
  Zr  Zr15  1  0.457404  0.542596  0.750000  1
  Zr  Zr16  1  0.457404  0.914809  0.750000  1
  Zr  Zr17  1  0.085191  0.542596  0.750000  1
  Ti  Ti18  1  0.000000  0.000000  0.500000  1
  Ti  Ti19  1  0.000000  0.000000  0.000000  1
  Fe  Fe20  1  0.333333  0.666667  0.250000  1
  Fe  Fe21  1  0.666667  0.333333  0.750000  1
  Re  Re22  1  0.888550  0.111450  0.250000  1
  Re  Re23  1  0.888550  0.777102  0.250000  1
  Re  Re24  1  0.222898  0.111450  0.250000  1
  Re  Re25  1  0.111450  0.888550  0.750000  1
  Re  Re26  1  0.111450  0.222898  0.750000  1
  Re  Re27  1  0.777102  0.888550  0.750000  1
