# generated using pymatgen
data_MnNb2B2AsRu4
_symmetry_space_group_name_H-M   'P 1'
_cell_length_a   9.20329000
_cell_length_b   9.20329000
_cell_length_c   2.98971400
_cell_angle_alpha   90.00000000
_cell_angle_beta   90.00000000
_cell_angle_gamma   90.00000000
_symmetry_Int_Tables_number   1
_chemical_formula_structural   MnNb2B2AsRu4
_chemical_formula_sum   'Mn2 Nb4 B4 As2 Ru8'
_cell_volume   253.23041065
_cell_formula_units_Z   2
loop_
 _symmetry_equiv_pos_site_id
 _symmetry_equiv_pos_as_xyz
  1  'x, y, z'
loop_
 _atom_site_type_symbol
 _atom_site_label
 _atom_site_symmetry_multiplicity
 _atom_site_fract_x
 _atom_site_fract_y
 _atom_site_fract_z
 _atom_site_occupancy
  Mn  Mn0  1  0.500000  0.000000  0.500000  1
  Mn  Mn1  1  0.000000  0.500000  0.500000  1
  Nb  Nb2  1  0.831178  0.668822  0.000000  1
  Nb  Nb3  1  0.168822  0.331178  0.000000  1
  Nb  Nb4  1  0.331178  0.831178  0.000000  1
  Nb  Nb5  1  0.668822  0.168822  0.000000  1
  B  B6  1  0.616026  0.883974  0.000000  1
  B  B7  1  0.383974  0.116026  0.000000  1
  B  B8  1  0.116026  0.616026  0.000000  1
  B  B9  1  0.883974  0.383974  0.000000  1
  As  As10  1  0.500000  0.500000  0.000000  1
  As  As11  1  0.000000  0.000000  0.000000  1
  Ru  Ru12  1  0.568713  0.715063  0.500000  1
  Ru  Ru13  1  0.431287  0.284937  0.500000  1
  Ru  Ru14  1  0.068713  0.784937  0.500000  1
  Ru  Ru15  1  0.931287  0.215063  0.500000  1
  Ru  Ru16  1  0.284937  0.568713  0.500000  1
  Ru  Ru17  1  0.715063  0.431287  0.500000  1
  Ru  Ru18  1  0.215063  0.068713  0.500000  1
  Ru  Ru19  1  0.784937  0.931287  0.500000  1
