# generated using pymatgen
data_Nd16DyHo3Sn16
_symmetry_space_group_name_H-M   'P 1'
_cell_length_a   8.24247600
_cell_length_b   8.39551600
_cell_length_c   15.92612500
_cell_angle_alpha   90.00000000
_cell_angle_beta   90.00000000
_cell_angle_gamma   89.99924928
_symmetry_Int_Tables_number   1
_chemical_formula_structural   Nd16DyHo3Sn16
_chemical_formula_sum   'Nd16 Dy1 Ho3 Sn16'
_cell_volume   1102.08528804
_cell_formula_units_Z   1
loop_
 _symmetry_equiv_pos_site_id
 _symmetry_equiv_pos_as_xyz
  1  'x, y, z'
loop_
 _atom_site_type_symbol
 _atom_site_label
 _atom_site_symmetry_multiplicity
 _atom_site_fract_x
 _atom_site_fract_y
 _atom_site_fract_z
 _atom_site_occupancy
  Nd  Nd0  1  0.017756  0.180969  0.401197  1
  Nd  Nd1  1  0.368192  0.837163  0.120701  1
  Nd  Nd2  1  0.131863  0.337131  0.620742  1
  Nd  Nd3  1  0.482231  0.680995  0.901198  1
  Nd  Nd4  1  0.868073  0.662932  0.120721  1
  Nd  Nd5  1  0.131863  0.337131  0.879258  1
  Nd  Nd6  1  0.482231  0.680995  0.598802  1
  Nd  Nd7  1  0.631851  0.162875  0.620716  1
  Nd  Nd8  1  0.868073  0.662932  0.379279  1
  Nd  Nd9  1  0.017756  0.180969  0.098803  1
  Nd  Nd10  1  0.982237  0.818999  0.901202  1
  Nd  Nd11  1  0.631851  0.162875  0.879284  1
  Nd  Nd12  1  0.517819  0.318972  0.098786  1
  Nd  Nd13  1  0.368192  0.837163  0.379299  1
  Nd  Nd14  1  0.982237  0.818999  0.598798  1
  Nd  Nd15  1  0.517819  0.318972  0.401214  1
  Dy  Dy16  1  0.199243  0.501988  0.250000  1
  Ho  Ho17  1  0.699384  0.997997  0.250000  1
  Ho  Ho18  1  0.300619  0.001983  0.750000  1
  Ho  Ho19  1  0.800624  0.497988  0.750000  1
  Sn  Sn20  1  0.791707  0.464682  0.543551  1
  Sn  Sn21  1  0.708279  0.964660  0.456467  1
  Sn  Sn22  1  0.675680  0.854226  0.750000  1
  Sn  Sn23  1  0.208287  0.535355  0.456532  1
  Sn  Sn24  1  0.291710  0.035335  0.956448  1
  Sn  Sn25  1  0.824323  0.354192  0.250000  1
  Sn  Sn26  1  0.791707  0.464682  0.956449  1
  Sn  Sn27  1  0.565180  0.616493  0.250000  1
  Sn  Sn28  1  0.208287  0.535355  0.043468  1
  Sn  Sn29  1  0.434998  0.383506  0.750000  1
  Sn  Sn30  1  0.175647  0.645791  0.750000  1
  Sn  Sn31  1  0.934990  0.116507  0.750000  1
  Sn  Sn32  1  0.291710  0.035335  0.543552  1
  Sn  Sn33  1  0.708279  0.964660  0.043533  1
  Sn  Sn34  1  0.324339  0.145628  0.250000  1
  Sn  Sn35  1  0.064966  0.883566  0.250000  1
