# generated using pymatgen
data_Dy2TiCo8ReP6
_symmetry_space_group_name_H-M   'P 1'
_cell_length_a   3.69145300
_cell_length_b   10.41391300
_cell_length_c   11.88609300
_cell_angle_alpha   90.00000000
_cell_angle_beta   90.00000000
_cell_angle_gamma   90.00000000
_symmetry_Int_Tables_number   1
_chemical_formula_structural   Dy2TiCo8ReP6
_chemical_formula_sum   'Dy4 Ti2 Co16 Re2 P12'
_cell_volume   456.93077815
_cell_formula_units_Z   2
loop_
 _symmetry_equiv_pos_site_id
 _symmetry_equiv_pos_as_xyz
  1  'x, y, z'
loop_
 _atom_site_type_symbol
 _atom_site_label
 _atom_site_symmetry_multiplicity
 _atom_site_fract_x
 _atom_site_fract_y
 _atom_site_fract_z
 _atom_site_occupancy
  Dy  Dy0  1  0.250000  0.582537  0.704762  1
  Dy  Dy1  1  0.250000  0.917463  0.204762  1
  Dy  Dy2  1  0.750000  0.417751  0.295322  1
  Dy  Dy3  1  0.750000  0.082249  0.795322  1
  Ti  Ti4  1  0.250000  0.705094  0.989747  1
  Ti  Ti5  1  0.250000  0.794906  0.489747  1
  Co  Co6  1  0.250000  0.403735  0.489921  1
  Co  Co7  1  0.250000  0.096265  0.989921  1
  Co  Co8  1  0.750000  0.592850  0.511900  1
  Co  Co9  1  0.750000  0.907150  0.011900  1
  Co  Co10  1  0.250000  0.223071  0.177873  1
  Co  Co11  1  0.250000  0.276929  0.677873  1
  Co  Co12  1  0.750000  0.779409  0.823709  1
  Co  Co13  1  0.750000  0.720591  0.323709  1
  Co  Co14  1  0.250000  0.887060  0.698784  1
  Co  Co15  1  0.250000  0.612940  0.198784  1
  Co  Co16  1  0.750000  0.113662  0.299390  1
  Co  Co17  1  0.750000  0.386338  0.799390  1
  Co  Co18  1  0.250000  0.463551  0.932503  1
  Co  Co19  1  0.250000  0.036449  0.432503  1
  Co  Co20  1  0.750000  0.533192  0.065336  1
  Co  Co21  1  0.750000  0.966808  0.565336  1
  Re  Re22  1  0.750000  0.291692  0.010542  1
  Re  Re23  1  0.750000  0.208308  0.510542  1
  P  P24  1  0.250000  0.420028  0.114081  1
  P  P25  1  0.250000  0.079972  0.614081  1
  P  P26  1  0.750000  0.580237  0.883789  1
  P  P27  1  0.750000  0.919763  0.383789  1
  P  P28  1  0.250000  0.267763  0.866241  1
  P  P29  1  0.250000  0.232237  0.366241  1
  P  P30  1  0.750000  0.729333  0.137211  1
  P  P31  1  0.750000  0.770667  0.637211  1
  P  P32  1  0.250000  0.593197  0.390285  1
  P  P33  1  0.250000  0.906803  0.890285  1
  P  P34  1  0.750000  0.402495  0.608604  1
  P  P35  1  0.750000  0.097505  0.108604  1
