# generated using pymatgen
data_Tm2Sc3Bi2Sb
_symmetry_space_group_name_H-M   'P 1'
_cell_length_a   7.81448100
_cell_length_b   9.06849100
_cell_length_c   11.63163900
_cell_angle_alpha   90.00000000
_cell_angle_beta   90.00000000
_cell_angle_gamma   90.00000000
_symmetry_Int_Tables_number   1
_chemical_formula_structural   Tm2Sc3Bi2Sb
_chemical_formula_sum   'Tm8 Sc12 Bi8 Sb4'
_cell_volume   824.28250233
_cell_formula_units_Z   4
loop_
 _symmetry_equiv_pos_site_id
 _symmetry_equiv_pos_as_xyz
  1  'x, y, z'
loop_
 _atom_site_type_symbol
 _atom_site_label
 _atom_site_symmetry_multiplicity
 _atom_site_fract_x
 _atom_site_fract_y
 _atom_site_fract_z
 _atom_site_occupancy
  Tm  Tm0  1  0.352106  0.250000  0.283953  1
  Tm  Tm1  1  0.647894  0.750000  0.716047  1
  Tm  Tm2  1  0.147894  0.750000  0.783953  1
  Tm  Tm3  1  0.852106  0.250000  0.216047  1
  Tm  Tm4  1  0.182338  0.250000  0.780986  1
  Tm  Tm5  1  0.817662  0.750000  0.219014  1
  Tm  Tm6  1  0.317662  0.750000  0.280986  1
  Tm  Tm7  1  0.682338  0.250000  0.719014  1
  Sc  Sc8  1  0.022605  0.250000  0.510321  1
  Sc  Sc9  1  0.977395  0.750000  0.489679  1
  Sc  Sc10  1  0.477395  0.750000  0.010321  1
  Sc  Sc11  1  0.522605  0.250000  0.989679  1
  Sc  Sc12  1  0.188912  0.065263  0.057329  1
  Sc  Sc13  1  0.811088  0.934737  0.942671  1
  Sc  Sc14  1  0.311088  0.934737  0.557329  1
  Sc  Sc15  1  0.811088  0.565263  0.942671  1
  Sc  Sc16  1  0.688912  0.065263  0.442671  1
  Sc  Sc17  1  0.188912  0.434737  0.057329  1
  Sc  Sc18  1  0.688912  0.434737  0.442671  1
  Sc  Sc19  1  0.311088  0.565263  0.557329  1
  Bi  Bi20  1  0.064929  0.003939  0.331207  1
  Bi  Bi21  1  0.935071  0.996061  0.668793  1
  Bi  Bi22  1  0.435071  0.996061  0.831207  1
  Bi  Bi23  1  0.935071  0.503939  0.668793  1
  Bi  Bi24  1  0.564929  0.003939  0.168793  1
  Bi  Bi25  1  0.064929  0.496061  0.331207  1
  Bi  Bi26  1  0.564929  0.496061  0.168793  1
  Bi  Bi27  1  0.435071  0.503939  0.831207  1
  Sb  Sb28  1  0.403830  0.250000  0.539825  1
  Sb  Sb29  1  0.596170  0.750000  0.460175  1
  Sb  Sb30  1  0.096170  0.750000  0.039825  1
  Sb  Sb31  1  0.903830  0.250000  0.960175  1
