# generated using pymatgen
data_LiTb16Cd3Pt3Rh
_symmetry_space_group_name_H-M   'P 1'
_cell_length_a   9.73824605
_cell_length_b   9.73824611
_cell_length_c   9.73824576
_cell_angle_alpha   59.74051138
_cell_angle_beta   59.74050995
_cell_angle_gamma   59.74050815
_symmetry_Int_Tables_number   1
_chemical_formula_structural   LiTb16Cd3Pt3Rh
_chemical_formula_sum   'Li1 Tb16 Cd3 Pt3 Rh1'
_cell_volume   649.17297648
_cell_formula_units_Z   1
loop_
 _symmetry_equiv_pos_site_id
 _symmetry_equiv_pos_as_xyz
  1  'x, y, z'
loop_
 _atom_site_type_symbol
 _atom_site_label
 _atom_site_symmetry_multiplicity
 _atom_site_fract_x
 _atom_site_fract_y
 _atom_site_fract_z
 _atom_site_occupancy
  Li  Li0  1  0.571346  0.571346  0.571346  1
  Tb  Tb1  1  0.351869  0.351869  0.351869  1
  Tb  Tb2  1  0.349668  0.349668  0.948369  1
  Tb  Tb3  1  0.349668  0.948369  0.349668  1
  Tb  Tb4  1  0.948369  0.349668  0.349668  1
  Tb  Tb5  1  0.812900  0.190642  0.190642  1
  Tb  Tb6  1  0.187584  0.812620  0.812620  1
  Tb  Tb7  1  0.190642  0.812900  0.190642  1
  Tb  Tb8  1  0.812620  0.187584  0.812620  1
  Tb  Tb9  1  0.190642  0.190642  0.812900  1
  Tb  Tb10  1  0.812620  0.812620  0.187584  1
  Tb  Tb11  1  0.936118  0.565135  0.565135  1
  Tb  Tb12  1  0.564471  0.935614  0.935614  1
  Tb  Tb13  1  0.565135  0.936118  0.565135  1
  Tb  Tb14  1  0.935614  0.564471  0.935614  1
  Tb  Tb15  1  0.565135  0.565135  0.936118  1
  Tb  Tb16  1  0.935614  0.935614  0.564471  1
  Cd  Cd17  1  0.582295  0.582295  0.253754  1
  Cd  Cd18  1  0.582295  0.253754  0.582295  1
  Cd  Cd19  1  0.253754  0.582295  0.582295  1
  Pt  Pt20  1  0.143571  0.143571  0.570644  1
  Pt  Pt21  1  0.143571  0.570644  0.143571  1
  Pt  Pt22  1  0.570644  0.143571  0.143571  1
  Rh  Rh23  1  0.143859  0.143859  0.143859  1
