# generated using pymatgen
data_LaTbEuIrO7
_symmetry_space_group_name_H-M   'P 1'
_cell_length_a   6.55592543
_cell_length_b   6.55592616
_cell_length_c   7.56061000
_cell_angle_alpha   90.00000000
_cell_angle_beta   90.00000000
_cell_angle_gamma   110.40874819
_symmetry_Int_Tables_number   1
_chemical_formula_structural   LaTbEuIrO7
_chemical_formula_sum   'La2 Tb2 Eu2 Ir2 O14'
_cell_volume   304.55834257
_cell_formula_units_Z   2
loop_
 _symmetry_equiv_pos_site_id
 _symmetry_equiv_pos_as_xyz
  1  'x, y, z'
loop_
 _atom_site_type_symbol
 _atom_site_label
 _atom_site_symmetry_multiplicity
 _atom_site_fract_x
 _atom_site_fract_y
 _atom_site_fract_z
 _atom_site_occupancy
  La  La0  1  0.000412  0.999588  0.500000  1
  La  La1  1  0.000412  0.999588  0.000000  1
  Tb  Tb2  1  0.483145  0.931805  0.750000  1
  Tb  Tb3  1  0.068195  0.516855  0.250000  1
  Eu  Eu4  1  0.519461  0.064748  0.250000  1
  Eu  Eu5  1  0.935252  0.480539  0.750000  1
  Ir  Ir6  1  0.500295  0.499705  0.500000  1
  Ir  Ir7  1  0.500295  0.499705  0.000000  1
  O  O8  1  0.442186  0.186934  0.540439  1
  O  O9  1  0.813066  0.557814  0.459561  1
  O  O10  1  0.442186  0.186934  0.959561  1
  O  O11  1  0.813066  0.557814  0.040439  1
  O  O12  1  0.558006  0.814785  0.467181  1
  O  O13  1  0.185215  0.441994  0.532819  1
  O  O14  1  0.558006  0.814785  0.032819  1
  O  O15  1  0.185215  0.441994  0.967181  1
  O  O16  1  0.156450  0.879760  0.250000  1
  O  O17  1  0.120240  0.843550  0.750000  1
  O  O18  1  0.838655  0.111430  0.750000  1
  O  O19  1  0.888570  0.161345  0.250000  1
  O  O20  1  0.403790  0.412120  0.250000  1
  O  O21  1  0.587880  0.596210  0.750000  1
