# generated using pymatgen
data_Yb10CuIrPt2
_symmetry_space_group_name_H-M   'P 1'
_cell_length_a   8.61509856
_cell_length_b   8.60265346
_cell_length_c   7.52039300
_cell_angle_alpha   82.91103843
_cell_angle_beta   83.33268315
_cell_angle_gamma   44.22720650
_symmetry_Int_Tables_number   1
_chemical_formula_structural   Yb10CuIrPt2
_chemical_formula_sum   'Yb10 Cu1 Ir1 Pt2'
_cell_volume   385.47914716
_cell_formula_units_Z   1
loop_
 _symmetry_equiv_pos_site_id
 _symmetry_equiv_pos_as_xyz
  1  'x, y, z'
loop_
 _atom_site_type_symbol
 _atom_site_label
 _atom_site_symmetry_multiplicity
 _atom_site_fract_x
 _atom_site_fract_y
 _atom_site_fract_z
 _atom_site_occupancy
  Yb  Yb0  1  0.022384  0.792813  0.917651  1
  Yb  Yb1  1  0.200517  0.970460  0.575715  1
  Yb  Yb2  1  0.968395  0.206424  0.080824  1
  Yb  Yb3  1  0.799300  0.020169  0.421824  1
  Yb  Yb4  1  0.362160  0.210160  0.816062  1
  Yb  Yb5  1  0.807374  0.633006  0.675904  1
  Yb  Yb6  1  0.635810  0.801943  0.182000  1
  Yb  Yb7  1  0.203205  0.365249  0.325788  1
  Yb  Yb8  1  0.576380  0.420946  0.743530  1
  Yb  Yb9  1  0.420105  0.574335  0.260382  1
  Cu  Cu10  1  0.404956  0.815374  0.920019  1
  Ir  Ir11  1  0.177656  0.605621  0.583371  1
  Pt  Pt12  1  0.820245  0.402884  0.415968  1
  Pt  Pt13  1  0.601513  0.180616  0.080962  1
