# generated using pymatgen
data_Ce4SiB4Ir9
_symmetry_space_group_name_H-M   'P 1'
_cell_length_a   10.68582658
_cell_length_b   10.68582637
_cell_length_c   10.68582663
_cell_angle_alpha   30.14296153
_cell_angle_beta   30.14296669
_cell_angle_gamma   30.14297032
_symmetry_Int_Tables_number   1
_chemical_formula_structural   Ce4SiB4Ir9
_chemical_formula_sum   'Ce4 Si1 B4 Ir9'
_cell_volume   272.60046315
_cell_formula_units_Z   1
loop_
 _symmetry_equiv_pos_site_id
 _symmetry_equiv_pos_as_xyz
  1  'x, y, z'
loop_
 _atom_site_type_symbol
 _atom_site_label
 _atom_site_symmetry_multiplicity
 _atom_site_fract_x
 _atom_site_fract_y
 _atom_site_fract_z
 _atom_site_occupancy
  Ce  Ce0  1  0.148644  0.148644  0.148644  1
  Ce  Ce1  1  0.947359  0.947359  0.947359  1
  Ce  Ce2  1  0.851356  0.851356  0.851356  1
  Ce  Ce3  1  0.052641  0.052641  0.052641  1
  Si  Si4  1  0.500000  0.500000  0.500000  1
  B  B5  1  0.616005  0.616005  0.616005  1
  B  B6  1  0.718124  0.718124  0.718124  1
  B  B7  1  0.383995  0.383995  0.383995  1
  B  B8  1  0.281876  0.281876  0.281876  1
  Ir  Ir9  1  0.401183  0.899424  0.401183  1
  Ir  Ir10  1  0.899424  0.401183  0.401183  1
  Ir  Ir11  1  0.500000  0.500000  0.000000  1
  Ir  Ir12  1  0.500000  0.000000  0.500000  1
  Ir  Ir13  1  0.000000  0.500000  0.500000  1
  Ir  Ir14  1  0.598817  0.100576  0.598817  1
  Ir  Ir15  1  0.598817  0.598817  0.100576  1
  Ir  Ir16  1  0.100576  0.598817  0.598817  1
  Ir  Ir17  1  0.401183  0.401183  0.899424  1
