# generated using pymatgen
data_Cr4SnB4Pb3O16
_symmetry_space_group_name_H-M   'P 1'
_cell_length_a   7.26968088
_cell_length_b   6.06970100
_cell_length_c   8.09991155
_cell_angle_alpha   90.00000000
_cell_angle_beta   89.80071392
_cell_angle_gamma   90.00000000
_symmetry_Int_Tables_number   1
_chemical_formula_structural   Cr4SnB4Pb3O16
_chemical_formula_sum   'Cr4 Sn1 B4 Pb3 O16'
_cell_volume   357.40472885
_cell_formula_units_Z   1
loop_
 _symmetry_equiv_pos_site_id
 _symmetry_equiv_pos_as_xyz
  1  'x, y, z'
loop_
 _atom_site_type_symbol
 _atom_site_label
 _atom_site_symmetry_multiplicity
 _atom_site_fract_x
 _atom_site_fract_y
 _atom_site_fract_z
 _atom_site_occupancy
  Cr  Cr0  1  0.998108  0.000226  0.999665  1
  Cr  Cr1  1  0.998108  0.499775  0.999665  1
  Cr  Cr2  1  0.500035  0.999595  0.500435  1
  Cr  Cr3  1  0.500035  0.500406  0.500435  1
  Sn  Sn4  1  0.589853  0.250000  0.144703  1
  B  B5  1  0.720299  0.749999  0.229346  1
  B  B6  1  0.219419  0.749999  0.268392  1
  B  B7  1  0.777802  0.250000  0.732347  1
  B  B8  1  0.276768  0.250000  0.767733  1
  Pb  Pb9  1  0.082876  0.250000  0.367731  1
  Pb  Pb10  1  0.926972  0.749999  0.633515  1
  Pb  Pb11  1  0.426845  0.749999  0.869835  1
  O  O12  1  0.828213  0.749999  0.087784  1
  O  O13  1  0.893390  0.250000  0.127642  1
  O  O14  1  0.162624  0.552497  0.199127  1
  O  O15  1  0.162624  0.947502  0.199127  1
  O  O16  1  0.665328  0.551273  0.299523  1
  O  O17  1  0.665328  0.948726  0.299523  1
  O  O18  1  0.406651  0.250000  0.369451  1
  O  O19  1  0.330144  0.749999  0.408737  1
  O  O20  1  0.669263  0.250000  0.590369  1
  O  O21  1  0.602033  0.749999  0.624126  1
  O  O22  1  0.331280  0.052014  0.696707  1
  O  O23  1  0.331280  0.447987  0.696707  1
  O  O24  1  0.833723  0.051839  0.801104  1
  O  O25  1  0.833723  0.448162  0.801104  1
  O  O26  1  0.101499  0.749999  0.876587  1
  O  O27  1  0.165779  0.250000  0.908578  1
