# generated using pymatgen
data_La3ErAl18PdRh5
_symmetry_space_group_name_H-M   'P 1'
_cell_length_a   7.65699469
_cell_length_b   7.67941922
_cell_length_c   9.59467839
_cell_angle_alpha   89.99851415
_cell_angle_beta   89.95755051
_cell_angle_gamma   119.24499362
_symmetry_Int_Tables_number   1
_chemical_formula_structural   La3ErAl18PdRh5
_chemical_formula_sum   'La3 Er1 Al18 Pd1 Rh5'
_cell_volume   492.26808455
_cell_formula_units_Z   1
loop_
 _symmetry_equiv_pos_site_id
 _symmetry_equiv_pos_as_xyz
  1  'x, y, z'
loop_
 _atom_site_type_symbol
 _atom_site_label
 _atom_site_symmetry_multiplicity
 _atom_site_fract_x
 _atom_site_fract_y
 _atom_site_fract_z
 _atom_site_occupancy
  La  La0  1  0.993369  0.670008  0.750072  1
  La  La1  1  0.002545  0.328093  0.250173  1
  La  La2  1  0.672553  0.995252  0.749704  1
  Er  Er3  1  0.328005  0.005839  0.249589  1
  Al  Al4  1  0.134921  0.131274  0.750542  1
  Al  Al5  1  0.872455  0.869937  0.249612  1
  Al  Al6  1  0.010706  0.336336  0.576058  1
  Al  Al7  1  0.004576  0.672596  0.420524  1
  Al  Al8  1  0.001336  0.668231  0.077818  1
  Al  Al9  1  0.335190  0.001837  0.931573  1
  Al  Al10  1  0.005309  0.335798  0.925763  1
  Al  Al11  1  0.659689  0.996623  0.078123  1
  Al  Al12  1  0.659064  0.992134  0.420104  1
  Al  Al13  1  0.331401  0.999653  0.570042  1
  Al  Al14  1  0.333361  0.330884  0.048555  1
  Al  Al15  1  0.665635  0.665719  0.963043  1
  Al  Al16  1  0.664796  0.667971  0.539836  1
  Al  Al17  1  0.331888  0.332119  0.447643  1
  Al  Al18  1  0.343359  0.547381  0.750516  1
  Al  Al19  1  0.653347  0.451279  0.246862  1
  Al  Al20  1  0.543413  0.338952  0.754117  1
  Al  Al21  1  0.450289  0.662617  0.249397  1
  Pd  Pd22  1  0.671853  0.328447  0.498321  1
  Rh  Rh23  1  0.328863  0.670915  0.498337  1
  Rh  Rh24  1  0.328754  0.670981  0.001573  1
  Rh  Rh25  1  0.670443  0.327932  0.002202  1
  Rh  Rh26  1  0.001468  0.000739  0.497751  1
  Rh  Rh27  1  0.001413  0.000458  0.002150  1
