# generated using pymatgen
data_MoRuI18
_symmetry_space_group_name_H-M   'P 1'
_cell_length_a   10.12622975
_cell_length_b   10.09834723
_cell_length_c   10.01195598
_cell_angle_alpha   93.46223014
_cell_angle_beta   93.19717192
_cell_angle_gamma   92.94509734
_symmetry_Int_Tables_number   1
_chemical_formula_structural   MoRuI18
_chemical_formula_sum   'Mo1 Ru1 I18'
_cell_volume   1018.80452942
_cell_formula_units_Z   1
loop_
 _symmetry_equiv_pos_site_id
 _symmetry_equiv_pos_as_xyz
  1  'x, y, z'
loop_
 _atom_site_type_symbol
 _atom_site_label
 _atom_site_symmetry_multiplicity
 _atom_site_fract_x
 _atom_site_fract_y
 _atom_site_fract_z
 _atom_site_occupancy
  Mo  Mo0  1  0.500000  0.500000  0.500000  1
  Ru  Ru1  1  0.000000  0.000000  0.000000  1
  I  I2  1  0.775329  0.486713  0.520097  1
  I  I3  1  0.521243  0.776104  0.488684  1
  I  I4  1  0.490240  0.521156  0.778229  1
  I  I5  1  0.224671  0.513287  0.479903  1
  I  I6  1  0.478757  0.223896  0.511316  1
  I  I7  1  0.509760  0.478844  0.221771  1
  I  I8  1  0.892923  0.365662  0.763015  1
  I  I9  1  0.762603  0.889832  0.367149  1
  I  I10  1  0.366255  0.762214  0.892916  1
  I  I11  1  0.107077  0.634338  0.236985  1
  I  I12  1  0.237397  0.110168  0.632851  1
  I  I13  1  0.633745  0.237786  0.107084  1
  I  I14  1  0.008173  0.965007  0.732094  1
  I  I15  1  0.735201  0.003802  0.968604  1
  I  I16  1  0.968153  0.731979  0.002440  1
  I  I17  1  0.991827  0.034993  0.267906  1
  I  I18  1  0.264799  0.996198  0.031396  1
  I  I19  1  0.031847  0.268021  0.997560  1
