# generated using pymatgen
data_Ca2(Ga3Pd)3
_symmetry_space_group_name_H-M   'P 1'
_cell_length_a   7.73499198
_cell_length_b   7.73499197
_cell_length_c   9.64779700
_cell_angle_alpha   90.00000000
_cell_angle_beta   90.00000000
_cell_angle_gamma   119.59355107
_symmetry_Int_Tables_number   1
_chemical_formula_structural   Ca2(Ga3Pd)3
_chemical_formula_sum   'Ca4 Ga18 Pd6'
_cell_volume   501.92948786
_cell_formula_units_Z   2
loop_
 _symmetry_equiv_pos_site_id
 _symmetry_equiv_pos_as_xyz
  1  'x, y, z'
loop_
 _atom_site_type_symbol
 _atom_site_label
 _atom_site_symmetry_multiplicity
 _atom_site_fract_x
 _atom_site_fract_y
 _atom_site_fract_z
 _atom_site_occupancy
  Ca  Ca0  1  0.996872  0.669263  0.250000  1
  Ca  Ca1  1  0.003128  0.330737  0.750000  1
  Ca  Ca2  1  0.669263  0.996872  0.250000  1
  Ca  Ca3  1  0.330737  0.003128  0.750000  1
  Ga  Ga4  1  0.128690  0.128690  0.250000  1
  Ga  Ga5  1  0.871310  0.871310  0.750000  1
  Ga  Ga6  1  0.999678  0.334934  0.078975  1
  Ga  Ga7  1  0.000322  0.665066  0.921025  1
  Ga  Ga8  1  0.000322  0.665066  0.578975  1
  Ga  Ga9  1  0.334934  0.999678  0.421025  1
  Ga  Ga10  1  0.999678  0.334934  0.421025  1
  Ga  Ga11  1  0.665066  0.000322  0.578975  1
  Ga  Ga12  1  0.665066  0.000322  0.921025  1
  Ga  Ga13  1  0.334934  0.999678  0.078975  1
  Ga  Ga14  1  0.331827  0.331827  0.563371  1
  Ga  Ga15  1  0.668173  0.668173  0.436629  1
  Ga  Ga16  1  0.668173  0.668173  0.063371  1
  Ga  Ga17  1  0.331827  0.331827  0.936629  1
  Ga  Ga18  1  0.337574  0.542760  0.250000  1
  Ga  Ga19  1  0.662426  0.457240  0.750000  1
  Ga  Ga20  1  0.542760  0.337574  0.250000  1
  Ga  Ga21  1  0.457240  0.662426  0.750000  1
  Pd  Pd22  1  0.669926  0.330074  0.000000  1
  Pd  Pd23  1  0.330074  0.669926  0.000000  1
  Pd  Pd24  1  0.330074  0.669926  0.500000  1
  Pd  Pd25  1  0.669926  0.330074  0.500000  1
  Pd  Pd26  1  0.000000  0.000000  0.000000  1
  Pd  Pd27  1  0.000000  0.000000  0.500000  1
