# generated using pymatgen
data_HoFe4P3Ru
_symmetry_space_group_name_H-M   'P 1'
_cell_length_a   3.70174900
_cell_length_b   10.34680000
_cell_length_c   11.80869100
_cell_angle_alpha   90.00000000
_cell_angle_beta   90.00000000
_cell_angle_gamma   90.00000000
_symmetry_Int_Tables_number   1
_chemical_formula_structural   HoFe4P3Ru
_chemical_formula_sum   'Ho4 Fe16 P12 Ru4'
_cell_volume   452.28770355
_cell_formula_units_Z   4
loop_
 _symmetry_equiv_pos_site_id
 _symmetry_equiv_pos_as_xyz
  1  'x, y, z'
loop_
 _atom_site_type_symbol
 _atom_site_label
 _atom_site_symmetry_multiplicity
 _atom_site_fract_x
 _atom_site_fract_y
 _atom_site_fract_z
 _atom_site_occupancy
  Ho  Ho0  1  0.250000  0.581936  0.703976  1
  Ho  Ho1  1  0.250000  0.918064  0.203976  1
  Ho  Ho2  1  0.750000  0.418064  0.296024  1
  Ho  Ho3  1  0.750000  0.081936  0.796024  1
  Fe  Fe4  1  0.250000  0.405504  0.489613  1
  Fe  Fe5  1  0.250000  0.094496  0.989613  1
  Fe  Fe6  1  0.750000  0.594496  0.510387  1
  Fe  Fe7  1  0.750000  0.905504  0.010387  1
  Fe  Fe8  1  0.250000  0.219711  0.175838  1
  Fe  Fe9  1  0.250000  0.280289  0.675838  1
  Fe  Fe10  1  0.750000  0.780289  0.824162  1
  Fe  Fe11  1  0.750000  0.719711  0.324162  1
  Fe  Fe12  1  0.250000  0.877723  0.703468  1
  Fe  Fe13  1  0.250000  0.622277  0.203468  1
  Fe  Fe14  1  0.750000  0.122277  0.296532  1
  Fe  Fe15  1  0.750000  0.377723  0.796532  1
  Fe  Fe16  1  0.250000  0.462534  0.932703  1
  Fe  Fe17  1  0.250000  0.037466  0.432703  1
  Fe  Fe18  1  0.750000  0.537466  0.067297  1
  Fe  Fe19  1  0.750000  0.962534  0.567297  1
  P  P20  1  0.250000  0.424491  0.114553  1
  P  P21  1  0.250000  0.075509  0.614553  1
  P  P22  1  0.750000  0.575509  0.885447  1
  P  P23  1  0.750000  0.924491  0.385447  1
  P  P24  1  0.250000  0.266240  0.867889  1
  P  P25  1  0.250000  0.233760  0.367889  1
  P  P26  1  0.750000  0.733760  0.132111  1
  P  P27  1  0.750000  0.766240  0.632111  1
  P  P28  1  0.250000  0.595613  0.394727  1
  P  P29  1  0.250000  0.904387  0.894727  1
  P  P30  1  0.750000  0.404387  0.605273  1
  P  P31  1  0.750000  0.095613  0.105273  1
  Ru  Ru32  1  0.250000  0.707844  0.987735  1
  Ru  Ru33  1  0.250000  0.792156  0.487735  1
  Ru  Ru34  1  0.750000  0.292156  0.012265  1
  Ru  Ru35  1  0.750000  0.207844  0.512265  1
