# generated using pymatgen
data_Tb5Sn2(HgPt)2
_symmetry_space_group_name_H-M   'P 1'
_cell_length_a   3.68645100
_cell_length_b   8.08548200
_cell_length_c   18.15120600
_cell_angle_alpha   90.00000000
_cell_angle_beta   90.00000000
_cell_angle_gamma   90.00000000
_symmetry_Int_Tables_number   1
_chemical_formula_structural   Tb5Sn2(HgPt)2
_chemical_formula_sum   'Tb10 Sn4 Hg4 Pt4'
_cell_volume   541.02815458
_cell_formula_units_Z   2
loop_
 _symmetry_equiv_pos_site_id
 _symmetry_equiv_pos_as_xyz
  1  'x, y, z'
loop_
 _atom_site_type_symbol
 _atom_site_label
 _atom_site_symmetry_multiplicity
 _atom_site_fract_x
 _atom_site_fract_y
 _atom_site_fract_z
 _atom_site_occupancy
  Tb  Tb0  1  0.000000  0.112000  0.414344  1
  Tb  Tb1  1  0.000000  0.888000  0.585656  1
  Tb  Tb2  1  0.000000  0.388000  0.914344  1
  Tb  Tb3  1  0.000000  0.612000  0.085656  1
  Tb  Tb4  1  0.000000  0.241338  0.216822  1
  Tb  Tb5  1  0.000000  0.758662  0.783178  1
  Tb  Tb6  1  0.000000  0.258662  0.716822  1
  Tb  Tb7  1  0.000000  0.741338  0.283178  1
  Tb  Tb8  1  0.000000  0.000000  0.000000  1
  Tb  Tb9  1  0.000000  0.500000  0.500000  1
  Sn  Sn10  1  0.500000  0.421365  0.352696  1
  Sn  Sn11  1  0.500000  0.578635  0.647304  1
  Sn  Sn12  1  0.500000  0.078635  0.852696  1
  Sn  Sn13  1  0.500000  0.921365  0.147304  1
  Hg  Hg14  1  0.500000  0.292583  0.064021  1
  Hg  Hg15  1  0.500000  0.707417  0.935979  1
  Hg  Hg16  1  0.500000  0.207417  0.564021  1
  Hg  Hg17  1  0.500000  0.792583  0.435979  1
  Pt  Pt18  1  0.500000  0.025105  0.301579  1
  Pt  Pt19  1  0.500000  0.974895  0.698421  1
  Pt  Pt20  1  0.500000  0.474895  0.801579  1
  Pt  Pt21  1  0.500000  0.525105  0.198421  1
