# generated using pymatgen
data_DyLu2Co9(SiB2)2
_symmetry_space_group_name_H-M   'P 1'
_cell_length_a   5.08345602
_cell_length_b   5.08380372
_cell_length_c   9.33268600
_cell_angle_alpha   89.99986724
_cell_angle_beta   90.00016283
_cell_angle_gamma   120.00104075
_symmetry_Int_Tables_number   1
_chemical_formula_structural   DyLu2Co9(SiB2)2
_chemical_formula_sum   'Dy1 Lu2 Co9 Si2 B4'
_cell_volume   208.87216861
_cell_formula_units_Z   1
loop_
 _symmetry_equiv_pos_site_id
 _symmetry_equiv_pos_as_xyz
  1  'x, y, z'
loop_
 _atom_site_type_symbol
 _atom_site_label
 _atom_site_symmetry_multiplicity
 _atom_site_fract_x
 _atom_site_fract_y
 _atom_site_fract_z
 _atom_site_occupancy
  Dy  Dy0  1  0.999987  0.000005  0.000002  1
  Lu  Lu1  1  0.999992  0.999995  0.338728  1
  Lu  Lu2  1  0.000003  0.000006  0.661193  1
  Co  Co3  1  0.500000  0.999999  0.499984  1
  Co  Co4  1  0.500001  0.500001  0.499979  1
  Co  Co5  1  0.999994  0.499996  0.500000  1
  Co  Co6  1  0.499993  0.000002  0.197153  1
  Co  Co7  1  0.499989  0.499999  0.197120  1
  Co  Co8  1  0.999988  0.500000  0.197117  1
  Co  Co9  1  0.500001  0.000001  0.802870  1
  Co  Co10  1  0.499997  0.500000  0.802901  1
  Co  Co11  1  0.999997  0.499996  0.802892  1
  Si  Si12  1  0.333307  0.666691  0.000057  1
  Si  Si13  1  0.666668  0.333311  0.000058  1
  B  B14  1  0.333306  0.666612  0.346098  1
  B  B15  1  0.666681  0.333385  0.346098  1
  B  B16  1  0.666654  0.333362  0.653875  1
  B  B17  1  0.333342  0.666640  0.653876  1
