# generated using pymatgen
data_Yb6Si24Ir3Rh5
_symmetry_space_group_name_H-M   'P 1'
_cell_length_a   10.15124779
_cell_length_b   10.15124774
_cell_length_c   8.15650500
_cell_angle_alpha   90.02254298
_cell_angle_beta   90.02253733
_cell_angle_gamma   132.62301700
_symmetry_Int_Tables_number   1
_chemical_formula_structural   Yb6Si24Ir3Rh5
_chemical_formula_sum   'Yb6 Si24 Ir3 Rh5'
_cell_volume   618.46817853
_cell_formula_units_Z   1
loop_
 _symmetry_equiv_pos_site_id
 _symmetry_equiv_pos_as_xyz
  1  'x, y, z'
loop_
 _atom_site_type_symbol
 _atom_site_label
 _atom_site_symmetry_multiplicity
 _atom_site_fract_x
 _atom_site_fract_y
 _atom_site_fract_z
 _atom_site_occupancy
  Yb  Yb0  1  0.000083  0.999917  0.000000  1
  Yb  Yb1  1  0.499594  0.500406  0.500000  1
  Yb  Yb2  1  0.002781  0.501994  0.250066  1
  Yb  Yb3  1  0.998814  0.497904  0.749215  1
  Yb  Yb4  1  0.498006  0.997219  0.749934  1
  Yb  Yb5  1  0.502096  0.001186  0.250785  1
  Si  Si6  1  0.704430  0.295570  0.000000  1
  Si  Si7  1  0.296459  0.703541  0.000000  1
  Si  Si8  1  0.796396  0.203604  0.500000  1
  Si  Si9  1  0.204078  0.795922  0.500000  1
  Si  Si10  1  0.332691  0.334928  0.166292  1
  Si  Si11  1  0.665072  0.667309  0.833708  1
  Si  Si12  1  0.164858  0.166964  0.666409  1
  Si  Si13  1  0.833036  0.835142  0.333591  1
  Si  Si14  1  0.843965  0.610204  0.000075  1
  Si  Si15  1  0.155826  0.389044  0.998936  1
  Si  Si16  1  0.654108  0.888172  0.502087  1
  Si  Si17  1  0.111828  0.345892  0.497913  1
  Si  Si18  1  0.343450  0.110359  0.500182  1
  Si  Si19  1  0.889641  0.656550  0.499818  1
  Si  Si20  1  0.389796  0.156035  0.999925  1
  Si  Si21  1  0.610956  0.844174  0.001064  1
  Si  Si22  1  0.884957  0.118971  0.273094  1
  Si  Si23  1  0.116378  0.882635  0.726651  1
  Si  Si24  1  0.616115  0.381988  0.773221  1
  Si  Si25  1  0.618012  0.383885  0.226779  1
  Si  Si26  1  0.385820  0.619798  0.228442  1
  Si  Si27  1  0.380202  0.614180  0.771558  1
  Si  Si28  1  0.881029  0.115043  0.726906  1
  Si  Si29  1  0.117365  0.883622  0.273349  1
  Ir  Ir30  1  0.831403  0.168597  0.000000  1
  Ir  Ir31  1  0.169007  0.830993  0.000000  1
  Ir  Ir32  1  0.668878  0.331122  0.500000  1
  Rh  Rh33  1  0.331075  0.668925  0.500000  1
  Rh  Rh34  1  0.129997  0.129429  0.370472  1
  Rh  Rh35  1  0.870571  0.870003  0.629528  1
  Rh  Rh36  1  0.371566  0.370336  0.870384  1
  Rh  Rh37  1  0.629664  0.628434  0.129616  1
