# generated using pymatgen
data_YbY6RuI12
_symmetry_space_group_name_H-M   'P 1'
_cell_length_a   9.82248203
_cell_length_b   9.82248127
_cell_length_c   9.82248207
_cell_angle_alpha   107.01433911
_cell_angle_beta   107.01433204
_cell_angle_gamma   107.01433622
_symmetry_Int_Tables_number   1
_chemical_formula_structural   YbY6RuI12
_chemical_formula_sum   'Yb1 Y6 Ru1 I12'
_cell_volume   788.93172947
_cell_formula_units_Z   1
loop_
 _symmetry_equiv_pos_site_id
 _symmetry_equiv_pos_as_xyz
  1  'x, y, z'
loop_
 _atom_site_type_symbol
 _atom_site_label
 _atom_site_symmetry_multiplicity
 _atom_site_fract_x
 _atom_site_fract_y
 _atom_site_fract_z
 _atom_site_occupancy
  Yb  Yb0  1  0.500000  0.500000  0.500000  1
  Y  Y1  1  0.701738  0.975380  0.904134  1
  Y  Y2  1  0.975380  0.904134  0.701738  1
  Y  Y3  1  0.095866  0.298262  0.024620  1
  Y  Y4  1  0.298262  0.024620  0.095866  1
  Y  Y5  1  0.904134  0.701738  0.975380  1
  Y  Y6  1  0.024620  0.095866  0.298262  1
  Ru  Ru7  1  0.000000  0.000000  0.000000  1
  I  I8  1  0.072241  0.224068  0.680540  1
  I  I9  1  0.378712  0.150908  0.456198  1
  I  I10  1  0.621288  0.849092  0.543802  1
  I  I11  1  0.224068  0.680540  0.072241  1
  I  I12  1  0.775932  0.319460  0.927759  1
  I  I13  1  0.680540  0.072241  0.224068  1
  I  I14  1  0.543802  0.621288  0.849092  1
  I  I15  1  0.849092  0.543802  0.621288  1
  I  I16  1  0.927759  0.775932  0.319460  1
  I  I17  1  0.319460  0.927759  0.775932  1
  I  I18  1  0.456198  0.378712  0.150908  1
  I  I19  1  0.150908  0.456198  0.378712  1
