# generated using pymatgen
data_Th14TcOs5
_symmetry_space_group_name_H-M   'P 1'
_cell_length_a   10.00963100
_cell_length_b   10.03439809
_cell_length_c   6.32706680
_cell_angle_alpha   89.90661975
_cell_angle_beta   90.00000000
_cell_angle_gamma   119.91838220
_symmetry_Int_Tables_number   1
_chemical_formula_structural   Th14TcOs5
_chemical_formula_sum   'Th14 Tc1 Os5'
_cell_volume   550.80550220
_cell_formula_units_Z   1
loop_
 _symmetry_equiv_pos_site_id
 _symmetry_equiv_pos_as_xyz
  1  'x, y, z'
loop_
 _atom_site_type_symbol
 _atom_site_label
 _atom_site_symmetry_multiplicity
 _atom_site_fract_x
 _atom_site_fract_y
 _atom_site_fract_z
 _atom_site_occupancy
  Th  Th0  1  0.461732  0.539015  0.299618  1
  Th  Th1  1  0.077283  0.539015  0.299618  1
  Th  Th2  1  0.920615  0.461329  0.799459  1
  Th  Th3  1  0.252541  0.126413  0.503678  1
  Th  Th4  1  0.538879  0.077758  0.799222  1
  Th  Th5  1  0.748646  0.873032  0.004731  1
  Th  Th6  1  0.666864  0.333727  0.282787  1
  Th  Th7  1  0.124386  0.873032  0.004731  1
  Th  Th8  1  0.461018  0.922036  0.299302  1
  Th  Th9  1  0.540714  0.461329  0.799459  1
  Th  Th10  1  0.873872  0.126413  0.503678  1
  Th  Th11  1  0.126475  0.252950  0.004241  1
  Th  Th12  1  0.874337  0.748675  0.504270  1
  Th  Th13  1  0.333238  0.666478  0.784756  1
  Tc  Tc14  1  0.813500  0.627000  0.048101  1
  Os  Os15  1  0.812497  0.185770  0.049055  1
  Os  Os16  1  0.625492  0.812939  0.549317  1
  Os  Os17  1  0.373273  0.185770  0.049055  1
  Os  Os18  1  0.187190  0.374380  0.549604  1
  Os  Os19  1  0.187447  0.812939  0.549317  1
