# generated using pymatgen
data_Hf6Si6W4C
_symmetry_space_group_name_H-M   'P 1'
_cell_length_a   7.67754000
_cell_length_b   7.67754028
_cell_length_c   5.26868200
_cell_angle_alpha   90.00000000
_cell_angle_beta   90.00000000
_cell_angle_gamma   119.99999880
_symmetry_Int_Tables_number   1
_chemical_formula_structural   Hf6Si6W4C
_chemical_formula_sum   'Hf6 Si6 W4 C1'
_cell_volume   268.95326144
_cell_formula_units_Z   1
loop_
 _symmetry_equiv_pos_site_id
 _symmetry_equiv_pos_as_xyz
  1  'x, y, z'
loop_
 _atom_site_type_symbol
 _atom_site_label
 _atom_site_symmetry_multiplicity
 _atom_site_fract_x
 _atom_site_fract_y
 _atom_site_fract_z
 _atom_site_occupancy
  Hf  Hf0  1  0.000000  0.757917  0.253646  1
  Hf  Hf1  1  0.242083  0.242083  0.253646  1
  Hf  Hf2  1  0.757917  0.000000  0.253646  1
  Hf  Hf3  1  0.000000  0.242083  0.746354  1
  Hf  Hf4  1  0.757917  0.757917  0.746354  1
  Hf  Hf5  1  0.242083  0.000000  0.746354  1
  Si  Si6  1  0.000000  0.402020  0.240675  1
  Si  Si7  1  0.597980  0.597980  0.240675  1
  Si  Si8  1  0.402020  0.000000  0.240675  1
  Si  Si9  1  0.000000  0.597980  0.759325  1
  Si  Si10  1  0.402020  0.402020  0.759325  1
  Si  Si11  1  0.597980  0.000000  0.759325  1
  W  W12  1  0.333333  0.666667  0.000000  1
  W  W13  1  0.666667  0.333333  0.000000  1
  W  W14  1  0.666667  0.333333  0.500000  1
  W  W15  1  0.333333  0.666667  0.500000  1
  C  C16  1  0.000000  0.000000  0.500000  1
