# generated using pymatgen
data_Ho10Er6ZnIn3Rh4
_symmetry_space_group_name_H-M   'P 1'
_cell_length_a   9.58134401
_cell_length_b   9.55289499
_cell_length_c   9.58073037
_cell_angle_alpha   59.87412662
_cell_angle_beta   59.88133629
_cell_angle_gamma   59.87494271
_symmetry_Int_Tables_number   1
_chemical_formula_structural   Ho10Er6ZnIn3Rh4
_chemical_formula_sum   'Ho10 Er6 Zn1 In3 Rh4'
_cell_volume   618.34284665
_cell_formula_units_Z   1
loop_
 _symmetry_equiv_pos_site_id
 _symmetry_equiv_pos_as_xyz
  1  'x, y, z'
loop_
 _atom_site_type_symbol
 _atom_site_label
 _atom_site_symmetry_multiplicity
 _atom_site_fract_x
 _atom_site_fract_y
 _atom_site_fract_z
 _atom_site_occupancy
  Ho  Ho0  1  0.189988  0.190534  0.810457  1
  Ho  Ho1  1  0.437526  0.057347  0.067470  1
  Ho  Ho2  1  0.436010  0.058176  0.436028  1
  Ho  Ho3  1  0.062709  0.436820  0.062595  1
  Ho  Ho4  1  0.648849  0.050969  0.648800  1
  Ho  Ho5  1  0.190767  0.810308  0.809703  1
  Ho  Ho6  1  0.067379  0.057191  0.437649  1
  Ho  Ho7  1  0.810702  0.190351  0.189814  1
  Ho  Ho8  1  0.809866  0.810431  0.190778  1
  Ho  Ho9  1  0.646948  0.648880  0.053828  1
  Er  Er10  1  0.650046  0.650099  0.650043  1
  Er  Er11  1  0.063066  0.435478  0.438192  1
  Er  Er12  1  0.053491  0.648892  0.647079  1
  Er  Er13  1  0.809640  0.191785  0.809607  1
  Er  Er14  1  0.438075  0.435527  0.063112  1
  Er  Er15  1  0.189571  0.811655  0.189627  1
  Zn  Zn16  1  0.416322  0.751485  0.416428  1
  In  In17  1  0.416910  0.421492  0.745648  1
  In  In18  1  0.745613  0.421430  0.417151  1
  In  In19  1  0.416432  0.420906  0.416630  1
  Rh  Rh20  1  0.856530  0.430241  0.856168  1
  Rh  Rh21  1  0.858036  0.856419  0.428078  1
  Rh  Rh22  1  0.427853  0.856567  0.857867  1
  Rh  Rh23  1  0.857675  0.857019  0.857251  1
