# generated using pymatgen
data_Hf4AlSiRh10
_symmetry_space_group_name_H-M   'P 1'
_cell_length_a   4.08107700
_cell_length_b   5.53412950
_cell_length_c   10.87074293
_cell_angle_alpha   90.04809452
_cell_angle_beta   90.00000000
_cell_angle_gamma   90.00000000
_symmetry_Int_Tables_number   1
_chemical_formula_structural   Hf4AlSiRh10
_chemical_formula_sum   'Hf4 Al1 Si1 Rh10'
_cell_volume   245.51791047
_cell_formula_units_Z   1
loop_
 _symmetry_equiv_pos_site_id
 _symmetry_equiv_pos_as_xyz
  1  'x, y, z'
loop_
 _atom_site_type_symbol
 _atom_site_label
 _atom_site_symmetry_multiplicity
 _atom_site_fract_x
 _atom_site_fract_y
 _atom_site_fract_z
 _atom_site_occupancy
  Hf  Hf0  1  0.500000  0.177859  0.639703  1
  Hf  Hf1  1  0.500000  0.822141  0.360297  1
  Hf  Hf2  1  0.500000  0.675191  0.858779  1
  Hf  Hf3  1  0.500000  0.324809  0.141221  1
  Al  Al4  1  0.000000  0.500000  0.500000  1
  Si  Si5  1  0.000000  0.000000  0.000000  1
  Rh  Rh6  1  0.500000  0.179471  0.897676  1
  Rh  Rh7  1  0.500000  0.820529  0.102324  1
  Rh  Rh8  1  0.500000  0.686375  0.607435  1
  Rh  Rh9  1  0.500000  0.313625  0.392565  1
  Rh  Rh10  1  0.000000  0.427325  0.744740  1
  Rh  Rh11  1  0.000000  0.572675  0.255260  1
  Rh  Rh12  1  0.000000  0.000000  0.500000  1
  Rh  Rh13  1  0.000000  0.500000  0.000000  1
  Rh  Rh14  1  0.000000  0.070231  0.240605  1
  Rh  Rh15  1  0.000000  0.929769  0.759395  1
