# generated using pymatgen
data_YZr2Mn(Al3Cu)2
_symmetry_space_group_name_H-M   'P 1'
_cell_length_a   8.81361855
_cell_length_b   8.81361910
_cell_length_c   8.81361845
_cell_angle_alpha   35.11379253
_cell_angle_beta   35.11378862
_cell_angle_gamma   35.11378673
_symmetry_Int_Tables_number   1
_chemical_formula_structural   YZr2Mn(Al3Cu)2
_chemical_formula_sum   'Y1 Zr2 Mn1 Al6 Cu2'
_cell_volume   202.29341377
_cell_formula_units_Z   1
loop_
 _symmetry_equiv_pos_site_id
 _symmetry_equiv_pos_as_xyz
  1  'x, y, z'
loop_
 _atom_site_type_symbol
 _atom_site_label
 _atom_site_symmetry_multiplicity
 _atom_site_fract_x
 _atom_site_fract_y
 _atom_site_fract_z
 _atom_site_occupancy
  Y  Y0  1  0.000000  0.000000  0.000000  1
  Zr  Zr1  1  0.855696  0.855696  0.855696  1
  Zr  Zr2  1  0.144304  0.144304  0.144304  1
  Mn  Mn3  1  0.500000  0.500000  0.500000  1
  Al  Al4  1  0.415014  0.415014  0.915600  1
  Al  Al5  1  0.915600  0.415014  0.415014  1
  Al  Al6  1  0.415014  0.915600  0.415014  1
  Al  Al7  1  0.584986  0.084400  0.584986  1
  Al  Al8  1  0.084400  0.584986  0.584986  1
  Al  Al9  1  0.584986  0.584986  0.084400  1
  Cu  Cu10  1  0.666952  0.666952  0.666952  1
  Cu  Cu11  1  0.333048  0.333048  0.333048  1
