# generated using pymatgen
data_Sc12Fe2IrPb2
_symmetry_space_group_name_H-M   'P 1'
_cell_length_a   7.86320569
_cell_length_b   7.86320438
_cell_length_c   7.86320484
_cell_angle_alpha   108.38061377
_cell_angle_beta   108.38060952
_cell_angle_gamma   111.67517307
_symmetry_Int_Tables_number   1
_chemical_formula_structural   Sc12Fe2IrPb2
_chemical_formula_sum   'Sc12 Fe2 Ir1 Pb2'
_cell_volume   373.84590308
_cell_formula_units_Z   1
loop_
 _symmetry_equiv_pos_site_id
 _symmetry_equiv_pos_as_xyz
  1  'x, y, z'
loop_
 _atom_site_type_symbol
 _atom_site_label
 _atom_site_symmetry_multiplicity
 _atom_site_fract_x
 _atom_site_fract_y
 _atom_site_fract_z
 _atom_site_occupancy
  Sc  Sc0  1  0.305764  0.305764  0.611528  1
  Sc  Sc1  1  0.694236  0.694236  0.388472  1
  Sc  Sc2  1  0.305764  0.694236  0.000000  1
  Sc  Sc3  1  0.694236  0.305764  0.000000  1
  Sc  Sc4  1  0.433943  0.199043  0.234901  1
  Sc  Sc5  1  0.566057  0.800957  0.765099  1
  Sc  Sc6  1  0.964142  0.199043  0.765099  1
  Sc  Sc7  1  0.199043  0.964142  0.765099  1
  Sc  Sc8  1  0.035858  0.800957  0.234901  1
  Sc  Sc9  1  0.800957  0.035858  0.234901  1
  Sc  Sc10  1  0.199043  0.433943  0.234901  1
  Sc  Sc11  1  0.800957  0.566057  0.765099  1
  Fe  Fe12  1  0.378009  0.378009  0.000000  1
  Fe  Fe13  1  0.621991  0.621991  0.000000  1
  Ir  Ir14  1  0.000000  0.000000  0.000000  1
  Pb  Pb15  1  0.500000  0.000000  0.500000  1
  Pb  Pb16  1  0.000000  0.500000  0.500000  1
