# generated using pymatgen
data_Ce(Th2Ru)3
_symmetry_space_group_name_H-M   'P 1'
_cell_length_a   9.94543100
_cell_length_b   9.94477782
_cell_length_c   6.24584925
_cell_angle_alpha   89.97129148
_cell_angle_beta   90.00000000
_cell_angle_gamma   120.00217606
_symmetry_Int_Tables_number   1
_chemical_formula_structural   Ce(Th2Ru)3
_chemical_formula_sum   'Ce2 Th12 Ru6'
_cell_volume   534.97221580
_cell_formula_units_Z   2
loop_
 _symmetry_equiv_pos_site_id
 _symmetry_equiv_pos_as_xyz
  1  'x, y, z'
loop_
 _atom_site_type_symbol
 _atom_site_label
 _atom_site_symmetry_multiplicity
 _atom_site_fract_x
 _atom_site_fract_y
 _atom_site_fract_z
 _atom_site_occupancy
  Ce  Ce0  1  0.460044  0.539452  0.302411  1
  Ce  Ce1  1  0.079408  0.539452  0.302411  1
  Th  Th2  1  0.922173  0.461213  0.799046  1
  Th  Th3  1  0.252400  0.126311  0.506226  1
  Th  Th4  1  0.540769  0.081538  0.795032  1
  Th  Th5  1  0.747646  0.873436  0.006873  1
  Th  Th6  1  0.667169  0.334337  0.289320  1
  Th  Th7  1  0.125791  0.873436  0.006873  1
  Th  Th8  1  0.459087  0.918174  0.295999  1
  Th  Th9  1  0.539040  0.461213  0.799046  1
  Th  Th10  1  0.873910  0.126311  0.506226  1
  Th  Th11  1  0.126878  0.253756  0.009276  1
  Th  Th12  1  0.874518  0.749037  0.504885  1
  Th  Th13  1  0.333598  0.667198  0.794760  1
  Ru  Ru14  1  0.813996  0.627992  0.044666  1
  Ru  Ru15  1  0.813494  0.185607  0.044960  1
  Ru  Ru16  1  0.626782  0.811403  0.544975  1
  Ru  Ru17  1  0.372112  0.185607  0.044960  1
  Ru  Ru18  1  0.186564  0.373127  0.541075  1
  Ru  Ru19  1  0.184622  0.811403  0.544975  1
