# generated using pymatgen
data_Tm6Sc4In5Pb
_symmetry_space_group_name_H-M   'P 1'
_cell_length_a   6.24035300
_cell_length_b   8.83974772
_cell_length_c   8.80441449
_cell_angle_alpha   120.13283762
_cell_angle_beta   89.99774918
_cell_angle_gamma   90.00449447
_symmetry_Int_Tables_number   1
_chemical_formula_structural   Tm6Sc4In5Pb
_chemical_formula_sum   'Tm6 Sc4 In5 Pb1'
_cell_volume   420.04638501
_cell_formula_units_Z   1
loop_
 _symmetry_equiv_pos_site_id
 _symmetry_equiv_pos_as_xyz
  1  'x, y, z'
loop_
 _atom_site_type_symbol
 _atom_site_label
 _atom_site_symmetry_multiplicity
 _atom_site_fract_x
 _atom_site_fract_y
 _atom_site_fract_z
 _atom_site_occupancy
  Tm  Tm0  1  0.749971  0.233292  0.000000  1
  Tm  Tm1  1  0.750046  0.765981  0.764572  1
  Tm  Tm2  1  0.750046  0.001409  0.235428  1
  Tm  Tm3  1  0.250029  0.764586  0.000000  1
  Tm  Tm4  1  0.249929  0.234729  0.232906  1
  Tm  Tm5  1  0.249929  0.001823  0.767094  1
  Sc  Sc6  1  0.497600  0.332151  0.665709  1
  Sc  Sc7  1  0.497600  0.666441  0.334291  1
  Sc  Sc8  1  0.002395  0.666453  0.334190  1
  Sc  Sc9  1  0.002395  0.332264  0.665810  1
  In  In10  1  0.749989  0.408149  0.408238  1
  In  In11  1  0.749989  0.999912  0.591762  1
  In  In12  1  0.249995  0.404615  0.000000  1
  In  In13  1  0.250067  0.592298  0.592584  1
  In  In14  1  0.250067  0.999713  0.407416  1
  Pb  Pb15  1  0.749952  0.596185  0.000000  1
