# generated using pymatgen
data_Tb3ThCd2CuPd3
_symmetry_space_group_name_H-M   'P 1'
_cell_length_a   3.76772900
_cell_length_b   7.74732845
_cell_length_c   7.74732752
_cell_angle_alpha   90.98724887
_cell_angle_beta   90.00000000
_cell_angle_gamma   90.00000000
_symmetry_Int_Tables_number   1
_chemical_formula_structural   Tb3ThCd2CuPd3
_chemical_formula_sum   'Tb3 Th1 Cd2 Cu1 Pd3'
_cell_volume   226.10963462
_cell_formula_units_Z   1
loop_
 _symmetry_equiv_pos_site_id
 _symmetry_equiv_pos_as_xyz
  1  'x, y, z'
loop_
 _atom_site_type_symbol
 _atom_site_label
 _atom_site_symmetry_multiplicity
 _atom_site_fract_x
 _atom_site_fract_y
 _atom_site_fract_z
 _atom_site_occupancy
  Tb  Tb0  1  0.500000  0.825818  0.325818  1
  Tb  Tb1  1  0.500000  0.328353  0.172353  1
  Tb  Tb2  1  0.500000  0.672353  0.828353  1
  Th  Th3  1  0.500000  0.172262  0.672262  1
  Cd  Cd4  1  0.000000  0.993904  0.006795  1
  Cd  Cd5  1  0.000000  0.506795  0.493904  1
  Cu  Cu6  1  0.000000  0.622290  0.122290  1
  Pd  Pd7  1  0.000000  0.374757  0.874757  1
  Pd  Pd8  1  0.000000  0.873909  0.629558  1
  Pd  Pd9  1  0.000000  0.129558  0.373909  1
