# generated using pymatgen
data_Y12AlIn(CoOs)2
_symmetry_space_group_name_H-M   'P 1'
_cell_length_a   8.43117050
_cell_length_b   8.43117015
_cell_length_c   8.43117107
_cell_angle_alpha   112.80353194
_cell_angle_beta   110.48277012
_cell_angle_gamma   105.21857084
_symmetry_Int_Tables_number   1
_chemical_formula_structural   Y12AlIn(CoOs)2
_chemical_formula_sum   'Y12 Al1 In1 Co2 Os2'
_cell_volume   459.26985217
_cell_formula_units_Z   1
loop_
 _symmetry_equiv_pos_site_id
 _symmetry_equiv_pos_as_xyz
  1  'x, y, z'
loop_
 _atom_site_type_symbol
 _atom_site_label
 _atom_site_symmetry_multiplicity
 _atom_site_fract_x
 _atom_site_fract_y
 _atom_site_fract_z
 _atom_site_occupancy
  Y  Y0  1  0.434708  0.240718  0.193990  1
  Y  Y1  1  0.565292  0.759282  0.806010  1
  Y  Y2  1  0.046728  0.240718  0.806010  1
  Y  Y3  1  0.953272  0.759282  0.193990  1
  Y  Y4  1  0.181063  0.280762  0.461825  1
  Y  Y5  1  0.818937  0.719238  0.538175  1
  Y  Y6  1  0.181063  0.719238  0.900301  1
  Y  Y7  1  0.818937  0.280762  0.099699  1
  Y  Y8  1  0.323799  0.640973  0.317176  1
  Y  Y9  1  0.676201  0.359027  0.682824  1
  Y  Y10  1  0.323799  0.006624  0.682824  1
  Y  Y11  1  0.676201  0.993376  0.317176  1
  Al  Al12  1  0.000000  0.000000  0.000000  1
  In  In13  1  0.500000  0.500000  0.000000  1
  Co  Co14  1  0.110741  0.610741  0.500000  1
  Co  Co15  1  0.889259  0.389259  0.500000  1
  Os  Os16  1  0.326081  0.000000  0.326081  1
  Os  Os17  1  0.673919  0.000000  0.673919  1
