# generated using pymatgen
data_Zr5SiBiPb2
_symmetry_space_group_name_H-M   'P 1'
_cell_length_a   8.83192905
_cell_length_b   8.83347683
_cell_length_c   5.95523400
_cell_angle_alpha   90.00000000
_cell_angle_beta   90.00000000
_cell_angle_gamma   120.00580407
_symmetry_Int_Tables_number   1
_chemical_formula_structural   Zr5SiBiPb2
_chemical_formula_sum   'Zr10 Si2 Bi2 Pb4'
_cell_volume   402.33823389
_cell_formula_units_Z   2
loop_
 _symmetry_equiv_pos_site_id
 _symmetry_equiv_pos_as_xyz
  1  'x, y, z'
loop_
 _atom_site_type_symbol
 _atom_site_label
 _atom_site_symmetry_multiplicity
 _atom_site_fract_x
 _atom_site_fract_y
 _atom_site_fract_z
 _atom_site_occupancy
  Zr  Zr0  1  0.665696  0.332918  0.498603  1
  Zr  Zr1  1  0.334304  0.667223  0.498603  1
  Zr  Zr2  1  0.334304  0.667223  0.001397  1
  Zr  Zr3  1  0.665696  0.332918  0.001397  1
  Zr  Zr4  1  0.744461  0.743837  0.250000  1
  Zr  Zr5  1  0.255539  0.999376  0.250000  1
  Zr  Zr6  1  0.000000  0.254848  0.250000  1
  Zr  Zr7  1  0.254736  0.253922  0.750000  1
  Zr  Zr8  1  0.745264  0.999186  0.750000  1
  Zr  Zr9  1  0.000000  0.746933  0.750000  1
  Si  Si10  1  0.000000  0.999689  0.498658  1
  Si  Si11  1  0.000000  0.999689  0.001342  1
  Bi  Bi12  1  0.394936  0.394651  0.250000  1
  Bi  Bi13  1  0.605064  0.999715  0.250000  1
  Pb  Pb14  1  0.000000  0.605788  0.250000  1
  Pb  Pb15  1  0.607012  0.606880  0.750000  1
  Pb  Pb16  1  0.392988  0.999868  0.750000  1
  Pb  Pb17  1  0.000000  0.395332  0.750000  1
