# generated using pymatgen
data_Dy3Tm5Cd2OsPt
_symmetry_space_group_name_H-M   'P 1'
_cell_length_a   9.58984583
_cell_length_b   9.58984496
_cell_length_c   9.64903600
_cell_angle_alpha   59.79560540
_cell_angle_beta   59.79560840
_cell_angle_gamma   59.64224054
_symmetry_Int_Tables_number   1
_chemical_formula_structural   Dy3Tm5Cd2OsPt
_chemical_formula_sum   'Dy6 Tm10 Cd4 Os2 Pt2'
_cell_volume   623.82497577
_cell_formula_units_Z   2
loop_
 _symmetry_equiv_pos_site_id
 _symmetry_equiv_pos_as_xyz
  1  'x, y, z'
loop_
 _atom_site_type_symbol
 _atom_site_label
 _atom_site_symmetry_multiplicity
 _atom_site_fract_x
 _atom_site_fract_y
 _atom_site_fract_z
 _atom_site_occupancy
  Dy  Dy0  1  0.938761  0.556234  0.566016  1
  Dy  Dy1  1  0.556234  0.938761  0.938989  1
  Dy  Dy2  1  0.556234  0.938761  0.566016  1
  Dy  Dy3  1  0.938761  0.556233  0.938989  1
  Dy  Dy4  1  0.563388  0.563388  0.936612  1
  Dy  Dy5  1  0.940814  0.940814  0.559185  1
  Tm  Tm6  1  0.349671  0.349671  0.351578  1
  Tm  Tm7  1  0.349671  0.349671  0.949081  1
  Tm  Tm8  1  0.346469  0.954726  0.349403  1
  Tm  Tm9  1  0.954726  0.346469  0.349403  1
  Tm  Tm10  1  0.814957  0.187395  0.190025  1
  Tm  Tm11  1  0.187395  0.814957  0.807624  1
  Tm  Tm12  1  0.187395  0.814957  0.190025  1
  Tm  Tm13  1  0.814957  0.187395  0.807624  1
  Tm  Tm14  1  0.187783  0.187783  0.812217  1
  Tm  Tm15  1  0.809027  0.809027  0.190973  1
  Cd  Cd16  1  0.579949  0.579949  0.581462  1
  Cd  Cd17  1  0.579949  0.579949  0.258639  1
  Cd  Cd18  1  0.580838  0.255782  0.581690  1
  Cd  Cd19  1  0.255782  0.580838  0.581690  1
  Os  Os20  1  0.144154  0.144154  0.138055  1
  Os  Os21  1  0.144154  0.144154  0.573639  1
  Pt  Pt22  1  0.144052  0.574880  0.140535  1
  Pt  Pt23  1  0.574880  0.144052  0.140535  1
