# generated using pymatgen
data_DyY5Co16(ReP6)2
_symmetry_space_group_name_H-M   'P 1'
_cell_length_a   3.72755500
_cell_length_b   10.51763318
_cell_length_c   12.22487521
_cell_angle_alpha   89.97898767
_cell_angle_beta   90.00000000
_cell_angle_gamma   90.00000000
_symmetry_Int_Tables_number   1
_chemical_formula_structural   DyY5Co16(ReP6)2
_chemical_formula_sum   'Dy1 Y5 Co16 Re2 P12'
_cell_volume   479.27688646
_cell_formula_units_Z   1
loop_
 _symmetry_equiv_pos_site_id
 _symmetry_equiv_pos_as_xyz
  1  'x, y, z'
loop_
 _atom_site_type_symbol
 _atom_site_label
 _atom_site_symmetry_multiplicity
 _atom_site_fract_x
 _atom_site_fract_y
 _atom_site_fract_z
 _atom_site_occupancy
  Dy  Dy0  1  0.000000  0.318221  0.794230  1
  Y  Y1  1  0.000000  0.499914  0.524370  1
  Y  Y2  1  0.500000  0.000067  0.475487  1
  Y  Y3  1  0.500000  0.818114  0.205747  1
  Y  Y4  1  0.500000  0.181918  0.205812  1
  Y  Y5  1  0.000000  0.681868  0.794332  1
  Co  Co6  1  0.500000  0.499723  0.702183  1
  Co  Co7  1  0.000000  0.000013  0.297918  1
  Co  Co8  1  0.000000  0.499937  0.987991  1
  Co  Co9  1  0.500000  0.000027  0.011887  1
  Co  Co10  1  0.500000  0.332465  0.989705  1
  Co  Co11  1  0.500000  0.667499  0.989727  1
  Co  Co12  1  0.000000  0.167578  0.010149  1
  Co  Co13  1  0.000000  0.832488  0.010233  1
  Co  Co14  1  0.500000  0.296715  0.431115  1
  Co  Co15  1  0.500000  0.703305  0.431083  1
  Co  Co16  1  0.000000  0.203422  0.568982  1
  Co  Co17  1  0.000000  0.796676  0.568919  1
  Co  Co18  1  0.500000  0.879359  0.708542  1
  Co  Co19  1  0.500000  0.120780  0.708628  1
  Co  Co20  1  0.000000  0.620594  0.291469  1
  Co  Co21  1  0.000000  0.379379  0.291477  1
  Re  Re22  1  0.500000  0.499957  0.156092  1
  Re  Re23  1  0.000000  0.000014  0.843906  1
  P  P24  1  0.500000  0.499834  0.880172  1
  P  P25  1  0.000000  0.000017  0.119773  1
  P  P26  1  0.500000  0.499976  0.348844  1
  P  P27  1  0.000000  0.999992  0.651144  1
  P  P28  1  0.500000  0.311495  0.616107  1
  P  P29  1  0.500000  0.688380  0.616001  1
  P  P30  1  0.000000  0.188467  0.384068  1
  P  P31  1  0.000000  0.811552  0.384006  1
  P  P32  1  0.500000  0.846088  0.892491  1
  P  P33  1  0.500000  0.154173  0.892441  1
  P  P34  1  0.000000  0.653966  0.107471  1
  P  P35  1  0.000000  0.346026  0.107498  1
