# generated using pymatgen
data_K6YCdF12
_symmetry_space_group_name_H-M   'P 1'
_cell_length_a   6.64834090
_cell_length_b   6.39959182
_cell_length_c   11.16639100
_cell_angle_alpha   55.30779219
_cell_angle_beta   89.71387932
_cell_angle_gamma   90.10285499
_symmetry_Int_Tables_number   1
_chemical_formula_structural   K6YCdF12
_chemical_formula_sum   'K6 Y1 Cd1 F12'
_cell_volume   390.62035225
_cell_formula_units_Z   1
loop_
 _symmetry_equiv_pos_site_id
 _symmetry_equiv_pos_as_xyz
  1  'x, y, z'
loop_
 _atom_site_type_symbol
 _atom_site_label
 _atom_site_symmetry_multiplicity
 _atom_site_fract_x
 _atom_site_fract_y
 _atom_site_fract_z
 _atom_site_occupancy
  K  K0  1  0.500000  0.500000  0.000000  1
  K  K1  1  0.000000  0.500000  0.500000  1
  K  K2  1  0.053945  0.738784  0.746823  1
  K  K3  1  0.946055  0.261216  0.253177  1
  K  K4  1  0.550201  0.277560  0.738011  1
  K  K5  1  0.449799  0.722440  0.261989  1
  Y  Y6  1  0.000000  0.000000  0.000000  1
  Cd  Cd7  1  0.500000  0.000000  0.500000  1
  F  F8  1  0.769165  0.758771  0.565585  1
  F  F9  1  0.230835  0.241229  0.434415  1
  F  F10  1  0.273857  0.239081  0.925579  1
  F  F11  1  0.726143  0.760919  0.074421  1
  F  F12  1  0.442891  0.888243  0.722487  1
  F  F13  1  0.557109  0.111757  0.277513  1
  F  F14  1  0.942003  0.109629  0.776815  1
  F  F15  1  0.057997  0.890371  0.223185  1
  F  F16  1  0.320410  0.673497  0.549350  1
  F  F17  1  0.679590  0.326503  0.450650  1
  F  F18  1  0.827575  0.334176  0.947857  1
  F  F19  1  0.172425  0.665824  0.052143  1
