# generated using pymatgen
data_Ho3Lu2TlPb2
_symmetry_space_group_name_H-M   'P 1'
_cell_length_a   6.56894001
_cell_length_b   8.94326302
_cell_length_c   8.95305600
_cell_angle_alpha   120.04500659
_cell_angle_beta   89.99750544
_cell_angle_gamma   90.00688677
_symmetry_Int_Tables_number   1
_chemical_formula_structural   Ho3Lu2TlPb2
_chemical_formula_sum   'Ho6 Lu4 Tl2 Pb4'
_cell_volume   455.29836412
_cell_formula_units_Z   2
loop_
 _symmetry_equiv_pos_site_id
 _symmetry_equiv_pos_as_xyz
  1  'x, y, z'
loop_
 _atom_site_type_symbol
 _atom_site_label
 _atom_site_symmetry_multiplicity
 _atom_site_fract_x
 _atom_site_fract_y
 _atom_site_fract_z
 _atom_site_occupancy
  Ho  Ho0  1  0.749984  0.240360  0.005323  1
  Ho  Ho1  1  0.750053  0.759915  0.765075  1
  Ho  Ho2  1  0.750048  0.000108  0.236166  1
  Ho  Ho3  1  0.250102  0.763743  0.999214  1
  Ho  Ho4  1  0.250041  0.236207  0.235422  1
  Ho  Ho5  1  0.250016  0.999945  0.763125  1
  Lu  Lu6  1  0.504048  0.337135  0.666986  1
  Lu  Lu7  1  0.504061  0.662932  0.329840  1
  Lu  Lu8  1  0.995852  0.662947  0.329969  1
  Lu  Lu9  1  0.995848  0.337149  0.666919  1
  Tl  Tl10  1  0.749976  0.602907  0.001343  1
  Tl  Tl11  1  0.749847  0.397252  0.398651  1
  Pb  Pb12  1  0.750070  0.999792  0.605888  1
  Pb  Pb13  1  0.249793  0.396849  0.997795  1
  Pb  Pb14  1  0.250051  0.602988  0.600790  1
  Pb  Pb15  1  0.250209  0.999770  0.397496  1
