# generated using pymatgen
data_Dy10YIn9Co4
_symmetry_space_group_name_H-M   'P 1'
_cell_length_a   12.91884674
_cell_length_b   12.91884341
_cell_length_c   3.64837000
_cell_angle_alpha   90.00000000
_cell_angle_beta   90.00000000
_cell_angle_gamma   111.01830703
_symmetry_Int_Tables_number   1
_chemical_formula_structural   Dy10YIn9Co4
_chemical_formula_sum   'Dy10 Y1 In9 Co4'
_cell_volume   568.38774004
_cell_formula_units_Z   1
loop_
 _symmetry_equiv_pos_site_id
 _symmetry_equiv_pos_as_xyz
  1  'x, y, z'
loop_
 _atom_site_type_symbol
 _atom_site_label
 _atom_site_symmetry_multiplicity
 _atom_site_fract_x
 _atom_site_fract_y
 _atom_site_fract_z
 _atom_site_occupancy
  Dy  Dy0  1  0.081714  0.418910  0.000000  1
  Dy  Dy1  1  0.918286  0.581090  0.000000  1
  Dy  Dy2  1  0.418911  0.081714  0.000000  1
  Dy  Dy3  1  0.581089  0.918286  0.000000  1
  Dy  Dy4  1  0.623755  0.376245  0.000000  1
  Dy  Dy5  1  0.376245  0.623755  0.000000  1
  Dy  Dy6  1  0.837920  0.162081  0.000000  1
  Dy  Dy7  1  0.162080  0.837919  0.000000  1
  Dy  Dy8  1  0.314890  0.314889  0.000000  1
  Dy  Dy9  1  0.685110  0.685111  0.000000  1
  Y  Y10  1  0.000000  0.000000  0.000000  1
  In  In11  1  0.839095  0.370269  0.500000  1
  In  In12  1  0.160905  0.629731  0.500000  1
  In  In13  1  0.370269  0.839095  0.500000  1
  In  In14  1  0.629731  0.160905  0.500000  1
  In  In15  1  0.078905  0.221014  0.500000  1
  In  In16  1  0.921095  0.778986  0.500000  1
  In  In17  1  0.221013  0.078905  0.500000  1
  In  In18  1  0.778987  0.921095  0.500000  1
  In  In19  1  0.500000  0.500000  0.500000  1
  Co  Co20  1  0.246443  0.448611  0.500000  1
  Co  Co21  1  0.753557  0.551389  0.500000  1
  Co  Co22  1  0.448611  0.246444  0.500000  1
  Co  Co23  1  0.551389  0.753556  0.500000  1
