# generated using pymatgen
data_CeDy2Ho5(AlRu)8
_symmetry_space_group_name_H-M   'P 1'
_cell_length_a   4.08501600
_cell_length_b   7.01550622
_cell_length_c   15.96332822
_cell_angle_alpha   90.52746405
_cell_angle_beta   90.00000000
_cell_angle_gamma   90.00000000
_symmetry_Int_Tables_number   1
_chemical_formula_structural   CeDy2Ho5(AlRu)8
_chemical_formula_sum   'Ce1 Dy2 Ho5 Al8 Ru8'
_cell_volume   457.46494015
_cell_formula_units_Z   1
loop_
 _symmetry_equiv_pos_site_id
 _symmetry_equiv_pos_as_xyz
  1  'x, y, z'
loop_
 _atom_site_type_symbol
 _atom_site_label
 _atom_site_symmetry_multiplicity
 _atom_site_fract_x
 _atom_site_fract_y
 _atom_site_fract_z
 _atom_site_occupancy
  Ce  Ce0  1  0.250000  0.536849  0.719207  1
  Dy  Dy1  1  0.250000  0.161442  0.561043  1
  Dy  Dy2  1  0.250000  0.658964  0.938191  1
  Ho  Ho3  1  0.750000  0.963847  0.219139  1
  Ho  Ho4  1  0.750000  0.841136  0.436682  1
  Ho  Ho5  1  0.750000  0.463862  0.281262  1
  Ho  Ho6  1  0.750000  0.339051  0.064130  1
  Ho  Ho7  1  0.250000  0.037758  0.781508  1
  Al  Al8  1  0.750000  0.505235  0.562264  1
  Al  Al9  1  0.750000  0.360135  0.852542  1
  Al  Al10  1  0.750000  0.996274  0.935127  1
  Al  Al11  1  0.750000  0.873469  0.649945  1
  Al  Al12  1  0.250000  0.501379  0.433985  1
  Al  Al13  1  0.250000  0.996513  0.066372  1
  Al  Al14  1  0.250000  0.633166  0.151233  1
  Al  Al15  1  0.250000  0.134116  0.348852  1
  Ru  Ru16  1  0.750000  0.736984  0.807289  1
  Ru  Ru17  1  0.250000  0.229898  0.937628  1
  Ru  Ru18  1  0.750000  0.264178  0.435811  1
  Ru  Ru19  1  0.250000  0.754227  0.312281  1
  Ru  Ru20  1  0.750000  0.761942  0.064284  1
  Ru  Ru21  1  0.750000  0.260163  0.687050  1
  Ru  Ru22  1  0.250000  0.252806  0.187479  1
  Ru  Ru23  1  0.250000  0.736605  0.566698  1
