# generated using pymatgen
data_CdBiIr4(PbO7)2
_symmetry_space_group_name_H-M   'P 1'
_cell_length_a   7.27657386
_cell_length_b   7.38680839
_cell_length_c   7.36288400
_cell_angle_alpha   60.10707198
_cell_angle_beta   59.60683801
_cell_angle_gamma   59.73932373
_symmetry_Int_Tables_number   1
_chemical_formula_structural   CdBiIr4(PbO7)2
_chemical_formula_sum   'Cd1 Bi1 Ir4 Pb2 O14'
_cell_volume   278.67529353
_cell_formula_units_Z   1
loop_
 _symmetry_equiv_pos_site_id
 _symmetry_equiv_pos_as_xyz
  1  'x, y, z'
loop_
 _atom_site_type_symbol
 _atom_site_label
 _atom_site_symmetry_multiplicity
 _atom_site_fract_x
 _atom_site_fract_y
 _atom_site_fract_z
 _atom_site_occupancy
  Cd  Cd0  1  0.625000  0.125000  0.125000  1
  Bi  Bi1  1  0.125000  0.625000  0.125000  1
  Ir  Ir2  1  0.125000  0.625000  0.625000  1
  Ir  Ir3  1  0.625000  0.125000  0.625000  1
  Ir  Ir4  1  0.625000  0.625000  0.125000  1
  Ir  Ir5  1  0.625000  0.625000  0.625000  1
  Pb  Pb6  1  0.125000  0.125000  0.625000  1
  Pb  Pb7  1  0.125000  0.125000  0.125000  1
  O  O8  1  0.707472  0.694930  0.298799  1
  O  O9  1  0.292755  0.297153  0.705046  1
  O  O10  1  0.707240  0.300132  0.692690  1
  O  O11  1  0.293262  0.704448  0.296669  1
  O  O12  1  0.293262  0.704448  0.705621  1
  O  O13  1  0.707240  0.300132  0.299939  1
  O  O14  1  0.542528  0.555070  0.951201  1
  O  O15  1  0.957245  0.952847  0.544954  1
  O  O16  1  0.542760  0.949868  0.557310  1
  O  O17  1  0.956738  0.545552  0.953331  1
  O  O18  1  0.956738  0.545552  0.544379  1
  O  O19  1  0.542760  0.949868  0.950061  1
  O  O20  1  0.266673  0.249550  0.241889  1
  O  O21  1  0.983327  0.000450  0.008111  1
