# generated using pymatgen
data_Li3Zn3(SbPt)4
_symmetry_space_group_name_H-M   'P 1'
_cell_length_a   4.35588200
_cell_length_b   4.35588196
_cell_length_c   15.75791500
_cell_angle_alpha   90.00000000
_cell_angle_beta   90.00000000
_cell_angle_gamma   119.99998511
_symmetry_Int_Tables_number   1
_chemical_formula_structural   Li3Zn3(SbPt)4
_chemical_formula_sum   'Li3 Zn3 Sb4 Pt4'
_cell_volume   258.92957533
_cell_formula_units_Z   1
loop_
 _symmetry_equiv_pos_site_id
 _symmetry_equiv_pos_as_xyz
  1  'x, y, z'
loop_
 _atom_site_type_symbol
 _atom_site_label
 _atom_site_symmetry_multiplicity
 _atom_site_fract_x
 _atom_site_fract_y
 _atom_site_fract_z
 _atom_site_occupancy
  Li  Li0  1  0.000000  0.000000  0.165895  1
  Li  Li1  1  0.000000  0.000000  0.832760  1
  Li  Li2  1  0.000000  0.000000  0.668398  1
  Zn  Zn3  1  0.000000  0.000000  0.325310  1
  Zn  Zn4  1  0.333333  0.666667  0.750364  1
  Zn  Zn5  1  0.666667  0.333333  0.247188  1
  Sb  Sb6  1  0.333333  0.666667  0.077558  1
  Sb  Sb7  1  0.666667  0.333333  0.923005  1
  Sb  Sb8  1  0.666667  0.333333  0.579041  1
  Sb  Sb9  1  0.333333  0.666667  0.427178  1
  Pt  Pt10  1  0.000000  0.000000  0.000286  1
  Pt  Pt11  1  0.000000  0.000000  0.499777  1
  Pt  Pt12  1  0.333333  0.666667  0.252430  1
  Pt  Pt13  1  0.666667  0.333333  0.750811  1
