# generated using pymatgen
data_TbDy(AuCl6)2
_symmetry_space_group_name_H-M   'P 1'
_cell_length_a   7.90885237
_cell_length_b   9.94459216
_cell_length_c   14.09837471
_cell_angle_alpha   103.09171353
_cell_angle_beta   97.38073569
_cell_angle_gamma   112.83728992
_symmetry_Int_Tables_number   1
_chemical_formula_structural   TbDy(AuCl6)2
_chemical_formula_sum   'Tb2 Dy2 Au4 Cl24'
_cell_volume   966.01044493
_cell_formula_units_Z   2
loop_
 _symmetry_equiv_pos_site_id
 _symmetry_equiv_pos_as_xyz
  1  'x, y, z'
loop_
 _atom_site_type_symbol
 _atom_site_label
 _atom_site_symmetry_multiplicity
 _atom_site_fract_x
 _atom_site_fract_y
 _atom_site_fract_z
 _atom_site_occupancy
  Tb  Tb0  1  0.420906  0.072182  0.377642  1
  Tb  Tb1  1  0.969128  0.314287  0.871855  1
  Dy  Dy2  1  0.578880  0.927572  0.622397  1
  Dy  Dy3  1  0.030722  0.685594  0.128089  1
  Au  Au4  1  0.290463  0.634094  0.763607  1
  Au  Au5  1  0.500057  0.500212  0.500102  1
  Au  Au6  1  0.709861  0.366169  0.236121  1
  Au  Au7  1  0.999998  0.999792  0.000173  1
  Cl  Cl8  1  0.786092  0.103254  0.973981  1
  Cl  Cl9  1  0.718779  0.148785  0.265328  1
  Cl  Cl10  1  0.282007  0.851512  0.734432  1
  Cl  Cl11  1  0.776010  0.788319  0.028560  1
  Cl  Cl12  1  0.621237  0.192708  0.743463  1
  Cl  Cl13  1  0.297549  0.412679  0.788245  1
  Cl  Cl14  1  0.703440  0.587757  0.211615  1
  Cl  Cl15  1  0.309490  0.629125  0.499559  1
  Cl  Cl16  1  0.224224  0.211053  0.971522  1
  Cl  Cl17  1  0.754523  0.735164  0.529150  1
  Cl  Cl18  1  0.213289  0.895874  0.026477  1
  Cl  Cl19  1  0.718321  0.048047  0.484641  1
  Cl  Cl20  1  0.601046  0.733170  0.748411  1
  Cl  Cl21  1  0.937614  0.058452  0.732090  1
  Cl  Cl22  1  0.245179  0.265262  0.471065  1
  Cl  Cl23  1  0.377344  0.805995  0.255742  1
  Cl  Cl24  1  0.977778  0.537400  0.775480  1
  Cl  Cl25  1  0.771202  0.437004  0.978753  1
  Cl  Cl26  1  0.229118  0.564407  0.022053  1
  Cl  Cl27  1  0.022414  0.463429  0.224162  1
  Cl  Cl28  1  0.399121  0.267580  0.251208  1
  Cl  Cl29  1  0.281928  0.951247  0.516332  1
  Cl  Cl30  1  0.691560  0.372121  0.500879  1
  Cl  Cl31  1  0.060718  0.939754  0.266861  1
