# generated using pymatgen
data_Nd12PdRu2Rh
_symmetry_space_group_name_H-M   'P 1'
_cell_length_a   6.47921014
_cell_length_b   7.41933983
_cell_length_c   9.90086600
_cell_angle_alpha   90.00000000
_cell_angle_beta   90.00000000
_cell_angle_gamma   90.40990448
_symmetry_Int_Tables_number   1
_chemical_formula_structural   Nd12PdRu2Rh
_chemical_formula_sum   'Nd12 Pd1 Ru2 Rh1'
_cell_volume   475.93692203
_cell_formula_units_Z   1
loop_
 _symmetry_equiv_pos_site_id
 _symmetry_equiv_pos_as_xyz
  1  'x, y, z'
loop_
 _atom_site_type_symbol
 _atom_site_label
 _atom_site_symmetry_multiplicity
 _atom_site_fract_x
 _atom_site_fract_y
 _atom_site_fract_z
 _atom_site_occupancy
  Nd  Nd0  1  0.330587  0.676053  0.066960  1
  Nd  Nd1  1  0.170513  0.178693  0.431524  1
  Nd  Nd2  1  0.662804  0.327731  0.563683  1
  Nd  Nd3  1  0.829591  0.815818  0.936244  1
  Nd  Nd4  1  0.662804  0.327731  0.936317  1
  Nd  Nd5  1  0.829591  0.815818  0.563756  1
  Nd  Nd6  1  0.330587  0.676053  0.433040  1
  Nd  Nd7  1  0.170513  0.178693  0.068476  1
  Nd  Nd8  1  0.854142  0.534597  0.250000  1
  Nd  Nd9  1  0.643540  0.040329  0.250000  1
  Nd  Nd10  1  0.147958  0.472839  0.750000  1
  Nd  Nd11  1  0.365986  0.958226  0.750000  1
  Pd  Pd12  1  0.933373  0.115719  0.750000  1
  Ru  Ru13  1  0.440656  0.381118  0.250000  1
  Ru  Ru14  1  0.564280  0.618616  0.750000  1
  Rh  Rh15  1  0.063072  0.881964  0.250000  1
