# generated using pymatgen
data_Yb2Al20Fe3Co
_symmetry_space_group_name_H-M   'P 1'
_cell_length_a   6.77659841
_cell_length_b   6.77890497
_cell_length_c   8.95737163
_cell_angle_alpha   90.01495952
_cell_angle_beta   90.20959504
_cell_angle_gamma   97.32739526
_symmetry_Int_Tables_number   1
_chemical_formula_structural   Yb2Al20Fe3Co
_chemical_formula_sum   'Yb2 Al20 Fe3 Co1'
_cell_volume   408.11980549
_cell_formula_units_Z   1
loop_
 _symmetry_equiv_pos_site_id
 _symmetry_equiv_pos_as_xyz
  1  'x, y, z'
loop_
 _atom_site_type_symbol
 _atom_site_label
 _atom_site_symmetry_multiplicity
 _atom_site_fract_x
 _atom_site_fract_y
 _atom_site_fract_z
 _atom_site_occupancy
  Yb  Yb0  1  0.878061  0.123528  0.249988  1
  Yb  Yb1  1  0.121939  0.876472  0.750012  1
  Al  Al2  1  0.225794  0.227679  0.499423  1
  Al  Al3  1  0.773165  0.772808  0.999879  1
  Al  Al4  1  0.774206  0.772321  0.500577  1
  Al  Al5  1  0.226835  0.227192  0.000121  1
  Al  Al6  1  0.373788  0.624310  0.548240  1
  Al  Al7  1  0.626013  0.374011  0.047909  1
  Al  Al8  1  0.584692  0.866559  0.750584  1
  Al  Al9  1  0.415308  0.133441  0.249416  1
  Al  Al10  1  0.867082  0.583887  0.249891  1
  Al  Al11  1  0.132918  0.416113  0.750109  1
  Al  Al12  1  0.476443  0.221677  0.751221  1
  Al  Al13  1  0.523557  0.778323  0.248779  1
  Al  Al14  1  0.221022  0.476467  0.250826  1
  Al  Al15  1  0.778978  0.523533  0.749174  1
  Al  Al16  1  0.157359  0.841206  0.402963  1
  Al  Al17  1  0.841141  0.157871  0.904032  1
  Al  Al18  1  0.842641  0.158794  0.597037  1
  Al  Al19  1  0.158859  0.842129  0.095968  1
  Al  Al20  1  0.373987  0.625989  0.952091  1
  Al  Al21  1  0.626212  0.375690  0.451760  1
  Fe  Fe22  1  0.000000  0.500000  0.500000  1
  Fe  Fe23  1  0.000000  0.500000  0.000000  1
  Fe  Fe24  1  0.500000  0.000000  0.000000  1
  Co  Co25  1  0.500000  0.000000  0.500000  1
