# generated using pymatgen
data_Sm3Hg2Pb5
_symmetry_space_group_name_H-M   'P 1'
_cell_length_a   12.74117236
_cell_length_b   12.74117269
_cell_length_c   4.65356000
_cell_angle_alpha   90.00000000
_cell_angle_beta   90.00000000
_cell_angle_gamma   157.86916500
_symmetry_Int_Tables_number   1
_chemical_formula_structural   Sm3Hg2Pb5
_chemical_formula_sum   'Sm3 Hg2 Pb5'
_cell_volume   284.59421162
_cell_formula_units_Z   1
loop_
 _symmetry_equiv_pos_site_id
 _symmetry_equiv_pos_as_xyz
  1  'x, y, z'
loop_
 _atom_site_type_symbol
 _atom_site_label
 _atom_site_symmetry_multiplicity
 _atom_site_fract_x
 _atom_site_fract_y
 _atom_site_fract_z
 _atom_site_occupancy
  Sm  Sm0  1  0.000000  0.000000  0.000000  1
  Sm  Sm1  1  0.812248  0.187751  0.000000  1
  Sm  Sm2  1  0.187751  0.812248  0.000000  1
  Hg  Hg3  1  0.597186  0.402814  0.000000  1
  Hg  Hg4  1  0.402814  0.597186  0.000000  1
  Pb  Pb5  1  0.903864  0.096136  0.500000  1
  Pb  Pb6  1  0.704864  0.295136  0.500000  1
  Pb  Pb7  1  0.500000  0.500000  0.500000  1
  Pb  Pb8  1  0.295136  0.704864  0.500000  1
  Pb  Pb9  1  0.096136  0.903864  0.500000  1
