# generated using pymatgen
data_Hf10AlCuSn6
_symmetry_space_group_name_H-M   'P 1'
_cell_length_a   8.63112100
_cell_length_b   8.63112157
_cell_length_c   5.82978000
_cell_angle_alpha   90.00000000
_cell_angle_beta   90.00000000
_cell_angle_gamma   119.99999397
_symmetry_Int_Tables_number   1
_chemical_formula_structural   Hf10AlCuSn6
_chemical_formula_sum   'Hf10 Al1 Cu1 Sn6'
_cell_volume   376.11206324
_cell_formula_units_Z   1
loop_
 _symmetry_equiv_pos_site_id
 _symmetry_equiv_pos_as_xyz
  1  'x, y, z'
loop_
 _atom_site_type_symbol
 _atom_site_label
 _atom_site_symmetry_multiplicity
 _atom_site_fract_x
 _atom_site_fract_y
 _atom_site_fract_z
 _atom_site_occupancy
  Hf  Hf0  1  0.333333  0.666667  0.000000  1
  Hf  Hf1  1  0.666667  0.333333  0.500000  1
  Hf  Hf2  1  0.666667  0.333333  0.000000  1
  Hf  Hf3  1  0.333333  0.666667  0.500000  1
  Hf  Hf4  1  0.266424  0.000000  0.253562  1
  Hf  Hf5  1  0.266424  0.266424  0.746438  1
  Hf  Hf6  1  0.000000  0.733576  0.746438  1
  Hf  Hf7  1  0.000000  0.266424  0.253562  1
  Hf  Hf8  1  0.733576  0.733576  0.253562  1
  Hf  Hf9  1  0.733576  0.000000  0.746438  1
  Al  Al10  1  0.000000  0.000000  0.000000  1
  Cu  Cu11  1  0.000000  0.000000  0.500000  1
  Sn  Sn12  1  0.613460  0.000000  0.248996  1
  Sn  Sn13  1  0.613460  0.613460  0.751004  1
  Sn  Sn14  1  0.000000  0.386540  0.751004  1
  Sn  Sn15  1  0.000000  0.613460  0.248996  1
  Sn  Sn16  1  0.386540  0.386540  0.248996  1
  Sn  Sn17  1  0.386540  0.000000  0.751004  1
