# generated using pymatgen
data_Sr2Si7(Ir3Ru)3
_symmetry_space_group_name_H-M   'P 1'
_cell_length_a   9.73054400
_cell_length_b   9.73054401
_cell_length_c   3.98187500
_cell_angle_alpha   90.00000000
_cell_angle_beta   90.00000000
_cell_angle_gamma   120.00000361
_symmetry_Int_Tables_number   1
_chemical_formula_structural   Sr2Si7(Ir3Ru)3
_chemical_formula_sum   'Sr2 Si7 Ir9 Ru3'
_cell_volume   326.50698787
_cell_formula_units_Z   1
loop_
 _symmetry_equiv_pos_site_id
 _symmetry_equiv_pos_as_xyz
  1  'x, y, z'
loop_
 _atom_site_type_symbol
 _atom_site_label
 _atom_site_symmetry_multiplicity
 _atom_site_fract_x
 _atom_site_fract_y
 _atom_site_fract_z
 _atom_site_occupancy
  Sr  Sr0  1  0.333333  0.666667  0.738054  1
  Sr  Sr1  1  0.666667  0.333333  0.238542  1
  Si  Si2  1  0.000000  0.000000  0.737460  1
  Si  Si3  1  0.287357  0.894081  0.238270  1
  Si  Si4  1  0.606724  0.712643  0.238270  1
  Si  Si5  1  0.105919  0.393276  0.238270  1
  Si  Si6  1  0.702825  0.114474  0.738253  1
  Si  Si7  1  0.411649  0.297175  0.738253  1
  Si  Si8  1  0.885526  0.588351  0.738253  1
  Ir  Ir9  1  0.727288  0.884910  0.737674  1
  Ir  Ir10  1  0.157621  0.272712  0.737674  1
  Ir  Ir11  1  0.115090  0.842379  0.737674  1
  Ir  Ir12  1  0.049017  0.612106  0.238153  1
  Ir  Ir13  1  0.563090  0.950983  0.238153  1
  Ir  Ir14  1  0.387894  0.436910  0.238153  1
  Ir  Ir15  1  0.940599  0.368952  0.738106  1
  Ir  Ir16  1  0.428352  0.059401  0.738106  1
  Ir  Ir17  1  0.631048  0.571648  0.738106  1
  Ru  Ru18  1  0.209239  0.092383  0.238191  1
  Ru  Ru19  1  0.883145  0.790761  0.238191  1
  Ru  Ru20  1  0.907617  0.116855  0.238191  1
