# generated using pymatgen
data_AcThN2
_symmetry_space_group_name_H-M   'P 1'
_cell_length_a   6.61082471
_cell_length_b   6.61082430
_cell_length_c   6.61082513
_cell_angle_alpha   32.99549964
_cell_angle_beta   32.99550058
_cell_angle_gamma   32.99551207
_symmetry_Int_Tables_number   1
_chemical_formula_structural   AcThN2
_chemical_formula_sum   'Ac1 Th1 N2'
_cell_volume   76.24726379
_cell_formula_units_Z   1
loop_
 _symmetry_equiv_pos_site_id
 _symmetry_equiv_pos_as_xyz
  1  'x, y, z'
loop_
 _atom_site_type_symbol
 _atom_site_label
 _atom_site_symmetry_multiplicity
 _atom_site_fract_x
 _atom_site_fract_y
 _atom_site_fract_z
 _atom_site_occupancy
  Ac  Ac0  1  0.000000  0.000000  0.000000  1
  Th  Th1  1  0.500000  0.500000  0.500000  1
  N  N2  1  0.237257  0.237257  0.237257  1
  N  N3  1  0.762743  0.762743  0.762743  1
