# generated using pymatgen
data_ZrTi2(V2Sn3)2
_symmetry_space_group_name_H-M   'P 1'
_cell_length_a   9.36305500
_cell_length_b   5.54622894
_cell_length_c   5.49158119
_cell_angle_alpha   120.00623504
_cell_angle_beta   90.00000000
_cell_angle_gamma   90.00000000
_symmetry_Int_Tables_number   1
_chemical_formula_structural   ZrTi2(V2Sn3)2
_chemical_formula_sum   'Zr1 Ti2 V4 Sn6'
_cell_volume   246.95403039
_cell_formula_units_Z   1
loop_
 _symmetry_equiv_pos_site_id
 _symmetry_equiv_pos_as_xyz
  1  'x, y, z'
loop_
 _atom_site_type_symbol
 _atom_site_label
 _atom_site_symmetry_multiplicity
 _atom_site_fract_x
 _atom_site_fract_y
 _atom_site_fract_z
 _atom_site_occupancy
  Zr  Zr0  1  0.000000  0.000012  0.000009  1
  Ti  Ti1  1  0.246627  0.000008  0.500007  1
  Ti  Ti2  1  0.753373  0.000008  0.500007  1
  V  V3  1  0.247611  0.500006  0.000010  1
  V  V4  1  0.752389  0.500006  0.000010  1
  V  V5  1  0.247732  0.500006  0.500004  1
  V  V6  1  0.752268  0.500006  0.500004  1
  Sn  Sn7  1  0.320731  0.000003  0.000004  1
  Sn  Sn8  1  0.679269  0.000003  0.000004  1
  Sn  Sn9  1  0.000000  0.659606  0.330853  1
  Sn  Sn10  1  0.500000  0.663087  0.332275  1
  Sn  Sn11  1  0.000000  0.340410  0.669160  1
  Sn  Sn12  1  0.500000  0.336920  0.667733  1
