# generated using pymatgen
data_YTh3(Zn5Sn)2
_symmetry_space_group_name_H-M   'P 1'
_cell_length_a   8.53202849
_cell_length_b   8.53203061
_cell_length_c   9.04080777
_cell_angle_alpha   88.91137497
_cell_angle_beta   91.08862483
_cell_angle_gamma   149.52975706
_symmetry_Int_Tables_number   1
_chemical_formula_structural   YTh3(Zn5Sn)2
_chemical_formula_sum   'Y1 Th3 Zn10 Sn2'
_cell_volume   333.66715367
_cell_formula_units_Z   1
loop_
 _symmetry_equiv_pos_site_id
 _symmetry_equiv_pos_as_xyz
  1  'x, y, z'
loop_
 _atom_site_type_symbol
 _atom_site_label
 _atom_site_symmetry_multiplicity
 _atom_site_fract_x
 _atom_site_fract_y
 _atom_site_fract_z
 _atom_site_occupancy
  Y  Y0  1  0.000000  0.000000  0.000000  1
  Th  Th1  1  0.203712  0.796288  0.248649  1
  Th  Th2  1  0.796288  0.203712  0.751351  1
  Th  Th3  1  0.000000  0.000000  0.500000  1
  Zn  Zn4  1  0.814475  0.185525  0.395155  1
  Zn  Zn5  1  0.185525  0.814475  0.604845  1
  Zn  Zn6  1  0.817953  0.182047  0.110470  1
  Zn  Zn7  1  0.182047  0.817953  0.889530  1
  Zn  Zn8  1  0.656250  0.343750  0.479772  1
  Zn  Zn9  1  0.343750  0.656250  0.520228  1
  Zn  Zn10  1  0.657623  0.342377  0.015422  1
  Zn  Zn11  1  0.342377  0.657623  0.984578  1
  Zn  Zn12  1  0.393525  0.606475  0.255181  1
  Zn  Zn13  1  0.606475  0.393525  0.744819  1
  Sn  Sn14  1  0.553065  0.446935  0.243993  1
  Sn  Sn15  1  0.446935  0.553065  0.756007  1
