# generated using pymatgen
data_MgCd3P6N13
_symmetry_space_group_name_H-M   'P 1'
_cell_length_a   7.18400313
_cell_length_b   7.26100482
_cell_length_c   7.26100497
_cell_angle_alpha   109.68504502
_cell_angle_beta   109.25654309
_cell_angle_gamma   109.25654876
_symmetry_Int_Tables_number   1
_chemical_formula_structural   MgCd3P6N13
_chemical_formula_sum   'Mg1 Cd3 P6 N13'
_cell_volume   292.33566843
_cell_formula_units_Z   1
loop_
 _symmetry_equiv_pos_site_id
 _symmetry_equiv_pos_as_xyz
  1  'x, y, z'
loop_
 _atom_site_type_symbol
 _atom_site_label
 _atom_site_symmetry_multiplicity
 _atom_site_fract_x
 _atom_site_fract_y
 _atom_site_fract_z
 _atom_site_occupancy
  Mg  Mg0  1  0.681492  0.000000  0.000000  1
  Cd  Cd1  1  0.996274  0.000000  0.714558  1
  Cd  Cd2  1  0.996274  0.714558  0.000000  1
  Cd  Cd3  1  0.281716  0.285442  0.285442  1
  P  P4  1  0.255801  0.751856  0.502309  1
  P  P5  1  0.753492  0.249547  0.497691  1
  P  P6  1  0.753492  0.497691  0.249547  1
  P  P7  1  0.255801  0.502309  0.751856  1
  P  P8  1  0.503945  0.750453  0.248144  1
  P  P9  1  0.503945  0.248144  0.750453  1
  N  N10  1  0.965630  0.000000  0.000000  1
  N  N11  1  0.718493  0.273191  0.273191  1
  N  N12  1  0.282393  0.720572  0.279837  1
  N  N13  1  0.293690  0.565784  0.565784  1
  N  N14  1  0.561821  0.559264  0.279428  1
  N  N15  1  0.445302  0.726809  0.000000  1
  N  N16  1  0.002556  0.720163  0.440736  1
  N  N17  1  0.561821  0.279428  0.559264  1
  N  N18  1  0.727905  0.000000  0.434216  1
  N  N19  1  0.445302  0.000000  0.726809  1
  N  N20  1  0.727905  0.434216  0.000000  1
  N  N21  1  0.282393  0.279837  0.720572  1
  N  N22  1  0.002556  0.440736  0.720163  1
