# generated using pymatgen
data_Li2NdSmSi2Sb
_symmetry_space_group_name_H-M   'P 1'
_cell_length_a   9.68537190
_cell_length_b   9.68537226
_cell_length_c   6.89897100
_cell_angle_alpha   90.00000000
_cell_angle_beta   90.00000000
_cell_angle_gamma   153.10045192
_symmetry_Int_Tables_number   1
_chemical_formula_structural   Li2NdSmSi2Sb
_chemical_formula_sum   'Li4 Nd2 Sm2 Si4 Sb2'
_cell_volume   292.79664844
_cell_formula_units_Z   2
loop_
 _symmetry_equiv_pos_site_id
 _symmetry_equiv_pos_as_xyz
  1  'x, y, z'
loop_
 _atom_site_type_symbol
 _atom_site_label
 _atom_site_symmetry_multiplicity
 _atom_site_fract_x
 _atom_site_fract_y
 _atom_site_fract_z
 _atom_site_occupancy
  Li  Li0  1  0.814018  0.185982  0.558210  1
  Li  Li1  1  0.185982  0.814018  0.441790  1
  Li  Li2  1  0.185982  0.814018  0.058210  1
  Li  Li3  1  0.814018  0.185982  0.941790  1
  Nd  Nd4  1  0.546504  0.453496  0.250000  1
  Nd  Nd5  1  0.453496  0.546504  0.750000  1
  Sm  Sm6  1  0.352284  0.647716  0.250000  1
  Sm  Sm7  1  0.647716  0.352284  0.750000  1
  Si  Si8  1  0.941831  0.058169  0.074576  1
  Si  Si9  1  0.058169  0.941831  0.925424  1
  Si  Si10  1  0.058169  0.941831  0.574576  1
  Si  Si11  1  0.941831  0.058169  0.425424  1
  Sb  Sb12  1  0.720013  0.279987  0.250000  1
  Sb  Sb13  1  0.279987  0.720013  0.750000  1
