# generated using pymatgen
data_Na2YbBr4
_symmetry_space_group_name_H-M   'P 1'
_cell_length_a   7.43731011
_cell_length_b   7.43730964
_cell_length_c   4.26820000
_cell_angle_alpha   90.00000000
_cell_angle_beta   90.00000000
_cell_angle_gamma   109.85595636
_symmetry_Int_Tables_number   1
_chemical_formula_structural   Na2YbBr4
_chemical_formula_sum   'Na2 Yb1 Br4'
_cell_volume   222.05378111
_cell_formula_units_Z   1
loop_
 _symmetry_equiv_pos_site_id
 _symmetry_equiv_pos_as_xyz
  1  'x, y, z'
loop_
 _atom_site_type_symbol
 _atom_site_label
 _atom_site_symmetry_multiplicity
 _atom_site_fract_x
 _atom_site_fract_y
 _atom_site_fract_z
 _atom_site_occupancy
  Na  Na0  1  0.000000  0.500000  0.500000  1
  Na  Na1  1  0.500000  0.000000  0.500000  1
  Yb  Yb2  1  0.000000  0.000000  0.000000  1
  Br  Br3  1  0.770068  0.770068  0.500000  1
  Br  Br4  1  0.229932  0.229932  0.500000  1
  Br  Br5  1  0.237534  0.762466  0.000000  1
  Br  Br6  1  0.762466  0.237534  0.000000  1
