# generated using pymatgen
data_CsNbTeO6
_symmetry_space_group_name_H-M   'P 1'
_cell_length_a   7.40837389
_cell_length_b   7.40837462
_cell_length_c   7.40837438
_cell_angle_alpha   120.62071748
_cell_angle_beta   119.45749461
_cell_angle_gamma   89.93523520
_symmetry_Int_Tables_number   1
_chemical_formula_structural   CsNbTeO6
_chemical_formula_sum   'Cs2 Nb2 Te2 O12'
_cell_volume   287.30332094
_cell_formula_units_Z   2
loop_
 _symmetry_equiv_pos_site_id
 _symmetry_equiv_pos_as_xyz
  1  'x, y, z'
loop_
 _atom_site_type_symbol
 _atom_site_label
 _atom_site_symmetry_multiplicity
 _atom_site_fract_x
 _atom_site_fract_y
 _atom_site_fract_z
 _atom_site_occupancy
  Cs  Cs0  1  0.624133  0.874133  0.750000  1
  Cs  Cs1  1  0.375867  0.125867  0.250000  1
  Nb  Nb2  1  0.500000  0.500000  0.000000  1
  Nb  Nb3  1  0.000000  0.500000  0.500000  1
  Te  Te4  1  0.000000  0.500000  0.000000  1
  Te  Te5  1  0.000000  0.000000  0.500000  1
  O  O6  1  0.071132  0.821132  0.250000  1
  O  O7  1  0.687312  0.437312  0.250000  1
  O  O8  1  0.063878  0.823072  0.631105  1
  O  O9  1  0.691967  0.432773  0.868895  1
  O  O10  1  0.691967  0.823072  0.259195  1
  O  O11  1  0.063878  0.432773  0.240805  1
  O  O12  1  0.928868  0.178868  0.750000  1
  O  O13  1  0.312688  0.562688  0.750000  1
  O  O14  1  0.936122  0.176928  0.368895  1
  O  O15  1  0.308033  0.567227  0.131105  1
  O  O16  1  0.308033  0.176928  0.740805  1
  O  O17  1  0.936122  0.567227  0.759195  1
