# generated using pymatgen
data_Ti10ZnCu(SnBi2)2
_symmetry_space_group_name_H-M   'P 1'
_cell_length_a   8.35946683
_cell_length_b   8.35946791
_cell_length_c   5.59969251
_cell_angle_alpha   90.02424502
_cell_angle_beta   90.02424478
_cell_angle_gamma   120.36335919
_symmetry_Int_Tables_number   1
_chemical_formula_structural   Ti10ZnCu(SnBi2)2
_chemical_formula_sum   'Ti10 Zn1 Cu1 Sn2 Bi4'
_cell_volume   337.63701190
_cell_formula_units_Z   1
loop_
 _symmetry_equiv_pos_site_id
 _symmetry_equiv_pos_as_xyz
  1  'x, y, z'
loop_
 _atom_site_type_symbol
 _atom_site_label
 _atom_site_symmetry_multiplicity
 _atom_site_fract_x
 _atom_site_fract_y
 _atom_site_fract_z
 _atom_site_occupancy
  Ti  Ti0  1  0.268605  0.008087  0.751055  1
  Ti  Ti1  1  0.731395  0.991913  0.248945  1
  Ti  Ti2  1  0.008087  0.268605  0.751055  1
  Ti  Ti3  1  0.991913  0.731395  0.248945  1
  Ti  Ti4  1  0.730712  0.730712  0.751265  1
  Ti  Ti5  1  0.269288  0.269288  0.248735  1
  Ti  Ti6  1  0.336353  0.663647  0.500000  1
  Ti  Ti7  1  0.663647  0.336353  0.500000  1
  Ti  Ti8  1  0.663498  0.336502  0.000000  1
  Ti  Ti9  1  0.336502  0.663498  0.000000  1
  Zn  Zn10  1  0.000000  0.000000  0.500000  1
  Cu  Cu11  1  0.000000  0.000000  0.000000  1
  Sn  Sn12  1  0.386693  0.386693  0.750156  1
  Sn  Sn13  1  0.613307  0.613307  0.249844  1
  Bi  Bi14  1  0.619113  0.001627  0.750261  1
  Bi  Bi15  1  0.380887  0.998373  0.249739  1
  Bi  Bi16  1  0.001627  0.619113  0.750261  1
  Bi  Bi17  1  0.998373  0.380887  0.249739  1
