# generated using pymatgen
data_Nd3P6OsRh8
_symmetry_space_group_name_H-M   'P 1'
_cell_length_a   3.98873900
_cell_length_b   11.40294000
_cell_length_c   12.83676800
_cell_angle_alpha   90.00000000
_cell_angle_beta   90.00000000
_cell_angle_gamma   90.00000000
_symmetry_Int_Tables_number   1
_chemical_formula_structural   Nd3P6OsRh8
_chemical_formula_sum   'Nd6 P12 Os2 Rh16'
_cell_volume   583.85923097
_cell_formula_units_Z   2
loop_
 _symmetry_equiv_pos_site_id
 _symmetry_equiv_pos_as_xyz
  1  'x, y, z'
loop_
 _atom_site_type_symbol
 _atom_site_label
 _atom_site_symmetry_multiplicity
 _atom_site_fract_x
 _atom_site_fract_y
 _atom_site_fract_z
 _atom_site_occupancy
  Nd  Nd0  1  0.000000  0.500000  0.519305  1
  Nd  Nd1  1  0.500000  0.000000  0.480695  1
  Nd  Nd2  1  0.500000  0.820940  0.204623  1
  Nd  Nd3  1  0.500000  0.179060  0.204623  1
  Nd  Nd4  1  0.000000  0.679060  0.795377  1
  Nd  Nd5  1  0.000000  0.320940  0.795377  1
  P  P6  1  0.500000  0.500000  0.886719  1
  P  P7  1  0.000000  0.000000  0.113281  1
  P  P8  1  0.500000  0.500000  0.344492  1
  P  P9  1  0.000000  0.000000  0.655508  1
  P  P10  1  0.500000  0.311615  0.617456  1
  P  P11  1  0.500000  0.688385  0.617456  1
  P  P12  1  0.000000  0.188385  0.382544  1
  P  P13  1  0.000000  0.811615  0.382544  1
  P  P14  1  0.500000  0.843993  0.893037  1
  P  P15  1  0.500000  0.156007  0.893037  1
  P  P16  1  0.000000  0.656007  0.106963  1
  P  P17  1  0.000000  0.343993  0.106963  1
  Os  Os18  1  0.000000  0.500000  0.993139  1
  Os  Os19  1  0.500000  0.000000  0.006861  1
  Rh  Rh20  1  0.500000  0.500000  0.161536  1
  Rh  Rh21  1  0.000000  0.000000  0.838464  1
  Rh  Rh22  1  0.500000  0.500000  0.702905  1
  Rh  Rh23  1  0.000000  0.000000  0.297095  1
  Rh  Rh24  1  0.500000  0.331969  0.995016  1
  Rh  Rh25  1  0.500000  0.668031  0.995016  1
  Rh  Rh26  1  0.000000  0.168031  0.004984  1
  Rh  Rh27  1  0.000000  0.831969  0.004984  1
  Rh  Rh28  1  0.500000  0.293761  0.430247  1
  Rh  Rh29  1  0.500000  0.706239  0.430247  1
  Rh  Rh30  1  0.000000  0.206239  0.569753  1
  Rh  Rh31  1  0.000000  0.793761  0.569753  1
  Rh  Rh32  1  0.500000  0.873952  0.711499  1
  Rh  Rh33  1  0.500000  0.126048  0.711499  1
  Rh  Rh34  1  0.000000  0.626048  0.288501  1
  Rh  Rh35  1  0.000000  0.373952  0.288501  1
