# generated using pymatgen
data_Cs6(RhO3)5
_symmetry_space_group_name_H-M   'P 1'
_cell_length_a   8.02353520
_cell_length_b   8.02384347
_cell_length_c   8.02975202
_cell_angle_alpha   92.14572141
_cell_angle_beta   92.14487132
_cell_angle_gamma   92.10687329
_symmetry_Int_Tables_number   1
_chemical_formula_structural   Cs6(RhO3)5
_chemical_formula_sum   'Cs6 Rh5 O15'
_cell_volume   515.85059825
_cell_formula_units_Z   1
loop_
 _symmetry_equiv_pos_site_id
 _symmetry_equiv_pos_as_xyz
  1  'x, y, z'
loop_
 _atom_site_type_symbol
 _atom_site_label
 _atom_site_symmetry_multiplicity
 _atom_site_fract_x
 _atom_site_fract_y
 _atom_site_fract_z
 _atom_site_occupancy
  Cs  Cs0  1  0.318314  0.681186  0.998938  1
  Cs  Cs1  1  0.998988  0.317900  0.681374  1
  Cs  Cs2  1  0.681550  0.998866  0.318141  1
  Cs  Cs3  1  0.147536  0.853470  0.499838  1
  Cs  Cs4  1  0.499562  0.147649  0.852987  1
  Cs  Cs5  1  0.853454  0.500104  0.148127  1
  Rh  Rh6  1  0.499781  0.500367  0.500006  1
  Rh  Rh7  1  0.295170  0.295528  0.295291  1
  Rh  Rh8  1  0.704627  0.704894  0.704815  1
  Rh  Rh9  1  0.101421  0.100964  0.101377  1
  Rh  Rh10  1  0.899017  0.898505  0.898639  1
  O  O11  1  0.128425  0.000430  0.871195  1
  O  O12  1  0.872268  0.127487  0.000133  1
  O  O13  1  0.999822  0.871321  0.128625  1
  O  O14  1  0.056474  0.216171  0.320420  1
  O  O15  1  0.319275  0.056386  0.216143  1
  O  O16  1  0.216763  0.319571  0.056329  1
  O  O17  1  0.783912  0.943736  0.679826  1
  O  O18  1  0.680679  0.783196  0.943929  1
  O  O19  1  0.943871  0.680891  0.783882  1
  O  O20  1  0.352194  0.299838  0.540092  1
  O  O21  1  0.539925  0.352143  0.299470  1
  O  O22  1  0.299000  0.540373  0.351950  1
  O  O23  1  0.701049  0.646926  0.460090  1
  O  O24  1  0.459938  0.701844  0.647163  1
  O  O25  1  0.646984  0.460254  0.701222  1
