# generated using pymatgen
data_Sr6Tm2CrRhO12
_symmetry_space_group_name_H-M   'P 1'
_cell_length_a   6.84265857
_cell_length_b   6.84265844
_cell_length_c   6.84265705
_cell_angle_alpha   92.39213698
_cell_angle_beta   92.39215158
_cell_angle_gamma   92.39214799
_symmetry_Int_Tables_number   1
_chemical_formula_structural   Sr6Tm2CrRhO12
_chemical_formula_sum   'Sr6 Tm2 Cr1 Rh1 O12'
_cell_volume   319.52503750
_cell_formula_units_Z   1
loop_
 _symmetry_equiv_pos_site_id
 _symmetry_equiv_pos_as_xyz
  1  'x, y, z'
loop_
 _atom_site_type_symbol
 _atom_site_label
 _atom_site_symmetry_multiplicity
 _atom_site_fract_x
 _atom_site_fract_y
 _atom_site_fract_z
 _atom_site_occupancy
  Sr  Sr0  1  0.883496  0.250653  0.618280  1
  Sr  Sr1  1  0.250653  0.618280  0.883496  1
  Sr  Sr2  1  0.381720  0.116504  0.749347  1
  Sr  Sr3  1  0.749347  0.381720  0.116504  1
  Sr  Sr4  1  0.116504  0.749347  0.381720  1
  Sr  Sr5  1  0.618280  0.883496  0.250653  1
  Tm  Tm6  1  0.249622  0.249622  0.249622  1
  Tm  Tm7  1  0.750378  0.750378  0.750378  1
  Cr  Cr8  1  0.500000  0.500000  0.500000  1
  Rh  Rh9  1  0.000000  0.000000  0.000000  1
  O  O10  1  0.707960  0.041162  0.906223  1
  O  O11  1  0.958838  0.093777  0.292040  1
  O  O12  1  0.785336  0.592105  0.458991  1
  O  O13  1  0.592105  0.458991  0.785336  1
  O  O14  1  0.458991  0.785336  0.592105  1
  O  O15  1  0.041162  0.906223  0.707960  1
  O  O16  1  0.407895  0.541009  0.214664  1
  O  O17  1  0.292040  0.958838  0.093777  1
  O  O18  1  0.214664  0.407895  0.541009  1
  O  O19  1  0.541009  0.214664  0.407895  1
  O  O20  1  0.906223  0.707960  0.041162  1
  O  O21  1  0.093777  0.292040  0.958838  1
