# generated using pymatgen
data_Nd2Er2P7Ir8
_symmetry_space_group_name_H-M   'P 1'
_cell_length_a   3.95222100
_cell_length_b   12.77865826
_cell_length_c   13.16841115
_cell_angle_alpha   80.83534766
_cell_angle_beta   90.00000000
_cell_angle_gamma   90.00000000
_symmetry_Int_Tables_number   1
_chemical_formula_structural   Nd2Er2P7Ir8
_chemical_formula_sum   'Nd4 Er4 P14 Ir16'
_cell_volume   656.56884785
_cell_formula_units_Z   2
loop_
 _symmetry_equiv_pos_site_id
 _symmetry_equiv_pos_as_xyz
  1  'x, y, z'
loop_
 _atom_site_type_symbol
 _atom_site_label
 _atom_site_symmetry_multiplicity
 _atom_site_fract_x
 _atom_site_fract_y
 _atom_site_fract_z
 _atom_site_occupancy
  Nd  Nd0  1  0.750000  0.720021  0.897958  1
  Nd  Nd1  1  0.250000  0.105066  0.787923  1
  Nd  Nd2  1  0.750000  0.894934  0.212077  1
  Nd  Nd3  1  0.250000  0.279979  0.102042  1
  Er  Er4  1  0.750000  0.791657  0.560240  1
  Er  Er5  1  0.250000  0.208343  0.439760  1
  Er  Er6  1  0.750000  0.479903  0.705557  1
  Er  Er7  1  0.250000  0.520097  0.294443  1
  P  P8  1  0.250000  0.906941  0.412085  1
  P  P9  1  0.750000  0.472330  0.130147  1
  P  P10  1  0.250000  0.527670  0.869853  1
  P  P11  1  0.750000  0.093059  0.587915  1
  P  P12  1  0.250000  0.741590  0.082073  1
  P  P13  1  0.750000  0.258410  0.917927  1
  P  P14  1  0.750000  0.158580  0.284340  1
  P  P15  1  0.250000  0.841420  0.715660  1
  P  P16  1  0.250000  0.051661  0.100470  1
  P  P17  1  0.750000  0.948339  0.899530  1
  P  P18  1  0.250000  0.316201  0.687482  1
  P  P19  1  0.750000  0.683799  0.312518  1
  P  P20  1  0.250000  0.607979  0.565666  1
  P  P21  1  0.750000  0.392021  0.434334  1
  Ir  Ir22  1  0.250000  0.990404  0.575744  1
  Ir  Ir23  1  0.750000  0.009596  0.424256  1
  Ir  Ir24  1  0.250000  0.660632  0.727310  1
  Ir  Ir25  1  0.750000  0.339368  0.272690  1
  Ir  Ir26  1  0.250000  0.550744  0.048802  1
  Ir  Ir27  1  0.750000  0.449256  0.951198  1
  Ir  Ir28  1  0.250000  0.064064  0.273737  1
  Ir  Ir29  1  0.750000  0.935936  0.726263  1
  Ir  Ir30  1  0.250000  0.422423  0.523139  1
  Ir  Ir31  1  0.750000  0.577577  0.476861  1
  Ir  Ir32  1  0.250000  0.914523  0.997788  1
  Ir  Ir33  1  0.750000  0.085477  0.002212  1
  Ir  Ir34  1  0.250000  0.728550  0.396495  1
  Ir  Ir35  1  0.750000  0.271450  0.603505  1
  Ir  Ir36  1  0.250000  0.343971  0.855949  1
  Ir  Ir37  1  0.750000  0.656029  0.144051  1
