# generated using pymatgen
data_HfSc7Se12
_symmetry_space_group_name_H-M   'P 1'
_cell_length_a   12.72483602
_cell_length_b   12.14045515
_cell_length_c   6.69730728
_cell_angle_alpha   79.25315264
_cell_angle_beta   69.60982207
_cell_angle_gamma   30.97374454
_symmetry_Int_Tables_number   1
_chemical_formula_structural   HfSc7Se12
_chemical_formula_sum   'Hf1 Sc7 Se12'
_cell_volume   485.40416263
_cell_formula_units_Z   1
loop_
 _symmetry_equiv_pos_site_id
 _symmetry_equiv_pos_as_xyz
  1  'x, y, z'
loop_
 _atom_site_type_symbol
 _atom_site_label
 _atom_site_symmetry_multiplicity
 _atom_site_fract_x
 _atom_site_fract_y
 _atom_site_fract_z
 _atom_site_occupancy
  Hf  Hf0  1  0.333695  0.333695  0.166305  1
  Sc  Sc1  1  0.165855  0.165855  0.334145  1
  Sc  Sc2  1  0.917726  0.917726  0.082274  1
  Sc  Sc3  1  0.082983  0.082983  0.917017  1
  Sc  Sc4  1  0.999386  0.999386  0.500614  1
  Sc  Sc5  1  0.501466  0.501466  0.998534  1
  Sc  Sc6  1  0.250346  0.250346  0.749654  1
  Sc  Sc7  1  0.748336  0.748336  0.251664  1
  Se  Se8  1  0.004941  0.497515  0.494646  1
  Se  Se9  1  0.497515  0.004941  0.002899  1
  Se  Se10  1  0.246657  0.752766  0.753233  1
  Se  Se11  1  0.752766  0.246657  0.247344  1
  Se  Se12  1  0.661342  0.171456  0.838115  1
  Se  Se13  1  0.836234  0.327784  0.664782  1
  Se  Se14  1  0.327784  0.836234  0.171200  1
  Se  Se15  1  0.171456  0.661342  0.329087  1
  Se  Se16  1  0.582675  0.082531  0.411942  1
  Se  Se17  1  0.413951  0.922355  0.584746  1
  Se  Se18  1  0.922355  0.413951  0.078949  1
  Se  Se19  1  0.082531  0.582675  0.922852  1
