# generated using pymatgen
data_Li3Nd3Ag2Ru
_symmetry_space_group_name_H-M   'P 1'
_cell_length_a   7.71338300
_cell_length_b   7.71338357
_cell_length_c   4.02776500
_cell_angle_alpha   90.00000000
_cell_angle_beta   90.00000000
_cell_angle_gamma   120.00000183
_symmetry_Int_Tables_number   1
_chemical_formula_structural   Li3Nd3Ag2Ru
_chemical_formula_sum   'Li3 Nd3 Ag2 Ru1'
_cell_volume   207.53176150
_cell_formula_units_Z   1
loop_
 _symmetry_equiv_pos_site_id
 _symmetry_equiv_pos_as_xyz
  1  'x, y, z'
loop_
 _atom_site_type_symbol
 _atom_site_label
 _atom_site_symmetry_multiplicity
 _atom_site_fract_x
 _atom_site_fract_y
 _atom_site_fract_z
 _atom_site_occupancy
  Li  Li0  1  0.240873  0.998496  0.500000  1
  Li  Li1  1  0.001504  0.242378  0.500000  1
  Li  Li2  1  0.757622  0.759127  0.500000  1
  Nd  Nd3  1  0.569299  0.971067  0.000000  1
  Nd  Nd4  1  0.028933  0.598232  0.000000  1
  Nd  Nd5  1  0.401768  0.430701  0.000000  1
  Ag  Ag6  1  0.666667  0.333333  0.500000  1
  Ag  Ag7  1  0.000000  0.000000  0.000000  1
  Ru  Ru8  1  0.333333  0.666667  0.500000  1
