# generated using pymatgen
data_Sr7Nd3Pb8
_symmetry_space_group_name_H-M   'P 1'
_cell_length_a   8.47258900
_cell_length_b   8.93385130
_cell_length_c   17.17085261
_cell_angle_alpha   89.96988517
_cell_angle_beta   90.00000000
_cell_angle_gamma   90.00000000
_symmetry_Int_Tables_number   1
_chemical_formula_structural   Sr7Nd3Pb8
_chemical_formula_sum   'Sr14 Nd6 Pb16'
_cell_volume   1299.71059575
_cell_formula_units_Z   2
loop_
 _symmetry_equiv_pos_site_id
 _symmetry_equiv_pos_as_xyz
  1  'x, y, z'
loop_
 _atom_site_type_symbol
 _atom_site_label
 _atom_site_symmetry_multiplicity
 _atom_site_fract_x
 _atom_site_fract_y
 _atom_site_fract_z
 _atom_site_occupancy
  Sr  Sr0  1  0.666432  0.167416  0.880291  1
  Sr  Sr1  1  0.166432  0.332584  0.619709  1
  Sr  Sr2  1  0.496302  0.677469  0.594928  1
  Sr  Sr3  1  0.996302  0.822531  0.905072  1
  Sr  Sr4  1  0.502392  0.317880  0.093290  1
  Sr  Sr5  1  0.002392  0.182120  0.406710  1
  Sr  Sr6  1  0.501387  0.323286  0.406667  1
  Sr  Sr7  1  0.001387  0.176714  0.093333  1
  Sr  Sr8  1  0.498346  0.682171  0.906116  1
  Sr  Sr9  1  0.998346  0.817829  0.593884  1
  Sr  Sr10  1  0.829312  0.508646  0.749644  1
  Sr  Sr11  1  0.329312  0.991354  0.750356  1
  Sr  Sr12  1  0.173416  0.487877  0.249077  1
  Sr  Sr13  1  0.673416  0.012123  0.250923  1
  Nd  Nd14  1  0.665836  0.167408  0.623968  1
  Nd  Nd15  1  0.165836  0.332592  0.876032  1
  Nd  Nd16  1  0.334145  0.833650  0.123068  1
  Nd  Nd17  1  0.834145  0.666350  0.376932  1
  Nd  Nd18  1  0.333507  0.833192  0.376562  1
  Nd  Nd19  1  0.833507  0.666808  0.123438  1
  Pb  Pb20  1  0.671562  0.955819  0.462670  1
  Pb  Pb21  1  0.171562  0.544181  0.037330  1
  Pb  Pb22  1  0.321560  0.038286  0.964697  1
  Pb  Pb23  1  0.821560  0.461714  0.535303  1
  Pb  Pb24  1  0.339795  0.035413  0.536085  1
  Pb  Pb25  1  0.839795  0.464587  0.963915  1
  Pb  Pb26  1  0.667603  0.954496  0.042767  1
  Pb  Pb27  1  0.167603  0.545504  0.457233  1
  Pb  Pb28  1  0.460924  0.378599  0.751143  1
  Pb  Pb29  1  0.960924  0.121401  0.748857  1
  Pb  Pb30  1  0.539130  0.630406  0.250242  1
  Pb  Pb31  1  0.039130  0.869594  0.249758  1
  Pb  Pb32  1  0.707735  0.870788  0.747270  1
  Pb  Pb33  1  0.207735  0.629212  0.752730  1
  Pb  Pb34  1  0.290616  0.122087  0.249878  1
  Pb  Pb35  1  0.790616  0.377913  0.250122  1
