# generated using pymatgen
data_Th3Al3ZnFePd
_symmetry_space_group_name_H-M   'P 1'
_cell_length_a   7.17104300
_cell_length_b   7.17104240
_cell_length_c   4.21965600
_cell_angle_alpha   90.00000000
_cell_angle_beta   90.00000000
_cell_angle_gamma   119.99999818
_symmetry_Int_Tables_number   1
_chemical_formula_structural   Th3Al3ZnFePd
_chemical_formula_sum   'Th3 Al3 Zn1 Fe1 Pd1'
_cell_volume   187.91969709
_cell_formula_units_Z   1
loop_
 _symmetry_equiv_pos_site_id
 _symmetry_equiv_pos_as_xyz
  1  'x, y, z'
loop_
 _atom_site_type_symbol
 _atom_site_label
 _atom_site_symmetry_multiplicity
 _atom_site_fract_x
 _atom_site_fract_y
 _atom_site_fract_z
 _atom_site_occupancy
  Th  Th0  1  0.417032  0.434847  0.500000  1
  Th  Th1  1  0.565153  0.982185  0.500000  1
  Th  Th2  1  0.017815  0.582968  0.500000  1
  Al  Al3  1  0.759371  0.770738  0.000000  1
  Al  Al4  1  0.229262  0.988632  0.000000  1
  Al  Al5  1  0.011368  0.240629  0.000000  1
  Zn  Zn6  1  0.666667  0.333333  0.000000  1
  Fe  Fe7  1  0.333333  0.666667  0.000000  1
  Pd  Pd8  1  0.000000  0.000000  0.500000  1
