# generated using pymatgen
data_Tb8Ti12Si15Au
_symmetry_space_group_name_H-M   'P 1'
_cell_length_a   6.91656623
_cell_length_b   7.05332192
_cell_length_c   13.41392758
_cell_angle_alpha   89.86429885
_cell_angle_beta   89.71373626
_cell_angle_gamma   90.14784764
_symmetry_Int_Tables_number   1
_chemical_formula_structural   Tb8Ti12Si15Au
_chemical_formula_sum   'Tb8 Ti12 Si15 Au1'
_cell_volume   654.38314626
_cell_formula_units_Z   1
loop_
 _symmetry_equiv_pos_site_id
 _symmetry_equiv_pos_as_xyz
  1  'x, y, z'
loop_
 _atom_site_type_symbol
 _atom_site_label
 _atom_site_symmetry_multiplicity
 _atom_site_fract_x
 _atom_site_fract_y
 _atom_site_fract_z
 _atom_site_occupancy
  Tb  Tb0  1  0.996164  0.170650  0.404867  1
  Tb  Tb1  1  0.499316  0.330846  0.100106  1
  Tb  Tb2  1  0.505511  0.669614  0.594693  1
  Tb  Tb3  1  0.000032  0.826313  0.901696  1
  Tb  Tb4  1  0.003560  0.828622  0.594921  1
  Tb  Tb5  1  0.501937  0.666335  0.903877  1
  Tb  Tb6  1  0.494098  0.328215  0.403924  1
  Tb  Tb7  1  0.994265  0.170749  0.098672  1
  Ti  Ti8  1  0.340124  0.825370  0.130326  1
  Ti  Ti9  1  0.836349  0.673992  0.373486  1
  Ti  Ti10  1  0.663655  0.173178  0.625993  1
  Ti  Ti11  1  0.145860  0.332140  0.867976  1
  Ti  Ti12  1  0.165800  0.326966  0.627250  1
  Ti  Ti13  1  0.676862  0.176693  0.871116  1
  Ti  Ti14  1  0.334769  0.009533  0.742804  1
  Ti  Ti15  1  0.838379  0.673433  0.129952  1
  Ti  Ti16  1  0.662930  0.988886  0.252461  1
  Ti  Ti17  1  0.163472  0.509484  0.251152  1
  Ti  Ti18  1  0.837192  0.489363  0.750372  1
  Ti  Ti19  1  0.336969  0.826592  0.372984  1
  Si  Si20  1  0.342170  0.039616  0.541372  1
  Si  Si21  1  0.839198  0.459542  0.961015  1
  Si  Si22  1  0.663941  0.954913  0.044498  1
  Si  Si23  1  0.157126  0.540244  0.457180  1
  Si  Si24  1  0.158533  0.541271  0.043676  1
  Si  Si25  1  0.658642  0.960608  0.457076  1
  Si  Si26  1  0.843403  0.459634  0.542346  1
  Si  Si27  1  0.798207  0.378047  0.252228  1
  Si  Si28  1  0.297442  0.121770  0.251195  1
  Si  Si29  1  0.698778  0.877886  0.748777  1
  Si  Si30  1  0.204860  0.624305  0.747851  1
  Si  Si31  1  0.040416  0.871460  0.251332  1
  Si  Si32  1  0.540503  0.628105  0.252449  1
  Si  Si33  1  0.460586  0.368185  0.749436  1
  Si  Si34  1  0.959395  0.126262  0.746072  1
  Au  Au35  1  0.339559  0.051176  0.954869  1
