# generated using pymatgen
data_Nd3Mg2CdPtPb2
_symmetry_space_group_name_H-M   'P 1'
_cell_length_a   7.64843774
_cell_length_b   7.69519407
_cell_length_c   4.66438900
_cell_angle_alpha   90.00000000
_cell_angle_beta   90.00000000
_cell_angle_gamma   120.20244270
_symmetry_Int_Tables_number   1
_chemical_formula_structural   Nd3Mg2CdPtPb2
_chemical_formula_sum   'Nd3 Mg2 Cd1 Pt1 Pb2'
_cell_volume   237.26197983
_cell_formula_units_Z   1
loop_
 _symmetry_equiv_pos_site_id
 _symmetry_equiv_pos_as_xyz
  1  'x, y, z'
loop_
 _atom_site_type_symbol
 _atom_site_label
 _atom_site_symmetry_multiplicity
 _atom_site_fract_x
 _atom_site_fract_y
 _atom_site_fract_z
 _atom_site_occupancy
  Nd  Nd0  1  0.391185  0.393525  0.000000  1
  Nd  Nd1  1  0.608815  0.002339  0.000000  1
  Nd  Nd2  1  0.000000  0.602427  0.000000  1
  Mg  Mg3  1  0.775947  0.776819  0.500000  1
  Mg  Mg4  1  0.224053  0.000872  0.500000  1
  Cd  Cd5  1  0.000000  0.229833  0.500000  1
  Pt  Pt6  1  0.000000  0.987246  0.000000  1
  Pb  Pb7  1  0.663075  0.335006  0.500000  1
  Pb  Pb8  1  0.336925  0.671932  0.500000  1
