# generated using pymatgen
data_La7Nd9Cd4OsPd3
_symmetry_space_group_name_H-M   'P 1'
_cell_length_a   10.14110552
_cell_length_b   10.13962586
_cell_length_c   10.16947598
_cell_angle_alpha   59.51713177
_cell_angle_beta   59.53319300
_cell_angle_gamma   59.53764867
_symmetry_Int_Tables_number   1
_chemical_formula_structural   La7Nd9Cd4OsPd3
_chemical_formula_sum   'La7 Nd9 Cd4 Os1 Pd3'
_cell_volume   731.50564467
_cell_formula_units_Z   1
loop_
 _symmetry_equiv_pos_site_id
 _symmetry_equiv_pos_as_xyz
  1  'x, y, z'
loop_
 _atom_site_type_symbol
 _atom_site_label
 _atom_site_symmetry_multiplicity
 _atom_site_fract_x
 _atom_site_fract_y
 _atom_site_fract_z
 _atom_site_occupancy
  La  La0  1  0.352073  0.351779  0.352771  1
  La  La1  1  0.347412  0.346487  0.950538  1
  La  La2  1  0.348183  0.951174  0.347280  1
  La  La3  1  0.951134  0.347646  0.347869  1
  La  La4  1  0.818707  0.188487  0.187170  1
  La  La5  1  0.188870  0.808269  0.807625  1
  La  La6  1  0.188276  0.818812  0.188651  1
  Nd  Nd7  1  0.807197  0.189614  0.808103  1
  Nd  Nd8  1  0.189184  0.190923  0.814485  1
  Nd  Nd9  1  0.806249  0.807778  0.189906  1
  Nd  Nd10  1  0.933725  0.565632  0.566815  1
  Nd  Nd11  1  0.559311  0.936815  0.935728  1
  Nd  Nd12  1  0.566292  0.934685  0.565868  1
  Nd  Nd13  1  0.936563  0.558229  0.936614  1
  Nd  Nd14  1  0.566596  0.565118  0.934731  1
  Nd  Nd15  1  0.936271  0.937403  0.558502  1
  Cd  Cd16  1  0.581156  0.579686  0.579680  1
  Cd  Cd17  1  0.580987  0.581120  0.257285  1
  Cd  Cd18  1  0.580049  0.257115  0.581652  1
  Cd  Cd19  1  0.257351  0.579570  0.581018  1
  Os  Os20  1  0.141236  0.141608  0.146012  1
  Pd  Pd21  1  0.145280  0.144457  0.572040  1
  Pd  Pd22  1  0.145478  0.572341  0.144563  1
  Pd  Pd23  1  0.572421  0.145254  0.145094  1
