# generated using pymatgen
data_La5Y11Cd4Co3Ni
_symmetry_space_group_name_H-M   'P 1'
_cell_length_a   9.65607085
_cell_length_b   9.71953930
_cell_length_c   9.71953992
_cell_angle_alpha   59.76254375
_cell_angle_beta   60.07178975
_cell_angle_gamma   60.07177876
_symmetry_Int_Tables_number   1
_chemical_formula_structural   La5Y11Cd4Co3Ni
_chemical_formula_sum   'La5 Y11 Cd4 Co3 Ni1'
_cell_volume   644.55514977
_cell_formula_units_Z   1
loop_
 _symmetry_equiv_pos_site_id
 _symmetry_equiv_pos_as_xyz
  1  'x, y, z'
loop_
 _atom_site_type_symbol
 _atom_site_label
 _atom_site_symmetry_multiplicity
 _atom_site_fract_x
 _atom_site_fract_y
 _atom_site_fract_z
 _atom_site_occupancy
  La  La0  1  0.589700  0.600637  0.600637  1
  La  La1  1  0.595012  0.599848  0.206359  1
  La  La2  1  0.595012  0.206359  0.599848  1
  La  La3  1  0.209523  0.599959  0.599959  1
  La  La4  1  0.071668  0.435124  0.435124  1
  Y  Y5  1  0.433588  0.064553  0.064553  1
  Y  Y6  1  0.440789  0.058670  0.436029  1
  Y  Y7  1  0.066720  0.435010  0.056096  1
  Y  Y8  1  0.440789  0.436029  0.058670  1
  Y  Y9  1  0.066720  0.056096  0.435010  1
  Y  Y10  1  0.182732  0.817763  0.817763  1
  Y  Y11  1  0.814313  0.184275  0.184275  1
  Y  Y12  1  0.811135  0.185350  0.816554  1
  Y  Y13  1  0.185897  0.815331  0.184702  1
  Y  Y14  1  0.811135  0.816554  0.185350  1
  Y  Y15  1  0.185897  0.184702  0.815331  1
  Cd  Cd16  1  0.831156  0.830974  0.830974  1
  Cd  Cd17  1  0.829679  0.834599  0.505149  1
  Cd  Cd18  1  0.829679  0.505149  0.834599  1
  Cd  Cd19  1  0.504108  0.831045  0.831045  1
  Co  Co20  1  0.383855  0.393693  0.393693  1
  Co  Co21  1  0.394855  0.391551  0.825108  1
  Co  Co22  1  0.394855  0.825108  0.391551  1
  Ni  Ni23  1  0.831182  0.391616  0.391616  1
