# generated using pymatgen
data_CsSb12RuRh3
_symmetry_space_group_name_H-M   'P 1'
_cell_length_a   8.19829670
_cell_length_b   8.19829624
_cell_length_c   8.19829630
_cell_angle_alpha   109.49650816
_cell_angle_beta   109.49652516
_cell_angle_gamma   109.49651707
_symmetry_Int_Tables_number   1
_chemical_formula_structural   CsSb12RuRh3
_chemical_formula_sum   'Cs1 Sb12 Ru1 Rh3'
_cell_volume   423.78106297
_cell_formula_units_Z   1
loop_
 _symmetry_equiv_pos_site_id
 _symmetry_equiv_pos_as_xyz
  1  'x, y, z'
loop_
 _atom_site_type_symbol
 _atom_site_label
 _atom_site_symmetry_multiplicity
 _atom_site_fract_x
 _atom_site_fract_y
 _atom_site_fract_z
 _atom_site_occupancy
  Cs  Cs0  1  0.000000  0.000000  0.000000  1
  Sb  Sb1  1  0.159683  0.500931  0.344801  1
  Sb  Sb2  1  0.499069  0.655199  0.840317  1
  Sb  Sb3  1  0.344378  0.842844  0.187208  1
  Sb  Sb4  1  0.812792  0.655622  0.157156  1
  Sb  Sb5  1  0.655199  0.840317  0.499069  1
  Sb  Sb6  1  0.187208  0.344378  0.842844  1
  Sb  Sb7  1  0.655622  0.157156  0.812792  1
  Sb  Sb8  1  0.344801  0.159683  0.500931  1
  Sb  Sb9  1  0.500931  0.344801  0.159683  1
  Sb  Sb10  1  0.840317  0.499069  0.655199  1
  Sb  Sb11  1  0.842844  0.187208  0.344378  1
  Sb  Sb12  1  0.157156  0.812792  0.655622  1
  Ru  Ru13  1  0.500000  0.500000  0.500000  1
  Rh  Rh14  1  0.500000  0.000000  0.000000  1
  Rh  Rh15  1  0.000000  0.500000  0.000000  1
  Rh  Rh16  1  0.000000  0.000000  0.500000  1
