# generated using pymatgen
data_CuSbOsO6
_symmetry_space_group_name_H-M   'P 1'
_cell_length_a   4.63773800
_cell_length_b   4.63773800
_cell_length_c   9.47264200
_cell_angle_alpha   90.00000000
_cell_angle_beta   90.00000000
_cell_angle_gamma   90.00000000
_symmetry_Int_Tables_number   1
_chemical_formula_structural   CuSbOsO6
_chemical_formula_sum   'Cu2 Sb2 Os2 O12'
_cell_volume   203.74339803
_cell_formula_units_Z   2
loop_
 _symmetry_equiv_pos_site_id
 _symmetry_equiv_pos_as_xyz
  1  'x, y, z'
loop_
 _atom_site_type_symbol
 _atom_site_label
 _atom_site_symmetry_multiplicity
 _atom_site_fract_x
 _atom_site_fract_y
 _atom_site_fract_z
 _atom_site_occupancy
  Cu  Cu0  1  0.000000  0.000000  0.007827  1
  Cu  Cu1  1  0.499999  0.499999  0.492173  1
  Sb  Sb2  1  0.000000  0.000000  0.668400  1
  Sb  Sb3  1  0.499999  0.499999  0.831599  1
  Os  Os4  1  0.000000  0.000000  0.334161  1
  Os  Os5  1  0.499999  0.499999  0.165838  1
  O  O6  1  0.308491  0.308491  0.007943  1
  O  O7  1  0.691510  0.691510  0.007943  1
  O  O8  1  0.808488  0.191511  0.492057  1
  O  O9  1  0.191511  0.808488  0.492057  1
  O  O10  1  0.289454  0.289454  0.320133  1
  O  O11  1  0.710547  0.710547  0.320133  1
  O  O12  1  0.789453  0.210548  0.179868  1
  O  O13  1  0.210548  0.789453  0.179868  1
  O  O14  1  0.696733  0.696733  0.669184  1
  O  O15  1  0.303268  0.303268  0.669184  1
  O  O16  1  0.803267  0.196734  0.830816  1
  O  O17  1  0.196734  0.803267  0.830816  1
