# generated using pymatgen
data_Na19Sn11S30
_symmetry_space_group_name_H-M   'P 1'
_cell_length_a   11.71713465
_cell_length_b   11.71713497
_cell_length_c   11.10395200
_cell_angle_alpha   79.33417523
_cell_angle_beta   79.33417494
_cell_angle_gamma   58.75104560
_symmetry_Int_Tables_number   1
_chemical_formula_structural   Na19Sn11S30
_chemical_formula_sum   'Na19 Sn11 S30'
_cell_volume   1273.57198130
_cell_formula_units_Z   1
loop_
 _symmetry_equiv_pos_site_id
 _symmetry_equiv_pos_as_xyz
  1  'x, y, z'
loop_
 _atom_site_type_symbol
 _atom_site_label
 _atom_site_symmetry_multiplicity
 _atom_site_fract_x
 _atom_site_fract_y
 _atom_site_fract_z
 _atom_site_occupancy
  Na  Na0  1  0.737981  0.059800  0.303788  1
  Na  Na1  1  0.139808  0.458227  0.101840  1
  Na  Na2  1  0.340961  0.659038  0.500003  1
  Na  Na3  1  0.541773  0.860191  0.898160  1
  Na  Na4  1  0.940200  0.262017  0.696215  1
  Na  Na5  1  0.458227  0.139809  0.101840  1
  Na  Na6  1  0.860192  0.541773  0.898160  1
  Na  Na7  1  0.059800  0.737983  0.303785  1
  Na  Na8  1  0.262019  0.940200  0.696212  1
  Na  Na9  1  0.659039  0.340962  0.499997  1
  Na  Na10  1  0.399691  0.399689  0.300622  1
  Na  Na11  1  0.797365  0.797364  0.100487  1
  Na  Na12  1  0.000000  0.000000  0.500000  1
  Na  Na13  1  0.202635  0.202636  0.899513  1
  Na  Na14  1  0.600309  0.600311  0.699378  1
  Na  Na15  1  0.200108  0.200109  0.400398  1
  Na  Na16  1  0.399891  0.399892  0.799570  1
  Na  Na17  1  0.600109  0.600108  0.200430  1
  Na  Na18  1  0.799892  0.799891  0.599602  1
  Sn  Sn19  1  0.663529  0.336469  0.999997  1
  Sn  Sn20  1  0.068620  0.729987  0.798621  1
  Sn  Sn21  1  0.270018  0.931373  0.201378  1
  Sn  Sn22  1  0.468165  0.132693  0.599982  1
  Sn  Sn23  1  0.867304  0.531838  0.400020  1
  Sn  Sn24  1  0.729982  0.068627  0.798622  1
  Sn  Sn25  1  0.132696  0.468162  0.599980  1
  Sn  Sn26  1  0.336471  0.663531  0.000003  1
  Sn  Sn27  1  0.531835  0.867307  0.400018  1
  Sn  Sn28  1  0.931380  0.270013  0.201379  1
  Sn  Sn29  1  0.000000  0.000000  0.000000  1
  S  S30  1  0.515443  0.875683  0.166862  1
  S  S31  1  0.916170  0.277574  0.965425  1
  S  S32  1  0.115693  0.475138  0.368795  1
  S  S33  1  0.315709  0.675379  0.769337  1
  S  S34  1  0.717568  0.075613  0.568216  1
  S  S35  1  0.475141  0.115692  0.368803  1
  S  S36  1  0.875689  0.515443  0.166859  1
  S  S37  1  0.075614  0.717566  0.568220  1
  S  S38  1  0.277570  0.916170  0.965428  1
  S  S39  1  0.675383  0.315702  0.769344  1
  S  S40  1  0.684291  0.324621  0.230663  1
  S  S41  1  0.083830  0.722426  0.034575  1
  S  S42  1  0.282432  0.924387  0.431784  1
  S  S43  1  0.484557  0.124317  0.833138  1
  S  S44  1  0.884307  0.524862  0.631205  1
  S  S45  1  0.722430  0.083830  0.034572  1
  S  S46  1  0.124311  0.484557  0.833141  1
  S  S47  1  0.324617  0.684298  0.230656  1
  S  S48  1  0.524859  0.884308  0.631197  1
  S  S49  1  0.924386  0.282434  0.431780  1
  S  S50  1  0.813136  0.813127  0.847673  1
  S  S51  1  0.213126  0.213125  0.648514  1
  S  S52  1  0.410647  0.410648  0.048681  1
  S  S53  1  0.611676  0.611668  0.447575  1
  S  S54  1  0.010197  0.010196  0.250272  1
  S  S55  1  0.388324  0.388332  0.552425  1
  S  S56  1  0.786874  0.786875  0.351486  1
  S  S57  1  0.989803  0.989804  0.749728  1
  S  S58  1  0.186864  0.186873  0.152327  1
  S  S59  1  0.589353  0.589352  0.951319  1
