# generated using pymatgen
data_Tb16Cd3FeNi3Ag
_symmetry_space_group_name_H-M   'P 1'
_cell_length_a   9.53726429
_cell_length_b   9.53726426
_cell_length_c   9.53726320
_cell_angle_alpha   59.93510908
_cell_angle_beta   59.93510830
_cell_angle_gamma   59.93511279
_symmetry_Int_Tables_number   1
_chemical_formula_structural   Tb16Cd3FeNi3Ag
_chemical_formula_sum   'Tb16 Cd3 Fe1 Ni3 Ag1'
_cell_volume   612.51500384
_cell_formula_units_Z   1
loop_
 _symmetry_equiv_pos_site_id
 _symmetry_equiv_pos_as_xyz
  1  'x, y, z'
loop_
 _atom_site_type_symbol
 _atom_site_label
 _atom_site_symmetry_multiplicity
 _atom_site_fract_x
 _atom_site_fract_y
 _atom_site_fract_z
 _atom_site_occupancy
  Tb  Tb0  1  0.347859  0.347859  0.347859  1
  Tb  Tb1  1  0.347233  0.347233  0.955747  1
  Tb  Tb2  1  0.347233  0.955747  0.347233  1
  Tb  Tb3  1  0.955747  0.347233  0.347233  1
  Tb  Tb4  1  0.815759  0.188287  0.188287  1
  Tb  Tb5  1  0.188069  0.810922  0.810922  1
  Tb  Tb6  1  0.188287  0.815759  0.188287  1
  Tb  Tb7  1  0.810922  0.188069  0.810922  1
  Tb  Tb8  1  0.188287  0.188287  0.815759  1
  Tb  Tb9  1  0.810922  0.810922  0.188069  1
  Tb  Tb10  1  0.934535  0.563414  0.563414  1
  Tb  Tb11  1  0.559838  0.937579  0.937579  1
  Tb  Tb12  1  0.563414  0.934535  0.563414  1
  Tb  Tb13  1  0.937579  0.559838  0.937579  1
  Tb  Tb14  1  0.563414  0.563414  0.934535  1
  Tb  Tb15  1  0.937579  0.937579  0.559838  1
  Cd  Cd16  1  0.580947  0.580947  0.257607  1
  Cd  Cd17  1  0.580947  0.257607  0.580947  1
  Cd  Cd18  1  0.257607  0.580947  0.580947  1
  Fe  Fe19  1  0.142729  0.142729  0.142729  1
  Ni  Ni20  1  0.142096  0.142096  0.574566  1
  Ni  Ni21  1  0.142096  0.574566  0.142096  1
  Ni  Ni22  1  0.574566  0.142096  0.142096  1
  Ag  Ag23  1  0.582329  0.582329  0.582329  1
