# generated using pymatgen
data_Tb13Ho7CoBi8Ru3
_symmetry_space_group_name_H-M   'P 1'
_cell_length_a   8.00135923
_cell_length_b   9.00016535
_cell_length_c   12.45662668
_cell_angle_alpha   89.98445016
_cell_angle_beta   90.30795516
_cell_angle_gamma   90.02810834
_symmetry_Int_Tables_number   1
_chemical_formula_structural   Tb13Ho7CoBi8Ru3
_chemical_formula_sum   'Tb13 Ho7 Co1 Bi8 Ru3'
_cell_volume   897.03288751
_cell_formula_units_Z   1
loop_
 _symmetry_equiv_pos_site_id
 _symmetry_equiv_pos_as_xyz
  1  'x, y, z'
loop_
 _atom_site_type_symbol
 _atom_site_label
 _atom_site_symmetry_multiplicity
 _atom_site_fract_x
 _atom_site_fract_y
 _atom_site_fract_z
 _atom_site_occupancy
  Tb  Tb0  1  0.846138  0.750173  0.800260  1
  Tb  Tb1  1  0.154973  0.249959  0.204763  1
  Tb  Tb2  1  0.344956  0.249936  0.706153  1
  Tb  Tb3  1  0.654187  0.750045  0.295092  1
  Tb  Tb4  1  0.377310  0.750054  0.693991  1
  Tb  Tb5  1  0.621426  0.249971  0.306866  1
  Tb  Tb6  1  0.877397  0.249876  0.807895  1
  Tb  Tb7  1  0.119585  0.750216  0.188710  1
  Tb  Tb8  1  0.946176  0.750003  0.504641  1
  Tb  Tb9  1  0.053492  0.250017  0.495967  1
  Tb  Tb10  1  0.449868  0.249883  0.996450  1
  Tb  Tb11  1  0.550121  0.750090  0.003495  1
  Tb  Tb12  1  0.176828  0.541998  0.935736  1
  Ho  Ho13  1  0.675426  0.040943  0.564280  1
  Ho  Ho14  1  0.324112  0.957994  0.435695  1
  Ho  Ho15  1  0.176087  0.957866  0.935824  1
  Ho  Ho16  1  0.324051  0.542004  0.435720  1
  Ho  Ho17  1  0.825231  0.035822  0.062674  1
  Ho  Ho18  1  0.675438  0.459059  0.564253  1
  Ho  Ho19  1  0.824898  0.464275  0.062813  1
  Co  Co20  1  0.932914  0.750218  0.009420  1
  Bi  Bi21  1  0.572196  0.492616  0.827380  1
  Bi  Bi22  1  0.428907  0.507468  0.172438  1
  Bi  Bi23  1  0.070114  0.507434  0.673199  1
  Bi  Bi24  1  0.429001  0.992499  0.172422  1
  Bi  Bi25  1  0.929120  0.493030  0.326548  1
  Bi  Bi26  1  0.571879  0.007373  0.827441  1
  Bi  Bi27  1  0.929084  0.006965  0.326541  1
  Bi  Bi28  1  0.070245  0.992558  0.673336  1
  Ru  Ru29  1  0.572310  0.749985  0.511414  1
  Ru  Ru30  1  0.426453  0.250006  0.488778  1
  Ru  Ru31  1  0.070079  0.249662  0.989800  1
