# generated using pymatgen
data_CeHo(CoC2)2
_symmetry_space_group_name_H-M   'P 1'
_cell_length_a   3.70616578
_cell_length_b   3.69264564
_cell_length_c   7.36053672
_cell_angle_alpha   82.41956697
_cell_angle_beta   82.55359455
_cell_angle_gamma   90.08097920
_symmetry_Int_Tables_number   1
_chemical_formula_structural   CeHo(CoC2)2
_chemical_formula_sum   'Ce1 Ho1 Co2 C4'
_cell_volume   98.99303922
_cell_formula_units_Z   1
loop_
 _symmetry_equiv_pos_site_id
 _symmetry_equiv_pos_as_xyz
  1  'x, y, z'
loop_
 _atom_site_type_symbol
 _atom_site_label
 _atom_site_symmetry_multiplicity
 _atom_site_fract_x
 _atom_site_fract_y
 _atom_site_fract_z
 _atom_site_occupancy
  Ce  Ce0  1  0.932609  0.065787  0.498872  1
  Ho  Ho1  1  0.065887  0.930963  0.001873  1
  Co  Co2  1  0.371992  0.511759  0.694962  1
  Co  Co3  1  0.509455  0.374868  0.192139  1
  C  C4  1  0.445243  0.593955  0.427226  1
  C  C5  1  0.591967  0.443475  0.929336  1
  C  C6  1  0.490162  0.856627  0.270535  1
  C  C7  1  0.859685  0.489567  0.778855  1
