# generated using pymatgen
data_Na3Gd8Ho9Sn16
_symmetry_space_group_name_H-M   'P 1'
_cell_length_a   7.92411000
_cell_length_b   8.11353254
_cell_length_c   15.26662900
_cell_angle_alpha   90.00000000
_cell_angle_beta   90.00000000
_cell_angle_gamma   89.78235619
_symmetry_Int_Tables_number   1
_chemical_formula_structural   Na3Gd8Ho9Sn16
_chemical_formula_sum   'Na3 Gd8 Ho9 Sn16'
_cell_volume   981.52303466
_cell_formula_units_Z   1
loop_
 _symmetry_equiv_pos_site_id
 _symmetry_equiv_pos_as_xyz
  1  'x, y, z'
loop_
 _atom_site_type_symbol
 _atom_site_label
 _atom_site_symmetry_multiplicity
 _atom_site_fract_x
 _atom_site_fract_y
 _atom_site_fract_z
 _atom_site_occupancy
  Na  Na0  1  0.672622  0.003599  0.750000  1
  Na  Na1  1  0.827290  0.502233  0.250000  1
  Na  Na2  1  0.328839  0.998844  0.250000  1
  Gd  Gd3  1  0.504852  0.316285  0.905300  1
  Gd  Gd4  1  0.000373  0.176959  0.593911  1
  Gd  Gd5  1  0.499708  0.682381  0.406473  1
  Gd  Gd6  1  0.998339  0.816906  0.093360  1
  Gd  Gd7  1  0.499708  0.682381  0.093527  1
  Gd  Gd8  1  0.998339  0.816906  0.406640  1
  Gd  Gd9  1  0.504852  0.316285  0.594700  1
  Gd  Gd10  1  0.000373  0.176959  0.906089  1
  Ho  Ho11  1  0.346205  0.833900  0.873785  1
  Ho  Ho12  1  0.841115  0.671475  0.626225  1
  Ho  Ho13  1  0.654865  0.171406  0.372847  1
  Ho  Ho14  1  0.153422  0.332352  0.126055  1
  Ho  Ho15  1  0.654865  0.171406  0.127153  1
  Ho  Ho16  1  0.153422  0.332352  0.373945  1
  Ho  Ho17  1  0.346205  0.833900  0.626215  1
  Ho  Ho18  1  0.841115  0.671475  0.873775  1
  Ho  Ho19  1  0.174534  0.500149  0.750000  1
  Sn  Sn20  1  0.318654  0.040410  0.038263  1
  Sn  Sn21  1  0.816938  0.460369  0.462738  1
  Sn  Sn22  1  0.680243  0.960400  0.536108  1
  Sn  Sn23  1  0.181499  0.534692  0.958591  1
  Sn  Sn24  1  0.680243  0.960400  0.963892  1
  Sn  Sn25  1  0.181499  0.534692  0.541409  1
  Sn  Sn26  1  0.318654  0.040410  0.461737  1
  Sn  Sn27  1  0.816938  0.460369  0.037262  1
  Sn  Sn28  1  0.539142  0.602860  0.750000  1
  Sn  Sn29  1  0.038329  0.891045  0.750000  1
  Sn  Sn30  1  0.459233  0.400157  0.250000  1
  Sn  Sn31  1  0.961761  0.102253  0.250000  1
  Sn  Sn32  1  0.301989  0.145419  0.750000  1
  Sn  Sn33  1  0.810926  0.356409  0.750000  1
  Sn  Sn34  1  0.697675  0.857715  0.250000  1
  Sn  Sn35  1  0.195236  0.644244  0.250000  1
