# generated using pymatgen
data_Ca2DyYCo18(P6Ru)2
_symmetry_space_group_name_H-M   'P 1'
_cell_length_a   3.67404100
_cell_length_b   10.33729611
_cell_length_c   11.75806800
_cell_angle_alpha   89.99173594
_cell_angle_beta   90.00000000
_cell_angle_gamma   90.00000000
_symmetry_Int_Tables_number   1
_chemical_formula_structural   Ca2DyYCo18(P6Ru)2
_chemical_formula_sum   'Ca2 Dy1 Y1 Co18 P12 Ru2'
_cell_volume   446.56729948
_cell_formula_units_Z   1
loop_
 _symmetry_equiv_pos_site_id
 _symmetry_equiv_pos_as_xyz
  1  'x, y, z'
loop_
 _atom_site_type_symbol
 _atom_site_label
 _atom_site_symmetry_multiplicity
 _atom_site_fract_x
 _atom_site_fract_y
 _atom_site_fract_z
 _atom_site_occupancy
  Ca  Ca0  1  0.250000  0.582965  0.703066  1
  Ca  Ca1  1  0.750000  0.413949  0.295119  1
  Dy  Dy2  1  0.250000  0.917160  0.202073  1
  Y  Y3  1  0.750000  0.085794  0.795845  1
  Co  Co4  1  0.750000  0.284459  0.009536  1
  Co  Co5  1  0.750000  0.215334  0.509229  1
  Co  Co6  1  0.250000  0.405724  0.489255  1
  Co  Co7  1  0.250000  0.093752  0.987852  1
  Co  Co8  1  0.750000  0.590916  0.509406  1
  Co  Co9  1  0.750000  0.908876  0.010808  1
  Co  Co10  1  0.250000  0.219136  0.175967  1
  Co  Co11  1  0.250000  0.278863  0.676172  1
  Co  Co12  1  0.750000  0.780170  0.823376  1
  Co  Co13  1  0.750000  0.722227  0.323325  1
  Co  Co14  1  0.250000  0.886877  0.701167  1
  Co  Co15  1  0.250000  0.615287  0.201735  1
  Co  Co16  1  0.750000  0.116282  0.301203  1
  Co  Co17  1  0.750000  0.381813  0.801418  1
  Co  Co18  1  0.250000  0.464516  0.932896  1
  Co  Co19  1  0.250000  0.035857  0.432179  1
  Co  Co20  1  0.750000  0.532727  0.067792  1
  Co  Co21  1  0.750000  0.966986  0.568472  1
  P  P22  1  0.250000  0.417718  0.112766  1
  P  P23  1  0.250000  0.082579  0.611621  1
  P  P24  1  0.750000  0.578892  0.886449  1
  P  P25  1  0.750000  0.921419  0.387010  1
  P  P26  1  0.250000  0.270977  0.869094  1
  P  P27  1  0.250000  0.230505  0.369082  1
  P  P28  1  0.750000  0.727652  0.133422  1
  P  P29  1  0.750000  0.770682  0.632901  1
  P  P30  1  0.250000  0.594812  0.390748  1
  P  P31  1  0.250000  0.904067  0.890313  1
  P  P32  1  0.750000  0.397406  0.608127  1
  P  P33  1  0.750000  0.103178  0.108663  1
  Ru  Ru34  1  0.250000  0.714325  0.991038  1
  Ru  Ru35  1  0.250000  0.786116  0.490878  1
