# generated using pymatgen
data_Rb4BiO4
_symmetry_space_group_name_H-M   'P 1'
_cell_length_a   7.05480162
_cell_length_b   7.08401104
_cell_length_c   10.50036533
_cell_angle_alpha   78.20578490
_cell_angle_beta   71.89723110
_cell_angle_gamma   66.25847922
_symmetry_Int_Tables_number   1
_chemical_formula_structural   Rb4BiO4
_chemical_formula_sum   'Rb8 Bi2 O8'
_cell_volume   454.68102534
_cell_formula_units_Z   2
loop_
 _symmetry_equiv_pos_site_id
 _symmetry_equiv_pos_as_xyz
  1  'x, y, z'
loop_
 _atom_site_type_symbol
 _atom_site_label
 _atom_site_symmetry_multiplicity
 _atom_site_fract_x
 _atom_site_fract_y
 _atom_site_fract_z
 _atom_site_occupancy
  Rb  Rb0  1  0.238698  0.757372  0.971556  1
  Rb  Rb1  1  0.490581  0.728570  0.560083  1
  Rb  Rb2  1  0.582014  0.754483  0.170414  1
  Rb  Rb3  1  0.039840  0.778610  0.386103  1
  Rb  Rb4  1  0.960160  0.221390  0.613897  1
  Rb  Rb5  1  0.417986  0.245517  0.829586  1
  Rb  Rb6  1  0.509419  0.271430  0.439917  1
  Rb  Rb7  1  0.761302  0.242628  0.028444  1
  Bi  Bi8  1  0.850786  0.715214  0.758229  1
  Bi  Bi9  1  0.149214  0.284786  0.241771  1
  O  O10  1  0.831128  0.886377  0.915310  1
  O  O11  1  0.705298  0.959720  0.623170  1
  O  O12  1  0.650051  0.533099  0.805873  1
  O  O13  1  0.836715  0.462847  0.363561  1
  O  O14  1  0.163285  0.537153  0.636439  1
  O  O15  1  0.349949  0.466901  0.194127  1
  O  O16  1  0.294702  0.040280  0.376830  1
  O  O17  1  0.168872  0.113623  0.084690  1
