# generated using pymatgen
data_La20Ir7Os4Au
_symmetry_space_group_name_H-M   'P 1'
_cell_length_a   11.45828118
_cell_length_b   11.45828118
_cell_length_c   6.70504259
_cell_angle_alpha   90.24889343
_cell_angle_beta   90.24889343
_cell_angle_gamma   89.92962445
_symmetry_Int_Tables_number   1
_chemical_formula_structural   La20Ir7Os4Au
_chemical_formula_sum   'La20 Ir7 Os4 Au1'
_cell_volume   880.30258718
_cell_formula_units_Z   1
loop_
 _symmetry_equiv_pos_site_id
 _symmetry_equiv_pos_as_xyz
  1  'x, y, z'
loop_
 _atom_site_type_symbol
 _atom_site_label
 _atom_site_symmetry_multiplicity
 _atom_site_fract_x
 _atom_site_fract_y
 _atom_site_fract_z
 _atom_site_occupancy
  La  La0  1  0.293268  0.088413  0.388568  1
  La  La1  1  0.298357  0.908822  0.887987  1
  La  La2  1  0.698425  0.086331  0.867962  1
  La  La3  1  0.701555  0.903228  0.388455  1
  La  La4  1  0.589980  0.793377  0.890067  1
  La  La5  1  0.579235  0.206342  0.386770  1
  La  La6  1  0.408297  0.795170  0.389999  1
  La  La7  1  0.408066  0.204875  0.890796  1
  La  La8  1  0.206623  0.410020  0.609933  1
  La  La9  1  0.204830  0.591703  0.110001  1
  La  La10  1  0.793658  0.420765  0.113230  1
  La  La11  1  0.795125  0.591934  0.609204  1
  La  La12  1  0.911587  0.706732  0.111432  1
  La  La13  1  0.913669  0.301575  0.632038  1
  La  La14  1  0.091178  0.701643  0.612013  1
  La  La15  1  0.096772  0.298445  0.111545  1
  La  La16  1  0.004653  0.993807  0.503782  1
  La  La17  1  0.006193  0.995347  0.996218  1
  La  La18  1  0.499048  0.500230  0.998684  1
  La  La19  1  0.499770  0.500952  0.501316  1
  Ir  Ir20  1  0.849819  0.849534  0.749067  1
  Ir  Ir21  1  0.150466  0.150181  0.750933  1
  Ir  Ir22  1  0.153399  0.846601  0.250000  1
  Ir  Ir23  1  0.652207  0.347793  0.750000  1
  Ir  Ir24  1  0.651608  0.650899  0.249275  1
  Ir  Ir25  1  0.349101  0.348392  0.250725  1
  Ir  Ir26  1  0.347937  0.652063  0.750000  1
  Os  Os27  1  0.501243  0.999971  0.128200  1
  Os  Os28  1  0.499678  0.000140  0.626505  1
  Os  Os29  1  0.999860  0.500322  0.873495  1
  Os  Os30  1  0.000029  0.498757  0.371800  1
  Au  Au31  1  0.844362  0.155638  0.250000  1
