# generated using pymatgen
data_Ce2HoTmAs6Ru7
_symmetry_space_group_name_H-M   'P 1'
_cell_length_a   7.27664813
_cell_length_b   7.26066046
_cell_length_c   7.25126227
_cell_angle_alpha   109.46167992
_cell_angle_beta   109.39224914
_cell_angle_gamma   109.44455429
_symmetry_Int_Tables_number   1
_chemical_formula_structural   Ce2HoTmAs6Ru7
_chemical_formula_sum   'Ce2 Ho1 Tm1 As6 Ru7'
_cell_volume   295.33498431
_cell_formula_units_Z   1
loop_
 _symmetry_equiv_pos_site_id
 _symmetry_equiv_pos_as_xyz
  1  'x, y, z'
loop_
 _atom_site_type_symbol
 _atom_site_label
 _atom_site_symmetry_multiplicity
 _atom_site_fract_x
 _atom_site_fract_y
 _atom_site_fract_z
 _atom_site_occupancy
  Ce  Ce0  1  0.500000  0.000000  0.000000  1
  Ce  Ce1  1  0.500000  0.500000  0.500000  1
  Ho  Ho2  1  0.000000  0.000000  0.500000  1
  Tm  Tm3  1  0.000000  0.500000  0.000000  1
  As  As4  1  0.312908  0.995086  0.317315  1
  As  As5  1  0.000000  0.317534  0.317083  1
  As  As6  1  0.000000  0.682466  0.682917  1
  As  As7  1  0.312908  0.317823  0.995594  1
  As  As8  1  0.687092  0.682177  0.004406  1
  As  As9  1  0.687092  0.004914  0.682685  1
  Ru  Ru10  1  0.750041  0.499237  0.250024  1
  Ru  Ru11  1  0.499190  0.749595  0.249595  1
  Ru  Ru12  1  0.500810  0.250405  0.750405  1
  Ru  Ru13  1  0.750041  0.250805  0.500018  1
  Ru  Ru14  1  0.249959  0.749195  0.499982  1
  Ru  Ru15  1  0.249959  0.500763  0.749976  1
  Ru  Ru16  1  0.000000  0.000000  0.000000  1
