# generated using pymatgen
data_Eu5Si2SnH
_symmetry_space_group_name_H-M   'P 1'
_cell_length_a   9.34591815
_cell_length_b   9.34591857
_cell_length_c   9.34591700
_cell_angle_alpha   128.92603501
_cell_angle_beta   128.92603707
_cell_angle_gamma   75.12961046
_symmetry_Int_Tables_number   1
_chemical_formula_structural   Eu5Si2SnH
_chemical_formula_sum   'Eu10 Si4 Sn2 H2'
_cell_volume   481.01463774
_cell_formula_units_Z   2
loop_
 _symmetry_equiv_pos_site_id
 _symmetry_equiv_pos_as_xyz
  1  'x, y, z'
loop_
 _atom_site_type_symbol
 _atom_site_label
 _atom_site_symmetry_multiplicity
 _atom_site_fract_x
 _atom_site_fract_y
 _atom_site_fract_z
 _atom_site_occupancy
  Eu  Eu0  1  0.500000  0.500000  0.000000  1
  Eu  Eu1  1  0.000000  0.000000  0.000000  1
  Eu  Eu2  1  0.521567  0.021567  0.832740  1
  Eu  Eu3  1  0.188828  0.688828  0.167260  1
  Eu  Eu4  1  0.021567  0.188828  0.500000  1
  Eu  Eu5  1  0.688828  0.521567  0.500000  1
  Eu  Eu6  1  0.478433  0.978433  0.167260  1
  Eu  Eu7  1  0.811172  0.311172  0.832740  1
  Eu  Eu8  1  0.978433  0.811172  0.500000  1
  Eu  Eu9  1  0.311172  0.478433  0.500000  1
  Si  Si10  1  0.890194  0.390194  0.280389  1
  Si  Si11  1  0.109806  0.609806  0.719611  1
  Si  Si12  1  0.390194  0.109806  0.500000  1
  Si  Si13  1  0.609806  0.890194  0.500000  1
  Sn  Sn14  1  0.250000  0.250000  0.000000  1
  Sn  Sn15  1  0.750000  0.750000  0.000000  1
  H  H16  1  0.250000  0.750000  0.500000  1
  H  H17  1  0.750000  0.250000  0.500000  1
