# generated using pymatgen
data_Li4B4(RuRh)3
_symmetry_space_group_name_H-M   'P 1'
_cell_length_a   2.86916700
_cell_length_b   5.79198466
_cell_length_c   9.46222211
_cell_angle_alpha   90.05507507
_cell_angle_beta   90.00000000
_cell_angle_gamma   90.00000000
_symmetry_Int_Tables_number   1
_chemical_formula_structural   Li4B4(RuRh)3
_chemical_formula_sum   'Li4 B4 Ru3 Rh3'
_cell_volume   157.24475475
_cell_formula_units_Z   1
loop_
 _symmetry_equiv_pos_site_id
 _symmetry_equiv_pos_as_xyz
  1  'x, y, z'
loop_
 _atom_site_type_symbol
 _atom_site_label
 _atom_site_symmetry_multiplicity
 _atom_site_fract_x
 _atom_site_fract_y
 _atom_site_fract_z
 _atom_site_occupancy
  Li  Li0  1  0.500000  0.336982  0.071449  1
  Li  Li1  1  0.500000  0.662802  0.927337  1
  Li  Li2  1  0.500000  0.159873  0.572025  1
  Li  Li3  1  0.500000  0.835613  0.426985  1
  B  B4  1  0.500000  0.069657  0.831270  1
  B  B5  1  0.500000  0.561277  0.670329  1
  B  B6  1  0.500000  0.437935  0.324898  1
  B  B7  1  0.500000  0.936388  0.175354  1
  Ru  Ru8  1  0.000000  0.336111  0.778727  1
  Ru  Ru9  1  0.000000  0.165068  0.281204  1
  Ru  Ru10  1  0.000000  0.663850  0.218640  1
  Rh  Rh11  1  0.000000  0.499079  0.499886  1
  Rh  Rh12  1  0.000000  0.834855  0.721559  1
  Rh  Rh13  1  0.000000  0.000510  0.000336  1
