# generated using pymatgen
data_HoTm3ReOsC4
_symmetry_space_group_name_H-M   'P 1'
_cell_length_a   5.04799500
_cell_length_b   6.47253600
_cell_length_c   9.72352800
_cell_angle_alpha   90.00000000
_cell_angle_beta   90.00000000
_cell_angle_gamma   90.00000000
_symmetry_Int_Tables_number   1
_chemical_formula_structural   HoTm3ReOsC4
_chemical_formula_sum   'Ho2 Tm6 Re2 Os2 C8'
_cell_volume   317.70003294
_cell_formula_units_Z   2
loop_
 _symmetry_equiv_pos_site_id
 _symmetry_equiv_pos_as_xyz
  1  'x, y, z'
loop_
 _atom_site_type_symbol
 _atom_site_label
 _atom_site_symmetry_multiplicity
 _atom_site_fract_x
 _atom_site_fract_y
 _atom_site_fract_z
 _atom_site_occupancy
  Ho  Ho0  1  0.250000  0.319430  0.444588  1
  Ho  Ho1  1  0.750000  0.180570  0.944588  1
  Tm  Tm2  1  0.250000  0.468469  0.783385  1
  Tm  Tm3  1  0.750000  0.031531  0.283385  1
  Tm  Tm4  1  0.250000  0.968900  0.716203  1
  Tm  Tm5  1  0.750000  0.531100  0.216203  1
  Tm  Tm6  1  0.250000  0.823168  0.055212  1
  Tm  Tm7  1  0.750000  0.676832  0.555212  1
  Re  Re8  1  0.250000  0.780604  0.366964  1
  Re  Re9  1  0.750000  0.719396  0.866964  1
  Os  Os10  1  0.250000  0.280582  0.132466  1
  Os  Os11  1  0.750000  0.219418  0.632466  1
  C  C12  1  0.250000  0.174158  0.946562  1
  C  C13  1  0.750000  0.824179  0.054696  1
  C  C14  1  0.250000  0.675821  0.554696  1
  C  C15  1  0.750000  0.325842  0.446562  1
  C  C16  1  0.250000  0.046027  0.258824  1
  C  C17  1  0.750000  0.453973  0.758824  1
  C  C18  1  0.250000  0.546263  0.241100  1
  C  C19  1  0.750000  0.953737  0.741100  1
