# generated using pymatgen
data_Er12TcRu2Rh
_symmetry_space_group_name_H-M   'P 1'
_cell_length_a   6.26714004
_cell_length_b   7.30284305
_cell_length_c   9.06037400
_cell_angle_alpha   90.00000000
_cell_angle_beta   90.00000000
_cell_angle_gamma   89.98705570
_symmetry_Int_Tables_number   1
_chemical_formula_structural   Er12TcRu2Rh
_chemical_formula_sum   'Er12 Tc1 Ru2 Rh1'
_cell_volume   414.67464360
_cell_formula_units_Z   1
loop_
 _symmetry_equiv_pos_site_id
 _symmetry_equiv_pos_as_xyz
  1  'x, y, z'
loop_
 _atom_site_type_symbol
 _atom_site_label
 _atom_site_symmetry_multiplicity
 _atom_site_fract_x
 _atom_site_fract_y
 _atom_site_fract_z
 _atom_site_occupancy
  Er  Er0  1  0.334775  0.675004  0.062447  1
  Er  Er1  1  0.167312  0.178897  0.437476  1
  Er  Er2  1  0.664835  0.324060  0.562508  1
  Er  Er3  1  0.831152  0.823020  0.934532  1
  Er  Er4  1  0.664835  0.324060  0.937492  1
  Er  Er5  1  0.831152  0.823020  0.565468  1
  Er  Er6  1  0.334775  0.675004  0.437553  1
  Er  Er7  1  0.167312  0.178897  0.062524  1
  Er  Er8  1  0.873010  0.538869  0.250000  1
  Er  Er9  1  0.629528  0.039790  0.250000  1
  Er  Er10  1  0.132493  0.458535  0.750000  1
  Er  Er11  1  0.366960  0.958085  0.750000  1
  Tc  Tc12  1  0.461588  0.385725  0.250000  1
  Ru  Ru13  1  0.961995  0.114536  0.750000  1
  Ru  Ru14  1  0.539111  0.616788  0.750000  1
  Rh  Rh15  1  0.039166  0.885713  0.250000  1
