# generated using pymatgen
data_Na6Sr6AlGaSb8
_symmetry_space_group_name_H-M   'P 1'
_cell_length_a   10.30162200
_cell_length_b   10.30162306
_cell_length_c   8.00931100
_cell_angle_alpha   90.00000000
_cell_angle_beta   90.00000000
_cell_angle_gamma   120.00000302
_symmetry_Int_Tables_number   1
_chemical_formula_structural   Na6Sr6AlGaSb8
_chemical_formula_sum   'Na6 Sr6 Al1 Ga1 Sb8'
_cell_volume   736.10037862
_cell_formula_units_Z   1
loop_
 _symmetry_equiv_pos_site_id
 _symmetry_equiv_pos_as_xyz
  1  'x, y, z'
loop_
 _atom_site_type_symbol
 _atom_site_label
 _atom_site_symmetry_multiplicity
 _atom_site_fract_x
 _atom_site_fract_y
 _atom_site_fract_z
 _atom_site_occupancy
  Na  Na0  1  0.857049  0.714098  0.956614  1
  Na  Na1  1  0.857049  0.142951  0.956614  1
  Na  Na2  1  0.143174  0.286348  0.456467  1
  Na  Na3  1  0.285902  0.142951  0.956614  1
  Na  Na4  1  0.143174  0.856826  0.456467  1
  Na  Na5  1  0.713652  0.856826  0.456467  1
  Sr  Sr6  1  0.480203  0.960406  0.780212  1
  Sr  Sr7  1  0.480203  0.519797  0.780212  1
  Sr  Sr8  1  0.520092  0.040184  0.280382  1
  Sr  Sr9  1  0.039594  0.519797  0.780212  1
  Sr  Sr10  1  0.520092  0.479908  0.280382  1
  Sr  Sr11  1  0.959816  0.479908  0.280382  1
  Al  Al12  1  0.333333  0.666667  0.148987  1
  Ga  Ga13  1  0.666667  0.333333  0.648730  1
  Sb  Sb14  1  0.666667  0.333333  0.000817  1
  Sb  Sb15  1  0.333333  0.666667  0.499496  1
  Sb  Sb16  1  0.813232  0.626464  0.555501  1
  Sb  Sb17  1  0.813232  0.186768  0.555501  1
  Sb  Sb18  1  0.187123  0.374244  0.055748  1
  Sb  Sb19  1  0.373536  0.186768  0.555501  1
  Sb  Sb20  1  0.187123  0.812877  0.055748  1
  Sb  Sb21  1  0.625756  0.812877  0.055748  1
