# generated using pymatgen
data_CaDy2Ga9Pd2
_symmetry_space_group_name_H-M   'P 1'
_cell_length_a   4.32059059
_cell_length_b   8.21110751
_cell_length_c   8.21110710
_cell_angle_alpha   71.41466069
_cell_angle_beta   74.74626441
_cell_angle_gamma   74.74626248
_symmetry_Int_Tables_number   1
_chemical_formula_structural   CaDy2Ga9Pd2
_chemical_formula_sum   'Ca1 Dy2 Ga9 Pd2'
_cell_volume   261.21787459
_cell_formula_units_Z   1
loop_
 _symmetry_equiv_pos_site_id
 _symmetry_equiv_pos_as_xyz
  1  'x, y, z'
loop_
 _atom_site_type_symbol
 _atom_site_label
 _atom_site_symmetry_multiplicity
 _atom_site_fract_x
 _atom_site_fract_y
 _atom_site_fract_z
 _atom_site_occupancy
  Ca  Ca0  1  0.500000  0.500000  0.500000  1
  Dy  Dy1  1  0.199747  0.800253  0.800253  1
  Dy  Dy2  1  0.800253  0.199747  0.199747  1
  Ga  Ga3  1  0.360916  0.357204  0.920965  1
  Ga  Ga4  1  0.639084  0.642796  0.079035  1
  Ga  Ga5  1  0.360916  0.920965  0.357204  1
  Ga  Ga6  1  0.639084  0.079035  0.642796  1
  Ga  Ga7  1  0.156553  0.478102  0.208791  1
  Ga  Ga8  1  0.843447  0.521898  0.791209  1
  Ga  Ga9  1  0.156553  0.208791  0.478102  1
  Ga  Ga10  1  0.843447  0.791209  0.521898  1
  Ga  Ga11  1  0.500000  0.000000  0.000000  1
  Pd  Pd12  1  0.000000  0.818217  0.181783  1
  Pd  Pd13  1  0.000000  0.181783  0.818217  1
