# generated using pymatgen
data_Nd5YAl24(CuRu3)2
_symmetry_space_group_name_H-M   'P 1'
_cell_length_a   8.88730093
_cell_length_b   8.88729965
_cell_length_c   9.56458700
_cell_angle_alpha   90.00000000
_cell_angle_beta   90.00000000
_cell_angle_gamma   119.51037356
_symmetry_Int_Tables_number   1
_chemical_formula_structural   Nd5YAl24(CuRu3)2
_chemical_formula_sum   'Nd5 Y1 Al24 Cu2 Ru6'
_cell_volume   657.44315914
_cell_formula_units_Z   1
loop_
 _symmetry_equiv_pos_site_id
 _symmetry_equiv_pos_as_xyz
  1  'x, y, z'
loop_
 _atom_site_type_symbol
 _atom_site_label
 _atom_site_symmetry_multiplicity
 _atom_site_fract_x
 _atom_site_fract_y
 _atom_site_fract_z
 _atom_site_occupancy
  Nd  Nd0  1  0.188878  0.382063  0.250000  1
  Nd  Nd1  1  0.617937  0.811122  0.250000  1
  Nd  Nd2  1  0.808476  0.191524  0.750000  1
  Nd  Nd3  1  0.811599  0.619178  0.750000  1
  Nd  Nd4  1  0.380822  0.188401  0.750000  1
  Y  Y5  1  0.193129  0.806871  0.250000  1
  Al  Al6  1  0.563008  0.436992  0.250000  1
  Al  Al7  1  0.559507  0.123242  0.250000  1
  Al  Al8  1  0.876758  0.440493  0.250000  1
  Al  Al9  1  0.437262  0.562738  0.750000  1
  Al  Al10  1  0.438693  0.875070  0.750000  1
  Al  Al11  1  0.124930  0.561307  0.750000  1
  Al  Al12  1  0.323556  0.155118  0.422078  1
  Al  Al13  1  0.835921  0.164079  0.423286  1
  Al  Al14  1  0.844882  0.676444  0.422078  1
  Al  Al15  1  0.675549  0.843245  0.576571  1
  Al  Al16  1  0.164115  0.835885  0.573943  1
  Al  Al17  1  0.156755  0.324451  0.576571  1
  Al  Al18  1  0.675549  0.843245  0.923429  1
  Al  Al19  1  0.164115  0.835885  0.926057  1
  Al  Al20  1  0.156755  0.324451  0.923429  1
  Al  Al21  1  0.323556  0.155118  0.077922  1
  Al  Al22  1  0.835921  0.164079  0.076714  1
  Al  Al23  1  0.844882  0.676444  0.077922  1
  Al  Al24  1  0.668417  0.331583  0.516330  1
  Al  Al25  1  0.330730  0.669270  0.481997  1
  Al  Al26  1  0.330730  0.669270  0.018003  1
  Al  Al27  1  0.668417  0.331583  0.983670  1
  Al  Al28  1  0.998943  0.001057  0.250000  1
  Al  Al29  1  0.001830  0.998170  0.750000  1
  Cu  Cu30  1  0.499729  0.500271  0.500014  1
  Cu  Cu31  1  0.499729  0.500271  0.999986  1
  Ru  Ru32  1  0.000224  0.999776  0.499604  1
  Ru  Ru33  1  0.000224  0.999776  0.000396  1
  Ru  Ru34  1  0.498759  0.999525  0.499415  1
  Ru  Ru35  1  0.000475  0.501241  0.499415  1
  Ru  Ru36  1  0.498759  0.999525  0.000585  1
  Ru  Ru37  1  0.000475  0.501241  0.000585  1
