# generated using pymatgen
data_Sr2Bi5Rh3
_symmetry_space_group_name_H-M   'P 1'
_cell_length_a   14.26847239
_cell_length_b   14.26847227
_cell_length_c   7.78402600
_cell_angle_alpha   90.00000000
_cell_angle_beta   90.00000000
_cell_angle_gamma   161.06415071
_symmetry_Int_Tables_number   1
_chemical_formula_structural   Sr2Bi5Rh3
_chemical_formula_sum   'Sr4 Bi10 Rh6'
_cell_volume   514.26431835
_cell_formula_units_Z   2
loop_
 _symmetry_equiv_pos_site_id
 _symmetry_equiv_pos_as_xyz
  1  'x, y, z'
loop_
 _atom_site_type_symbol
 _atom_site_label
 _atom_site_symmetry_multiplicity
 _atom_site_fract_x
 _atom_site_fract_y
 _atom_site_fract_z
 _atom_site_occupancy
  Sr  Sr0  1  0.474529  0.525471  0.243942  1
  Sr  Sr1  1  0.171852  0.828148  0.264601  1
  Sr  Sr2  1  0.828148  0.171852  0.764601  1
  Sr  Sr3  1  0.525471  0.474529  0.743942  1
  Bi  Bi4  1  0.405736  0.594264  0.623185  1
  Bi  Bi5  1  0.285989  0.714011  0.490315  1
  Bi  Bi6  1  0.714011  0.285989  0.990315  1
  Bi  Bi7  1  0.121788  0.878212  0.737539  1
  Bi  Bi8  1  0.297286  0.702714  0.066964  1
  Bi  Bi9  1  0.953402  0.046598  0.908512  1
  Bi  Bi10  1  0.702714  0.297286  0.566964  1
  Bi  Bi11  1  0.878212  0.121788  0.237539  1
  Bi  Bi12  1  0.046598  0.953402  0.408512  1
  Bi  Bi13  1  0.594264  0.405736  0.123185  1
  Rh  Rh14  1  0.777499  0.222501  0.283139  1
  Rh  Rh15  1  0.605884  0.394116  0.487825  1
  Rh  Rh16  1  0.051957  0.948043  0.029168  1
  Rh  Rh17  1  0.222501  0.777499  0.783139  1
  Rh  Rh18  1  0.948043  0.051957  0.529168  1
  Rh  Rh19  1  0.394116  0.605884  0.987825  1
