# generated using pymatgen
data_Re5TcIrRh
_symmetry_space_group_name_H-M   'P 1'
_cell_length_a   5.57509605
_cell_length_b   5.57509579
_cell_length_c   4.39369100
_cell_angle_alpha   90.00000000
_cell_angle_beta   90.00000000
_cell_angle_gamma   119.99691833
_symmetry_Int_Tables_number   1
_chemical_formula_structural   Re5TcIrRh
_chemical_formula_sum   'Re5 Tc1 Ir1 Rh1'
_cell_volume   118.27101266
_cell_formula_units_Z   1
loop_
 _symmetry_equiv_pos_site_id
 _symmetry_equiv_pos_as_xyz
  1  'x, y, z'
loop_
 _atom_site_type_symbol
 _atom_site_label
 _atom_site_symmetry_multiplicity
 _atom_site_fract_x
 _atom_site_fract_y
 _atom_site_fract_z
 _atom_site_occupancy
  Re  Re0  1  0.159624  0.321387  0.250000  1
  Re  Re1  1  0.678613  0.840376  0.250000  1
  Re  Re2  1  0.160570  0.839430  0.250000  1
  Re  Re3  1  0.837754  0.676989  0.750000  1
  Re  Re4  1  0.323011  0.162246  0.750000  1
  Tc  Tc5  1  0.839205  0.160795  0.750000  1
  Ir  Ir6  1  0.334100  0.665900  0.750000  1
  Rh  Rh7  1  0.667123  0.332877  0.250000  1
