# generated using pymatgen
data_Ho6ZnCo2Sn11
_symmetry_space_group_name_H-M   'P 1'
_cell_length_a   8.40396116
_cell_length_b   8.40396159
_cell_length_c   12.99451645
_cell_angle_alpha   89.97122001
_cell_angle_beta   90.02877909
_cell_angle_gamma   148.71838018
_symmetry_Int_Tables_number   1
_chemical_formula_structural   Ho6ZnCo2Sn11
_chemical_formula_sum   'Ho6 Zn1 Co2 Sn11'
_cell_volume   476.54121208
_cell_formula_units_Z   1
loop_
 _symmetry_equiv_pos_site_id
 _symmetry_equiv_pos_as_xyz
  1  'x, y, z'
loop_
 _atom_site_type_symbol
 _atom_site_label
 _atom_site_symmetry_multiplicity
 _atom_site_fract_x
 _atom_site_fract_y
 _atom_site_fract_z
 _atom_site_occupancy
  Ho  Ho0  1  0.897940  0.102060  0.096084  1
  Ho  Ho1  1  0.099298  0.900702  0.593386  1
  Ho  Ho2  1  0.899088  0.100912  0.749382  1
  Ho  Ho3  1  0.102616  0.897384  0.903425  1
  Ho  Ho4  1  0.100760  0.899240  0.253812  1
  Ho  Ho5  1  0.899824  0.100176  0.405350  1
  Zn  Zn6  1  0.751517  0.248483  0.570015  1
  Co  Co7  1  0.301118  0.698882  0.251505  1
  Co  Co8  1  0.700369  0.299631  0.748051  1
  Sn  Sn9  1  0.423157  0.576843  0.573809  1
  Sn  Sn10  1  0.573757  0.426243  0.427551  1
  Sn  Sn11  1  0.734949  0.265051  0.257189  1
  Sn  Sn12  1  0.264241  0.735759  0.734562  1
  Sn  Sn13  1  0.242895  0.757105  0.072888  1
  Sn  Sn14  1  0.249310  0.750690  0.438061  1
  Sn  Sn15  1  0.574151  0.425849  0.074837  1
  Sn  Sn16  1  0.456373  0.543627  0.250366  1
  Sn  Sn17  1  0.544807  0.455193  0.748499  1
  Sn  Sn18  1  0.756954  0.243046  0.926361  1
  Sn  Sn19  1  0.426877  0.573123  0.924866  1
