# generated using pymatgen
data_Dy4Ho15ThSn16
_symmetry_space_group_name_H-M   'P 1'
_cell_length_a   8.03654646
_cell_length_b   8.17316283
_cell_length_c   15.45223600
_cell_angle_alpha   90.02349830
_cell_angle_beta   89.52819929
_cell_angle_gamma   89.78222416
_symmetry_Int_Tables_number   1
_chemical_formula_structural   Dy4Ho15ThSn16
_chemical_formula_sum   'Dy4 Ho15 Th1 Sn16'
_cell_volume   1014.92287326
_cell_formula_units_Z   1
loop_
 _symmetry_equiv_pos_site_id
 _symmetry_equiv_pos_as_xyz
  1  'x, y, z'
loop_
 _atom_site_type_symbol
 _atom_site_label
 _atom_site_symmetry_multiplicity
 _atom_site_fract_x
 _atom_site_fract_y
 _atom_site_fract_z
 _atom_site_occupancy
  Dy  Dy0  1  0.479673  0.677438  0.096549  1
  Dy  Dy1  1  0.976789  0.820677  0.401808  1
  Dy  Dy2  1  0.521413  0.321346  0.597894  1
  Dy  Dy3  1  0.017653  0.179867  0.902682  1
  Ho  Ho4  1  0.363950  0.836369  0.876045  1
  Ho  Ho5  1  0.867786  0.661847  0.621925  1
  Ho  Ho6  1  0.630968  0.162351  0.377932  1
  Ho  Ho7  1  0.134544  0.337686  0.122837  1
  Ho  Ho8  1  0.635684  0.163533  0.123700  1
  Ho  Ho9  1  0.132071  0.337136  0.379086  1
  Ho  Ho10  1  0.368507  0.838140  0.622656  1
  Ho  Ho11  1  0.864427  0.662727  0.876795  1
  Ho  Ho12  1  0.519721  0.321346  0.902074  1
  Ho  Ho13  1  0.022184  0.178625  0.598260  1
  Ho  Ho14  1  0.478418  0.677594  0.403817  1
  Ho  Ho15  1  0.197652  0.502559  0.749193  1
  Ho  Ho16  1  0.697190  0.997650  0.749396  1
  Ho  Ho17  1  0.802450  0.498291  0.251107  1
  Ho  Ho18  1  0.302541  0.003266  0.251299  1
  Th  Th19  1  0.985379  0.820559  0.095316  1
  Sn  Sn20  1  0.300775  0.042373  0.039889  1
  Sn  Sn21  1  0.791184  0.462450  0.458438  1
  Sn  Sn22  1  0.708599  0.963969  0.541824  1
  Sn  Sn23  1  0.205613  0.537571  0.958223  1
  Sn  Sn24  1  0.701513  0.964210  0.957360  1
  Sn  Sn25  1  0.208744  0.537620  0.541971  1
  Sn  Sn26  1  0.290887  0.034541  0.458552  1
  Sn  Sn27  1  0.793581  0.461216  0.041319  1
  Sn  Sn28  1  0.564126  0.618938  0.749270  1
  Sn  Sn29  1  0.063209  0.880567  0.749249  1
  Sn  Sn30  1  0.436056  0.379723  0.250602  1
  Sn  Sn31  1  0.936279  0.121256  0.250118  1
  Sn  Sn32  1  0.329098  0.148625  0.750570  1
  Sn  Sn33  1  0.830147  0.351836  0.749997  1
  Sn  Sn34  1  0.668052  0.850899  0.250375  1
  Sn  Sn35  1  0.173138  0.645195  0.251873  1
