# generated using pymatgen
data_NpTaI9
_symmetry_space_group_name_H-M   'P 1'
_cell_length_a   13.75060000
_cell_length_b   7.98241918
_cell_length_c   11.07946032
_cell_angle_alpha   75.39122284
_cell_angle_beta   90.00000000
_cell_angle_gamma   90.00000000
_symmetry_Int_Tables_number   1
_chemical_formula_structural   NpTaI9
_chemical_formula_sum   'Np2 Ta2 I18'
_cell_volume   1176.79904369
_cell_formula_units_Z   2
loop_
 _symmetry_equiv_pos_site_id
 _symmetry_equiv_pos_as_xyz
  1  'x, y, z'
loop_
 _atom_site_type_symbol
 _atom_site_label
 _atom_site_symmetry_multiplicity
 _atom_site_fract_x
 _atom_site_fract_y
 _atom_site_fract_z
 _atom_site_occupancy
  Np  Np0  1  0.250000  0.754117  0.478911  1
  Np  Np1  1  0.750000  0.245883  0.521089  1
  Ta  Ta2  1  0.250000  0.645666  0.856035  1
  Ta  Ta3  1  0.750000  0.354334  0.143965  1
  I  I4  1  0.609244  0.444756  0.314417  1
  I  I5  1  0.109244  0.555244  0.685583  1
  I  I6  1  0.390756  0.555244  0.685583  1
  I  I7  1  0.890756  0.444756  0.314417  1
  I  I8  1  0.750000  0.682486  0.012316  1
  I  I9  1  0.250000  0.317514  0.987684  1
  I  I10  1  0.750000  0.524255  0.646469  1
  I  I11  1  0.250000  0.475745  0.353531  1
  I  I12  1  0.750000  0.022060  0.327307  1
  I  I13  1  0.250000  0.977940  0.672693  1
  I  I14  1  0.895121  0.246393  0.024181  1
  I  I15  1  0.395121  0.753607  0.975819  1
  I  I16  1  0.104879  0.753607  0.975819  1
  I  I17  1  0.604879  0.246393  0.024181  1
  I  I18  1  0.908352  0.048716  0.662765  1
  I  I19  1  0.408352  0.951284  0.337235  1
  I  I20  1  0.091648  0.951284  0.337235  1
  I  I21  1  0.591648  0.048716  0.662765  1
