# generated using pymatgen
data_LaAl6Cu7
_symmetry_space_group_name_H-M   'P 1'
_cell_length_a   8.41029208
_cell_length_b   8.41029071
_cell_length_c   8.41029114
_cell_angle_alpha   121.86803768
_cell_angle_beta   118.50446142
_cell_angle_gamma   89.70252780
_symmetry_Int_Tables_number   1
_chemical_formula_structural   LaAl6Cu7
_chemical_formula_sum   'La2 Al12 Cu14'
_cell_volume   419.00224275
_cell_formula_units_Z   2
loop_
 _symmetry_equiv_pos_site_id
 _symmetry_equiv_pos_as_xyz
  1  'x, y, z'
loop_
 _atom_site_type_symbol
 _atom_site_label
 _atom_site_symmetry_multiplicity
 _atom_site_fract_x
 _atom_site_fract_y
 _atom_site_fract_z
 _atom_site_occupancy
  La  La0  1  0.250000  0.750000  0.500000  1
  La  La1  1  0.750000  0.250000  0.500000  1
  Al  Al2  1  0.555201  0.546903  0.358056  1
  Al  Al3  1  0.444799  0.453097  0.641944  1
  Al  Al4  1  0.188847  0.197145  0.641944  1
  Al  Al5  1  0.311153  0.953097  0.008297  1
  Al  Al6  1  0.811153  0.802855  0.358056  1
  Al  Al7  1  0.688847  0.046903  0.991703  1
  Al  Al8  1  0.944799  0.302855  0.991703  1
  Al  Al9  1  0.055201  0.697145  0.008297  1
  Al  Al10  1  0.052475  0.309770  0.362245  1
  Al  Al11  1  0.947525  0.690230  0.637755  1
  Al  Al12  1  0.552475  0.190230  0.742704  1
  Al  Al13  1  0.447525  0.809770  0.257296  1
  Cu  Cu14  1  0.285517  0.298451  0.232610  1
  Cu  Cu15  1  0.714483  0.701549  0.767390  1
  Cu  Cu16  1  0.065841  0.052907  0.767390  1
  Cu  Cu17  1  0.434159  0.201549  0.987066  1
  Cu  Cu18  1  0.934159  0.947093  0.232610  1
  Cu  Cu19  1  0.565841  0.798451  0.012934  1
  Cu  Cu20  1  0.214483  0.447093  0.012934  1
  Cu  Cu21  1  0.785517  0.552907  0.987066  1
  Cu  Cu22  1  0.000000  0.000000  0.000000  1
  Cu  Cu23  1  0.500000  0.500000  0.000000  1
  Cu  Cu24  1  0.286692  0.065434  0.352127  1
  Cu  Cu25  1  0.713308  0.934566  0.647873  1
  Cu  Cu26  1  0.786692  0.434566  0.221258  1
  Cu  Cu27  1  0.213308  0.565434  0.778742  1
