# generated using pymatgen
data_TbHo4TlIn4Ir
_symmetry_space_group_name_H-M   'P 1'
_cell_length_a   3.61508500
_cell_length_b   8.39206817
_cell_length_c   18.62785999
_cell_angle_alpha   89.33637844
_cell_angle_beta   90.00000000
_cell_angle_gamma   90.00000000
_symmetry_Int_Tables_number   1
_chemical_formula_structural   TbHo4TlIn4Ir
_chemical_formula_sum   'Tb2 Ho8 Tl2 In8 Ir2'
_cell_volume   565.09485074
_cell_formula_units_Z   2
loop_
 _symmetry_equiv_pos_site_id
 _symmetry_equiv_pos_as_xyz
  1  'x, y, z'
loop_
 _atom_site_type_symbol
 _atom_site_label
 _atom_site_symmetry_multiplicity
 _atom_site_fract_x
 _atom_site_fract_y
 _atom_site_fract_z
 _atom_site_occupancy
  Tb  Tb0  1  0.000000  0.500000  0.500000  1
  Tb  Tb1  1  0.000000  0.000000  0.000000  1
  Ho  Ho2  1  0.000000  0.700570  0.275800  1
  Ho  Ho3  1  0.000000  0.299430  0.724200  1
  Ho  Ho4  1  0.000000  0.729082  0.787209  1
  Ho  Ho5  1  0.000000  0.270918  0.212791  1
  Ho  Ho6  1  0.000000  0.612751  0.084767  1
  Ho  Ho7  1  0.000000  0.387249  0.915233  1
  Ho  Ho8  1  0.000000  0.874445  0.574169  1
  Ho  Ho9  1  0.000000  0.125555  0.425831  1
  Tl  Tl10  1  0.500000  0.979907  0.700160  1
  Tl  Tl11  1  0.500000  0.020093  0.299840  1
  In  In12  1  0.500000  0.706595  0.934389  1
  In  In13  1  0.500000  0.293405  0.065611  1
  In  In14  1  0.500000  0.788595  0.431297  1
  In  In15  1  0.500000  0.211405  0.568703  1
  In  In16  1  0.500000  0.579881  0.647323  1
  In  In17  1  0.500000  0.420119  0.352677  1
  In  In18  1  0.500000  0.910332  0.144486  1
  In  In19  1  0.500000  0.089668  0.855514  1
  Ir  Ir20  1  0.500000  0.521756  0.194144  1
  Ir  Ir21  1  0.500000  0.478244  0.805856  1
