# generated using pymatgen
data_Ca2Tb(B3Ir4)2
_symmetry_space_group_name_H-M   'P 1'
_cell_length_a   9.94001540
_cell_length_b   9.08455732
_cell_length_c   5.63047204
_cell_angle_alpha   81.32641267
_cell_angle_beta   64.62009808
_cell_angle_gamma   34.05349704
_symmetry_Int_Tables_number   1
_chemical_formula_structural   Ca2Tb(B3Ir4)2
_chemical_formula_sum   'Ca2 Tb1 B6 Ir8'
_cell_volume   235.32027384
_cell_formula_units_Z   1
loop_
 _symmetry_equiv_pos_site_id
 _symmetry_equiv_pos_as_xyz
  1  'x, y, z'
loop_
 _atom_site_type_symbol
 _atom_site_label
 _atom_site_symmetry_multiplicity
 _atom_site_fract_x
 _atom_site_fract_y
 _atom_site_fract_z
 _atom_site_occupancy
  Ca  Ca0  1  0.318202  0.318202  0.681798  1
  Ca  Ca1  1  0.681798  0.681798  0.318202  1
  Tb  Tb2  1  0.500000  0.500000  0.500000  1
  B  B3  1  0.670702  0.983250  0.016750  1
  B  B4  1  0.983250  0.670702  0.329298  1
  B  B5  1  0.329298  0.016750  0.983250  1
  B  B6  1  0.016750  0.329298  0.670702  1
  B  B7  1  0.167677  0.832323  0.167677  1
  B  B8  1  0.832323  0.167677  0.832323  1
  Ir  Ir9  1  0.585067  0.585067  0.914933  1
  Ir  Ir10  1  0.913411  0.913411  0.086589  1
  Ir  Ir11  1  0.414933  0.414933  0.085067  1
  Ir  Ir12  1  0.085067  0.085067  0.414933  1
  Ir  Ir13  1  0.914933  0.914933  0.585067  1
  Ir  Ir14  1  0.250000  0.250000  0.250000  1
  Ir  Ir15  1  0.086589  0.086589  0.913411  1
  Ir  Ir16  1  0.750000  0.750000  0.750000  1
