# generated using pymatgen
data_Y4Al18PdRh5
_symmetry_space_group_name_H-M   'P 1'
_cell_length_a   7.56716780
_cell_length_b   7.56716826
_cell_length_c   9.46814971
_cell_angle_alpha   89.97765007
_cell_angle_beta   89.97764775
_cell_angle_gamma   119.51254924
_symmetry_Int_Tables_number   1
_chemical_formula_structural   Y4Al18PdRh5
_chemical_formula_sum   'Y4 Al18 Pd1 Rh5'
_cell_volume   471.81819664
_cell_formula_units_Z   1
loop_
 _symmetry_equiv_pos_site_id
 _symmetry_equiv_pos_as_xyz
  1  'x, y, z'
loop_
 _atom_site_type_symbol
 _atom_site_label
 _atom_site_symmetry_multiplicity
 _atom_site_fract_x
 _atom_site_fract_y
 _atom_site_fract_z
 _atom_site_occupancy
  Y  Y0  1  0.994505  0.670123  0.250474  1
  Y  Y1  1  0.004784  0.329274  0.749701  1
  Y  Y2  1  0.670726  0.995216  0.250299  1
  Y  Y3  1  0.329877  0.005495  0.749526  1
  Al  Al4  1  0.127536  0.126831  0.250482  1
  Al  Al5  1  0.873169  0.872464  0.749518  1
  Al  Al6  1  0.004843  0.335332  0.076274  1
  Al  Al7  1  0.002541  0.668569  0.924030  1
  Al  Al8  1  0.999950  0.665052  0.574252  1
  Al  Al9  1  0.334948  0.000050  0.425748  1
  Al  Al10  1  0.000646  0.334736  0.425123  1
  Al  Al11  1  0.665264  0.999354  0.574877  1
  Al  Al12  1  0.664668  0.995157  0.923726  1
  Al  Al13  1  0.331431  0.997459  0.075970  1
  Al  Al14  1  0.332845  0.332925  0.550457  1
  Al  Al15  1  0.667075  0.667155  0.449543  1
  Al  Al16  1  0.666483  0.669683  0.053067  1
  Al  Al17  1  0.330317  0.333517  0.946933  1
  Al  Al18  1  0.339911  0.549694  0.250440  1
  Al  Al19  1  0.660256  0.452946  0.746842  1
  Al  Al20  1  0.547054  0.339744  0.253158  1
  Al  Al21  1  0.450306  0.660089  0.749560  1
  Pd  Pd22  1  0.672394  0.327606  0.000000  1
  Rh  Rh23  1  0.328169  0.671831  0.000000  1
  Rh  Rh24  1  0.328164  0.671836  0.500000  1
  Rh  Rh25  1  0.672079  0.327921  0.500000  1
  Rh  Rh26  1  0.999928  0.000072  0.000000  1
  Rh  Rh27  1  0.000133  0.999867  0.500000  1
