# generated using pymatgen
data_Sc3Hg5
_symmetry_space_group_name_H-M   'P 1'
_cell_length_a   6.14991045
_cell_length_b   6.14990942
_cell_length_c   9.69177900
_cell_angle_alpha   90.00000000
_cell_angle_beta   90.00000000
_cell_angle_gamma   105.16008995
_symmetry_Int_Tables_number   1
_chemical_formula_structural   Sc3Hg5
_chemical_formula_sum   'Sc6 Hg10'
_cell_volume   353.79999953
_cell_formula_units_Z   2
loop_
 _symmetry_equiv_pos_site_id
 _symmetry_equiv_pos_as_xyz
  1  'x, y, z'
loop_
 _atom_site_type_symbol
 _atom_site_label
 _atom_site_symmetry_multiplicity
 _atom_site_fract_x
 _atom_site_fract_y
 _atom_site_fract_z
 _atom_site_occupancy
  Sc  Sc0  1  0.777261  0.222739  0.000000  1
  Sc  Sc1  1  0.222739  0.777261  0.000000  1
  Sc  Sc2  1  0.222739  0.777261  0.500000  1
  Sc  Sc3  1  0.777261  0.222739  0.500000  1
  Sc  Sc4  1  0.550307  0.550307  0.250000  1
  Sc  Sc5  1  0.449693  0.449693  0.750000  1
  Hg  Hg6  1  0.027405  0.478202  0.250000  1
  Hg  Hg7  1  0.972595  0.521798  0.750000  1
  Hg  Hg8  1  0.478202  0.027405  0.250000  1
  Hg  Hg9  1  0.521798  0.972595  0.750000  1
  Hg  Hg10  1  0.959589  0.959589  0.250000  1
  Hg  Hg11  1  0.040411  0.040411  0.750000  1
  Hg  Hg12  1  0.284816  0.284816  0.023727  1
  Hg  Hg13  1  0.715184  0.715184  0.976273  1
  Hg  Hg14  1  0.715184  0.715184  0.523727  1
  Hg  Hg15  1  0.284816  0.284816  0.476273  1
