# generated using pymatgen
data_Hf2GeRh5
_symmetry_space_group_name_H-M   'P 1'
_cell_length_a   4.07621400
_cell_length_b   5.56629700
_cell_length_c   10.91279500
_cell_angle_alpha   90.00000000
_cell_angle_beta   90.00000000
_cell_angle_gamma   90.00000000
_symmetry_Int_Tables_number   1
_chemical_formula_structural   Hf2GeRh5
_chemical_formula_sum   'Hf4 Ge2 Rh10'
_cell_volume   247.60496468
_cell_formula_units_Z   2
loop_
 _symmetry_equiv_pos_site_id
 _symmetry_equiv_pos_as_xyz
  1  'x, y, z'
loop_
 _atom_site_type_symbol
 _atom_site_label
 _atom_site_symmetry_multiplicity
 _atom_site_fract_x
 _atom_site_fract_y
 _atom_site_fract_z
 _atom_site_occupancy
  Hf  Hf0  1  0.500000  0.175546  0.641093  1
  Hf  Hf1  1  0.500000  0.824454  0.358907  1
  Hf  Hf2  1  0.500000  0.675546  0.858907  1
  Hf  Hf3  1  0.500000  0.324454  0.141093  1
  Ge  Ge4  1  0.000000  0.500000  0.500000  1
  Ge  Ge5  1  0.000000  0.000000  0.000000  1
  Rh  Rh6  1  0.500000  0.185110  0.893309  1
  Rh  Rh7  1  0.500000  0.814890  0.106691  1
  Rh  Rh8  1  0.500000  0.685110  0.606691  1
  Rh  Rh9  1  0.500000  0.314890  0.393309  1
  Rh  Rh10  1  0.000000  0.429146  0.743919  1
  Rh  Rh11  1  0.000000  0.570854  0.256081  1
  Rh  Rh12  1  0.000000  0.000000  0.500000  1
  Rh  Rh13  1  0.000000  0.500000  0.000000  1
  Rh  Rh14  1  0.000000  0.070854  0.243919  1
  Rh  Rh15  1  0.000000  0.929146  0.756081  1
