# generated using pymatgen
data_TiMn3Zn2(B2Rh5)2
_symmetry_space_group_name_H-M   'P 1'
_cell_length_a   9.33785046
_cell_length_b   9.33785046
_cell_length_c   2.93590500
_cell_angle_alpha   90.00000000
_cell_angle_beta   90.00000000
_cell_angle_gamma   89.42279684
_symmetry_Int_Tables_number   1
_chemical_formula_structural   TiMn3Zn2(B2Rh5)2
_chemical_formula_sum   'Ti1 Mn3 Zn2 B4 Rh10'
_cell_volume   255.98457099
_cell_formula_units_Z   1
loop_
 _symmetry_equiv_pos_site_id
 _symmetry_equiv_pos_as_xyz
  1  'x, y, z'
loop_
 _atom_site_type_symbol
 _atom_site_label
 _atom_site_symmetry_multiplicity
 _atom_site_fract_x
 _atom_site_fract_y
 _atom_site_fract_z
 _atom_site_occupancy
  Ti  Ti0  1  0.824311  0.324311  0.000000  1
  Mn  Mn1  1  0.322959  0.176775  0.000000  1
  Mn  Mn2  1  0.676775  0.822959  0.000000  1
  Mn  Mn3  1  0.178586  0.678586  0.000000  1
  Zn  Zn4  1  0.999908  0.998922  0.000000  1
  Zn  Zn5  1  0.498922  0.499908  0.000000  1
  B  B6  1  0.625602  0.125602  0.000000  1
  B  B7  1  0.128271  0.371172  0.000000  1
  B  B8  1  0.871172  0.628271  0.000000  1
  B  B9  1  0.371983  0.871983  0.000000  1
  Rh  Rh10  1  0.065756  0.216701  0.500000  1
  Rh  Rh11  1  0.216155  0.931187  0.500000  1
  Rh  Rh12  1  0.785187  0.074286  0.500000  1
  Rh  Rh13  1  0.928549  0.783461  0.500000  1
  Rh  Rh14  1  0.431187  0.716155  0.500000  1
  Rh  Rh15  1  0.574286  0.285187  0.500000  1
  Rh  Rh16  1  0.716701  0.565756  0.500000  1
  Rh  Rh17  1  0.283461  0.428549  0.500000  1
  Rh  Rh18  1  0.500662  0.000662  0.500000  1
  Rh  Rh19  1  0.999568  0.499568  0.500000  1
