# generated using pymatgen
data_EuDy5NbO12
_symmetry_space_group_name_H-M   'P 1'
_cell_length_a   6.50132139
_cell_length_b   6.54934518
_cell_length_c   6.55376000
_cell_angle_alpha   98.93580471
_cell_angle_beta   98.99167750
_cell_angle_gamma   98.40647129
_symmetry_Int_Tables_number   1
_chemical_formula_structural   EuDy5NbO12
_chemical_formula_sum   'Eu1 Dy5 Nb1 O12'
_cell_volume   268.09277155
_cell_formula_units_Z   1
loop_
 _symmetry_equiv_pos_site_id
 _symmetry_equiv_pos_as_xyz
  1  'x, y, z'
loop_
 _atom_site_type_symbol
 _atom_site_label
 _atom_site_symmetry_multiplicity
 _atom_site_fract_x
 _atom_site_fract_y
 _atom_site_fract_z
 _atom_site_occupancy
  Eu  Eu0  1  0.858654  0.693165  0.402143  1
  Dy  Dy1  1  0.143494  0.303377  0.616008  1
  Dy  Dy2  1  0.388514  0.861852  0.700128  1
  Dy  Dy3  1  0.694537  0.387749  0.859153  1
  Dy  Dy4  1  0.302240  0.609766  0.133953  1
  Dy  Dy5  1  0.609051  0.140777  0.307275  1
  Nb  Nb6  1  0.997277  0.000966  0.007027  1
  O  O7  1  0.073021  0.304403  0.957453  1
  O  O8  1  0.049725  0.936129  0.694011  1
  O  O9  1  0.410600  0.563727  0.820030  1
  O  O10  1  0.174839  0.589089  0.433616  1
  O  O11  1  0.696036  0.042674  0.925540  1
  O  O12  1  0.436996  0.174299  0.585724  1
  O  O13  1  0.563598  0.818357  0.410796  1
  O  O14  1  0.305364  0.956379  0.071872  1
  O  O15  1  0.822015  0.406293  0.565242  1
  O  O16  1  0.587215  0.433477  0.176974  1
  O  O17  1  0.959807  0.078702  0.301846  1
  O  O18  1  0.927017  0.698819  0.031212  1
