# generated using pymatgen
data_DyTa8CoS16
_symmetry_space_group_name_H-M   'P 1'
_cell_length_a   6.68501801
_cell_length_b   6.68476306
_cell_length_c   12.87612709
_cell_angle_alpha   89.98617047
_cell_angle_beta   90.00652221
_cell_angle_gamma   119.99830458
_symmetry_Int_Tables_number   1
_chemical_formula_structural   DyTa8CoS16
_chemical_formula_sum   'Dy1 Ta8 Co1 S16'
_cell_volume   498.32410239
_cell_formula_units_Z   1
loop_
 _symmetry_equiv_pos_site_id
 _symmetry_equiv_pos_as_xyz
  1  'x, y, z'
loop_
 _atom_site_type_symbol
 _atom_site_label
 _atom_site_symmetry_multiplicity
 _atom_site_fract_x
 _atom_site_fract_y
 _atom_site_fract_z
 _atom_site_occupancy
  Dy  Dy0  1  0.000000  0.000000  0.500000  1
  Ta  Ta1  1  0.504887  0.495131  0.770034  1
  Ta  Ta2  1  0.009838  0.504900  0.229967  1
  Ta  Ta3  1  0.495117  0.990222  0.229992  1
  Ta  Ta4  1  0.504883  0.009778  0.770008  1
  Ta  Ta5  1  0.990162  0.495100  0.770033  1
  Ta  Ta6  1  0.495113  0.504869  0.229966  1
  Ta  Ta7  1  0.999982  0.999970  0.769296  1
  Ta  Ta8  1  0.000018  0.000030  0.230704  1
  Co  Co9  1  0.000000  0.000000  0.000000  1
  S  S10  1  0.831354  0.168573  0.352626  1
  S  S11  1  0.831394  0.662786  0.352610  1
  S  S12  1  0.337264  0.168595  0.352573  1
  S  S13  1  0.665719  0.832859  0.889081  1
  S  S14  1  0.168606  0.337214  0.647390  1
  S  S15  1  0.167067  0.832828  0.889102  1
  S  S16  1  0.167055  0.334209  0.889073  1
  S  S17  1  0.832933  0.167172  0.110898  1
  S  S18  1  0.334281  0.167141  0.110919  1
  S  S19  1  0.662736  0.831405  0.647427  1
  S  S20  1  0.333338  0.666644  0.107474  1
  S  S21  1  0.666641  0.333335  0.644704  1
  S  S22  1  0.666662  0.333356  0.892526  1
  S  S23  1  0.333359  0.666665  0.355296  1
  S  S24  1  0.832945  0.665791  0.110927  1
  S  S25  1  0.168646  0.831427  0.647374  1
