# generated using pymatgen
data_Y2CoIrI2
_symmetry_space_group_name_H-M   'P 1'
_cell_length_a   4.13653700
_cell_length_b   4.13653714
_cell_length_c   12.16919800
_cell_angle_alpha   90.00000000
_cell_angle_beta   90.00000000
_cell_angle_gamma   120.00000687
_symmetry_Int_Tables_number   1
_chemical_formula_structural   Y2CoIrI2
_chemical_formula_sum   'Y2 Co1 Ir1 I2'
_cell_volume   180.32934302
_cell_formula_units_Z   1
loop_
 _symmetry_equiv_pos_site_id
 _symmetry_equiv_pos_as_xyz
  1  'x, y, z'
loop_
 _atom_site_type_symbol
 _atom_site_label
 _atom_site_symmetry_multiplicity
 _atom_site_fract_x
 _atom_site_fract_y
 _atom_site_fract_z
 _atom_site_occupancy
  Y  Y0  1  0.000000  0.000000  0.349596  1
  Y  Y1  1  0.000000  0.000000  0.649981  1
  Co  Co2  1  0.666666  0.333333  0.504076  1
  Ir  Ir3  1  0.333333  0.666666  0.496310  1
  I  I4  1  0.666666  0.333333  0.175760  1
  I  I5  1  0.333333  0.666666  0.824277  1
