# generated using pymatgen
data_La6Y2SnPd24
_symmetry_space_group_name_H-M   'P 1'
_cell_length_a   8.55997492
_cell_length_b   8.55997492
_cell_length_c   8.55997492
_cell_angle_alpha   89.79659342
_cell_angle_beta   89.79659342
_cell_angle_gamma   89.79659342
_symmetry_Int_Tables_number   1
_chemical_formula_structural   La6Y2SnPd24
_chemical_formula_sum   'La6 Y2 Sn1 Pd24'
_cell_volume   627.20467414
_cell_formula_units_Z   1
loop_
 _symmetry_equiv_pos_site_id
 _symmetry_equiv_pos_as_xyz
  1  'x, y, z'
loop_
 _atom_site_type_symbol
 _atom_site_label
 _atom_site_symmetry_multiplicity
 _atom_site_fract_x
 _atom_site_fract_y
 _atom_site_fract_z
 _atom_site_occupancy
  La  La0  1  0.747184  0.747184  0.252337  1
  La  La1  1  0.747184  0.252337  0.747184  1
  La  La2  1  0.252816  0.252816  0.747663  1
  La  La3  1  0.252816  0.747663  0.252816  1
  La  La4  1  0.252337  0.747184  0.747184  1
  La  La5  1  0.747663  0.252816  0.252816  1
  Y  Y6  1  0.252055  0.252055  0.252055  1
  Y  Y7  1  0.747945  0.747945  0.747945  1
  Sn  Sn8  1  0.000000  0.000000  0.000000  1
  Pd  Pd9  1  0.266601  0.499166  0.003265  1
  Pd  Pd10  1  0.733399  0.500834  0.996735  1
  Pd  Pd11  1  0.003265  0.266601  0.499166  1
  Pd  Pd12  1  0.499166  0.266601  0.003265  1
  Pd  Pd13  1  0.996735  0.733399  0.500834  1
  Pd  Pd14  1  0.500834  0.733399  0.996735  1
  Pd  Pd15  1  0.499166  0.003265  0.266601  1
  Pd  Pd16  1  0.266601  0.003265  0.499166  1
  Pd  Pd17  1  0.500834  0.996735  0.733399  1
  Pd  Pd18  1  0.733399  0.996735  0.500834  1
  Pd  Pd19  1  0.003265  0.499166  0.266601  1
  Pd  Pd20  1  0.996735  0.500834  0.733399  1
  Pd  Pd21  1  0.255415  0.497647  0.497647  1
  Pd  Pd22  1  0.744585  0.502353  0.502353  1
  Pd  Pd23  1  0.497647  0.255415  0.497647  1
  Pd  Pd24  1  0.502353  0.744585  0.502353  1
  Pd  Pd25  1  0.497647  0.497647  0.255415  1
  Pd  Pd26  1  0.502353  0.502353  0.744585  1
  Pd  Pd27  1  0.312372  0.002259  0.002259  1
  Pd  Pd28  1  0.687628  0.997741  0.997741  1
  Pd  Pd29  1  0.002259  0.312372  0.002259  1
  Pd  Pd30  1  0.997741  0.687628  0.997741  1
  Pd  Pd31  1  0.002259  0.002259  0.312372  1
  Pd  Pd32  1  0.997741  0.997741  0.687628  1
