# generated using pymatgen
data_Y3Er5(CdPd)2
_symmetry_space_group_name_H-M   'P 1'
_cell_length_a   9.65759559
_cell_length_b   9.65759514
_cell_length_c   9.65759400
_cell_angle_alpha   59.99999706
_cell_angle_beta   59.99999859
_cell_angle_gamma   59.99999555
_symmetry_Int_Tables_number   1
_chemical_formula_structural   Y3Er5(CdPd)2
_chemical_formula_sum   'Y6 Er10 Cd4 Pd4'
_cell_volume   636.93032674
_cell_formula_units_Z   2
loop_
 _symmetry_equiv_pos_site_id
 _symmetry_equiv_pos_as_xyz
  1  'x, y, z'
loop_
 _atom_site_type_symbol
 _atom_site_label
 _atom_site_symmetry_multiplicity
 _atom_site_fract_x
 _atom_site_fract_y
 _atom_site_fract_z
 _atom_site_occupancy
  Y  Y0  1  0.935573  0.564427  0.564427  1
  Y  Y1  1  0.564427  0.935573  0.935573  1
  Y  Y2  1  0.564427  0.935573  0.564427  1
  Y  Y3  1  0.935573  0.564427  0.935573  1
  Y  Y4  1  0.564427  0.564427  0.935573  1
  Y  Y5  1  0.935573  0.935573  0.564427  1
  Er  Er6  1  0.352848  0.352848  0.352848  1
  Er  Er7  1  0.352848  0.352848  0.941456  1
  Er  Er8  1  0.352848  0.941456  0.352848  1
  Er  Er9  1  0.941456  0.352848  0.352848  1
  Er  Er10  1  0.810904  0.189096  0.189096  1
  Er  Er11  1  0.189096  0.810904  0.810904  1
  Er  Er12  1  0.189096  0.810904  0.189096  1
  Er  Er13  1  0.810904  0.189096  0.810904  1
  Er  Er14  1  0.189096  0.189096  0.810904  1
  Er  Er15  1  0.810904  0.810904  0.189096  1
  Cd  Cd16  1  0.581708  0.581708  0.581708  1
  Cd  Cd17  1  0.581708  0.581708  0.254877  1
  Cd  Cd18  1  0.581708  0.254877  0.581708  1
  Cd  Cd19  1  0.254877  0.581708  0.581708  1
  Pd  Pd20  1  0.143902  0.143902  0.143902  1
  Pd  Pd21  1  0.143902  0.143902  0.568293  1
  Pd  Pd22  1  0.143902  0.568293  0.143902  1
  Pd  Pd23  1  0.568293  0.143902  0.143902  1
