# generated using pymatgen
data_Ho3LuZr4(NiP)12
_symmetry_space_group_name_H-M   'P 1'
_cell_length_a   3.72307000
_cell_length_b   10.14249108
_cell_length_c   12.34722013
_cell_angle_alpha   90.01540818
_cell_angle_beta   90.00000000
_cell_angle_gamma   90.00000000
_symmetry_Int_Tables_number   1
_chemical_formula_structural   Ho3LuZr4(NiP)12
_chemical_formula_sum   'Ho3 Lu1 Zr4 Ni12 P12'
_cell_volume   466.24588445
_cell_formula_units_Z   1
loop_
 _symmetry_equiv_pos_site_id
 _symmetry_equiv_pos_as_xyz
  1  'x, y, z'
loop_
 _atom_site_type_symbol
 _atom_site_label
 _atom_site_symmetry_multiplicity
 _atom_site_fract_x
 _atom_site_fract_y
 _atom_site_fract_z
 _atom_site_occupancy
  Ho  Ho0  1  0.750000  0.928565  0.792637  1
  Ho  Ho1  1  0.750000  0.571525  0.292833  1
  Ho  Ho2  1  0.250000  0.428428  0.707329  1
  Lu  Lu3  1  0.250000  0.071327  0.207467  1
  Zr  Zr4  1  0.250000  0.158810  0.496758  1
  Zr  Zr5  1  0.750000  0.841198  0.501948  1
  Zr  Zr6  1  0.750000  0.659312  0.002920  1
  Zr  Zr7  1  0.250000  0.340515  0.998121  1
  Ni  Ni8  1  0.250000  0.727736  0.663937  1
  Ni  Ni9  1  0.750000  0.271620  0.335817  1
  Ni  Ni10  1  0.750000  0.227521  0.836545  1
  Ni  Ni11  1  0.250000  0.773001  0.163870  1
  Ni  Ni12  1  0.250000  0.364490  0.220078  1
  Ni  Ni13  1  0.750000  0.633986  0.780522  1
  Ni  Ni14  1  0.750000  0.866999  0.278971  1
  Ni  Ni15  1  0.250000  0.134249  0.719510  1
  Ni  Ni16  1  0.250000  0.598906  0.482522  1
  Ni  Ni17  1  0.750000  0.401872  0.517207  1
  Ni  Ni18  1  0.750000  0.098035  0.018784  1
  Ni  Ni19  1  0.250000  0.902192  0.982821  1
  P  P20  1  0.250000  0.945136  0.624315  1
  P  P21  1  0.750000  0.054729  0.373598  1
  P  P22  1  0.750000  0.445046  0.875854  1
  P  P23  1  0.250000  0.554600  0.125000  1
  P  P24  1  0.250000  0.394714  0.402495  1
  P  P25  1  0.750000  0.605705  0.597885  1
  P  P26  1  0.750000  0.895682  0.097987  1
  P  P27  1  0.250000  0.105653  0.902002  1
  P  P28  1  0.250000  0.770864  0.353512  1
  P  P29  1  0.750000  0.229499  0.645894  1
  P  P30  1  0.750000  0.268472  0.146854  1
  P  P31  1  0.250000  0.729613  0.854005  1
