# generated using pymatgen
data_TbDy3Lu2(Al3Os)8
_symmetry_space_group_name_H-M   'P 1'
_cell_length_a   8.79075881
_cell_length_b   8.78407525
_cell_length_c   9.61449900
_cell_angle_alpha   90.00000000
_cell_angle_beta   90.00000000
_cell_angle_gamma   119.98964798
_symmetry_Int_Tables_number   1
_chemical_formula_structural   TbDy3Lu2(Al3Os)8
_chemical_formula_sum   'Tb1 Dy3 Lu2 Al24 Os8'
_cell_volume   643.02076228
_cell_formula_units_Z   1
loop_
 _symmetry_equiv_pos_site_id
 _symmetry_equiv_pos_as_xyz
  1  'x, y, z'
loop_
 _atom_site_type_symbol
 _atom_site_label
 _atom_site_symmetry_multiplicity
 _atom_site_fract_x
 _atom_site_fract_y
 _atom_site_fract_z
 _atom_site_occupancy
  Tb  Tb0  1  0.807839  0.192301  0.750000  1
  Dy  Dy1  1  0.193529  0.388156  0.250000  1
  Dy  Dy2  1  0.805753  0.611534  0.750000  1
  Dy  Dy3  1  0.388561  0.194379  0.750000  1
  Lu  Lu4  1  0.608614  0.805006  0.250000  1
  Lu  Lu5  1  0.195279  0.804890  0.250000  1
  Al  Al6  1  0.333474  0.667149  0.022394  1
  Al  Al7  1  0.666902  0.333278  0.980274  1
  Al  Al8  1  0.666902  0.333278  0.519726  1
  Al  Al9  1  0.333474  0.667149  0.477606  1
  Al  Al10  1  0.164136  0.327930  0.575389  1
  Al  Al11  1  0.836584  0.673633  0.423265  1
  Al  Al12  1  0.672370  0.836082  0.574713  1
  Al  Al13  1  0.836584  0.673633  0.076735  1
  Al  Al14  1  0.326887  0.163195  0.423366  1
  Al  Al15  1  0.164136  0.327930  0.924611  1
  Al  Al16  1  0.163756  0.836379  0.574780  1
  Al  Al17  1  0.326887  0.163195  0.076634  1
  Al  Al18  1  0.835866  0.163152  0.422845  1
  Al  Al19  1  0.672370  0.836082  0.925287  1
  Al  Al20  1  0.835866  0.163152  0.077155  1
  Al  Al21  1  0.163756  0.836379  0.925220  1
  Al  Al22  1  0.560836  0.122782  0.250000  1
  Al  Al23  1  0.437778  0.875558  0.750000  1
  Al  Al24  1  0.876195  0.439340  0.250000  1
  Al  Al25  1  0.124545  0.562431  0.750000  1
  Al  Al26  1  0.562148  0.439243  0.250000  1
  Al  Al27  1  0.437842  0.562500  0.750000  1
  Al  Al28  1  0.998372  0.998024  0.250000  1
  Al  Al29  1  0.001767  0.998472  0.750000  1
  Os  Os30  1  0.499320  0.999096  0.001530  1
  Os  Os31  1  0.000906  0.501341  0.001140  1
  Os  Os32  1  0.499320  0.999096  0.498470  1
  Os  Os33  1  0.500261  0.500957  0.000718  1
  Os  Os34  1  0.000906  0.501341  0.498860  1
  Os  Os35  1  0.500261  0.500957  0.499282  1
  Os  Os36  1  0.000008  0.000499  0.000239  1
  Os  Os37  1  0.000008  0.000499  0.499761  1
