# generated using pymatgen
data_Er4FeRu7
_symmetry_space_group_name_H-M   'P 1'
_cell_length_a   5.30472700
_cell_length_b   5.20769240
_cell_length_c   8.86510500
_cell_angle_alpha   90.00000000
_cell_angle_beta   90.00000000
_cell_angle_gamma   120.61831711
_symmetry_Int_Tables_number   1
_chemical_formula_structural   Er4FeRu7
_chemical_formula_sum   'Er4 Fe1 Ru7'
_cell_volume   210.75753710
_cell_formula_units_Z   1
loop_
 _symmetry_equiv_pos_site_id
 _symmetry_equiv_pos_as_xyz
  1  'x, y, z'
loop_
 _atom_site_type_symbol
 _atom_site_label
 _atom_site_symmetry_multiplicity
 _atom_site_fract_x
 _atom_site_fract_y
 _atom_site_fract_z
 _atom_site_occupancy
  Er  Er0  1  0.332092  0.664185  0.433908  1
  Er  Er1  1  0.667955  0.335909  0.566837  1
  Er  Er2  1  0.667955  0.335909  0.933163  1
  Er  Er3  1  0.332092  0.664185  0.066092  1
  Fe  Fe4  1  0.166079  0.332157  0.750000  1
  Ru  Ru5  1  0.173690  0.827318  0.750000  1
  Ru  Ru6  1  0.343234  0.171026  0.250000  1
  Ru  Ru7  1  0.831057  0.662114  0.250000  1
  Ru  Ru8  1  0.653628  0.827318  0.750000  1
  Ru  Ru9  1  0.002213  0.004427  0.998038  1
  Ru  Ru10  1  0.827792  0.171026  0.250000  1
  Ru  Ru11  1  0.002213  0.004427  0.501962  1
