# generated using pymatgen
data_YbHf3As4
_symmetry_space_group_name_H-M   'P 1'
_cell_length_a   3.88672400
_cell_length_b   3.88672388
_cell_length_c   13.21876800
_cell_angle_alpha   90.00000000
_cell_angle_beta   90.00000000
_cell_angle_gamma   120.00001808
_symmetry_Int_Tables_number   1
_chemical_formula_structural   YbHf3As4
_chemical_formula_sum   'Yb1 Hf3 As4'
_cell_volume   172.93739912
_cell_formula_units_Z   1
loop_
 _symmetry_equiv_pos_site_id
 _symmetry_equiv_pos_as_xyz
  1  'x, y, z'
loop_
 _atom_site_type_symbol
 _atom_site_label
 _atom_site_symmetry_multiplicity
 _atom_site_fract_x
 _atom_site_fract_y
 _atom_site_fract_z
 _atom_site_occupancy
  Yb  Yb0  1  0.333333  0.666667  0.378475  1
  Hf  Hf1  1  0.666667  0.333333  0.879175  1
  Hf  Hf2  1  0.666667  0.333333  0.632395  1
  Hf  Hf3  1  0.333333  0.666667  0.109802  1
  As  As4  1  0.666667  0.333333  0.230031  1
  As  As5  1  0.333333  0.666667  0.756761  1
  As  As6  1  0.000000  0.000000  0.519184  1
  As  As7  1  0.000000  0.000000  0.994178  1
