# generated using pymatgen
data_La8TcHg2Ir
_symmetry_space_group_name_H-M   'P 1'
_cell_length_a   10.08960757
_cell_length_b   10.08960838
_cell_length_c   10.18940200
_cell_angle_alpha   59.67227426
_cell_angle_beta   59.67227157
_cell_angle_gamma   59.32087695
_symmetry_Int_Tables_number   1
_chemical_formula_structural   La8TcHg2Ir
_chemical_formula_sum   'La16 Tc2 Hg4 Ir2'
_cell_volume   726.03322866
_cell_formula_units_Z   2
loop_
 _symmetry_equiv_pos_site_id
 _symmetry_equiv_pos_as_xyz
  1  'x, y, z'
loop_
 _atom_site_type_symbol
 _atom_site_label
 _atom_site_symmetry_multiplicity
 _atom_site_fract_x
 _atom_site_fract_y
 _atom_site_fract_z
 _atom_site_occupancy
  La  La0  1  0.595811  0.595811  0.598691  1
  La  La1  1  0.595811  0.595811  0.209688  1
  La  La2  1  0.595735  0.208848  0.597708  1
  La  La3  1  0.208848  0.595735  0.597708  1
  La  La4  1  0.064536  0.441255  0.437840  1
  La  La5  1  0.441255  0.064536  0.056370  1
  La  La6  1  0.441255  0.064536  0.437840  1
  La  La7  1  0.064536  0.441255  0.056370  1
  La  La8  1  0.440512  0.440512  0.059488  1
  La  La9  1  0.059620  0.059620  0.440380  1
  La  La10  1  0.190771  0.808842  0.810003  1
  La  La11  1  0.808842  0.190771  0.190383  1
  La  La12  1  0.808842  0.190771  0.810003  1
  La  La13  1  0.190771  0.808842  0.190383  1
  La  La14  1  0.809947  0.809947  0.190053  1
  La  La15  1  0.193994  0.193994  0.806006  1
  Tc  Tc16  1  0.383518  0.383518  0.386307  1
  Tc  Tc17  1  0.383518  0.383518  0.846657  1
  Hg  Hg18  1  0.832754  0.832754  0.832796  1
  Hg  Hg19  1  0.832754  0.832754  0.501694  1
  Hg  Hg20  1  0.831917  0.502724  0.832679  1
  Hg  Hg21  1  0.502724  0.831917  0.832679  1
  Ir  Ir22  1  0.390438  0.831292  0.389135  1
  Ir  Ir23  1  0.831292  0.390438  0.389135  1
