# generated using pymatgen
data_Dy11HoInCo4Ru
_symmetry_space_group_name_H-M   'P 1'
_cell_length_a   8.29135759
_cell_length_b   8.29774152
_cell_length_c   8.29774203
_cell_angle_alpha   111.15867196
_cell_angle_beta   110.58593503
_cell_angle_gamma   106.73395717
_symmetry_Int_Tables_number   1
_chemical_formula_structural   Dy11HoInCo4Ru
_chemical_formula_sum   'Dy11 Ho1 In1 Co4 Ru1'
_cell_volume   438.53733943
_cell_formula_units_Z   1
loop_
 _symmetry_equiv_pos_site_id
 _symmetry_equiv_pos_as_xyz
  1  'x, y, z'
loop_
 _atom_site_type_symbol
 _atom_site_label
 _atom_site_symmetry_multiplicity
 _atom_site_fract_x
 _atom_site_fract_y
 _atom_site_fract_z
 _atom_site_occupancy
  Dy  Dy0  1  0.589997  0.782840  0.807156  1
  Dy  Dy1  1  0.024295  0.216951  0.807342  1
  Dy  Dy2  1  0.976041  0.783126  0.192916  1
  Dy  Dy3  1  0.183417  0.285197  0.468397  1
  Dy  Dy4  1  0.816413  0.714471  0.530806  1
  Dy  Dy5  1  0.183417  0.715019  0.898220  1
  Dy  Dy6  1  0.816413  0.285607  0.101942  1
  Dy  Dy7  1  0.314602  0.620318  0.306236  1
  Dy  Dy8  1  0.685281  0.379529  0.693530  1
  Dy  Dy9  1  0.314602  0.008365  0.694284  1
  Dy  Dy10  1  0.685281  0.991752  0.305752  1
  Ho  Ho11  1  0.410134  0.217148  0.192988  1
  In  In12  1  0.500403  0.499284  0.001119  1
  Co  Co13  1  0.376730  0.000014  0.376716  1
  Co  Co14  1  0.623024  0.000214  0.622810  1
  Co  Co15  1  0.111249  0.611426  0.499823  1
  Co  Co16  1  0.888053  0.388503  0.499549  1
  Ru  Ru17  1  0.000647  0.000235  0.000412  1
