# generated using pymatgen
data_Er3Tm5Ti11Si16Mo
_symmetry_space_group_name_H-M   'P 1'
_cell_length_a   6.99753633
_cell_length_b   6.99772219
_cell_length_c   12.85352902
_cell_angle_alpha   89.97006540
_cell_angle_beta   90.03440422
_cell_angle_gamma   89.98848323
_symmetry_Int_Tables_number   1
_chemical_formula_structural   Er3Tm5Ti11Si16Mo
_chemical_formula_sum   'Er3 Tm5 Ti11 Si16 Mo1'
_cell_volume   629.39616781
_cell_formula_units_Z   1
loop_
 _symmetry_equiv_pos_site_id
 _symmetry_equiv_pos_as_xyz
  1  'x, y, z'
loop_
 _atom_site_type_symbol
 _atom_site_label
 _atom_site_symmetry_multiplicity
 _atom_site_fract_x
 _atom_site_fract_y
 _atom_site_fract_z
 _atom_site_occupancy
  Er  Er0  1  0.657495  0.998832  0.967153  1
  Er  Er1  1  0.002829  0.340931  0.532908  1
  Er  Er2  1  0.998893  0.657517  0.032945  1
  Tm  Tm3  1  0.341177  0.002511  0.467000  1
  Tm  Tm4  1  0.497632  0.840594  0.717416  1
  Tm  Tm5  1  0.500568  0.159147  0.215570  1
  Tm  Tm6  1  0.840533  0.497667  0.282542  1
  Tm  Tm7  1  0.159188  0.500622  0.784462  1
  Ti  Ti8  1  0.173902  0.827486  0.249546  1
  Ti  Ti9  1  0.827461  0.173857  0.750478  1
  Ti  Ti10  1  0.672884  0.673068  0.499998  1
  Ti  Ti11  1  0.153036  0.008316  0.876024  1
  Ti  Ti12  1  0.492378  0.650989  0.124220  1
  Ti  Ti13  1  0.506704  0.349303  0.626015  1
  Ti  Ti14  1  0.650948  0.492385  0.875794  1
  Ti  Ti15  1  0.349346  0.506778  0.373966  1
  Ti  Ti16  1  0.848639  0.992910  0.375378  1
  Ti  Ti17  1  0.008363  0.152998  0.123971  1
  Ti  Ti18  1  0.992939  0.848617  0.624594  1
  Si  Si19  1  0.203029  0.131291  0.683723  1
  Si  Si20  1  0.369183  0.701932  0.933389  1
  Si  Si21  1  0.631288  0.296862  0.433347  1
  Si  Si22  1  0.701923  0.369187  0.066604  1
  Si  Si23  1  0.297072  0.631702  0.566604  1
  Si  Si24  1  0.796930  0.868750  0.183729  1
  Si  Si25  1  0.131480  0.202797  0.316332  1
  Si  Si26  1  0.868733  0.796934  0.816275  1
  Si  Si27  1  0.291061  0.953507  0.064748  1
  Si  Si28  1  0.546293  0.792226  0.314726  1
  Si  Si29  1  0.452673  0.208106  0.815153  1
  Si  Si30  1  0.792068  0.546455  0.685376  1
  Si  Si31  1  0.208113  0.452663  0.184841  1
  Si  Si32  1  0.708034  0.046907  0.564832  1
  Si  Si33  1  0.953506  0.291072  0.935256  1
  Si  Si34  1  0.047093  0.708474  0.435087  1
  Mo  Mo35  1  0.326610  0.326611  0.999996  1
