# generated using pymatgen
data_ErScBe2AlIr5
_symmetry_space_group_name_H-M   'P 1'
_cell_length_a   9.58955596
_cell_length_b   9.58955596
_cell_length_c   3.12120700
_cell_angle_alpha   90.00000000
_cell_angle_beta   90.00000000
_cell_angle_gamma   89.43403975
_symmetry_Int_Tables_number   1
_chemical_formula_structural   ErScBe2AlIr5
_chemical_formula_sum   'Er2 Sc2 Be4 Al2 Ir10'
_cell_volume   287.01089299
_cell_formula_units_Z   2
loop_
 _symmetry_equiv_pos_site_id
 _symmetry_equiv_pos_as_xyz
  1  'x, y, z'
loop_
 _atom_site_type_symbol
 _atom_site_label
 _atom_site_symmetry_multiplicity
 _atom_site_fract_x
 _atom_site_fract_y
 _atom_site_fract_z
 _atom_site_occupancy
  Er  Er0  1  0.676831  0.176831  0.000000  1
  Er  Er1  1  0.323169  0.823169  0.000000  1
  Sc  Sc2  1  0.174686  0.325314  0.000000  1
  Sc  Sc3  1  0.825314  0.674686  0.000000  1
  Be  Be4  1  0.121680  0.621680  0.000000  1
  Be  Be5  1  0.878320  0.378320  0.000000  1
  Be  Be6  1  0.624846  0.875154  0.000000  1
  Be  Be7  1  0.375154  0.124846  0.000000  1
  Al  Al8  1  0.000000  0.000000  0.000000  1
  Al  Al9  1  0.500000  0.500000  0.000000  1
  Ir  Ir10  1  0.207467  0.072606  0.500000  1
  Ir  Ir11  1  0.792533  0.927394  0.500000  1
  Ir  Ir12  1  0.060598  0.788107  0.500000  1
  Ir  Ir13  1  0.711893  0.439402  0.500000  1
  Ir  Ir14  1  0.939402  0.211893  0.500000  1
  Ir  Ir15  1  0.288107  0.560598  0.500000  1
  Ir  Ir16  1  0.572606  0.707467  0.500000  1
  Ir  Ir17  1  0.427394  0.292533  0.500000  1
  Ir  Ir18  1  0.500000  0.000000  0.500000  1
  Ir  Ir19  1  0.000000  0.500000  0.500000  1
