# generated using pymatgen
data_Sm2Er2ScSn4
_symmetry_space_group_name_H-M   'P 1'
_cell_length_a   7.93323400
_cell_length_b   8.12264800
_cell_length_c   15.39585200
_cell_angle_alpha   90.00000000
_cell_angle_beta   90.00000000
_cell_angle_gamma   90.00000000
_symmetry_Int_Tables_number   1
_chemical_formula_structural   Sm2Er2ScSn4
_chemical_formula_sum   'Sm8 Er8 Sc4 Sn16'
_cell_volume   992.09126375
_cell_formula_units_Z   4
loop_
 _symmetry_equiv_pos_site_id
 _symmetry_equiv_pos_as_xyz
  1  'x, y, z'
loop_
 _atom_site_type_symbol
 _atom_site_label
 _atom_site_symmetry_multiplicity
 _atom_site_fract_x
 _atom_site_fract_y
 _atom_site_fract_z
 _atom_site_occupancy
  Sm  Sm0  1  0.515575  0.322921  0.903649  1
  Sm  Sm1  1  0.015575  0.177079  0.596351  1
  Sm  Sm2  1  0.484425  0.677079  0.403649  1
  Sm  Sm3  1  0.984425  0.822921  0.096351  1
  Sm  Sm4  1  0.484425  0.677079  0.096351  1
  Sm  Sm5  1  0.984425  0.822921  0.403649  1
  Sm  Sm6  1  0.515575  0.322921  0.596351  1
  Sm  Sm7  1  0.015575  0.177079  0.903649  1
  Er  Er8  1  0.358756  0.837193  0.875807  1
  Er  Er9  1  0.858756  0.662807  0.624193  1
  Er  Er10  1  0.641244  0.162807  0.375807  1
  Er  Er11  1  0.141244  0.337193  0.124193  1
  Er  Er12  1  0.641244  0.162807  0.124193  1
  Er  Er13  1  0.141244  0.337193  0.375807  1
  Er  Er14  1  0.358756  0.837193  0.624193  1
  Er  Er15  1  0.858756  0.662807  0.875807  1
  Sc  Sc16  1  0.192009  0.503636  0.750000  1
  Sc  Sc17  1  0.692009  0.996364  0.750000  1
  Sc  Sc18  1  0.807991  0.496364  0.250000  1
  Sc  Sc19  1  0.307991  0.003636  0.250000  1
  Sn  Sn20  1  0.304960  0.040055  0.043196  1
  Sn  Sn21  1  0.804960  0.459945  0.456804  1
  Sn  Sn22  1  0.695040  0.959945  0.543196  1
  Sn  Sn23  1  0.195040  0.540055  0.956804  1
  Sn  Sn24  1  0.695040  0.959945  0.956804  1
  Sn  Sn25  1  0.195040  0.540055  0.543196  1
  Sn  Sn26  1  0.304960  0.040055  0.456804  1
  Sn  Sn27  1  0.804960  0.459945  0.043196  1
  Sn  Sn28  1  0.553883  0.622953  0.750000  1
  Sn  Sn29  1  0.053883  0.877047  0.750000  1
  Sn  Sn30  1  0.446117  0.377047  0.250000  1
  Sn  Sn31  1  0.946117  0.122953  0.250000  1
  Sn  Sn32  1  0.326046  0.148570  0.750000  1
  Sn  Sn33  1  0.826046  0.351430  0.750000  1
  Sn  Sn34  1  0.673954  0.851430  0.250000  1
  Sn  Sn35  1  0.173954  0.648570  0.250000  1
