# generated using pymatgen
data_Ca7Tm(AgSn)4
_symmetry_space_group_name_H-M   'P 1'
_cell_length_a   7.54978001
_cell_length_b   5.30820000
_cell_length_c   10.62359101
_cell_angle_alpha   90.00000000
_cell_angle_beta   89.99476558
_cell_angle_gamma   90.00000000
_symmetry_Int_Tables_number   1
_chemical_formula_structural   Ca7Tm(AgSn)4
_chemical_formula_sum   'Ca7 Tm1 Ag4 Sn4'
_cell_volume   425.74829324
_cell_formula_units_Z   1
loop_
 _symmetry_equiv_pos_site_id
 _symmetry_equiv_pos_as_xyz
  1  'x, y, z'
loop_
 _atom_site_type_symbol
 _atom_site_label
 _atom_site_symmetry_multiplicity
 _atom_site_fract_x
 _atom_site_fract_y
 _atom_site_fract_z
 _atom_site_occupancy
  Ca  Ca0  1  0.496305  0.750000  0.125848  1
  Ca  Ca1  1  0.000568  0.250000  0.376615  1
  Ca  Ca2  1  0.500046  0.250000  0.374133  1
  Ca  Ca3  1  0.502903  0.750000  0.625674  1
  Ca  Ca4  1  0.001010  0.750000  0.625784  1
  Ca  Ca5  1  0.499624  0.250000  0.874355  1
  Ca  Ca6  1  0.000250  0.250000  0.871698  1
  Tm  Tm7  1  0.999202  0.750000  0.125603  1
  Ag  Ag8  1  0.759619  0.250000  0.122840  1
  Ag  Ag9  1  0.245000  0.750000  0.372183  1
  Ag  Ag10  1  0.750193  0.250000  0.622819  1
  Ag  Ag11  1  0.244522  0.750000  0.881945  1
  Sn  Sn12  1  0.240605  0.250000  0.123830  1
  Sn  Sn13  1  0.754887  0.750000  0.371627  1
  Sn  Sn14  1  0.250905  0.250000  0.623798  1
  Sn  Sn15  1  0.754359  0.750000  0.881250  1
