# generated using pymatgen
data_Sb12RuPt2Rh
_symmetry_space_group_name_H-M   'P 1'
_cell_length_a   8.20208674
_cell_length_b   8.18046622
_cell_length_c   8.18027165
_cell_angle_alpha   109.39677713
_cell_angle_beta   109.52831678
_cell_angle_gamma   109.49852010
_symmetry_Int_Tables_number   1
_chemical_formula_structural   Sb12RuPt2Rh
_chemical_formula_sum   'Sb12 Ru1 Pt2 Rh1'
_cell_volume   422.46858875
_cell_formula_units_Z   1
loop_
 _symmetry_equiv_pos_site_id
 _symmetry_equiv_pos_as_xyz
  1  'x, y, z'
loop_
 _atom_site_type_symbol
 _atom_site_label
 _atom_site_symmetry_multiplicity
 _atom_site_fract_x
 _atom_site_fract_y
 _atom_site_fract_z
 _atom_site_occupancy
  Sb  Sb0  1  0.158662  0.814017  0.664874  1
  Sb  Sb1  1  0.841338  0.185983  0.335126  1
  Sb  Sb2  1  0.842384  0.503720  0.654660  1
  Sb  Sb3  1  0.157616  0.496280  0.345340  1
  Sb  Sb4  1  0.807214  0.654775  0.152423  1
  Sb  Sb5  1  0.192786  0.345225  0.847577  1
  Sb  Sb6  1  0.507416  0.664859  0.845616  1
  Sb  Sb7  1  0.492584  0.335141  0.154384  1
  Sb  Sb8  1  0.654955  0.149202  0.814006  1
  Sb  Sb9  1  0.345045  0.850798  0.185994  1
  Sb  Sb10  1  0.654417  0.842099  0.503514  1
  Sb  Sb11  1  0.345583  0.157901  0.496486  1
  Ru  Ru12  1  0.500000  0.000000  0.000000  1
  Pt  Pt13  1  0.000000  0.000000  0.500000  1
  Pt  Pt14  1  0.000000  0.500000  0.000000  1
  Rh  Rh15  1  0.500000  0.500000  0.500000  1
