# generated using pymatgen
data_Eu2ZnNiI
_symmetry_space_group_name_H-M   'P 1'
_cell_length_a   4.25846400
_cell_length_b   4.25846486
_cell_length_c   17.59643800
_cell_angle_alpha   90.00000000
_cell_angle_beta   90.00000000
_cell_angle_gamma   119.99999331
_symmetry_Int_Tables_number   1
_chemical_formula_structural   Eu2ZnNiI
_chemical_formula_sum   'Eu4 Zn2 Ni2 I2'
_cell_volume   276.35127514
_cell_formula_units_Z   2
loop_
 _symmetry_equiv_pos_site_id
 _symmetry_equiv_pos_as_xyz
  1  'x, y, z'
loop_
 _atom_site_type_symbol
 _atom_site_label
 _atom_site_symmetry_multiplicity
 _atom_site_fract_x
 _atom_site_fract_y
 _atom_site_fract_z
 _atom_site_occupancy
  Eu  Eu0  1  0.000000  0.000000  0.610001  1
  Eu  Eu1  1  0.000000  0.000000  0.390508  1
  Eu  Eu2  1  0.000000  0.000000  0.110001  1
  Eu  Eu3  1  0.000000  0.000000  0.890508  1
  Zn  Zn4  1  0.666667  0.333333  0.500898  1
  Zn  Zn5  1  0.333333  0.666667  0.000898  1
  Ni  Ni6  1  0.666667  0.333333  0.998884  1
  Ni  Ni7  1  0.333333  0.666667  0.498884  1
  I  I8  1  0.666667  0.333333  0.249710  1
  I  I9  1  0.333333  0.666667  0.749710  1
