# generated using pymatgen
data_Ba5LiW2I2N7
_symmetry_space_group_name_H-M   'P 1'
_cell_length_a   11.46354812
_cell_length_b   6.26169600
_cell_length_c   11.41447700
_cell_angle_alpha   90.00000000
_cell_angle_beta   94.02596026
_cell_angle_gamma   90.00000000
_symmetry_Int_Tables_number   1
_chemical_formula_structural   Ba5LiW2I2N7
_chemical_formula_sum   'Ba10 Li2 W4 I4 N14'
_cell_volume   817.32360140
_cell_formula_units_Z   2
loop_
 _symmetry_equiv_pos_site_id
 _symmetry_equiv_pos_as_xyz
  1  'x, y, z'
loop_
 _atom_site_type_symbol
 _atom_site_label
 _atom_site_symmetry_multiplicity
 _atom_site_fract_x
 _atom_site_fract_y
 _atom_site_fract_z
 _atom_site_occupancy
  Ba  Ba0  1  0.191231  0.250000  0.131407  1
  Ba  Ba1  1  0.502124  0.750000  0.118824  1
  Ba  Ba2  1  0.803275  0.250000  0.292618  1
  Ba  Ba3  1  0.030427  0.750000  0.383450  1
  Ba  Ba4  1  0.381149  0.750000  0.450514  1
  Ba  Ba5  1  0.618852  0.250000  0.549486  1
  Ba  Ba6  1  0.969574  0.250000  0.616550  1
  Ba  Ba7  1  0.196725  0.750000  0.707381  1
  Ba  Ba8  1  0.497876  0.250000  0.881175  1
  Ba  Ba9  1  0.808769  0.750000  0.868593  1
  Li  Li10  1  0.660256  0.750000  0.365039  1
  Li  Li11  1  0.339744  0.250000  0.634961  1
  W  W12  1  0.471835  0.250000  0.273136  1
  W  W13  1  0.183251  0.250000  0.425698  1
  W  W14  1  0.816749  0.750000  0.574301  1
  W  W15  1  0.528164  0.750000  0.726864  1
  I  I16  1  0.177254  0.750000  0.051981  1
  I  I17  1  0.809609  0.750000  0.164875  1
  I  I18  1  0.190391  0.250000  0.835125  1
  I  I19  1  0.822746  0.250000  0.948019  1
  N  N20  1  0.437311  0.250000  0.110263  1
  N  N21  1  0.055843  0.250000  0.313949  1
  N  N22  1  0.553586  0.005072  0.324738  1
  N  N23  1  0.553586  0.494928  0.324738  1
  N  N24  1  0.322052  0.250000  0.340069  1
  N  N25  1  0.823096  0.507007  0.480857  1
  N  N26  1  0.823096  0.992994  0.480857  1
  N  N27  1  0.176904  0.007007  0.519144  1
  N  N28  1  0.176904  0.492995  0.519144  1
  N  N29  1  0.677948  0.750000  0.659930  1
  N  N30  1  0.446414  0.505072  0.675262  1
  N  N31  1  0.446414  0.994927  0.675262  1
  N  N32  1  0.944158  0.750000  0.686051  1
  N  N33  1  0.562689  0.750000  0.889736  1
