# generated using pymatgen
data_Dy11Ho5(LuPb4)4
_symmetry_space_group_name_H-M   'P 1'
_cell_length_a   8.16008901
_cell_length_b   8.24525002
_cell_length_c   15.60083200
_cell_angle_alpha   90.00284949
_cell_angle_beta   90.00050978
_cell_angle_gamma   90.00643319
_symmetry_Int_Tables_number   1
_chemical_formula_structural   Dy11Ho5(LuPb4)4
_chemical_formula_sum   'Dy11 Ho5 Lu4 Pb16'
_cell_volume   1049.65476633
_cell_formula_units_Z   1
loop_
 _symmetry_equiv_pos_site_id
 _symmetry_equiv_pos_as_xyz
  1  'x, y, z'
loop_
 _atom_site_type_symbol
 _atom_site_label
 _atom_site_symmetry_multiplicity
 _atom_site_fract_x
 _atom_site_fract_y
 _atom_site_fract_z
 _atom_site_occupancy
  Dy  Dy0  1  0.123360  0.341458  0.379089  1
  Dy  Dy1  1  0.376653  0.841473  0.620902  1
  Dy  Dy2  1  0.876649  0.658532  0.879114  1
  Dy  Dy3  1  0.535993  0.323476  0.900178  1
  Dy  Dy4  1  0.035971  0.176499  0.599869  1
  Dy  Dy5  1  0.464027  0.676504  0.400125  1
  Dy  Dy6  1  0.963994  0.823530  0.099875  1
  Dy  Dy7  1  0.463998  0.676470  0.099828  1
  Dy  Dy8  1  0.963990  0.823562  0.400162  1
  Dy  Dy9  1  0.536006  0.323562  0.599829  1
  Dy  Dy10  1  0.036022  0.176468  0.900161  1
  Ho  Ho11  1  0.376582  0.841503  0.879098  1
  Ho  Ho12  1  0.876597  0.658486  0.620890  1
  Ho  Ho13  1  0.623407  0.158482  0.379094  1
  Ho  Ho14  1  0.123398  0.341527  0.120887  1
  Ho  Ho15  1  0.623369  0.158510  0.120930  1
  Lu  Lu16  1  0.208480  0.504425  0.750007  1
  Lu  Lu17  1  0.708480  0.995584  0.749994  1
  Lu  Lu18  1  0.791479  0.495503  0.249979  1
  Lu  Lu19  1  0.291573  0.004457  0.249966  1
  Pb  Pb20  1  0.281346  0.032841  0.043537  1
  Pb  Pb21  1  0.781179  0.467195  0.456490  1
  Pb  Pb22  1  0.718821  0.967212  0.543508  1
  Pb  Pb23  1  0.218813  0.532795  0.956490  1
  Pb  Pb24  1  0.718564  0.967328  0.956491  1
  Pb  Pb25  1  0.218592  0.532771  0.543603  1
  Pb  Pb26  1  0.281387  0.032770  0.456397  1
  Pb  Pb27  1  0.781302  0.467060  0.043639  1
  Pb  Pb28  1  0.571057  0.626130  0.750010  1
  Pb  Pb29  1  0.071049  0.873873  0.749984  1
  Pb  Pb30  1  0.429035  0.373773  0.249962  1
  Pb  Pb31  1  0.928857  0.126133  0.249949  1
  Pb  Pb32  1  0.347774  0.154934  0.750032  1
  Pb  Pb33  1  0.847780  0.345063  0.749969  1
  Pb  Pb34  1  0.652200  0.845134  0.249996  1
  Pb  Pb35  1  0.152216  0.654974  0.249963  1
