# generated using pymatgen
data_TbDy5ScFeO12
_symmetry_space_group_name_H-M   'P 1'
_cell_length_a   6.56826971
_cell_length_b   6.57096508
_cell_length_c   6.56944895
_cell_angle_alpha   92.70254562
_cell_angle_beta   92.67733780
_cell_angle_gamma   92.68971919
_symmetry_Int_Tables_number   1
_chemical_formula_structural   TbDy5ScFeO12
_chemical_formula_sum   'Tb1 Dy5 Sc1 Fe1 O12'
_cell_volume   282.56890436
_cell_formula_units_Z   1
loop_
 _symmetry_equiv_pos_site_id
 _symmetry_equiv_pos_as_xyz
  1  'x, y, z'
loop_
 _atom_site_type_symbol
 _atom_site_label
 _atom_site_symmetry_multiplicity
 _atom_site_fract_x
 _atom_site_fract_y
 _atom_site_fract_z
 _atom_site_occupancy
  Tb  Tb0  1  0.563619  0.256602  0.072638  1
  Dy  Dy1  1  0.743607  0.927165  0.436427  1
  Dy  Dy2  1  0.927254  0.436509  0.743548  1
  Dy  Dy3  1  0.436398  0.743534  0.927158  1
  Dy  Dy4  1  0.256489  0.072746  0.563679  1
  Dy  Dy5  1  0.072852  0.563594  0.256492  1
  Sc  Sc6  1  0.000156  0.999990  0.999989  1
  Fe  Fe7  1  0.500031  0.500032  0.500067  1
  O  O8  1  0.588648  0.461381  0.799661  1
  O  O9  1  0.460867  0.800585  0.588663  1
  O  O10  1  0.800594  0.588634  0.460843  1
  O  O11  1  0.410794  0.540001  0.199772  1
  O  O12  1  0.539041  0.199173  0.412413  1
  O  O13  1  0.199412  0.411349  0.539194  1
  O  O14  1  0.068300  0.914869  0.307584  1
  O  O15  1  0.915716  0.307713  0.068257  1
  O  O16  1  0.692762  0.930917  0.085198  1
  O  O17  1  0.085174  0.692448  0.931738  1
  O  O18  1  0.931756  0.085196  0.692449  1
  O  O19  1  0.306532  0.067563  0.914232  1
