# generated using pymatgen
data_Nd8Tm11Si16Mo
_symmetry_space_group_name_H-M   'P 1'
_cell_length_a   7.40275499
_cell_length_b   14.61950400
_cell_length_c   7.73144800
_cell_angle_alpha   90.00000000
_cell_angle_beta   89.86034307
_cell_angle_gamma   90.00000000
_symmetry_Int_Tables_number   1
_chemical_formula_structural   Nd8Tm11Si16Mo
_chemical_formula_sum   'Nd8 Tm11 Si16 Mo1'
_cell_volume   836.73042953
_cell_formula_units_Z   1
loop_
 _symmetry_equiv_pos_site_id
 _symmetry_equiv_pos_as_xyz
  1  'x, y, z'
loop_
 _atom_site_type_symbol
 _atom_site_label
 _atom_site_symmetry_multiplicity
 _atom_site_fract_x
 _atom_site_fract_y
 _atom_site_fract_z
 _atom_site_occupancy
  Nd  Nd0  1  0.025456  0.101207  0.174236  1
  Nd  Nd1  1  0.025456  0.398793  0.174236  1
  Nd  Nd2  1  0.515674  0.101870  0.315705  1
  Nd  Nd3  1  0.515674  0.398130  0.315705  1
  Nd  Nd4  1  0.477925  0.595130  0.679423  1
  Nd  Nd5  1  0.477925  0.904870  0.679423  1
  Nd  Nd6  1  0.978088  0.596978  0.820649  1
  Nd  Nd7  1  0.978088  0.903022  0.820649  1
  Tm  Tm8  1  0.319910  0.621040  0.175425  1
  Tm  Tm9  1  0.319910  0.878959  0.175425  1
  Tm  Tm10  1  0.819408  0.622747  0.322306  1
  Tm  Tm11  1  0.819408  0.877252  0.322306  1
  Tm  Tm12  1  0.848799  0.250000  0.488617  1
  Tm  Tm13  1  0.151359  0.750000  0.509937  1
  Tm  Tm14  1  0.181969  0.127258  0.681506  1
  Tm  Tm15  1  0.181969  0.372741  0.681506  1
  Tm  Tm16  1  0.678392  0.127653  0.830516  1
  Tm  Tm17  1  0.678392  0.372346  0.830516  1
  Tm  Tm18  1  0.651839  0.750000  0.990726  1
  Si  Si19  1  0.646236  0.537744  0.031658  1
  Si  Si20  1  0.646236  0.962256  0.031658  1
  Si  Si21  1  0.026687  0.750000  0.116326  1
  Si  Si22  1  0.713405  0.250000  0.123565  1
  Si  Si23  1  0.228177  0.250000  0.361746  1
  Si  Si24  1  0.522884  0.750000  0.385574  1
  Si  Si25  1  0.144771  0.537161  0.468130  1
  Si  Si26  1  0.144771  0.962839  0.468130  1
  Si  Si27  1  0.851923  0.041079  0.531946  1
  Si  Si28  1  0.851923  0.458920  0.531946  1
  Si  Si29  1  0.476133  0.250000  0.621036  1
  Si  Si30  1  0.771339  0.750000  0.622611  1
  Si  Si31  1  0.273768  0.750000  0.878052  1
  Si  Si32  1  0.988545  0.250000  0.899004  1
  Si  Si33  1  0.354713  0.049622  0.970478  1
  Si  Si34  1  0.354713  0.450377  0.970478  1
  Mo  Mo35  1  0.358139  0.250000  0.998848  1
