# generated using pymatgen
data_Tb5Er3(LuIn5)4
_symmetry_space_group_name_H-M   'P 1'
_cell_length_a   6.54511400
_cell_length_b   10.36002401
_cell_length_c   12.19351900
_cell_angle_alpha   90.00030971
_cell_angle_beta   90.00161073
_cell_angle_gamma   90.00287583
_symmetry_Int_Tables_number   1
_chemical_formula_structural   Tb5Er3(LuIn5)4
_chemical_formula_sum   'Tb5 Er3 Lu4 In20'
_cell_volume   826.81250444
_cell_formula_units_Z   1
loop_
 _symmetry_equiv_pos_site_id
 _symmetry_equiv_pos_as_xyz
  1  'x, y, z'
loop_
 _atom_site_type_symbol
 _atom_site_label
 _atom_site_symmetry_multiplicity
 _atom_site_fract_x
 _atom_site_fract_y
 _atom_site_fract_z
 _atom_site_occupancy
  Tb  Tb0  1  0.886899  0.489052  0.142009  1
  Tb  Tb1  1  0.613031  0.010996  0.641839  1
  Tb  Tb2  1  0.113021  0.988989  0.858170  1
  Tb  Tb3  1  0.387013  0.510999  0.358142  1
  Tb  Tb4  1  0.112808  0.511083  0.858032  1
  Er  Er5  1  0.387328  0.988871  0.358173  1
  Er  Er6  1  0.887139  0.011089  0.141935  1
  Er  Er7  1  0.612714  0.488827  0.641718  1
  Lu  Lu8  1  0.352539  0.749800  0.052216  1
  Lu  Lu9  1  0.147410  0.750251  0.552185  1
  Lu  Lu10  1  0.647350  0.249877  0.947846  1
  Lu  Lu11  1  0.852490  0.250278  0.447852  1
  In  In12  1  0.610399  0.749292  0.506118  1
  In  In13  1  0.889233  0.750864  0.006241  1
  In  In14  1  0.389597  0.249282  0.493750  1
  In  In15  1  0.110588  0.249694  0.994641  1
  In  In16  1  0.649945  0.750676  0.241334  1
  In  In17  1  0.849526  0.749686  0.741215  1
  In  In18  1  0.350618  0.250168  0.758461  1
  In  In19  1  0.149996  0.249341  0.258686  1
  In  In20  1  0.118702  0.750808  0.277930  1
  In  In21  1  0.382093  0.750024  0.777554  1
  In  In22  1  0.881125  0.250864  0.722057  1
  In  In23  1  0.619046  0.249046  0.222057  1
  In  In24  1  0.871157  0.543147  0.401421  1
  In  In25  1  0.628889  0.957099  0.901385  1
  In  In26  1  0.128890  0.043148  0.598626  1
  In  In27  1  0.371145  0.456749  0.098935  1
  In  In28  1  0.129412  0.457007  0.598915  1
  In  In29  1  0.370655  0.042781  0.099867  1
  In  In30  1  0.870726  0.957258  0.400364  1
  In  In31  1  0.628514  0.542955  0.900328  1
