# generated using pymatgen
data_Ca2Sb3I3O5
_symmetry_space_group_name_H-M   'P 1'
_cell_length_a   6.90441355
_cell_length_b   10.59463367
_cell_length_c   10.88899186
_cell_angle_alpha   98.25293729
_cell_angle_beta   109.98517205
_cell_angle_gamma   91.49795726
_symmetry_Int_Tables_number   1
_chemical_formula_structural   Ca2Sb3I3O5
_chemical_formula_sum   'Ca4 Sb6 I6 O10'
_cell_volume   738.38316536
_cell_formula_units_Z   2
loop_
 _symmetry_equiv_pos_site_id
 _symmetry_equiv_pos_as_xyz
  1  'x, y, z'
loop_
 _atom_site_type_symbol
 _atom_site_label
 _atom_site_symmetry_multiplicity
 _atom_site_fract_x
 _atom_site_fract_y
 _atom_site_fract_z
 _atom_site_occupancy
  Ca  Ca0  1  0.742366  0.418079  0.012299  1
  Ca  Ca1  1  0.250957  0.292921  0.727676  1
  Ca  Ca2  1  0.257698  0.581925  0.987709  1
  Ca  Ca3  1  0.749010  0.707100  0.272343  1
  Sb  Sb4  1  0.212108  0.835375  0.225098  1
  Sb  Sb5  1  0.787868  0.164600  0.774888  1
  Sb  Sb6  1  0.242724  0.281915  0.074021  1
  Sb  Sb7  1  0.757288  0.718051  0.925956  1
  Sb  Sb8  1  0.296055  0.563311  0.322658  1
  Sb  Sb9  1  0.703871  0.436657  0.677321  1
  I  I10  1  0.733385  0.414573  0.307930  1
  I  I11  1  0.266631  0.585456  0.692096  1
  I  I12  1  0.784446  0.969068  0.179401  1
  I  I13  1  0.215707  0.030956  0.820650  1
  I  I14  1  0.665740  0.780042  0.542550  1
  I  I15  1  0.334245  0.220081  0.457485  1
  O  O16  1  0.139974  0.454923  0.137274  1
  O  O17  1  0.860014  0.545038  0.862728  1
  O  O18  1  0.346369  0.371464  0.957533  1
  O  O19  1  0.653620  0.628549  0.042469  1
  O  O20  1  0.396803  0.677735  0.214916  1
  O  O21  1  0.603181  0.322233  0.785086  1
  O  O22  1  0.064925  0.753837  0.036375  1
  O  O23  1  0.935096  0.246149  0.963601  1
  O  O24  1  0.091310  0.704935  0.303752  1
  O  O25  1  0.908606  0.295025  0.696185  1
