# generated using pymatgen
data_Ta4CoCu(P2O7)6
_symmetry_space_group_name_H-M   'P 1'
_cell_length_a   8.06589180
_cell_length_b   6.63664674
_cell_length_c   16.95264400
_cell_angle_alpha   67.34328467
_cell_angle_beta   89.97451987
_cell_angle_gamma   90.02699697
_symmetry_Int_Tables_number   1
_chemical_formula_structural   Ta4CoCu(P2O7)6
_chemical_formula_sum   'Ta4 Co1 Cu1 P12 O42'
_cell_volume   837.45174460
_cell_formula_units_Z   1
loop_
 _symmetry_equiv_pos_site_id
 _symmetry_equiv_pos_as_xyz
  1  'x, y, z'
loop_
 _atom_site_type_symbol
 _atom_site_label
 _atom_site_symmetry_multiplicity
 _atom_site_fract_x
 _atom_site_fract_y
 _atom_site_fract_z
 _atom_site_occupancy
  Ta  Ta0  1  0.979942  0.703670  0.833382  1
  Ta  Ta1  1  0.020058  0.296330  0.166618  1
  Ta  Ta2  1  0.479490  0.302605  0.666533  1
  Ta  Ta3  1  0.520510  0.697395  0.333467  1
  Co  Co4  1  0.500000  0.000000  0.000000  1
  Cu  Cu5  1  0.000000  0.000000  0.500000  1
  P  P6  1  0.396146  0.824885  0.838771  1
  P  P7  1  0.603854  0.175115  0.161229  1
  P  P8  1  0.896753  0.184260  0.664089  1
  P  P9  1  0.103247  0.815740  0.335911  1
  P  P10  1  0.104646  0.557753  0.665491  1
  P  P11  1  0.895354  0.442247  0.334509  1
  P  P12  1  0.607504  0.453967  0.833075  1
  P  P13  1  0.392496  0.546033  0.166925  1
  P  P14  1  0.885423  0.794790  0.016607  1
  P  P15  1  0.114577  0.205210  0.983393  1
  P  P16  1  0.382384  0.200935  0.485669  1
  P  P17  1  0.617616  0.799065  0.514331  1
  O  O18  1  0.785761  0.836810  0.542094  1
  O  O19  1  0.214239  0.163190  0.457906  1
  O  O20  1  0.282465  0.171177  0.955194  1
  O  O21  1  0.717535  0.828823  0.044806  1
  O  O22  1  0.392284  0.231307  0.571830  1
  O  O23  1  0.607716  0.768693  0.428170  1
  O  O24  1  0.893326  0.764055  0.930295  1
  O  O25  1  0.106674  0.235945  0.069705  1
  O  O26  1  0.448373  0.604006  0.827722  1
  O  O27  1  0.551627  0.395994  0.172278  1
  O  O28  1  0.943780  0.407173  0.676108  1
  O  O29  1  0.056220  0.592827  0.323892  1
  O  O30  1  0.257205  0.403175  0.687145  1
  O  O31  1  0.742795  0.596825  0.312855  1
  O  O32  1  0.759394  0.610127  0.808220  1
  O  O33  1  0.240606  0.389873  0.191780  1
  O  O34  1  0.424055  0.006525  0.748023  1
  O  O35  1  0.575945  0.993475  0.251977  1
  O  O36  1  0.924819  0.002719  0.755146  1
  O  O37  1  0.075181  0.997281  0.244854  1
  O  O38  1  0.205932  0.796191  0.852762  1
  O  O39  1  0.794068  0.203809  0.147238  1
  O  O40  1  0.705573  0.206789  0.650296  1
  O  O41  1  0.294427  0.793211  0.349704  1
  O  O42  1  0.121645  0.736837  0.579407  1
  O  O43  1  0.878355  0.263163  0.420593  1
  O  O44  1  0.627817  0.271980  0.917283  1
  O  O45  1  0.372183  0.728020  0.082717  1
  O  O46  1  0.078622  0.636253  0.739639  1
  O  O47  1  0.921378  0.363747  0.260361  1
  O  O48  1  0.572524  0.380602  0.758235  1
  O  O49  1  0.427476  0.619398  0.241765  1
  O  O50  1  0.490824  0.859147  0.907286  1
  O  O51  1  0.509176  0.140853  0.092714  1
  O  O52  1  0.994869  0.154816  0.596062  1
  O  O53  1  0.005131  0.845184  0.403938  1
  O  O54  1  0.976621  0.600176  0.084977  1
  O  O55  1  0.023379  0.399824  0.915023  1
  O  O56  1  0.470718  0.397927  0.417012  1
  O  O57  1  0.529282  0.602073  0.582988  1
  O  O58  1  0.500000  0.000000  0.500000  1
  O  O59  1  0.000000  0.000000  0.000000  1
