# generated using pymatgen
data_PrTh4(In2Rh)2
_symmetry_space_group_name_H-M   'P 1'
_cell_length_a   3.81068300
_cell_length_b   8.20527000
_cell_length_c   18.41238500
_cell_angle_alpha   90.00000000
_cell_angle_beta   90.00000000
_cell_angle_gamma   90.00000000
_symmetry_Int_Tables_number   1
_chemical_formula_structural   PrTh4(In2Rh)2
_chemical_formula_sum   'Pr2 Th8 In8 Rh4'
_cell_volume   575.71261560
_cell_formula_units_Z   2
loop_
 _symmetry_equiv_pos_site_id
 _symmetry_equiv_pos_as_xyz
  1  'x, y, z'
loop_
 _atom_site_type_symbol
 _atom_site_label
 _atom_site_symmetry_multiplicity
 _atom_site_fract_x
 _atom_site_fract_y
 _atom_site_fract_z
 _atom_site_occupancy
  Pr  Pr0  1  0.500000  0.500000  0.000000  1
  Pr  Pr1  1  0.500000  0.000000  0.500000  1
  Th  Th2  1  0.500000  0.383139  0.584624  1
  Th  Th3  1  0.500000  0.883139  0.915376  1
  Th  Th4  1  0.500000  0.116861  0.084624  1
  Th  Th5  1  0.500000  0.754028  0.722291  1
  Th  Th6  1  0.500000  0.254028  0.777709  1
  Th  Th7  1  0.500000  0.745972  0.222291  1
  Th  Th8  1  0.500000  0.245972  0.277709  1
  Th  Th9  1  0.500000  0.616861  0.415376  1
  In  In10  1  0.000000  0.787906  0.068915  1
  In  In11  1  0.000000  0.933588  0.350714  1
  In  In12  1  0.000000  0.066412  0.649286  1
  In  In13  1  0.000000  0.566412  0.850714  1
  In  In14  1  0.000000  0.712094  0.568915  1
  In  In15  1  0.000000  0.212094  0.931085  1
  In  In16  1  0.000000  0.287906  0.431085  1
  In  In17  1  0.000000  0.433588  0.149286  1
  Rh  Rh18  1  0.000000  0.977303  0.804991  1
  Rh  Rh19  1  0.000000  0.522697  0.304991  1
  Rh  Rh20  1  0.000000  0.477303  0.695009  1
  Rh  Rh21  1  0.000000  0.022697  0.195009  1
