# generated using pymatgen
data_Tb8Dy10Sc2Si15Os
_symmetry_space_group_name_H-M   'P 1'
_cell_length_a   7.29509679
_cell_length_b   7.76106749
_cell_length_c   14.52009200
_cell_angle_alpha   90.00000000
_cell_angle_beta   90.00000000
_cell_angle_gamma   90.12316541
_symmetry_Int_Tables_number   1
_chemical_formula_structural   Tb8Dy10Sc2Si15Os
_chemical_formula_sum   'Tb8 Dy10 Sc2 Si15 Os1'
_cell_volume   822.09287294
_cell_formula_units_Z   1
loop_
 _symmetry_equiv_pos_site_id
 _symmetry_equiv_pos_as_xyz
  1  'x, y, z'
loop_
 _atom_site_type_symbol
 _atom_site_label
 _atom_site_symmetry_multiplicity
 _atom_site_fract_x
 _atom_site_fract_y
 _atom_site_fract_z
 _atom_site_occupancy
  Tb  Tb0  1  0.018157  0.184995  0.098970  1
  Tb  Tb1  1  0.984845  0.825265  0.906896  1
  Tb  Tb2  1  0.481888  0.683130  0.906612  1
  Tb  Tb3  1  0.984845  0.825265  0.593104  1
  Tb  Tb4  1  0.517672  0.317353  0.098341  1
  Tb  Tb5  1  0.018157  0.184995  0.401030  1
  Tb  Tb6  1  0.517672  0.317353  0.401659  1
  Tb  Tb7  1  0.481888  0.683130  0.593388  1
  Dy  Dy8  1  0.153336  0.514836  0.750000  1
  Dy  Dy9  1  0.666571  0.986603  0.750000  1
  Dy  Dy10  1  0.313110  0.174660  0.626048  1
  Dy  Dy11  1  0.677764  0.823164  0.372170  1
  Dy  Dy12  1  0.176647  0.680037  0.372036  1
  Dy  Dy13  1  0.677764  0.823164  0.127830  1
  Dy  Dy14  1  0.833626  0.314894  0.624605  1
  Dy  Dy15  1  0.313110  0.174660  0.873952  1
  Dy  Dy16  1  0.833626  0.314894  0.875395  1
  Dy  Dy17  1  0.176647  0.680037  0.127964  1
  Sc  Sc18  1  0.839861  0.481655  0.250000  1
  Sc  Sc19  1  0.341874  0.019768  0.250000  1
  Si  Si20  1  0.980004  0.910593  0.250000  1
  Si  Si21  1  0.480784  0.592174  0.250000  1
  Si  Si22  1  0.527833  0.398460  0.750000  1
  Si  Si23  1  0.275028  0.865575  0.750000  1
  Si  Si24  1  0.717505  0.136351  0.250000  1
  Si  Si25  1  0.219875  0.364674  0.250000  1
  Si  Si26  1  0.765914  0.623050  0.750000  1
  Si  Si27  1  0.156063  0.473235  0.535140  1
  Si  Si28  1  0.847596  0.529786  0.458464  1
  Si  Si29  1  0.346760  0.971290  0.458022  1
  Si  Si30  1  0.847596  0.529786  0.041536  1
  Si  Si31  1  0.648918  0.030045  0.535418  1
  Si  Si32  1  0.156063  0.473235  0.964860  1
  Si  Si33  1  0.648918  0.030045  0.964582  1
  Si  Si34  1  0.346760  0.971290  0.041978  1
  Os  Os35  1  0.025325  0.090550  0.750000  1
