# generated using pymatgen
data_ErLu3Tc7Mo
_symmetry_space_group_name_H-M   'P 1'
_cell_length_a   5.38689500
_cell_length_b   5.38689532
_cell_length_c   8.73839200
_cell_angle_alpha   90.00000000
_cell_angle_beta   90.00000000
_cell_angle_gamma   120.00000417
_symmetry_Int_Tables_number   1
_chemical_formula_structural   ErLu3Tc7Mo
_chemical_formula_sum   'Er1 Lu3 Tc7 Mo1'
_cell_volume   219.60346249
_cell_formula_units_Z   1
loop_
 _symmetry_equiv_pos_site_id
 _symmetry_equiv_pos_as_xyz
  1  'x, y, z'
loop_
 _atom_site_type_symbol
 _atom_site_label
 _atom_site_symmetry_multiplicity
 _atom_site_fract_x
 _atom_site_fract_y
 _atom_site_fract_z
 _atom_site_occupancy
  Er  Er0  1  0.333333  0.666667  0.061685  1
  Lu  Lu1  1  0.333333  0.666667  0.435999  1
  Lu  Lu2  1  0.666667  0.333333  0.563997  1
  Lu  Lu3  1  0.666667  0.333333  0.938188  1
  Tc  Tc4  1  0.000000  0.000000  0.000113  1
  Tc  Tc5  1  0.828021  0.171979  0.250721  1
  Tc  Tc6  1  0.828021  0.656043  0.250721  1
  Tc  Tc7  1  0.343957  0.171979  0.250721  1
  Tc  Tc8  1  0.171873  0.828127  0.749169  1
  Tc  Tc9  1  0.171873  0.343744  0.749169  1
  Tc  Tc10  1  0.656256  0.828127  0.749169  1
  Mo  Mo11  1  0.000000  0.000000  0.500348  1
