# generated using pymatgen
data_Gd4Al15(GaIr2)3
_symmetry_space_group_name_H-M   'P 1'
_cell_length_a   7.54013300
_cell_length_b   7.54090249
_cell_length_c   9.54972600
_cell_angle_alpha   90.00000000
_cell_angle_beta   90.00000000
_cell_angle_gamma   119.44323706
_symmetry_Int_Tables_number   1
_chemical_formula_structural   Gd4Al15(GaIr2)3
_chemical_formula_sum   'Gd4 Al15 Ga3 Ir6'
_cell_volume   472.86063832
_cell_formula_units_Z   1
loop_
 _symmetry_equiv_pos_site_id
 _symmetry_equiv_pos_as_xyz
  1  'x, y, z'
loop_
 _atom_site_type_symbol
 _atom_site_label
 _atom_site_symmetry_multiplicity
 _atom_site_fract_x
 _atom_site_fract_y
 _atom_site_fract_z
 _atom_site_occupancy
  Gd  Gd0  1  0.998709  0.674445  0.250000  1
  Gd  Gd1  1  0.005677  0.326591  0.750000  1
  Gd  Gd2  1  0.670279  0.991556  0.250000  1
  Gd  Gd3  1  0.324910  0.003485  0.750000  1
  Al  Al4  1  0.001654  0.335374  0.072292  1
  Al  Al5  1  0.998028  0.664104  0.926767  1
  Al  Al6  1  0.998028  0.664104  0.573233  1
  Al  Al7  1  0.336226  0.003498  0.427353  1
  Al  Al8  1  0.001654  0.335374  0.427708  1
  Al  Al9  1  0.664157  0.998939  0.573134  1
  Al  Al10  1  0.664157  0.998939  0.926866  1
  Al  Al11  1  0.336226  0.003498  0.072647  1
  Al  Al12  1  0.334518  0.334559  0.556031  1
  Al  Al13  1  0.666030  0.665568  0.448924  1
  Al  Al14  1  0.666030  0.665568  0.051076  1
  Al  Al15  1  0.334518  0.334559  0.943969  1
  Al  Al16  1  0.662695  0.450850  0.750000  1
  Al  Al17  1  0.550114  0.339547  0.250000  1
  Al  Al18  1  0.451464  0.662717  0.750000  1
  Ga  Ga19  1  0.132239  0.132947  0.250000  1
  Ga  Ga20  1  0.864078  0.864151  0.750000  1
  Ga  Ga21  1  0.338931  0.545343  0.250000  1
  Ir  Ir22  1  0.670932  0.329358  0.000071  1
  Ir  Ir23  1  0.328673  0.672169  0.997953  1
  Ir  Ir24  1  0.328673  0.672169  0.502047  1
  Ir  Ir25  1  0.670932  0.329358  0.499929  1
  Ir  Ir26  1  0.000234  0.000616  0.999760  1
  Ir  Ir27  1  0.000234  0.000616  0.500240  1
