# generated using pymatgen
data_GaRe6As13
_symmetry_space_group_name_H-M   'P 1'
_cell_length_a   7.65094731
_cell_length_b   7.65094659
_cell_length_c   7.65094714
_cell_angle_alpha   109.48227857
_cell_angle_beta   109.48228304
_cell_angle_gamma   109.48227465
_symmetry_Int_Tables_number   1
_chemical_formula_structural   GaRe6As13
_chemical_formula_sum   'Ga1 Re6 As13'
_cell_volume   344.62418951
_cell_formula_units_Z   1
loop_
 _symmetry_equiv_pos_site_id
 _symmetry_equiv_pos_as_xyz
  1  'x, y, z'
loop_
 _atom_site_type_symbol
 _atom_site_label
 _atom_site_symmetry_multiplicity
 _atom_site_fract_x
 _atom_site_fract_y
 _atom_site_fract_z
 _atom_site_occupancy
  Ga  Ga0  1  0.332162  0.332162  0.332162  1
  Re  Re1  1  0.990613  0.340144  0.340144  1
  Re  Re2  1  0.002580  0.664541  0.664541  1
  Re  Re3  1  0.340144  0.990613  0.340144  1
  Re  Re4  1  0.340144  0.340144  0.990613  1
  Re  Re5  1  0.664541  0.002580  0.664541  1
  Re  Re6  1  0.664541  0.664541  0.002580  1
  As  As7  1  0.999847  0.999847  0.663535  1
  As  As8  1  0.663535  0.999847  0.999847  1
  As  As9  1  0.999847  0.663535  0.999847  1
  As  As10  1  0.662738  0.662738  0.662738  1
  As  As11  1  0.006859  0.006859  0.327375  1
  As  As12  1  0.006859  0.327375  0.006859  1
  As  As13  1  0.327375  0.006859  0.006859  1
  As  As14  1  0.501288  0.747189  0.250633  1
  As  As15  1  0.501288  0.250633  0.747189  1
  As  As16  1  0.250633  0.501288  0.747189  1
  As  As17  1  0.747189  0.250633  0.501288  1
  As  As18  1  0.747189  0.501288  0.250633  1
  As  As19  1  0.250633  0.747189  0.501288  1
