# generated using pymatgen
data_Hf6Ti6Zn11CuN4
_symmetry_space_group_name_H-M   'P 1'
_cell_length_a   8.33406884
_cell_length_b   8.33406789
_cell_length_c   8.31210952
_cell_angle_alpha   59.91256147
_cell_angle_beta   59.91256943
_cell_angle_gamma   59.99998858
_symmetry_Int_Tables_number   1
_chemical_formula_structural   Hf6Ti6Zn11CuN4
_chemical_formula_sum   'Hf6 Ti6 Zn11 Cu1 N4'
_cell_volume   407.69475243
_cell_formula_units_Z   1
loop_
 _symmetry_equiv_pos_site_id
 _symmetry_equiv_pos_as_xyz
  1  'x, y, z'
loop_
 _atom_site_type_symbol
 _atom_site_label
 _atom_site_symmetry_multiplicity
 _atom_site_fract_x
 _atom_site_fract_y
 _atom_site_fract_z
 _atom_site_occupancy
  Hf  Hf0  1  0.439098  0.062958  0.058846  1
  Hf  Hf1  1  0.062958  0.439098  0.058846  1
  Hf  Hf2  1  0.439098  0.439098  0.058846  1
  Hf  Hf3  1  0.061754  0.437785  0.438708  1
  Hf  Hf4  1  0.437785  0.061754  0.438708  1
  Hf  Hf5  1  0.061754  0.061754  0.438708  1
  Ti  Ti6  1  0.825109  0.175557  0.174225  1
  Ti  Ti7  1  0.175557  0.825109  0.174225  1
  Ti  Ti8  1  0.825109  0.825109  0.174225  1
  Ti  Ti9  1  0.176026  0.823750  0.824198  1
  Ti  Ti10  1  0.823750  0.176026  0.824198  1
  Ti  Ti11  1  0.176026  0.176026  0.824198  1
  Zn  Zn12  1  0.417814  0.417814  0.420293  1
  Zn  Zn13  1  0.744076  0.417814  0.420293  1
  Zn  Zn14  1  0.417814  0.744076  0.420293  1
  Zn  Zn15  1  0.835523  0.835523  0.493432  1
  Zn  Zn16  1  0.835504  0.835504  0.835504  1
  Zn  Zn17  1  0.493490  0.835504  0.835504  1
  Zn  Zn18  1  0.835504  0.493490  0.835504  1
  Zn  Zn19  1  0.625822  0.625822  0.122533  1
  Zn  Zn20  1  0.624688  0.624688  0.626587  1
  Zn  Zn21  1  0.124036  0.624688  0.626587  1
  Zn  Zn22  1  0.624688  0.124036  0.626587  1
  Cu  Cu23  1  0.416823  0.416823  0.749529  1
  N  N24  1  0.122264  0.122264  0.633209  1
  N  N25  1  0.122619  0.122619  0.122072  1
  N  N26  1  0.632691  0.122619  0.122072  1
  N  N27  1  0.122619  0.632691  0.122072  1
