# generated using pymatgen
data_Ba2GaB2Pt7
_symmetry_space_group_name_H-M   'P 1'
_cell_length_a   5.77542900
_cell_length_b   5.77542905
_cell_length_c   7.41547400
_cell_angle_alpha   90.00000000
_cell_angle_beta   90.00000000
_cell_angle_gamma   120.00000545
_symmetry_Int_Tables_number   1
_chemical_formula_structural   Ba2GaB2Pt7
_chemical_formula_sum   'Ba2 Ga1 B2 Pt7'
_cell_volume   214.20915428
_cell_formula_units_Z   1
loop_
 _symmetry_equiv_pos_site_id
 _symmetry_equiv_pos_as_xyz
  1  'x, y, z'
loop_
 _atom_site_type_symbol
 _atom_site_label
 _atom_site_symmetry_multiplicity
 _atom_site_fract_x
 _atom_site_fract_y
 _atom_site_fract_z
 _atom_site_occupancy
  Ba  Ba0  1  0.000000  0.000000  0.000000  1
  Ba  Ba1  1  0.000000  0.000000  0.500000  1
  Ga  Ga2  1  0.666667  0.333334  0.500000  1
  B  B3  1  0.666667  0.333334  0.000000  1
  B  B4  1  0.333334  0.666667  0.000000  1
  Pt  Pt5  1  0.500854  0.001708  0.200002  1
  Pt  Pt6  1  0.998292  0.499146  0.200002  1
  Pt  Pt7  1  0.500853  0.499146  0.200002  1
  Pt  Pt8  1  0.333334  0.666667  0.500000  1
  Pt  Pt9  1  0.500854  0.001708  0.799998  1
  Pt  Pt10  1  0.998292  0.499146  0.799998  1
  Pt  Pt11  1  0.500853  0.499146  0.799998  1
