# generated using pymatgen
data_Er4Co16Si5Mo4P7
_symmetry_space_group_name_H-M   'P 1'
_cell_length_a   3.71781200
_cell_length_b   10.45957300
_cell_length_c   11.96024900
_cell_angle_alpha   90.00247803
_cell_angle_beta   90.00000000
_cell_angle_gamma   90.00000000
_symmetry_Int_Tables_number   1
_chemical_formula_structural   Er4Co16Si5Mo4P7
_chemical_formula_sum   'Er4 Co16 Si5 Mo4 P7'
_cell_volume   465.09492571
_cell_formula_units_Z   1
loop_
 _symmetry_equiv_pos_site_id
 _symmetry_equiv_pos_as_xyz
  1  'x, y, z'
loop_
 _atom_site_type_symbol
 _atom_site_label
 _atom_site_symmetry_multiplicity
 _atom_site_fract_x
 _atom_site_fract_y
 _atom_site_fract_z
 _atom_site_occupancy
  Er  Er0  1  0.250000  0.581010  0.702807  1
  Er  Er1  1  0.250000  0.918003  0.202964  1
  Er  Er2  1  0.750000  0.418433  0.297330  1
  Er  Er3  1  0.750000  0.078493  0.797345  1
  Co  Co4  1  0.250000  0.408148  0.485897  1
  Co  Co5  1  0.250000  0.088907  0.990633  1
  Co  Co6  1  0.750000  0.592422  0.511804  1
  Co  Co7  1  0.750000  0.906349  0.012561  1
  Co  Co8  1  0.250000  0.215188  0.178057  1
  Co  Co9  1  0.250000  0.286830  0.672280  1
  Co  Co10  1  0.750000  0.784472  0.822846  1
  Co  Co11  1  0.750000  0.715732  0.323182  1
  Co  Co12  1  0.250000  0.882648  0.701452  1
  Co  Co13  1  0.250000  0.617441  0.201955  1
  Co  Co14  1  0.750000  0.116433  0.298140  1
  Co  Co15  1  0.750000  0.384544  0.797423  1
  Co  Co16  1  0.250000  0.467465  0.933249  1
  Co  Co17  1  0.250000  0.035954  0.431964  1
  Co  Co18  1  0.750000  0.537006  0.069288  1
  Co  Co19  1  0.750000  0.964347  0.568370  1
  Si  Si20  1  0.250000  0.420155  0.116238  1
  Si  Si21  1  0.250000  0.080679  0.616563  1
  Si  Si22  1  0.750000  0.579795  0.884187  1
  Si  Si23  1  0.750000  0.920139  0.384088  1
  Si  Si24  1  0.250000  0.268421  0.862426  1
  Mo  Mo25  1  0.250000  0.706831  0.990655  1
  Mo  Mo26  1  0.250000  0.793002  0.489921  1
  Mo  Mo27  1  0.750000  0.294382  0.010998  1
  Mo  Mo28  1  0.750000  0.206702  0.508957  1
  P  P29  1  0.250000  0.230757  0.363113  1
  P  P30  1  0.750000  0.731153  0.137279  1
  P  P31  1  0.750000  0.769085  0.636691  1
  P  P32  1  0.250000  0.596169  0.390334  1
  P  P33  1  0.250000  0.903606  0.890793  1
  P  P34  1  0.750000  0.404080  0.608987  1
  P  P35  1  0.750000  0.095220  0.109226  1
