# generated using pymatgen
data_CsEu3Se4
_symmetry_space_group_name_H-M   'P 1'
_cell_length_a   4.40173700
_cell_length_b   4.40173706
_cell_length_c   30.92288300
_cell_angle_alpha   90.00000000
_cell_angle_beta   90.00000000
_cell_angle_gamma   119.99997699
_symmetry_Int_Tables_number   1
_chemical_formula_structural   CsEu3Se4
_chemical_formula_sum   'Cs2 Eu6 Se8'
_cell_volume   518.87040007
_cell_formula_units_Z   2
loop_
 _symmetry_equiv_pos_site_id
 _symmetry_equiv_pos_as_xyz
  1  'x, y, z'
loop_
 _atom_site_type_symbol
 _atom_site_label
 _atom_site_symmetry_multiplicity
 _atom_site_fract_x
 _atom_site_fract_y
 _atom_site_fract_z
 _atom_site_occupancy
  Cs  Cs0  1  0.666667  0.333333  0.250000  1
  Cs  Cs1  1  0.333333  0.666667  0.750000  1
  Eu  Eu2  1  0.666667  0.333333  0.616128  1
  Eu  Eu3  1  0.666667  0.333333  0.883872  1
  Eu  Eu4  1  0.333333  0.666667  0.383872  1
  Eu  Eu5  1  0.333333  0.666667  0.116128  1
  Eu  Eu6  1  0.000000  0.000000  0.500000  1
  Eu  Eu7  1  0.000000  0.000000  0.000000  1
  Se  Se8  1  0.000000  0.000000  0.164203  1
  Se  Se9  1  0.666667  0.333333  0.445251  1
  Se  Se10  1  0.000000  0.000000  0.664203  1
  Se  Se11  1  0.333333  0.666667  0.945251  1
  Se  Se12  1  0.333333  0.666667  0.554749  1
  Se  Se13  1  0.000000  0.000000  0.335797  1
  Se  Se14  1  0.666667  0.333333  0.054749  1
  Se  Se15  1  0.000000  0.000000  0.835797  1
