# generated using pymatgen
data_Ho2B6Ir2Rh7
_symmetry_space_group_name_H-M   'P 1'
_cell_length_a   5.61553800
_cell_length_b   5.60155233
_cell_length_c   8.60277600
_cell_angle_alpha   90.00000000
_cell_angle_beta   90.00000000
_cell_angle_gamma   120.08263803
_symmetry_Int_Tables_number   1
_chemical_formula_structural   Ho2B6Ir2Rh7
_chemical_formula_sum   'Ho2 B6 Ir2 Rh7'
_cell_volume   234.15679668
_cell_formula_units_Z   1
loop_
 _symmetry_equiv_pos_site_id
 _symmetry_equiv_pos_as_xyz
  1  'x, y, z'
loop_
 _atom_site_type_symbol
 _atom_site_label
 _atom_site_symmetry_multiplicity
 _atom_site_fract_x
 _atom_site_fract_y
 _atom_site_fract_z
 _atom_site_occupancy
  Ho  Ho0  1  0.000000  0.000000  0.703258  1
  Ho  Ho1  1  0.000000  0.000000  0.296742  1
  B  B2  1  0.666883  0.333765  0.000000  1
  B  B3  1  0.333117  0.666235  0.000000  1
  B  B4  1  0.667254  0.334507  0.668175  1
  B  B5  1  0.332746  0.665493  0.668175  1
  B  B6  1  0.332746  0.665493  0.331825  1
  B  B7  1  0.667254  0.334507  0.331825  1
  Ir  Ir8  1  0.500000  0.500000  0.500000  1
  Ir  Ir9  1  0.000000  0.500000  0.500000  1
  Rh  Rh10  1  0.500000  0.500000  0.836261  1
  Rh  Rh11  1  0.500000  0.000000  0.835885  1
  Rh  Rh12  1  0.000000  0.500000  0.836261  1
  Rh  Rh13  1  0.500000  0.500000  0.163739  1
  Rh  Rh14  1  0.500000  0.000000  0.164115  1
  Rh  Rh15  1  0.000000  0.500000  0.163739  1
  Rh  Rh16  1  0.500000  0.000000  0.500000  1
