# generated using pymatgen
data_Rb4OsO4
_symmetry_space_group_name_H-M   'P 1'
_cell_length_a   6.55467890
_cell_length_b   10.31295146
_cell_length_c   13.71444134
_cell_angle_alpha   72.85565162
_cell_angle_beta   109.60740726
_cell_angle_gamma   110.65305016
_symmetry_Int_Tables_number   1
_chemical_formula_structural   Rb4OsO4
_chemical_formula_sum   'Rb16 Os4 O16'
_cell_volume   800.65371966
_cell_formula_units_Z   4
loop_
 _symmetry_equiv_pos_site_id
 _symmetry_equiv_pos_as_xyz
  1  'x, y, z'
loop_
 _atom_site_type_symbol
 _atom_site_label
 _atom_site_symmetry_multiplicity
 _atom_site_fract_x
 _atom_site_fract_y
 _atom_site_fract_z
 _atom_site_occupancy
  Rb  Rb0  1  0.018593  0.051869  0.126142  1
  Rb  Rb1  1  0.518845  0.051969  0.626161  1
  Rb  Rb2  1  0.481222  0.948039  0.373853  1
  Rb  Rb3  1  0.981360  0.948131  0.873850  1
  Rb  Rb4  1  0.218600  0.442090  0.124616  1
  Rb  Rb5  1  0.718858  0.442201  0.624593  1
  Rb  Rb6  1  0.281207  0.557820  0.375422  1
  Rb  Rb7  1  0.781357  0.557899  0.875387  1
  Rb  Rb8  1  0.444958  0.857370  0.124494  1
  Rb  Rb9  1  0.945044  0.857429  0.624497  1
  Rb  Rb10  1  0.055000  0.142599  0.375504  1
  Rb  Rb11  1  0.555043  0.142611  0.875499  1
  Rb  Rb12  1  0.799611  0.640402  0.125220  1
  Rb  Rb13  1  0.299900  0.640505  0.625205  1
  Rb  Rb14  1  0.700167  0.359515  0.374795  1
  Rb  Rb15  1  0.200353  0.359583  0.874780  1
  Os  Os16  1  0.118019  0.248988  0.625217  1
  Os  Os17  1  0.882055  0.751016  0.374771  1
  Os  Os18  1  0.617743  0.248929  0.125209  1
  Os  Os19  1  0.382194  0.751085  0.874774  1
  O  O20  1  0.369274  0.137033  0.034186  1
  O  O21  1  0.869511  0.137107  0.534212  1
  O  O22  1  0.130525  0.862873  0.465806  1
  O  O23  1  0.630661  0.862969  0.965792  1
  O  O24  1  0.798265  0.293076  0.028480  1
  O  O25  1  0.298552  0.293039  0.528511  1
  O  O26  1  0.701477  0.706953  0.471517  1
  O  O27  1  0.201680  0.706925  0.971503  1
  O  O28  1  0.868449  0.358915  0.216522  1
  O  O29  1  0.368725  0.359005  0.716524  1
  O  O30  1  0.631292  0.640973  0.283501  1
  O  O31  1  0.131495  0.641085  0.783452  1
  O  O32  1  0.063623  0.791349  0.279071  1
  O  O33  1  0.563823  0.791509  0.779026  1
  O  O34  1  0.436125  0.208517  0.220955  1
  O  O35  1  0.936393  0.208618  0.720955  1
