# generated using pymatgen
data_NdY2Co(P3Rh4)2
_symmetry_space_group_name_H-M   'P 1'
_cell_length_a   3.88692800
_cell_length_b   11.16762700
_cell_length_c   12.84835300
_cell_angle_alpha   90.00000000
_cell_angle_beta   90.00000000
_cell_angle_gamma   90.00000000
_symmetry_Int_Tables_number   1
_chemical_formula_structural   NdY2Co(P3Rh4)2
_chemical_formula_sum   'Nd2 Y4 Co2 P12 Rh16'
_cell_volume   557.71825014
_cell_formula_units_Z   2
loop_
 _symmetry_equiv_pos_site_id
 _symmetry_equiv_pos_as_xyz
  1  'x, y, z'
loop_
 _atom_site_type_symbol
 _atom_site_label
 _atom_site_symmetry_multiplicity
 _atom_site_fract_x
 _atom_site_fract_y
 _atom_site_fract_z
 _atom_site_occupancy
  Nd  Nd0  1  0.000000  0.500000  0.522338  1
  Nd  Nd1  1  0.500000  0.000000  0.477662  1
  Y  Y2  1  0.500000  0.815124  0.201486  1
  Y  Y3  1  0.500000  0.184876  0.201486  1
  Y  Y4  1  0.000000  0.684876  0.798514  1
  Y  Y5  1  0.000000  0.315124  0.798514  1
  Co  Co6  1  0.000000  0.500000  0.980209  1
  Co  Co7  1  0.500000  0.000000  0.019791  1
  P  P8  1  0.500000  0.500000  0.882909  1
  P  P9  1  0.000000  0.000000  0.117091  1
  P  P10  1  0.500000  0.500000  0.348147  1
  P  P11  1  0.000000  0.000000  0.651853  1
  P  P12  1  0.500000  0.314346  0.620572  1
  P  P13  1  0.500000  0.685654  0.620572  1
  P  P14  1  0.000000  0.185654  0.379428  1
  P  P15  1  0.000000  0.814346  0.379428  1
  P  P16  1  0.500000  0.853193  0.896688  1
  P  P17  1  0.500000  0.146807  0.896688  1
  P  P18  1  0.000000  0.646807  0.103312  1
  P  P19  1  0.000000  0.353193  0.103312  1
  Rh  Rh20  1  0.500000  0.500000  0.166945  1
  Rh  Rh21  1  0.000000  0.000000  0.833055  1
  Rh  Rh22  1  0.500000  0.500000  0.706041  1
  Rh  Rh23  1  0.000000  0.000000  0.293959  1
  Rh  Rh24  1  0.500000  0.336416  0.994081  1
  Rh  Rh25  1  0.500000  0.663584  0.994081  1
  Rh  Rh26  1  0.000000  0.163584  0.005919  1
  Rh  Rh27  1  0.000000  0.836416  0.005919  1
  Rh  Rh28  1  0.500000  0.292711  0.429031  1
  Rh  Rh29  1  0.500000  0.707289  0.429031  1
  Rh  Rh30  1  0.000000  0.207289  0.570969  1
  Rh  Rh31  1  0.000000  0.792711  0.570969  1
  Rh  Rh32  1  0.500000  0.873774  0.713610  1
  Rh  Rh33  1  0.500000  0.126226  0.713610  1
  Rh  Rh34  1  0.000000  0.626226  0.286390  1
  Rh  Rh35  1  0.000000  0.373774  0.286390  1
