# generated using pymatgen
data_YbLu3OsRu7
_symmetry_space_group_name_H-M   'P 1'
_cell_length_a   5.19804443
_cell_length_b   5.28083415
_cell_length_c   8.85207585
_cell_angle_alpha   89.99999598
_cell_angle_beta   90.04356405
_cell_angle_gamma   120.52828418
_symmetry_Int_Tables_number   1
_chemical_formula_structural   YbLu3OsRu7
_chemical_formula_sum   'Yb1 Lu3 Os1 Ru7'
_cell_volume   209.30591650
_cell_formula_units_Z   1
loop_
 _symmetry_equiv_pos_site_id
 _symmetry_equiv_pos_as_xyz
  1  'x, y, z'
loop_
 _atom_site_type_symbol
 _atom_site_label
 _atom_site_symmetry_multiplicity
 _atom_site_fract_x
 _atom_site_fract_y
 _atom_site_fract_z
 _atom_site_occupancy
  Yb  Yb0  1  0.328175  0.664088  0.064806  1
  Lu  Lu1  1  0.330020  0.665010  0.429149  1
  Lu  Lu2  1  0.662606  0.331303  0.567258  1
  Lu  Lu3  1  0.661595  0.330798  0.936146  1
  Os  Os4  1  0.670668  0.835334  0.749964  1
  Ru  Ru5  1  0.986074  0.993037  0.501044  1
  Ru  Ru6  1  0.985182  0.992591  0.000092  1
  Ru  Ru7  1  0.830788  0.166987  0.251280  1
  Ru  Ru8  1  0.830788  0.663801  0.251280  1
  Ru  Ru9  1  0.352136  0.176067  0.252451  1
  Ru  Ru10  1  0.180983  0.831231  0.748265  1
  Ru  Ru11  1  0.180983  0.349753  0.748265  1
