# generated using pymatgen
data_Nd3LuMg2Ir3
_symmetry_space_group_name_H-M   'P 1'
_cell_length_a   7.53374200
_cell_length_b   7.56774944
_cell_length_c   4.19198600
_cell_angle_alpha   90.00000000
_cell_angle_beta   90.00000000
_cell_angle_gamma   119.85145953
_symmetry_Int_Tables_number   1
_chemical_formula_structural   Nd3LuMg2Ir3
_chemical_formula_sum   'Nd3 Lu1 Mg2 Ir3'
_cell_volume   207.28890038
_cell_formula_units_Z   1
loop_
 _symmetry_equiv_pos_site_id
 _symmetry_equiv_pos_as_xyz
  1  'x, y, z'
loop_
 _atom_site_type_symbol
 _atom_site_label
 _atom_site_symmetry_multiplicity
 _atom_site_fract_x
 _atom_site_fract_y
 _atom_site_fract_z
 _atom_site_occupancy
  Nd  Nd0  1  0.395702  0.000000  0.500000  1
  Nd  Nd1  1  0.012453  0.428421  0.500000  1
  Nd  Nd2  1  0.584032  0.571579  0.500000  1
  Lu  Lu3  1  0.754576  0.000000  0.000000  1
  Mg  Mg4  1  0.244354  0.245271  0.000000  1
  Mg  Mg5  1  0.999083  0.754729  0.000000  1
  Ir  Ir6  1  0.670864  0.327555  0.000000  1
  Ir  Ir7  1  0.343310  0.672445  0.000000  1
  Ir  Ir8  1  0.995627  0.000000  0.500000  1
