# generated using pymatgen
data_TlNi3Hg2(BrO4)2
_symmetry_space_group_name_H-M   'P 1'
_cell_length_a   5.66455420
_cell_length_b   6.58332162
_cell_length_c   7.22119204
_cell_angle_alpha   62.71249109
_cell_angle_beta   105.29570330
_cell_angle_gamma   89.97788834
_symmetry_Int_Tables_number   1
_chemical_formula_structural   TlNi3Hg2(BrO4)2
_chemical_formula_sum   'Tl1 Ni3 Hg2 Br2 O8'
_cell_volume   228.52112155
_cell_formula_units_Z   1
loop_
 _symmetry_equiv_pos_site_id
 _symmetry_equiv_pos_as_xyz
  1  'x, y, z'
loop_
 _atom_site_type_symbol
 _atom_site_label
 _atom_site_symmetry_multiplicity
 _atom_site_fract_x
 _atom_site_fract_y
 _atom_site_fract_z
 _atom_site_occupancy
  Tl  Tl0  1  0.497011  0.753232  0.497300  1
  Ni  Ni1  1  0.999445  0.007244  0.498085  1
  Ni  Ni2  1  0.499302  0.250764  0.501046  1
  Ni  Ni3  1  0.001839  0.492368  0.500250  1
  Hg  Hg4  1  0.010625  0.491185  0.006873  1
  Hg  Hg5  1  0.500545  0.754488  0.001168  1
  Br  Br6  1  0.986912  0.999832  0.986625  1
  Br  Br7  1  0.501232  0.255770  0.000144  1
  O  O8  1  0.082945  0.833549  0.328715  1
  O  O9  1  0.622263  0.106431  0.332403  1
  O  O10  1  0.118790  0.329715  0.339374  1
  O  O11  1  0.624978  0.565345  0.333249  1
  O  O12  1  0.913406  0.662139  0.672152  1
  O  O13  1  0.376192  0.935733  0.669040  1
  O  O14  1  0.884770  0.165771  0.663203  1
  O  O15  1  0.379743  0.396433  0.670374  1
