# generated using pymatgen
data_Tb2Zr4Sn6IrRh5
_symmetry_space_group_name_H-M   'P 1'
_cell_length_a   7.50800877
_cell_length_b   7.51479745
_cell_length_c   7.39173225
_cell_angle_alpha   90.04019273
_cell_angle_beta   90.02623386
_cell_angle_gamma   120.01665839
_symmetry_Int_Tables_number   1
_chemical_formula_structural   Tb2Zr4Sn6IrRh5
_chemical_formula_sum   'Tb2 Zr4 Sn6 Ir1 Rh5'
_cell_volume   361.11513256
_cell_formula_units_Z   1
loop_
 _symmetry_equiv_pos_site_id
 _symmetry_equiv_pos_as_xyz
  1  'x, y, z'
loop_
 _atom_site_type_symbol
 _atom_site_label
 _atom_site_symmetry_multiplicity
 _atom_site_fract_x
 _atom_site_fract_y
 _atom_site_fract_z
 _atom_site_occupancy
  Tb  Tb0  1  0.595696  0.000284  0.249764  1
  Tb  Tb1  1  0.406186  0.402654  0.249700  1
  Zr  Zr2  1  0.609785  0.004974  0.750552  1
  Zr  Zr3  1  0.391467  0.394469  0.750700  1
  Zr  Zr4  1  0.000166  0.602540  0.750112  1
  Zr  Zr5  1  0.996079  0.597495  0.247342  1
  Sn  Sn6  1  0.264989  0.997110  0.991881  1
  Sn  Sn7  1  0.732910  0.732468  0.508101  1
  Sn  Sn8  1  0.000840  0.269073  0.496326  1
  Sn  Sn9  1  0.002299  0.267965  0.003440  1
  Sn  Sn10  1  0.732917  0.734865  0.991469  1
  Sn  Sn11  1  0.266268  0.998239  0.507794  1
  Ir  Ir12  1  0.672224  0.338104  0.973642  1
  Rh  Rh13  1  0.671014  0.336845  0.529490  1
  Rh  Rh14  1  0.328406  0.665579  0.974461  1
  Rh  Rh15  1  0.328706  0.665740  0.525644  1
  Rh  Rh16  1  0.000288  0.004586  0.749636  1
  Rh  Rh17  1  0.999761  0.987011  0.249947  1
