# generated using pymatgen
data_CaPrTaIr3
_symmetry_space_group_name_H-M   'P 1'
_cell_length_a   5.75800919
_cell_length_b   5.29028632
_cell_length_c   5.75800800
_cell_angle_alpha   57.02958603
_cell_angle_beta   59.99999535
_cell_angle_gamma   57.02958777
_symmetry_Int_Tables_number   1
_chemical_formula_structural   CaPrTaIr3
_chemical_formula_sum   'Ca1 Pr1 Ta1 Ir3'
_cell_volume   118.16126893
_cell_formula_units_Z   1
loop_
 _symmetry_equiv_pos_site_id
 _symmetry_equiv_pos_as_xyz
  1  'x, y, z'
loop_
 _atom_site_type_symbol
 _atom_site_label
 _atom_site_symmetry_multiplicity
 _atom_site_fract_x
 _atom_site_fract_y
 _atom_site_fract_z
 _atom_site_occupancy
  Ca  Ca0  1  0.499115  0.502653  0.499115  1
  Pr  Pr1  1  0.748313  0.755062  0.748313  1
  Ta  Ta2  1  0.124821  0.625537  0.124821  1
  Ir  Ir3  1  0.623606  0.122249  0.127072  1
  Ir  Ir4  1  0.127072  0.122249  0.127072  1
  Ir  Ir5  1  0.127072  0.122249  0.623606  1
