# generated using pymatgen
data_Rb8Cd3Ge43
_symmetry_space_group_name_H-M   'P 1'
_cell_length_a   11.12688414
_cell_length_b   11.12688429
_cell_length_c   11.12688300
_cell_angle_alpha   90.00921727
_cell_angle_beta   90.00921727
_cell_angle_gamma   90.00922093
_symmetry_Int_Tables_number   1
_chemical_formula_structural   Rb8Cd3Ge43
_chemical_formula_sum   'Rb8 Cd3 Ge43'
_cell_volume   1377.59209610
_cell_formula_units_Z   1
loop_
 _symmetry_equiv_pos_site_id
 _symmetry_equiv_pos_as_xyz
  1  'x, y, z'
loop_
 _atom_site_type_symbol
 _atom_site_label
 _atom_site_symmetry_multiplicity
 _atom_site_fract_x
 _atom_site_fract_y
 _atom_site_fract_z
 _atom_site_occupancy
  Rb  Rb0  1  0.250094  0.250094  0.250094  1
  Rb  Rb1  1  0.749906  0.749906  0.749906  1
  Rb  Rb2  1  0.500000  0.248966  0.751034  1
  Rb  Rb3  1  0.248966  0.751034  0.500000  1
  Rb  Rb4  1  0.751034  0.500000  0.248966  1
  Rb  Rb5  1  0.000000  0.248938  0.751062  1
  Rb  Rb6  1  0.248938  0.751062  0.000000  1
  Rb  Rb7  1  0.751062  0.000000  0.248938  1
  Cd  Cd8  1  0.750030  0.249970  0.000000  1
  Cd  Cd9  1  0.249970  0.000000  0.750030  1
  Cd  Cd10  1  0.000000  0.750030  0.249970  1
  Ge  Ge11  1  0.554196  0.249726  0.368357  1
  Ge  Ge12  1  0.249726  0.368357  0.554196  1
  Ge  Ge13  1  0.368357  0.554196  0.249726  1
  Ge  Ge14  1  0.946217  0.250072  0.136414  1
  Ge  Ge15  1  0.250072  0.136414  0.946217  1
  Ge  Ge16  1  0.136414  0.946217  0.250072  1
  Ge  Ge17  1  0.249741  0.368880  0.946167  1
  Ge  Ge18  1  0.136594  0.554278  0.250135  1
  Ge  Ge19  1  0.250135  0.136594  0.554278  1
  Ge  Ge20  1  0.368880  0.946167  0.249741  1
  Ge  Ge21  1  0.554278  0.250135  0.136594  1
  Ge  Ge22  1  0.946167  0.249741  0.368880  1
  Ge  Ge23  1  0.631643  0.750274  0.445804  1
  Ge  Ge24  1  0.445722  0.863406  0.749865  1
  Ge  Ge25  1  0.750259  0.053833  0.631120  1
  Ge  Ge26  1  0.863586  0.749928  0.053783  1
  Ge  Ge27  1  0.053833  0.631120  0.750259  1
  Ge  Ge28  1  0.749865  0.445722  0.863406  1
  Ge  Ge29  1  0.053783  0.863586  0.749928  1
  Ge  Ge30  1  0.749928  0.053783  0.863586  1
  Ge  Ge31  1  0.445804  0.631643  0.750274  1
  Ge  Ge32  1  0.750274  0.445804  0.631643  1
  Ge  Ge33  1  0.863406  0.749865  0.445722  1
  Ge  Ge34  1  0.631120  0.750259  0.053833  1
  Ge  Ge35  1  0.434840  0.434840  0.434840  1
  Ge  Ge36  1  0.067934  0.067934  0.067934  1
  Ge  Ge37  1  0.066068  0.433911  0.067718  1
  Ge  Ge38  1  0.433879  0.066153  0.435260  1
  Ge  Ge39  1  0.433911  0.067718  0.066068  1
  Ge  Ge40  1  0.066153  0.435260  0.433879  1
  Ge  Ge41  1  0.067718  0.066068  0.433911  1
  Ge  Ge42  1  0.435260  0.433879  0.066153  1
  Ge  Ge43  1  0.564740  0.933847  0.566121  1
  Ge  Ge44  1  0.932282  0.566089  0.933932  1
  Ge  Ge45  1  0.932066  0.932066  0.932066  1
  Ge  Ge46  1  0.565160  0.565160  0.565160  1
  Ge  Ge47  1  0.933847  0.566121  0.564740  1
  Ge  Ge48  1  0.566089  0.933932  0.932282  1
  Ge  Ge49  1  0.566121  0.564740  0.933847  1
  Ge  Ge50  1  0.933932  0.932282  0.566089  1
  Ge  Ge51  1  0.749912  0.250088  0.500000  1
  Ge  Ge52  1  0.250088  0.500000  0.749912  1
  Ge  Ge53  1  0.500000  0.749912  0.250088  1
