# generated using pymatgen
data_Dy10Bi3P2Pb3
_symmetry_space_group_name_H-M   'P 1'
_cell_length_a   9.18671600
_cell_length_b   9.18671526
_cell_length_c   6.75419200
_cell_angle_alpha   90.00000000
_cell_angle_beta   90.00000000
_cell_angle_gamma   120.00000987
_symmetry_Int_Tables_number   1
_chemical_formula_structural   Dy10Bi3P2Pb3
_chemical_formula_sum   'Dy10 Bi3 P2 Pb3'
_cell_volume   493.65613307
_cell_formula_units_Z   1
loop_
 _symmetry_equiv_pos_site_id
 _symmetry_equiv_pos_as_xyz
  1  'x, y, z'
loop_
 _atom_site_type_symbol
 _atom_site_label
 _atom_site_symmetry_multiplicity
 _atom_site_fract_x
 _atom_site_fract_y
 _atom_site_fract_z
 _atom_site_occupancy
  Dy  Dy0  1  0.763353  0.763353  0.750000  1
  Dy  Dy1  1  0.236647  0.000000  0.750000  1
  Dy  Dy2  1  0.000000  0.236647  0.750000  1
  Dy  Dy3  1  0.237125  0.237125  0.250000  1
  Dy  Dy4  1  0.762875  0.000000  0.250000  1
  Dy  Dy5  1  0.000000  0.762875  0.250000  1
  Dy  Dy6  1  0.666667  0.333333  0.002611  1
  Dy  Dy7  1  0.333333  0.666667  0.002611  1
  Dy  Dy8  1  0.333333  0.666667  0.497389  1
  Dy  Dy9  1  0.666667  0.333333  0.497389  1
  Bi  Bi10  1  0.399978  0.399978  0.750000  1
  Bi  Bi11  1  0.600022  0.000000  0.750000  1
  Bi  Bi12  1  0.000000  0.600022  0.750000  1
  P  P13  1  0.000000  0.000000  0.999168  1
  P  P14  1  0.000000  0.000000  0.500832  1
  Pb  Pb15  1  0.601016  0.601016  0.250000  1
  Pb  Pb16  1  0.398984  0.000000  0.250000  1
  Pb  Pb17  1  0.000000  0.398984  0.250000  1
