# generated using pymatgen
data_Ba2NdSc3O8
_symmetry_space_group_name_H-M   'P 1'
_cell_length_a   4.11569900
_cell_length_b   24.76917200
_cell_length_c   4.11571300
_cell_angle_alpha   89.99986983
_cell_angle_beta   89.99991646
_cell_angle_gamma   89.99994171
_symmetry_Int_Tables_number   1
_chemical_formula_structural   Ba2NdSc3O8
_chemical_formula_sum   'Ba4 Nd2 Sc6 O16'
_cell_volume   419.56589397
_cell_formula_units_Z   2
loop_
 _symmetry_equiv_pos_site_id
 _symmetry_equiv_pos_as_xyz
  1  'x, y, z'
loop_
 _atom_site_type_symbol
 _atom_site_label
 _atom_site_symmetry_multiplicity
 _atom_site_fract_x
 _atom_site_fract_y
 _atom_site_fract_z
 _atom_site_occupancy
  Ba  Ba0  1  0.500002  0.077768  0.499997  1
  Ba  Ba1  1  0.499999  0.577770  0.499997  1
  Ba  Ba2  1  0.500003  0.422239  0.500000  1
  Ba  Ba3  1  0.500001  0.922236  0.500005  1
  Nd  Nd4  1  0.499999  0.250000  0.499998  1
  Nd  Nd5  1  0.500000  0.749999  0.500000  1
  Sc  Sc6  1  0.000008  0.500001  0.999997  1
  Sc  Sc7  1  0.999999  0.668630  0.000001  1
  Sc  Sc8  1  0.000008  0.331372  0.999995  1
  Sc  Sc9  1  0.000012  0.999996  0.000020  1
  Sc  Sc10  1  0.000003  0.168626  0.999981  1
  Sc  Sc11  1  0.999985  0.831370  0.000003  1
  O  O12  1  0.999997  0.999999  0.500009  1
  O  O13  1  0.999998  0.500004  0.500001  1
  O  O14  1  0.500002  0.000000  0.999997  1
  O  O15  1  0.500002  0.500004  0.999998  1
  O  O16  1  0.000001  0.090321  0.999997  1
  O  O17  1  0.999999  0.590323  0.999997  1
  O  O18  1  0.000002  0.409680  0.999994  1
  O  O19  1  0.999998  0.909675  0.000001  1
  O  O20  1  0.499999  0.191095  0.000001  1
  O  O21  1  0.499996  0.691097  0.000010  1
  O  O22  1  0.999997  0.191095  0.499994  1
  O  O23  1  0.999995  0.691095  0.500005  1
  O  O24  1  0.500003  0.308901  0.999998  1
  O  O25  1  0.499993  0.808901  0.000004  1
  O  O26  1  0.000000  0.308901  0.499998  1
  O  O27  1  0.999996  0.808901  0.500003  1
