# generated using pymatgen
data_Li3La2PrInSi2
_symmetry_space_group_name_H-M   'P 1'
_cell_length_a   7.57928900
_cell_length_b   7.56763014
_cell_length_c   4.42487700
_cell_angle_alpha   90.00000000
_cell_angle_beta   90.00000000
_cell_angle_gamma   120.05098959
_symmetry_Int_Tables_number   1
_chemical_formula_structural   Li3La2PrInSi2
_chemical_formula_sum   'Li3 La2 Pr1 In1 Si2'
_cell_volume   219.68319089
_cell_formula_units_Z   1
loop_
 _symmetry_equiv_pos_site_id
 _symmetry_equiv_pos_as_xyz
  1  'x, y, z'
loop_
 _atom_site_type_symbol
 _atom_site_label
 _atom_site_symmetry_multiplicity
 _atom_site_fract_x
 _atom_site_fract_y
 _atom_site_fract_z
 _atom_site_occupancy
  Li  Li0  1  0.748477  0.750642  0.500000  1
  Li  Li1  1  0.252726  0.000000  0.500000  1
  Li  Li2  1  0.997835  0.249358  0.500000  1
  La  La3  1  0.000621  0.562381  0.000000  1
  La  La4  1  0.438241  0.437619  0.000000  1
  Pr  Pr5  1  0.562595  0.000000  0.000000  1
  In  In6  1  0.997135  0.000000  0.000000  1
  Si  Si7  1  0.336133  0.669897  0.500000  1
  Si  Si8  1  0.666237  0.330103  0.500000  1
