# generated using pymatgen
data_Pr16Y3CdIr12
_symmetry_space_group_name_H-M   'P 1'
_cell_length_a   11.29321400
_cell_length_b   11.29321400
_cell_length_c   6.47523400
_cell_angle_alpha   90.00000000
_cell_angle_beta   90.00000000
_cell_angle_gamma   90.00000000
_symmetry_Int_Tables_number   1
_chemical_formula_structural   Pr16Y3CdIr12
_chemical_formula_sum   'Pr16 Y3 Cd1 Ir12'
_cell_volume   825.82986245
_cell_formula_units_Z   1
loop_
 _symmetry_equiv_pos_site_id
 _symmetry_equiv_pos_as_xyz
  1  'x, y, z'
loop_
 _atom_site_type_symbol
 _atom_site_label
 _atom_site_symmetry_multiplicity
 _atom_site_fract_x
 _atom_site_fract_y
 _atom_site_fract_z
 _atom_site_occupancy
  Pr  Pr0  1  0.278894  0.084368  0.383740  1
  Pr  Pr1  1  0.289311  0.912242  0.883090  1
  Pr  Pr2  1  0.710689  0.087758  0.883090  1
  Pr  Pr3  1  0.721106  0.915632  0.383740  1
  Pr  Pr4  1  0.588891  0.789875  0.885010  1
  Pr  Pr5  1  0.586861  0.209567  0.381492  1
  Pr  Pr6  1  0.413139  0.790433  0.381492  1
  Pr  Pr7  1  0.411109  0.210125  0.885010  1
  Pr  Pr8  1  0.209567  0.413139  0.618508  1
  Pr  Pr9  1  0.210125  0.588891  0.114990  1
  Pr  Pr10  1  0.789875  0.411109  0.114990  1
  Pr  Pr11  1  0.790433  0.586861  0.618508  1
  Pr  Pr12  1  0.912242  0.710689  0.116910  1
  Pr  Pr13  1  0.915632  0.278894  0.616260  1
  Pr  Pr14  1  0.084368  0.721106  0.616260  1
  Pr  Pr15  1  0.087758  0.289311  0.116910  1
  Y  Y16  1  0.000000  0.000000  0.000000  1
  Y  Y17  1  0.500000  0.500000  0.000000  1
  Y  Y18  1  0.500000  0.500000  0.500000  1
  Cd  Cd19  1  0.000000  0.000000  0.500000  1
  Ir  Ir20  1  0.848436  0.154115  0.240416  1
  Ir  Ir21  1  0.845885  0.848436  0.759584  1
  Ir  Ir22  1  0.154115  0.151564  0.759584  1
  Ir  Ir23  1  0.151564  0.845885  0.240416  1
  Ir  Ir24  1  0.650464  0.351066  0.746577  1
  Ir  Ir25  1  0.648934  0.650464  0.253423  1
  Ir  Ir26  1  0.351066  0.349536  0.253423  1
  Ir  Ir27  1  0.349536  0.648934  0.746577  1
  Ir  Ir28  1  0.500000  0.000000  0.120252  1
  Ir  Ir29  1  0.500000  0.000000  0.614063  1
  Ir  Ir30  1  0.000000  0.500000  0.879748  1
  Ir  Ir31  1  0.000000  0.500000  0.385937  1
