# generated using pymatgen
data_Dy9Y7Cd4(OsPt)2
_symmetry_space_group_name_H-M   'P 1'
_cell_length_a   9.68149887
_cell_length_b   9.68152643
_cell_length_c   9.73725736
_cell_angle_alpha   59.63804504
_cell_angle_beta   59.63804674
_cell_angle_gamma   59.59726192
_symmetry_Int_Tables_number   1
_chemical_formula_structural   Dy9Y7Cd4(OsPt)2
_chemical_formula_sum   'Dy9 Y7 Cd4 Os2 Pt2'
_cell_volume   639.86085162
_cell_formula_units_Z   1
loop_
 _symmetry_equiv_pos_site_id
 _symmetry_equiv_pos_as_xyz
  1  'x, y, z'
loop_
 _atom_site_type_symbol
 _atom_site_label
 _atom_site_symmetry_multiplicity
 _atom_site_fract_x
 _atom_site_fract_y
 _atom_site_fract_z
 _atom_site_occupancy
  Dy  Dy0  1  0.349000  0.348999  0.352993  1
  Dy  Dy1  1  0.350362  0.350362  0.948186  1
  Dy  Dy2  1  0.345684  0.956609  0.349535  1
  Dy  Dy3  1  0.956611  0.345684  0.349533  1
  Dy  Dy4  1  0.813837  0.188967  0.190193  1
  Dy  Dy5  1  0.186714  0.813950  0.805934  1
  Dy  Dy6  1  0.188965  0.813838  0.190193  1
  Dy  Dy7  1  0.813950  0.186714  0.805934  1
  Dy  Dy8  1  0.188613  0.188614  0.811084  1
  Y  Y9  1  0.807429  0.807431  0.191482  1
  Y  Y10  1  0.939300  0.555740  0.566943  1
  Y  Y11  1  0.556116  0.938053  0.939400  1
  Y  Y12  1  0.555740  0.939300  0.566943  1
  Y  Y13  1  0.938054  0.556114  0.939400  1
  Y  Y14  1  0.562431  0.562431  0.939609  1
  Y  Y15  1  0.940161  0.940160  0.559431  1
  Cd  Cd16  1  0.579952  0.579952  0.579354  1
  Cd  Cd17  1  0.580638  0.580639  0.256746  1
  Cd  Cd18  1  0.581301  0.255105  0.580942  1
  Cd  Cd19  1  0.255105  0.581301  0.580942  1
  Os  Os20  1  0.143837  0.143838  0.137965  1
  Os  Os21  1  0.144847  0.144847  0.575894  1
  Pt  Pt22  1  0.146807  0.574548  0.140682  1
  Pt  Pt23  1  0.574547  0.146806  0.140683  1
