# generated using pymatgen
data_Dy11Y8ThSn16
_symmetry_space_group_name_H-M   'P 1'
_cell_length_a   8.07310874
_cell_length_b   8.19197833
_cell_length_c   15.51088312
_cell_angle_alpha   90.09324703
_cell_angle_beta   89.78745175
_cell_angle_gamma   89.88538371
_symmetry_Int_Tables_number   1
_chemical_formula_structural   Dy11Y8ThSn16
_chemical_formula_sum   'Dy11 Y8 Th1 Sn16'
_cell_volume   1025.79761358
_cell_formula_units_Z   1
loop_
 _symmetry_equiv_pos_site_id
 _symmetry_equiv_pos_as_xyz
  1  'x, y, z'
loop_
 _atom_site_type_symbol
 _atom_site_label
 _atom_site_symmetry_multiplicity
 _atom_site_fract_x
 _atom_site_fract_y
 _atom_site_fract_z
 _atom_site_occupancy
  Dy  Dy0  1  0.367007  0.835787  0.877781  1
  Dy  Dy1  1  0.868166  0.664087  0.621464  1
  Dy  Dy2  1  0.631648  0.163075  0.377890  1
  Dy  Dy3  1  0.133041  0.337039  0.122623  1
  Dy  Dy4  1  0.633056  0.163104  0.122441  1
  Dy  Dy5  1  0.132133  0.337189  0.378074  1
  Dy  Dy6  1  0.368156  0.836638  0.621969  1
  Dy  Dy7  1  0.867123  0.662895  0.877941  1
  Dy  Dy8  1  0.522820  0.322130  0.901975  1
  Dy  Dy9  1  0.022884  0.178986  0.598881  1
  Dy  Dy10  1  0.478416  0.678524  0.401951  1
  Y  Y11  1  0.979214  0.821349  0.098445  1
  Y  Y12  1  0.479621  0.678408  0.098016  1
  Y  Y13  1  0.978616  0.821108  0.401945  1
  Y  Y14  1  0.521501  0.322681  0.597172  1
  Y  Y15  1  0.198171  0.500887  0.749346  1
  Y  Y16  1  0.697960  0.997406  0.748862  1
  Y  Y17  1  0.801613  0.497998  0.250574  1
  Y  Y18  1  0.301817  0.001924  0.250047  1
  Th  Th19  1  0.017943  0.180196  0.903175  1
  Sn  Sn20  1  0.293351  0.035085  0.042351  1
  Sn  Sn21  1  0.791105  0.463958  0.458096  1
  Sn  Sn22  1  0.709032  0.965876  0.541892  1
  Sn  Sn23  1  0.209455  0.535384  0.957950  1
  Sn  Sn24  1  0.704599  0.961098  0.958909  1
  Sn  Sn25  1  0.208424  0.536584  0.541674  1
  Sn  Sn26  1  0.291389  0.036158  0.458333  1
  Sn  Sn27  1  0.792806  0.462071  0.041164  1
  Sn  Sn28  1  0.564657  0.620148  0.749817  1
  Sn  Sn29  1  0.065030  0.879303  0.750986  1
  Sn  Sn30  1  0.435192  0.380666  0.249948  1
  Sn  Sn31  1  0.934990  0.119444  0.250276  1
  Sn  Sn32  1  0.331462  0.147379  0.749865  1
  Sn  Sn33  1  0.827008  0.355715  0.748198  1
  Sn  Sn34  1  0.670453  0.852673  0.249940  1
  Sn  Sn35  1  0.170142  0.647050  0.250024  1
