# generated using pymatgen
data_Ho3Tm7Os4
_symmetry_space_group_name_H-M   'P 1'
_cell_length_a   6.28731488
_cell_length_b   7.31820813
_cell_length_c   8.31629518
_cell_angle_alpha   96.98060316
_cell_angle_beta   112.24558004
_cell_angle_gamma   90.08366279
_symmetry_Int_Tables_number   1
_chemical_formula_structural   Ho3Tm7Os4
_chemical_formula_sum   'Ho3 Tm7 Os4'
_cell_volume   351.07282697
_cell_formula_units_Z   1
loop_
 _symmetry_equiv_pos_site_id
 _symmetry_equiv_pos_as_xyz
  1  'x, y, z'
loop_
 _atom_site_type_symbol
 _atom_site_label
 _atom_site_symmetry_multiplicity
 _atom_site_fract_x
 _atom_site_fract_y
 _atom_site_fract_z
 _atom_site_occupancy
  Ho  Ho0  1  0.791841  0.083315  0.816172  1
  Ho  Ho1  1  0.975337  0.416795  0.183164  1
  Ho  Ho2  1  0.208309  0.916560  0.183393  1
  Tm  Tm3  1  0.024390  0.583669  0.816909  1
  Tm  Tm4  1  0.203083  0.182546  0.564584  1
  Tm  Tm5  1  0.639474  0.317785  0.436089  1
  Tm  Tm6  1  0.796987  0.817307  0.435691  1
  Tm  Tm7  1  0.360521  0.682575  0.564537  1
  Tm  Tm8  1  0.420299  0.250033  0.999750  1
  Tm  Tm9  1  0.579197  0.749972  0.999815  1
  Os  Os10  1  0.602334  0.422681  0.780020  1
  Os  Os11  1  0.820714  0.078022  0.219983  1
  Os  Os12  1  0.398848  0.577637  0.219708  1
  Os  Os13  1  0.178666  0.921103  0.780186  1
