# generated using pymatgen
data_Cs2LiVSe4
_symmetry_space_group_name_H-M   'P 1'
_cell_length_a   14.66031012
_cell_length_b   13.13308603
_cell_length_c   7.84747313
_cell_angle_alpha   84.67309162
_cell_angle_beta   63.12020870
_cell_angle_gamma   32.20669506
_symmetry_Int_Tables_number   1
_chemical_formula_structural   Cs2LiVSe4
_chemical_formula_sum   'Cs4 Li2 V2 Se8'
_cell_volume   569.48034783
_cell_formula_units_Z   2
loop_
 _symmetry_equiv_pos_site_id
 _symmetry_equiv_pos_as_xyz
  1  'x, y, z'
loop_
 _atom_site_type_symbol
 _atom_site_label
 _atom_site_symmetry_multiplicity
 _atom_site_fract_x
 _atom_site_fract_y
 _atom_site_fract_z
 _atom_site_occupancy
  Cs  Cs0  1  0.678325  0.678325  0.321675  1
  Cs  Cs1  1  0.928325  0.928325  0.571675  1
  Cs  Cs2  1  0.571675  0.571675  0.928325  1
  Cs  Cs3  1  0.321675  0.321675  0.678325  1
  Li  Li4  1  0.000000  0.000000  0.000000  1
  Li  Li5  1  0.250000  0.250000  0.250000  1
  V  V6  1  0.500000  0.500000  0.500000  1
  V  V7  1  0.750000  0.750000  0.750000  1
  Se  Se8  1  0.926108  0.677377  0.390353  1
  Se  Se9  1  0.323892  0.572623  0.859647  1
  Se  Se10  1  0.677377  0.926108  0.006161  1
  Se  Se11  1  0.859647  0.243839  0.323892  1
  Se  Se12  1  0.572623  0.323892  0.243839  1
  Se  Se13  1  0.243839  0.859647  0.572623  1
  Se  Se14  1  0.390353  0.006161  0.926108  1
  Se  Se15  1  0.006161  0.390353  0.677377  1
