# generated using pymatgen
data_KPr6RuBr12
_symmetry_space_group_name_H-M   'P 1'
_cell_length_a   9.48553630
_cell_length_b   9.48553569
_cell_length_c   9.48553400
_cell_angle_alpha   105.37627454
_cell_angle_beta   105.37627979
_cell_angle_gamma   105.37626548
_symmetry_Int_Tables_number   1
_chemical_formula_structural   KPr6RuBr12
_chemical_formula_sum   'K1 Pr6 Ru1 Br12'
_cell_volume   740.00363538
_cell_formula_units_Z   1
loop_
 _symmetry_equiv_pos_site_id
 _symmetry_equiv_pos_as_xyz
  1  'x, y, z'
loop_
 _atom_site_type_symbol
 _atom_site_label
 _atom_site_symmetry_multiplicity
 _atom_site_fract_x
 _atom_site_fract_y
 _atom_site_fract_z
 _atom_site_occupancy
  K  K0  1  0.500000  0.500000  0.500000  1
  Pr  Pr1  1  0.897911  0.685325  0.979972  1
  Pr  Pr2  1  0.979972  0.897911  0.685325  1
  Pr  Pr3  1  0.685325  0.979972  0.897911  1
  Pr  Pr4  1  0.102089  0.314675  0.020028  1
  Pr  Pr5  1  0.020028  0.102089  0.314675  1
  Pr  Pr6  1  0.314675  0.020028  0.102089  1
  Ru  Ru7  1  0.000000  0.000000  0.000000  1
  Br  Br8  1  0.648248  0.878569  0.563052  1
  Br  Br9  1  0.563052  0.648248  0.878569  1
  Br  Br10  1  0.878569  0.563052  0.648248  1
  Br  Br11  1  0.351752  0.121431  0.436948  1
  Br  Br12  1  0.436948  0.351752  0.121431  1
  Br  Br13  1  0.121431  0.436948  0.351752  1
  Br  Br14  1  0.679193  0.077987  0.225450  1
  Br  Br15  1  0.225450  0.679193  0.077987  1
  Br  Br16  1  0.077987  0.225450  0.679193  1
  Br  Br17  1  0.320807  0.922013  0.774550  1
  Br  Br18  1  0.774550  0.320807  0.922013  1
  Br  Br19  1  0.922013  0.774550  0.320807  1
