# generated using pymatgen
data_SrDy3(Mo2O7)2
_symmetry_space_group_name_H-M   'P 1'
_cell_length_a   7.36816606
_cell_length_b   7.46488502
_cell_length_c   7.36816600
_cell_angle_alpha   60.42768105
_cell_angle_beta   60.00000025
_cell_angle_gamma   60.42767587
_symmetry_Int_Tables_number   1
_chemical_formula_structural   SrDy3(Mo2O7)2
_chemical_formula_sum   'Sr1 Dy3 Mo4 O14'
_cell_volume   288.40602359
_cell_formula_units_Z   1
loop_
 _symmetry_equiv_pos_site_id
 _symmetry_equiv_pos_as_xyz
  1  'x, y, z'
loop_
 _atom_site_type_symbol
 _atom_site_label
 _atom_site_symmetry_multiplicity
 _atom_site_fract_x
 _atom_site_fract_y
 _atom_site_fract_z
 _atom_site_occupancy
  Sr  Sr0  1  0.125000  0.625000  0.125000  1
  Dy  Dy1  1  0.625000  0.125000  0.125000  1
  Dy  Dy2  1  0.125000  0.125000  0.625000  1
  Dy  Dy3  1  0.125000  0.125000  0.125000  1
  Mo  Mo4  1  0.125000  0.625000  0.625000  1
  Mo  Mo5  1  0.625000  0.125000  0.625000  1
  Mo  Mo6  1  0.625000  0.625000  0.125000  1
  Mo  Mo7  1  0.625000  0.625000  0.625000  1
  O  O8  1  0.692337  0.726160  0.290752  1
  O  O9  1  0.298910  0.286574  0.707258  1
  O  O10  1  0.707258  0.286574  0.707258  1
  O  O11  1  0.290752  0.726160  0.290752  1
  O  O12  1  0.290752  0.726160  0.692337  1
  O  O13  1  0.707258  0.286574  0.298910  1
  O  O14  1  0.557663  0.523840  0.959248  1
  O  O15  1  0.951090  0.963426  0.542742  1
  O  O16  1  0.542742  0.963426  0.542742  1
  O  O17  1  0.959248  0.523840  0.959248  1
  O  O18  1  0.959248  0.523840  0.557663  1
  O  O19  1  0.542742  0.963426  0.951090  1
  O  O20  1  0.257572  0.227285  0.257572  1
  O  O21  1  0.992428  0.022715  0.992428  1
