# generated using pymatgen
data_Tb2Dy2In2Cu2PdRh
_symmetry_space_group_name_H-M   'P 1'
_cell_length_a   7.61628700
_cell_length_b   7.61628688
_cell_length_c   3.70207900
_cell_angle_alpha   90.00000000
_cell_angle_beta   90.00000000
_cell_angle_gamma   90.35340067
_symmetry_Int_Tables_number   1
_chemical_formula_structural   Tb2Dy2In2Cu2PdRh
_chemical_formula_sum   'Tb2 Dy2 In2 Cu2 Pd1 Rh1'
_cell_volume   214.74547221
_cell_formula_units_Z   1
loop_
 _symmetry_equiv_pos_site_id
 _symmetry_equiv_pos_as_xyz
  1  'x, y, z'
loop_
 _atom_site_type_symbol
 _atom_site_label
 _atom_site_symmetry_multiplicity
 _atom_site_fract_x
 _atom_site_fract_y
 _atom_site_fract_z
 _atom_site_occupancy
  Tb  Tb0  1  0.673684  0.170190  0.500000  1
  Tb  Tb1  1  0.318825  0.815644  0.500000  1
  Dy  Dy2  1  0.178720  0.338989  0.500000  1
  Dy  Dy3  1  0.836784  0.679325  0.500000  1
  In  In4  1  0.506049  0.497409  0.000000  1
  In  In5  1  0.002359  0.007125  0.000000  1
  Cu  Cu6  1  0.875402  0.374030  0.000000  1
  Cu  Cu7  1  0.371081  0.121526  0.000000  1
  Pd  Pd8  1  0.618462  0.878263  0.000000  1
  Rh  Rh9  1  0.118637  0.617501  0.000000  1
