# generated using pymatgen
data_Ti4Mn3V(SiW)12
_symmetry_space_group_name_H-M   'P 1'
_cell_length_a   7.25460972
_cell_length_b   7.25461013
_cell_length_c   13.58470872
_cell_angle_alpha   90.21457325
_cell_angle_beta   89.78542826
_cell_angle_gamma   140.98650500
_symmetry_Int_Tables_number   1
_chemical_formula_structural   Ti4Mn3V(SiW)12
_chemical_formula_sum   'Ti4 Mn3 V1 Si12 W12'
_cell_volume   450.06280856
_cell_formula_units_Z   1
loop_
 _symmetry_equiv_pos_site_id
 _symmetry_equiv_pos_as_xyz
  1  'x, y, z'
loop_
 _atom_site_type_symbol
 _atom_site_label
 _atom_site_symmetry_multiplicity
 _atom_site_fract_x
 _atom_site_fract_y
 _atom_site_fract_z
 _atom_site_occupancy
  Ti  Ti0  1  0.426033  0.070125  0.403083  1
  Ti  Ti1  1  0.929542  0.571228  0.903089  1
  Ti  Ti2  1  0.070125  0.426033  0.596917  1
  Ti  Ti3  1  0.571228  0.929542  0.096911  1
  Mn  Mn4  1  0.499485  0.499485  0.000000  1
  Mn  Mn5  1  0.497100  0.497100  0.500000  1
  Mn  Mn6  1  0.002147  0.002147  0.000000  1
  V  V7  1  0.998544  0.998544  0.500000  1
  Si  Si8  1  0.249638  0.749444  0.749799  1
  Si  Si9  1  0.749444  0.249638  0.250201  1
  Si  Si10  1  0.749777  0.250364  0.749785  1
  Si  Si11  1  0.250364  0.749777  0.250215  1
  Si  Si12  1  0.256921  0.259802  0.660238  1
  Si  Si13  1  0.749248  0.752473  0.157520  1
  Si  Si14  1  0.259802  0.256921  0.339762  1
  Si  Si15  1  0.752473  0.749248  0.842480  1
  Si  Si16  1  0.583990  0.902013  0.500658  1
  Si  Si17  1  0.094259  0.408418  0.000721  1
  Si  Si18  1  0.902013  0.583990  0.499342  1
  Si  Si19  1  0.408418  0.094259  0.999279  1
  W  W20  1  0.070519  0.424989  0.399283  1
  W  W21  1  0.572572  0.928556  0.898529  1
  W  W22  1  0.424989  0.070519  0.600717  1
  W  W23  1  0.928556  0.572572  0.101471  1
  W  W24  1  0.848912  0.650926  0.679387  1
  W  W25  1  0.349565  0.149889  0.178658  1
  W  W26  1  0.650926  0.848912  0.320613  1
  W  W27  1  0.149889  0.349565  0.821342  1
  W  W28  1  0.654440  0.850642  0.678259  1
  W  W29  1  0.150527  0.347908  0.178008  1
  W  W30  1  0.850642  0.654440  0.321741  1
  W  W31  1  0.347908  0.150527  0.821992  1
