# generated using pymatgen
data_Gd6HoEr3(SiB4)4
_symmetry_space_group_name_H-M   'P 1'
_cell_length_a   7.24510826
_cell_length_b   7.24501217
_cell_length_c   8.13092004
_cell_angle_alpha   89.99908737
_cell_angle_beta   89.98995649
_cell_angle_gamma   89.97276398
_symmetry_Int_Tables_number   1
_chemical_formula_structural   Gd6HoEr3(SiB4)4
_chemical_formula_sum   'Gd6 Ho1 Er3 Si4 B16'
_cell_volume   426.79923587
_cell_formula_units_Z   1
loop_
 _symmetry_equiv_pos_site_id
 _symmetry_equiv_pos_as_xyz
  1  'x, y, z'
loop_
 _atom_site_type_symbol
 _atom_site_label
 _atom_site_symmetry_multiplicity
 _atom_site_fract_x
 _atom_site_fract_y
 _atom_site_fract_z
 _atom_site_occupancy
  Gd  Gd0  1  0.319622  0.819704  0.773712  1
  Gd  Gd1  1  0.319511  0.819672  0.226520  1
  Gd  Gd2  1  0.819429  0.680385  0.226614  1
  Gd  Gd3  1  0.819638  0.680191  0.773763  1
  Gd  Gd4  1  0.680460  0.180468  0.773868  1
  Gd  Gd5  1  0.180222  0.319672  0.773817  1
  Ho  Ho6  1  0.180377  0.319516  0.222969  1
  Er  Er7  1  0.680357  0.180427  0.222264  1
  Er  Er8  1  0.999886  0.000532  0.499293  1
  Er  Er9  1  0.500084  0.499441  0.499319  1
  Si  Si10  1  0.115253  0.613855  0.498389  1
  Si  Si11  1  0.884446  0.383134  0.497610  1
  Si  Si12  1  0.385111  0.116618  0.497627  1
  Si  Si13  1  0.615411  0.886370  0.498044  1
  B  B14  1  0.172420  0.039810  0.000935  1
  B  B15  1  0.827377  0.961395  0.000944  1
  B  B16  1  0.960596  0.173051  0.000811  1
  B  B17  1  0.327520  0.538661  0.000880  1
  B  B18  1  0.039128  0.827917  0.000981  1
  B  B19  1  0.672648  0.460139  0.000914  1
  B  B20  1  0.539241  0.672036  0.001045  1
  B  B21  1  0.460825  0.326993  0.000830  1
  B  B22  1  0.090062  0.589766  0.001065  1
  B  B23  1  0.910209  0.409932  0.000962  1
  B  B24  1  0.410191  0.090088  0.001310  1
  B  B25  1  0.590016  0.910277  0.001342  1
  B  B26  1  0.999556  0.001341  0.162239  1
  B  B27  1  0.000148  0.000182  0.839852  1
  B  B28  1  0.500245  0.499849  0.839847  1
  B  B29  1  0.500012  0.498577  0.162236  1
