# generated using pymatgen
data_HfTa9S16
_symmetry_space_group_name_H-M   'P 1'
_cell_length_a   6.65860100
_cell_length_b   6.65859985
_cell_length_c   12.74865000
_cell_angle_alpha   90.00000000
_cell_angle_beta   90.00000000
_cell_angle_gamma   120.00001069
_symmetry_Int_Tables_number   1
_chemical_formula_structural   HfTa9S16
_chemical_formula_sum   'Hf1 Ta9 S16'
_cell_volume   489.50901150
_cell_formula_units_Z   1
loop_
 _symmetry_equiv_pos_site_id
 _symmetry_equiv_pos_as_xyz
  1  'x, y, z'
loop_
 _atom_site_type_symbol
 _atom_site_label
 _atom_site_symmetry_multiplicity
 _atom_site_fract_x
 _atom_site_fract_y
 _atom_site_fract_z
 _atom_site_occupancy
  Hf  Hf0  1  0.000000  0.000000  0.500000  1
  Ta  Ta1  1  0.505400  0.494600  0.752394  1
  Ta  Ta2  1  0.010798  0.505400  0.247606  1
  Ta  Ta3  1  0.494600  0.989202  0.247606  1
  Ta  Ta4  1  0.505400  0.010798  0.752394  1
  Ta  Ta5  1  0.989202  0.494600  0.752394  1
  Ta  Ta6  1  0.494600  0.505400  0.247606  1
  Ta  Ta7  1  0.000000  0.000000  0.751721  1
  Ta  Ta8  1  0.000000  0.000000  0.248279  1
  Ta  Ta9  1  0.000000  0.000000  0.000000  1
  S  S10  1  0.831286  0.168714  0.372270  1
  S  S11  1  0.831286  0.662573  0.372270  1
  S  S12  1  0.337427  0.168714  0.372270  1
  S  S13  1  0.665433  0.832716  0.876460  1
  S  S14  1  0.168714  0.337427  0.627730  1
  S  S15  1  0.167284  0.832716  0.876460  1
  S  S16  1  0.167284  0.334567  0.876460  1
  S  S17  1  0.832716  0.167284  0.123540  1
  S  S18  1  0.334567  0.167284  0.123540  1
  S  S19  1  0.662573  0.831286  0.627730  1
  S  S20  1  0.333333  0.666667  0.121829  1
  S  S21  1  0.666667  0.333333  0.625837  1
  S  S22  1  0.666667  0.333333  0.878171  1
  S  S23  1  0.333333  0.666667  0.374163  1
  S  S24  1  0.832716  0.665433  0.123540  1
  S  S25  1  0.168714  0.831286  0.627730  1
