# generated using pymatgen
data_Er3Tm7In8(PtRh)2
_symmetry_space_group_name_H-M   'P 1'
_cell_length_a   3.58658100
_cell_length_b   8.06902951
_cell_length_c   18.08055128
_cell_angle_alpha   90.06269163
_cell_angle_beta   90.00000000
_cell_angle_gamma   90.00000000
_symmetry_Int_Tables_number   1
_chemical_formula_structural   Er3Tm7In8(PtRh)2
_chemical_formula_sum   'Er3 Tm7 In8 Pt2 Rh2'
_cell_volume   523.25496183
_cell_formula_units_Z   1
loop_
 _symmetry_equiv_pos_site_id
 _symmetry_equiv_pos_as_xyz
  1  'x, y, z'
loop_
 _atom_site_type_symbol
 _atom_site_label
 _atom_site_symmetry_multiplicity
 _atom_site_fract_x
 _atom_site_fract_y
 _atom_site_fract_z
 _atom_site_occupancy
  Er  Er0  1  0.000000  0.748189  0.279429  1
  Er  Er1  1  0.000000  0.999987  0.999934  1
  Er  Er2  1  0.000000  0.500042  0.500071  1
  Tm  Tm3  1  0.000000  0.115250  0.412397  1
  Tm  Tm4  1  0.000000  0.884855  0.587711  1
  Tm  Tm5  1  0.000000  0.383129  0.913366  1
  Tm  Tm6  1  0.000000  0.616804  0.086537  1
  Tm  Tm7  1  0.000000  0.239087  0.221587  1
  Tm  Tm8  1  0.000000  0.760876  0.778412  1
  Tm  Tm9  1  0.000000  0.251553  0.720624  1
  In  In10  1  0.500000  0.422198  0.351552  1
  In  In11  1  0.500000  0.577524  0.648511  1
  In  In12  1  0.500000  0.073244  0.850181  1
  In  In13  1  0.500000  0.926945  0.149665  1
  In  In14  1  0.500000  0.292527  0.066091  1
  In  In15  1  0.500000  0.707390  0.933861  1
  In  In16  1  0.500000  0.206215  0.567595  1
  In  In17  1  0.500000  0.793843  0.432615  1
  Pt  Pt18  1  0.500000  0.478158  0.803589  1
  Pt  Pt19  1  0.500000  0.521198  0.196184  1
  Rh  Rh20  1  0.500000  0.023043  0.304648  1
  Rh  Rh21  1  0.500000  0.977943  0.695439  1
