# generated using pymatgen
data_BaSr2LaOs6O19
_symmetry_space_group_name_H-M   'P 1'
_cell_length_a   8.09253932
_cell_length_b   8.09670795
_cell_length_c   7.90546018
_cell_angle_alpha   109.01653172
_cell_angle_beta   108.98473200
_cell_angle_gamma   109.91998931
_symmetry_Int_Tables_number   1
_chemical_formula_structural   BaSr2LaOs6O19
_chemical_formula_sum   'Ba1 Sr2 La1 Os6 O19'
_cell_volume   401.12696156
_cell_formula_units_Z   1
loop_
 _symmetry_equiv_pos_site_id
 _symmetry_equiv_pos_as_xyz
  1  'x, y, z'
loop_
 _atom_site_type_symbol
 _atom_site_label
 _atom_site_symmetry_multiplicity
 _atom_site_fract_x
 _atom_site_fract_y
 _atom_site_fract_z
 _atom_site_occupancy
  Ba  Ba0  1  0.999643  0.000048  0.326324  1
  Sr  Sr1  1  0.993302  0.300578  0.991724  1
  Sr  Sr2  1  0.700232  0.692342  0.691149  1
  La  La3  1  0.296593  0.007252  0.998109  1
  Os  Os4  1  0.364777  0.500631  0.861116  1
  Os  Os5  1  0.863689  0.364541  0.503629  1
  Os  Os6  1  0.501656  0.136566  0.640331  1
  Os  Os7  1  0.134692  0.633885  0.495797  1
  Os  Os8  1  0.499442  0.864632  0.361871  1
  Os  Os9  1  0.634706  0.499569  0.138419  1
  O  O10  1  0.340726  0.007148  0.331265  1
  O  O11  1  0.333882  0.339536  0.008610  1
  O  O12  1  0.008270  0.666995  0.676121  1
  O  O13  1  0.665548  0.659729  0.991398  1
  O  O14  1  0.991843  0.333169  0.325009  1
  O  O15  1  0.659028  0.993518  0.669250  1
  O  O16  1  0.023731  0.000736  0.987175  1
  O  O17  1  0.366576  0.294507  0.648490  1
  O  O18  1  0.068134  0.347298  0.706200  1
  O  O19  1  0.723960  0.357560  0.663027  1
  O  O20  1  0.356227  0.640859  0.701429  1
  O  O21  1  0.277616  0.933485  0.641968  1
  O  O22  1  0.637274  0.362510  0.303106  1
  O  O23  1  0.283998  0.644711  0.345467  1
  O  O24  1  0.704208  0.071088  0.351935  1
  O  O25  1  0.927816  0.633739  0.282034  1
  O  O26  1  0.652676  0.721297  0.359234  1
  O  O27  1  0.632339  0.273897  0.940046  1
  O  O28  1  0.357414  0.718173  0.059765  1
