# generated using pymatgen
data_TbHf3Si4Mo
_symmetry_space_group_name_H-M   'P 1'
_cell_length_a   7.07448000
_cell_length_b   7.07448000
_cell_length_c   12.88436300
_cell_angle_alpha   90.00000000
_cell_angle_beta   90.00000000
_cell_angle_gamma   90.00000000
_symmetry_Int_Tables_number   1
_chemical_formula_structural   TbHf3Si4Mo
_chemical_formula_sum   'Tb4 Hf12 Si16 Mo4'
_cell_volume   644.84004303
_cell_formula_units_Z   4
loop_
 _symmetry_equiv_pos_site_id
 _symmetry_equiv_pos_as_xyz
  1  'x, y, z'
loop_
 _atom_site_type_symbol
 _atom_site_label
 _atom_site_symmetry_multiplicity
 _atom_site_fract_x
 _atom_site_fract_y
 _atom_site_fract_z
 _atom_site_occupancy
  Tb  Tb0  1  0.495609  0.156310  0.532775  1
  Tb  Tb1  1  0.504391  0.843690  0.032775  1
  Tb  Tb2  1  0.656310  0.004391  0.282775  1
  Tb  Tb3  1  0.343690  0.995609  0.782775  1
  Hf  Hf4  1  0.847168  0.498900  0.968603  1
  Hf  Hf5  1  0.152832  0.501100  0.468603  1
  Hf  Hf6  1  0.998900  0.652832  0.718603  1
  Hf  Hf7  1  0.001100  0.347168  0.218603  1
  Hf  Hf8  1  0.493111  0.356582  0.125022  1
  Hf  Hf9  1  0.506889  0.643418  0.625022  1
  Hf  Hf10  1  0.856582  0.006889  0.875022  1
  Hf  Hf11  1  0.143418  0.993111  0.375022  1
  Hf  Hf12  1  0.645322  0.503219  0.374572  1
  Hf  Hf13  1  0.354678  0.496781  0.874572  1
  Hf  Hf14  1  0.003219  0.854678  0.124572  1
  Hf  Hf15  1  0.996781  0.145322  0.624572  1
  Si  Si16  1  0.803958  0.151632  0.070157  1
  Si  Si17  1  0.196042  0.848368  0.570157  1
  Si  Si18  1  0.651632  0.696042  0.820157  1
  Si  Si19  1  0.348368  0.303958  0.320157  1
  Si  Si20  1  0.865720  0.212151  0.428930  1
  Si  Si21  1  0.134280  0.787849  0.928930  1
  Si  Si22  1  0.712151  0.634280  0.178930  1
  Si  Si23  1  0.287849  0.365720  0.678930  1
  Si  Si24  1  0.555060  0.208007  0.933494  1
  Si  Si25  1  0.444940  0.791993  0.433494  1
  Si  Si26  1  0.708007  0.944940  0.683494  1
  Si  Si27  1  0.291993  0.055060  0.183494  1
  Si  Si28  1  0.805667  0.454695  0.566330  1
  Si  Si29  1  0.194333  0.545305  0.066330  1
  Si  Si30  1  0.954695  0.694333  0.316330  1
  Si  Si31  1  0.045305  0.305667  0.816330  1
  Mo  Mo32  1  0.680938  0.330093  0.750117  1
  Mo  Mo33  1  0.319062  0.669907  0.250117  1
  Mo  Mo34  1  0.830093  0.819062  0.500117  1
  Mo  Mo35  1  0.169907  0.180938  0.000117  1
