# generated using pymatgen
data_Er4Al11Ga5(SiIr3)2
_symmetry_space_group_name_H-M   'P 1'
_cell_length_a   7.51351474
_cell_length_b   7.48403563
_cell_length_c   9.48075938
_cell_angle_alpha   90.07710283
_cell_angle_beta   89.64219949
_cell_angle_gamma   119.98148173
_symmetry_Int_Tables_number   1
_chemical_formula_structural   Er4Al11Ga5(SiIr3)2
_chemical_formula_sum   'Er4 Al11 Ga5 Si2 Ir6'
_cell_volume   461.76857613
_cell_formula_units_Z   1
loop_
 _symmetry_equiv_pos_site_id
 _symmetry_equiv_pos_as_xyz
  1  'x, y, z'
loop_
 _atom_site_type_symbol
 _atom_site_label
 _atom_site_symmetry_multiplicity
 _atom_site_fract_x
 _atom_site_fract_y
 _atom_site_fract_z
 _atom_site_occupancy
  Er  Er0  1  0.998201  0.661010  0.743354  1
  Er  Er1  1  0.002883  0.337111  0.256888  1
  Er  Er2  1  0.673542  0.004519  0.748010  1
  Er  Er3  1  0.323642  0.995914  0.252270  1
  Al  Al4  1  0.126586  0.124829  0.750146  1
  Al  Al5  1  0.997814  0.666394  0.068948  1
  Al  Al6  1  0.333524  0.999581  0.925589  1
  Al  Al7  1  0.002120  0.333812  0.931388  1
  Al  Al8  1  0.665631  0.000755  0.073803  1
  Al  Al9  1  0.661248  0.995087  0.423673  1
  Al  Al10  1  0.338742  0.004618  0.576884  1
  Al  Al11  1  0.333269  0.332450  0.057902  1
  Al  Al12  1  0.667836  0.668628  0.939425  1
  Al  Al13  1  0.664065  0.666962  0.561436  1
  Al  Al14  1  0.337696  0.333823  0.440836  1
  Ga  Ga15  1  0.868594  0.874070  0.248794  1
  Ga  Ga16  1  0.344989  0.549391  0.751294  1
  Ga  Ga17  1  0.655555  0.449122  0.248775  1
  Ga  Ga18  1  0.546472  0.341992  0.749906  1
  Ga  Ga19  1  0.451370  0.657339  0.250035  1
  Si  Si20  1  0.000788  0.326818  0.574939  1
  Si  Si21  1  0.000448  0.672492  0.425766  1
  Ir  Ir22  1  0.690950  0.338600  0.500095  1
  Ir  Ir23  1  0.311027  0.662271  0.500301  1
  Ir  Ir24  1  0.327641  0.671880  0.000898  1
  Ir  Ir25  1  0.673420  0.329404  0.998979  1
  Ir  Ir26  1  0.001229  0.000208  0.502191  1
  Ir  Ir27  1  0.000715  0.000916  0.997475  1
