# generated using pymatgen
data_Tb2Y2ReB12Ir
_symmetry_space_group_name_H-M   'P 1'
_cell_length_a   3.68111600
_cell_length_b   9.19058841
_cell_length_c   11.58109607
_cell_angle_alpha   89.67682835
_cell_angle_beta   90.00000000
_cell_angle_gamma   90.00000000
_symmetry_Int_Tables_number   1
_chemical_formula_structural   Tb2Y2ReB12Ir
_chemical_formula_sum   'Tb4 Y4 Re2 B24 Ir2'
_cell_volume   391.80103264
_cell_formula_units_Z   2
loop_
 _symmetry_equiv_pos_site_id
 _symmetry_equiv_pos_as_xyz
  1  'x, y, z'
loop_
 _atom_site_type_symbol
 _atom_site_label
 _atom_site_symmetry_multiplicity
 _atom_site_fract_x
 _atom_site_fract_y
 _atom_site_fract_z
 _atom_site_occupancy
  Tb  Tb0  1  0.000000  0.817822  0.090157  1
  Tb  Tb1  1  0.000000  0.182178  0.909843  1
  Tb  Tb2  1  0.000000  0.326702  0.417406  1
  Tb  Tb3  1  0.000000  0.673298  0.582594  1
  Y  Y4  1  0.000000  0.445996  0.127569  1
  Y  Y5  1  0.000000  0.554004  0.872431  1
  Y  Y6  1  0.000000  0.941637  0.374332  1
  Y  Y7  1  0.000000  0.058363  0.625668  1
  Re  Re8  1  0.000000  0.638208  0.320385  1
  Re  Re9  1  0.000000  0.361792  0.679615  1
  B  B10  1  0.500000  0.054061  0.066408  1
  B  B11  1  0.500000  0.945939  0.933593  1
  B  B12  1  0.500000  0.553285  0.432409  1
  B  B13  1  0.500000  0.446715  0.567590  1
  B  B14  1  0.500000  0.248711  0.078929  1
  B  B15  1  0.500000  0.751289  0.921071  1
  B  B16  1  0.500000  0.747039  0.419149  1
  B  B17  1  0.500000  0.252961  0.580851  1
  B  B18  1  0.500000  0.290228  0.233555  1
  B  B19  1  0.500000  0.709772  0.766445  1
  B  B20  1  0.500000  0.791569  0.266098  1
  B  B21  1  0.500000  0.208431  0.733902  1
  B  B22  1  0.500000  0.131744  0.315528  1
  B  B23  1  0.500000  0.868256  0.684472  1
  B  B24  1  0.500000  0.631773  0.185730  1
  B  B25  1  0.500000  0.368227  0.814270  1
  B  B26  1  0.500000  0.483297  0.287009  1
  B  B27  1  0.500000  0.516703  0.712991  1
  B  B28  1  0.500000  0.982827  0.212697  1
  B  B29  1  0.500000  0.017173  0.787303  1
  B  B30  1  0.500000  0.108155  0.469577  1
  B  B31  1  0.500000  0.891845  0.530423  1
  B  B32  1  0.500000  0.608901  0.029575  1
  B  B33  1  0.500000  0.391099  0.970425  1
  Ir  Ir34  1  0.000000  0.136463  0.177655  1
  Ir  Ir35  1  0.000000  0.863537  0.822345  1
