# generated using pymatgen
data_Dy3Al12RuRh3
_symmetry_space_group_name_H-M   'P 1'
_cell_length_a   8.82865700
_cell_length_b   8.82865654
_cell_length_c   9.48824500
_cell_angle_alpha   90.00000000
_cell_angle_beta   90.00000000
_cell_angle_gamma   119.99999798
_symmetry_Int_Tables_number   1
_chemical_formula_structural   Dy3Al12RuRh3
_chemical_formula_sum   'Dy6 Al24 Ru2 Rh6'
_cell_volume   640.48033084
_cell_formula_units_Z   2
loop_
 _symmetry_equiv_pos_site_id
 _symmetry_equiv_pos_as_xyz
  1  'x, y, z'
loop_
 _atom_site_type_symbol
 _atom_site_label
 _atom_site_symmetry_multiplicity
 _atom_site_fract_x
 _atom_site_fract_y
 _atom_site_fract_z
 _atom_site_occupancy
  Dy  Dy0  1  0.191902  0.808098  0.250000  1
  Dy  Dy1  1  0.191902  0.383804  0.250000  1
  Dy  Dy2  1  0.616196  0.808098  0.250000  1
  Dy  Dy3  1  0.808098  0.191902  0.750000  1
  Dy  Dy4  1  0.808098  0.616196  0.750000  1
  Dy  Dy5  1  0.383804  0.191902  0.750000  1
  Al  Al6  1  0.561767  0.438233  0.250000  1
  Al  Al7  1  0.561767  0.123533  0.250000  1
  Al  Al8  1  0.876467  0.438233  0.250000  1
  Al  Al9  1  0.438233  0.561767  0.750000  1
  Al  Al10  1  0.438233  0.876467  0.750000  1
  Al  Al11  1  0.123533  0.561767  0.750000  1
  Al  Al12  1  0.325809  0.162905  0.423943  1
  Al  Al13  1  0.837095  0.162905  0.423943  1
  Al  Al14  1  0.837095  0.674191  0.423943  1
  Al  Al15  1  0.674191  0.837095  0.576057  1
  Al  Al16  1  0.162905  0.837095  0.576057  1
  Al  Al17  1  0.162905  0.325809  0.576057  1
  Al  Al18  1  0.674191  0.837095  0.923943  1
  Al  Al19  1  0.162905  0.837095  0.923943  1
  Al  Al20  1  0.162905  0.325809  0.923943  1
  Al  Al21  1  0.325809  0.162905  0.076057  1
  Al  Al22  1  0.837095  0.162905  0.076057  1
  Al  Al23  1  0.837095  0.674191  0.076057  1
  Al  Al24  1  0.666667  0.333333  0.528460  1
  Al  Al25  1  0.333333  0.666667  0.471540  1
  Al  Al26  1  0.333333  0.666667  0.028460  1
  Al  Al27  1  0.666667  0.333333  0.971540  1
  Al  Al28  1  0.000000  0.000000  0.250000  1
  Al  Al29  1  0.000000  0.000000  0.750000  1
  Ru  Ru30  1  0.000000  0.000000  0.500000  1
  Ru  Ru31  1  0.000000  0.000000  0.000000  1
  Rh  Rh32  1  0.500000  0.500000  0.500000  1
  Rh  Rh33  1  0.500000  0.000000  0.500000  1
  Rh  Rh34  1  0.000000  0.500000  0.500000  1
  Rh  Rh35  1  0.500000  0.500000  0.000000  1
  Rh  Rh36  1  0.500000  0.000000  0.000000  1
  Rh  Rh37  1  0.000000  0.500000  0.000000  1
