# generated using pymatgen
data_Tb6Ga4Si5Sn
_symmetry_space_group_name_H-M   'P 1'
_cell_length_a   6.00374400
_cell_length_b   5.98200486
_cell_length_c   9.51142600
_cell_angle_alpha   90.00000000
_cell_angle_beta   90.00000000
_cell_angle_gamma   103.13608119
_symmetry_Int_Tables_number   1
_chemical_formula_structural   Tb6Ga4Si5Sn
_chemical_formula_sum   'Tb6 Ga4 Si5 Sn1'
_cell_volume   332.65883886
_cell_formula_units_Z   1
loop_
 _symmetry_equiv_pos_site_id
 _symmetry_equiv_pos_as_xyz
  1  'x, y, z'
loop_
 _atom_site_type_symbol
 _atom_site_label
 _atom_site_symmetry_multiplicity
 _atom_site_fract_x
 _atom_site_fract_y
 _atom_site_fract_z
 _atom_site_occupancy
  Tb  Tb0  1  0.647337  0.671892  0.250000  1
  Tb  Tb1  1  0.338173  0.336553  0.750000  1
  Tb  Tb2  1  0.800737  0.192926  0.997253  1
  Tb  Tb3  1  0.201809  0.808271  0.984030  1
  Tb  Tb4  1  0.201809  0.808271  0.515970  1
  Tb  Tb5  1  0.800737  0.192926  0.502747  1
  Ga  Ga6  1  0.329895  0.314825  0.050340  1
  Ga  Ga7  1  0.677268  0.676891  0.945479  1
  Ga  Ga8  1  0.677268  0.676891  0.554521  1
  Ga  Ga9  1  0.329895  0.314825  0.449660  1
  Si  Si10  1  0.902843  0.513640  0.750000  1
  Si  Si11  1  0.483278  0.101570  0.250000  1
  Si  Si12  1  0.522471  0.905844  0.750000  1
  Si  Si13  1  0.059288  0.036013  0.250000  1
  Si  Si14  1  0.941219  0.943928  0.750000  1
  Sn  Sn15  1  0.085976  0.504733  0.250000  1
