# generated using pymatgen
data_La3HoErP12Ru19
_symmetry_space_group_name_H-M   'P 1'
_cell_length_a   12.62965700
_cell_length_b   12.62965742
_cell_length_c   4.02134500
_cell_angle_alpha   90.00000000
_cell_angle_beta   90.00000000
_cell_angle_gamma   120.00000152
_symmetry_Int_Tables_number   1
_chemical_formula_structural   La3HoErP12Ru19
_chemical_formula_sum   'La3 Ho1 Er1 P12 Ru19'
_cell_volume   555.50130729
_cell_formula_units_Z   1
loop_
 _symmetry_equiv_pos_site_id
 _symmetry_equiv_pos_as_xyz
  1  'x, y, z'
loop_
 _atom_site_type_symbol
 _atom_site_label
 _atom_site_symmetry_multiplicity
 _atom_site_fract_x
 _atom_site_fract_y
 _atom_site_fract_z
 _atom_site_occupancy
  La  La0  1  0.999998  0.183213  0.500000  1
  La  La1  1  0.816787  0.816785  0.500000  1
  La  La2  1  0.183215  0.000002  0.500000  1
  Ho  Ho3  1  0.333333  0.666667  0.000000  1
  Er  Er4  1  0.666667  0.333333  0.000000  1
  P  P5  1  0.999998  0.809467  0.000000  1
  P  P6  1  0.190533  0.190531  0.000000  1
  P  P7  1  0.809469  0.000002  0.000000  1
  P  P8  1  0.695563  0.174839  0.500000  1
  P  P9  1  0.825161  0.520723  0.500000  1
  P  P10  1  0.479277  0.304437  0.500000  1
  P  P11  1  0.174798  0.695583  0.500000  1
  P  P12  1  0.520785  0.825202  0.500000  1
  P  P13  1  0.304417  0.479215  0.500000  1
  P  P14  1  0.000011  0.374956  0.000000  1
  P  P15  1  0.625044  0.625056  0.000000  1
  P  P16  1  0.374944  0.999989  0.000000  1
  Ru  Ru17  1  0.000003  0.553761  0.000000  1
  Ru  Ru18  1  0.446239  0.446243  0.000000  1
  Ru  Ru19  1  0.553757  0.999997  0.000000  1
  Ru  Ru20  1  0.999996  0.711136  0.500000  1
  Ru  Ru21  1  0.288864  0.288861  0.500000  1
  Ru  Ru22  1  0.711139  0.000004  0.500000  1
  Ru  Ru23  1  0.803372  0.185832  0.000000  1
  Ru  Ru24  1  0.814168  0.617540  0.000000  1
  Ru  Ru25  1  0.382460  0.196628  0.000000  1
  Ru  Ru26  1  0.185796  0.803398  0.000000  1
  Ru  Ru27  1  0.617602  0.814204  0.000000  1
  Ru  Ru28  1  0.196602  0.382398  0.000000  1
  Ru  Ru29  1  0.874020  0.368324  0.500000  1
  Ru  Ru30  1  0.631676  0.505696  0.500000  1
  Ru  Ru31  1  0.494304  0.125980  0.500000  1
  Ru  Ru32  1  0.368330  0.874121  0.500000  1
  Ru  Ru33  1  0.505791  0.631670  0.500000  1
  Ru  Ru34  1  0.125879  0.494209  0.500000  1
  Ru  Ru35  1  0.000000  0.000000  0.000000  1
