# generated using pymatgen
data_CaHo(Al5Os)4
_symmetry_space_group_name_H-M   'P 1'
_cell_length_a   6.87334310
_cell_length_b   6.87334360
_cell_length_c   9.15143100
_cell_angle_alpha   90.00000000
_cell_angle_beta   90.00000000
_cell_angle_gamma   96.43385855
_symmetry_Int_Tables_number   1
_chemical_formula_structural   CaHo(Al5Os)4
_chemical_formula_sum   'Ca1 Ho1 Al20 Os4'
_cell_volume   429.61674160
_cell_formula_units_Z   1
loop_
 _symmetry_equiv_pos_site_id
 _symmetry_equiv_pos_as_xyz
  1  'x, y, z'
loop_
 _atom_site_type_symbol
 _atom_site_label
 _atom_site_symmetry_multiplicity
 _atom_site_fract_x
 _atom_site_fract_y
 _atom_site_fract_z
 _atom_site_occupancy
  Ca  Ca0  1  0.872742  0.127258  0.750000  1
  Ho  Ho1  1  0.128571  0.871429  0.250000  1
  Al  Al2  1  0.521964  0.783233  0.750000  1
  Al  Al3  1  0.782084  0.519502  0.250000  1
  Al  Al4  1  0.480498  0.217916  0.250000  1
  Al  Al5  1  0.216767  0.478036  0.750000  1
  Al  Al6  1  0.623683  0.376317  0.960058  1
  Al  Al7  1  0.376327  0.623673  0.049110  1
  Al  Al8  1  0.623683  0.376317  0.539942  1
  Al  Al9  1  0.376327  0.623673  0.450890  1
  Al  Al10  1  0.413297  0.144656  0.750000  1
  Al  Al11  1  0.146178  0.418478  0.250000  1
  Al  Al12  1  0.581522  0.853822  0.250000  1
  Al  Al13  1  0.855344  0.586703  0.750000  1
  Al  Al14  1  0.846321  0.153679  0.399086  1
  Al  Al15  1  0.158033  0.841967  0.600727  1
  Al  Al16  1  0.846321  0.153679  0.100914  1
  Al  Al17  1  0.158033  0.841967  0.899273  1
  Al  Al18  1  0.775166  0.776538  0.001480  1
  Al  Al19  1  0.775166  0.776538  0.498520  1
  Al  Al20  1  0.223462  0.224834  0.001480  1
  Al  Al21  1  0.223462  0.224834  0.498520  1
  Os  Os22  1  0.497893  0.000370  0.000478  1
  Os  Os23  1  0.999630  0.502107  0.000478  1
  Os  Os24  1  0.497893  0.000370  0.499522  1
  Os  Os25  1  0.999630  0.502107  0.499522  1
