# generated using pymatgen
data_Li4Ni9P7W
_symmetry_space_group_name_H-M   'P 1'
_cell_length_a   9.07396006
_cell_length_b   9.05582990
_cell_length_c   3.59342500
_cell_angle_alpha   90.00000000
_cell_angle_beta   90.00000000
_cell_angle_gamma   119.67465185
_symmetry_Int_Tables_number   1
_chemical_formula_structural   Li4Ni9P7W
_chemical_formula_sum   'Li4 Ni9 P7 W1'
_cell_volume   256.55401894
_cell_formula_units_Z   1
loop_
 _symmetry_equiv_pos_site_id
 _symmetry_equiv_pos_as_xyz
  1  'x, y, z'
loop_
 _atom_site_type_symbol
 _atom_site_label
 _atom_site_symmetry_multiplicity
 _atom_site_fract_x
 _atom_site_fract_y
 _atom_site_fract_z
 _atom_site_occupancy
  Li  Li0  1  0.898423  0.122563  0.500000  1
  Li  Li1  1  0.221657  0.100447  0.500000  1
  Li  Li2  1  0.333016  0.665835  0.000000  1
  Li  Li3  1  0.663901  0.331553  0.500000  1
  Ni  Ni4  1  0.713784  0.883007  0.000000  1
  Ni  Ni5  1  0.163582  0.282452  0.000000  1
  Ni  Ni6  1  0.126057  0.835912  0.000000  1
  Ni  Ni7  1  0.625982  0.566278  0.000000  1
  Ni  Ni8  1  0.939307  0.371292  0.000000  1
  Ni  Ni9  1  0.430376  0.057840  0.000000  1
  Ni  Ni10  1  0.564893  0.954599  0.500000  1
  Ni  Ni11  1  0.389943  0.436252  0.500000  1
  Ni  Ni12  1  0.053918  0.611945  0.500000  1
  P  P13  1  0.582541  0.710742  0.500000  1
  P  P14  1  0.129029  0.417000  0.500000  1
  P  P15  1  0.291012  0.871568  0.500000  1
  P  P16  1  0.000768  0.997875  0.000000  1
  P  P17  1  0.877547  0.577788  0.000000  1
  P  P18  1  0.697644  0.124854  0.000000  1
  P  P19  1  0.420246  0.298342  0.000000  1
  W  W20  1  0.876378  0.781855  0.500000  1
