# generated using pymatgen
data_AcY4(FeB3)2
_symmetry_space_group_name_H-M   'P 1'
_cell_length_a   5.46652676
_cell_length_b   5.46652599
_cell_length_c   8.42835944
_cell_angle_alpha   71.07721172
_cell_angle_beta   71.07721387
_cell_angle_gamma   59.99999813
_symmetry_Int_Tables_number   1
_chemical_formula_structural   AcY4(FeB3)2
_chemical_formula_sum   'Ac1 Y4 Fe2 B6'
_cell_volume   202.25057868
_cell_formula_units_Z   1
loop_
 _symmetry_equiv_pos_site_id
 _symmetry_equiv_pos_as_xyz
  1  'x, y, z'
loop_
 _atom_site_type_symbol
 _atom_site_label
 _atom_site_symmetry_multiplicity
 _atom_site_fract_x
 _atom_site_fract_y
 _atom_site_fract_z
 _atom_site_occupancy
  Ac  Ac0  1  0.000000  0.000000  0.000000  1
  Y  Y1  1  0.751580  0.751580  0.745262  1
  Y  Y2  1  0.248420  0.248420  0.254738  1
  Y  Y3  1  0.581021  0.581021  0.256938  1
  Y  Y4  1  0.418979  0.418979  0.743062  1
  Fe  Fe5  1  0.882780  0.882780  0.351658  1
  Fe  Fe6  1  0.117220  0.117220  0.648342  1
  B  B7  1  0.500000  0.167309  0.500000  1
  B  B8  1  0.832691  0.500000  0.500000  1
  B  B9  1  0.167309  0.832691  0.500000  1
  B  B10  1  0.167309  0.500000  0.500000  1
  B  B11  1  0.832691  0.167309  0.500000  1
  B  B12  1  0.500000  0.832691  0.500000  1
