# generated using pymatgen
data_LiCr2(NiP)3
_symmetry_space_group_name_H-M   'P 1'
_cell_length_a   5.92395344
_cell_length_b   5.81256078
_cell_length_c   3.51457400
_cell_angle_alpha   90.00000000
_cell_angle_beta   90.00000000
_cell_angle_gamma   119.38078861
_symmetry_Int_Tables_number   1
_chemical_formula_structural   LiCr2(NiP)3
_chemical_formula_sum   'Li1 Cr2 Ni3 P3'
_cell_volume   105.45291932
_cell_formula_units_Z   1
loop_
 _symmetry_equiv_pos_site_id
 _symmetry_equiv_pos_as_xyz
  1  'x, y, z'
loop_
 _atom_site_type_symbol
 _atom_site_label
 _atom_site_symmetry_multiplicity
 _atom_site_fract_x
 _atom_site_fract_y
 _atom_site_fract_z
 _atom_site_occupancy
  Li  Li0  1  0.000001  0.414404  0.500000  1
  Cr  Cr1  1  0.590839  0.589556  0.500000  1
  Cr  Cr2  1  0.409190  0.998714  0.500000  1
  Ni  Ni3  1  0.000009  0.737787  0.000000  1
  Ni  Ni4  1  0.244884  0.253087  0.000000  1
  Ni  Ni5  1  0.755088  0.008199  0.000000  1
  P  P6  1  0.346607  0.676718  0.000000  1
  P  P7  1  0.653391  0.330094  0.000000  1
  P  P8  1  0.999992  0.991440  0.500000  1
