# generated using pymatgen
data_Yb3Cd3AgAu2
_symmetry_space_group_name_H-M   'P 1'
_cell_length_a   7.82279300
_cell_length_b   7.82279285
_cell_length_c   3.99255500
_cell_angle_alpha   90.00000000
_cell_angle_beta   90.00000000
_cell_angle_gamma   120.00000488
_symmetry_Int_Tables_number   1
_chemical_formula_structural   Yb3Cd3AgAu2
_chemical_formula_sum   'Yb3 Cd3 Ag1 Au2'
_cell_volume   211.59489534
_cell_formula_units_Z   1
loop_
 _symmetry_equiv_pos_site_id
 _symmetry_equiv_pos_as_xyz
  1  'x, y, z'
loop_
 _atom_site_type_symbol
 _atom_site_label
 _atom_site_symmetry_multiplicity
 _atom_site_fract_x
 _atom_site_fract_y
 _atom_site_fract_z
 _atom_site_occupancy
  Yb  Yb0  1  0.411010  0.411010  0.500000  1
  Yb  Yb1  1  0.588990  0.000000  0.500000  1
  Yb  Yb2  1  0.000000  0.588990  0.500000  1
  Cd  Cd3  1  0.740987  0.740987  0.000000  1
  Cd  Cd4  1  0.259013  0.000000  0.000000  1
  Cd  Cd5  1  0.000000  0.259013  0.000000  1
  Ag  Ag6  1  0.000000  0.000000  0.500000  1
  Au  Au7  1  0.666667  0.333333  0.000000  1
  Au  Au8  1  0.333333  0.666667  0.000000  1
