# generated using pymatgen
data_Pr3Th(Ga8Pd3)3
_symmetry_space_group_name_H-M   'P 1'
_cell_length_a   7.61303861
_cell_length_b   7.64190300
_cell_length_c   13.47277300
_cell_angle_alpha   84.91027926
_cell_angle_beta   100.42143148
_cell_angle_gamma   119.75391416
_symmetry_Int_Tables_number   1
_chemical_formula_structural   Pr3Th(Ga8Pd3)3
_chemical_formula_sum   'Pr3 Th1 Ga24 Pd9'
_cell_volume   669.25946450
_cell_formula_units_Z   1
loop_
 _symmetry_equiv_pos_site_id
 _symmetry_equiv_pos_as_xyz
  1  'x, y, z'
loop_
 _atom_site_type_symbol
 _atom_site_label
 _atom_site_symmetry_multiplicity
 _atom_site_fract_x
 _atom_site_fract_y
 _atom_site_fract_z
 _atom_site_occupancy
  Pr  Pr0  1  0.562439  0.168824  0.189916  1
  Pr  Pr1  1  0.771238  0.502866  0.810236  1
  Pr  Pr2  1  0.228756  0.497302  0.189680  1
  Th  Th3  1  0.436806  0.830650  0.808711  1
  Ga  Ga4  1  0.478411  0.167752  0.941526  1
  Ga  Ga5  1  0.522248  0.833309  0.058855  1
  Ga  Ga6  1  0.022130  0.166400  0.558129  1
  Ga  Ga7  1  0.977698  0.833810  0.441862  1
  Ga  Ga8  1  0.354372  0.832812  0.555719  1
  Ga  Ga9  1  0.646264  0.167851  0.443823  1
  Ga  Ga10  1  0.616069  0.835104  0.328764  1
  Ga  Ga11  1  0.384055  0.166902  0.671137  1
  Ga  Ga12  1  0.056877  0.493080  0.669689  1
  Ga  Ga13  1  0.940771  0.504729  0.329791  1
  Ga  Ga14  1  0.732276  0.838588  0.668206  1
  Ga  Ga15  1  0.269497  0.161713  0.330962  1
  Ga  Ga16  1  0.145166  0.496710  0.942506  1
  Ga  Ga17  1  0.853839  0.502375  0.057783  1
  Ga  Ga18  1  0.817620  0.834272  0.949356  1
  Ga  Ga19  1  0.182980  0.165293  0.051195  1
  Ga  Ga20  1  0.312284  0.499476  0.442796  1
  Ga  Ga21  1  0.687468  0.499945  0.557051  1
  Ga  Ga22  1  0.100253  0.836266  0.183009  1
  Ga  Ga23  1  0.899994  0.163020  0.817385  1
  Ga  Ga24  1  0.305461  0.367621  0.816238  1
  Ga  Ga25  1  0.694098  0.632126  0.184105  1
  Ga  Ga26  1  0.103192  0.963206  0.816563  1
  Ga  Ga27  1  0.897753  0.037915  0.184047  1
  Pd  Pd28  1  0.384516  0.502771  0.637162  1
  Pd  Pd29  1  0.615526  0.498544  0.363445  1
  Pd  Pd30  1  0.171514  0.830068  0.998422  1
  Pd  Pd31  1  0.828408  0.169547  0.000696  1
  Pd  Pd32  1  0.289825  0.832940  0.362524  1
  Pd  Pd33  1  0.709365  0.165895  0.638033  1
  Pd  Pd34  1  0.049732  0.830288  0.637088  1
  Pd  Pd35  1  0.951466  0.169680  0.363892  1
  Pd  Pd36  1  0.499637  0.500348  0.999702  1
