# generated using pymatgen
data_Hf(MoBr6)2
_symmetry_space_group_name_H-M   'P 1'
_cell_length_a   9.55691580
_cell_length_b   9.55691580
_cell_length_c   7.35239600
_cell_angle_alpha   69.47915492
_cell_angle_beta   69.47915491
_cell_angle_gamma   84.52815712
_symmetry_Int_Tables_number   1
_chemical_formula_structural   Hf(MoBr6)2
_chemical_formula_sum   'Hf1 Mo2 Br12'
_cell_volume   588.71819734
_cell_formula_units_Z   1
loop_
 _symmetry_equiv_pos_site_id
 _symmetry_equiv_pos_as_xyz
  1  'x, y, z'
loop_
 _atom_site_type_symbol
 _atom_site_label
 _atom_site_symmetry_multiplicity
 _atom_site_fract_x
 _atom_site_fract_y
 _atom_site_fract_z
 _atom_site_occupancy
  Hf  Hf0  1  0.736067  0.736067  0.262728  1
  Mo  Mo1  1  0.238996  0.238996  0.763151  1
  Mo  Mo2  1  0.024429  0.024429  0.974809  1
  Br  Br3  1  0.966839  0.266208  0.729777  1
  Br  Br4  1  0.266208  0.966839  0.729777  1
  Br  Br5  1  0.033066  0.760411  0.238996  1
  Br  Br6  1  0.760411  0.033066  0.238996  1
  Br  Br7  1  0.205050  0.484929  0.798930  1
  Br  Br8  1  0.484929  0.205050  0.798930  1
  Br  Br9  1  0.789548  0.490693  0.208304  1
  Br  Br10  1  0.490693  0.789548  0.208304  1
  Br  Br11  1  0.128741  0.128741  0.175276  1
  Br  Br12  1  0.884333  0.884333  0.839753  1
  Br  Br13  1  0.654303  0.654303  0.646469  1
  Br  Br14  1  0.336387  0.336387  0.385803  1
