# generated using pymatgen
data_KBaTaS4
_symmetry_space_group_name_H-M   'P 1'
_cell_length_a   14.06911600
_cell_length_b   7.03191700
_cell_length_c   9.03388800
_cell_angle_alpha   90.00000000
_cell_angle_beta   90.00000000
_cell_angle_gamma   90.00000000
_symmetry_Int_Tables_number   1
_chemical_formula_structural   KBaTaS4
_chemical_formula_sum   'K4 Ba4 Ta4 S16'
_cell_volume   893.74834040
_cell_formula_units_Z   4
loop_
 _symmetry_equiv_pos_site_id
 _symmetry_equiv_pos_as_xyz
  1  'x, y, z'
loop_
 _atom_site_type_symbol
 _atom_site_label
 _atom_site_symmetry_multiplicity
 _atom_site_fract_x
 _atom_site_fract_y
 _atom_site_fract_z
 _atom_site_occupancy
  K  K0  1  0.603877  0.250000  0.118330  1
  K  K1  1  0.103878  0.250000  0.381670  1
  K  K2  1  0.896123  0.750000  0.618329  1
  K  K3  1  0.396122  0.750000  0.881670  1
  Ba  Ba4  1  0.861417  0.750000  0.115651  1
  Ba  Ba5  1  0.361416  0.750000  0.384349  1
  Ba  Ba6  1  0.638583  0.250000  0.615651  1
  Ba  Ba7  1  0.138584  0.250000  0.884349  1
  Ta  Ta8  1  0.139722  0.750000  0.128886  1
  Ta  Ta9  1  0.639722  0.750000  0.371113  1
  Ta  Ta10  1  0.360279  0.250000  0.628888  1
  Ta  Ta11  1  0.860278  0.250000  0.871113  1
  S  S12  1  0.944875  0.250000  0.086455  1
  S  S13  1  0.239540  0.005541  0.140410  1
  S  S14  1  0.239540  0.494458  0.140410  1
  S  S15  1  0.540991  0.750000  0.169781  1
  S  S16  1  0.040992  0.750000  0.330220  1
  S  S17  1  0.739541  0.005541  0.359589  1
  S  S18  1  0.739541  0.494458  0.359589  1
  S  S19  1  0.444876  0.250000  0.413546  1
  S  S20  1  0.555125  0.750000  0.586455  1
  S  S21  1  0.260460  0.505543  0.640411  1
  S  S22  1  0.260460  0.994459  0.640411  1
  S  S23  1  0.959009  0.250000  0.669780  1
  S  S24  1  0.459009  0.250000  0.830219  1
  S  S25  1  0.760459  0.505543  0.859589  1
  S  S26  1  0.760459  0.994459  0.859589  1
  S  S27  1  0.055125  0.750000  0.913545  1
