# generated using pymatgen
data_YbBi3(Ru2O7)2
_symmetry_space_group_name_H-M   'P 1'
_cell_length_a   7.30160444
_cell_length_b   7.30040665
_cell_length_c   7.30210059
_cell_angle_alpha   60.05757847
_cell_angle_beta   60.05824019
_cell_angle_gamma   60.04495468
_symmetry_Int_Tables_number   1
_chemical_formula_structural   YbBi3(Ru2O7)2
_chemical_formula_sum   'Yb1 Bi3 Ru4 O14'
_cell_volume   275.56581515
_cell_formula_units_Z   1
loop_
 _symmetry_equiv_pos_site_id
 _symmetry_equiv_pos_as_xyz
  1  'x, y, z'
loop_
 _atom_site_type_symbol
 _atom_site_label
 _atom_site_symmetry_multiplicity
 _atom_site_fract_x
 _atom_site_fract_y
 _atom_site_fract_z
 _atom_site_occupancy
  Yb  Yb0  1  0.500000  0.500000  0.500000  1
  Bi  Bi1  1  0.500000  0.000000  0.500000  1
  Bi  Bi2  1  0.000000  0.500000  0.500000  1
  Bi  Bi3  1  0.500000  0.500000  0.000000  1
  Ru  Ru4  1  0.000000  0.000000  0.000000  1
  Ru  Ru5  1  0.000000  0.500000  0.000000  1
  Ru  Ru6  1  0.500000  0.000000  0.000000  1
  Ru  Ru7  1  0.000000  0.000000  0.500000  1
  O  O8  1  0.622773  0.622707  0.622872  1
  O  O9  1  0.377227  0.377293  0.377128  1
  O  O10  1  0.920631  0.920636  0.328071  1
  O  O11  1  0.328182  0.920540  0.920658  1
  O  O12  1  0.920532  0.328283  0.920655  1
  O  O13  1  0.326347  0.326842  0.929880  1
  O  O14  1  0.929382  0.326807  0.326933  1
  O  O15  1  0.326590  0.929358  0.327209  1
  O  O16  1  0.079369  0.079364  0.671929  1
  O  O17  1  0.671818  0.079460  0.079342  1
  O  O18  1  0.079468  0.671717  0.079345  1
  O  O19  1  0.673653  0.673158  0.070120  1
  O  O20  1  0.070618  0.673193  0.673067  1
  O  O21  1  0.673410  0.070642  0.672791  1
