# generated using pymatgen
data_U4NO7
_symmetry_space_group_name_H-M   'P 1'
_cell_length_a   5.39801535
_cell_length_b   5.39801535
_cell_length_c   5.39801535
_cell_angle_alpha   90.05736616
_cell_angle_beta   90.05736616
_cell_angle_gamma   90.05736616
_symmetry_Int_Tables_number   1
_chemical_formula_structural   U4NO7
_chemical_formula_sum   'U4 N1 O7'
_cell_volume   157.29021025
_cell_formula_units_Z   1
loop_
 _symmetry_equiv_pos_site_id
 _symmetry_equiv_pos_as_xyz
  1  'x, y, z'
loop_
 _atom_site_type_symbol
 _atom_site_label
 _atom_site_symmetry_multiplicity
 _atom_site_fract_x
 _atom_site_fract_y
 _atom_site_fract_z
 _atom_site_occupancy
  U  U0  1  0.003331  0.003331  0.003331  1
  U  U1  1  0.496307  0.495786  0.003680  1
  U  U2  1  0.495786  0.003680  0.496307  1
  U  U3  1  0.003680  0.496307  0.495786  1
  N  N4  1  0.249893  0.249893  0.249893  1
  O  O5  1  0.249793  0.750109  0.250028  1
  O  O6  1  0.750109  0.250028  0.249793  1
  O  O7  1  0.750000  0.749880  0.250414  1
  O  O8  1  0.250028  0.249793  0.750109  1
  O  O9  1  0.250414  0.750000  0.749880  1
  O  O10  1  0.749880  0.250414  0.750000  1
  O  O11  1  0.750782  0.750782  0.750782  1
