# generated using pymatgen
data_SnMo2(P2O7)2
_symmetry_space_group_name_H-M   'P 1'
_cell_length_a   5.08882477
_cell_length_b   7.22061437
_cell_length_c   8.46616508
_cell_angle_alpha   91.28682156
_cell_angle_beta   93.00621407
_cell_angle_gamma   105.79157330
_symmetry_Int_Tables_number   1
_chemical_formula_structural   SnMo2(P2O7)2
_chemical_formula_sum   'Sn1 Mo2 P4 O14'
_cell_volume   298.71317577
_cell_formula_units_Z   1
loop_
 _symmetry_equiv_pos_site_id
 _symmetry_equiv_pos_as_xyz
  1  'x, y, z'
loop_
 _atom_site_type_symbol
 _atom_site_label
 _atom_site_symmetry_multiplicity
 _atom_site_fract_x
 _atom_site_fract_y
 _atom_site_fract_z
 _atom_site_occupancy
  Sn  Sn0  1  0.656942  0.984969  0.026246  1
  Mo  Mo1  1  0.494341  0.003159  0.503822  1
  Mo  Mo2  1  0.999519  0.503873  0.997294  1
  P  P3  1  0.483865  0.374468  0.240542  1
  P  P4  1  0.511334  0.622436  0.755894  1
  P  P5  1  0.872820  0.761411  0.301003  1
  P  P6  1  0.118980  0.233200  0.702768  1
  O  O7  1  0.676569  0.894760  0.300042  1
  O  O8  1  0.317509  0.108121  0.700106  1
  O  O9  1  0.886441  0.184358  0.577766  1
  O  O10  1  0.106869  0.813854  0.422545  1
  O  O11  1  0.242231  0.448730  0.191515  1
  O  O12  1  0.760071  0.554195  0.801361  1
  O  O13  1  0.028105  0.243753  0.875884  1
  O  O14  1  0.948609  0.759899  0.123747  1
  O  O15  1  0.283395  0.452850  0.662335  1
  O  O16  1  0.704118  0.547381  0.341728  1
  O  O17  1  0.638484  0.324436  0.097771  1
  O  O18  1  0.374412  0.675990  0.906739  1
  O  O19  1  0.583329  0.792832  0.651170  1
  O  O20  1  0.406958  0.205527  0.346023  1
