# generated using pymatgen
data_Sm11Sc(PaRh2)8
_symmetry_space_group_name_H-M   'P 1'
_cell_length_a   7.51884475
_cell_length_b   7.54781230
_cell_length_c   14.37067700
_cell_angle_alpha   90.00000000
_cell_angle_beta   90.00000000
_cell_angle_gamma   89.76122961
_symmetry_Int_Tables_number   1
_chemical_formula_structural   Sm11Sc(PaRh2)8
_chemical_formula_sum   'Sm11 Sc1 Pa8 Rh16'
_cell_volume   815.54074917
_cell_formula_units_Z   1
loop_
 _symmetry_equiv_pos_site_id
 _symmetry_equiv_pos_as_xyz
  1  'x, y, z'
loop_
 _atom_site_type_symbol
 _atom_site_label
 _atom_site_symmetry_multiplicity
 _atom_site_fract_x
 _atom_site_fract_y
 _atom_site_fract_z
 _atom_site_occupancy
  Sm  Sm0  1  0.509806  0.673548  0.598855  1
  Sm  Sm1  1  0.001899  0.817787  0.904112  1
  Sm  Sm2  1  0.495658  0.323427  0.091584  1
  Sm  Sm3  1  0.994575  0.176114  0.408354  1
  Sm  Sm4  1  0.495658  0.323427  0.408416  1
  Sm  Sm5  1  0.994575  0.176114  0.091646  1
  Sm  Sm6  1  0.509806  0.673548  0.901145  1
  Sm  Sm7  1  0.001899  0.817787  0.595888  1
  Sm  Sm8  1  0.308515  0.978448  0.750000  1
  Sm  Sm9  1  0.191261  0.474358  0.250000  1
  Sm  Sm10  1  0.690743  0.027143  0.250000  1
  Sc  Sc11  1  0.814756  0.515497  0.750000  1
  Pa  Pa12  1  0.657417  0.160818  0.623080  1
  Pa  Pa13  1  0.154201  0.344822  0.878193  1
  Pa  Pa14  1  0.345055  0.841492  0.119396  1
  Pa  Pa15  1  0.842222  0.659462  0.379585  1
  Pa  Pa16  1  0.345055  0.841492  0.380604  1
  Pa  Pa17  1  0.842222  0.659462  0.120415  1
  Pa  Pa18  1  0.657417  0.160818  0.876920  1
  Pa  Pa19  1  0.154201  0.344822  0.621807  1
  Rh  Rh20  1  0.680030  0.947907  0.464793  1
  Rh  Rh21  1  0.179424  0.550392  0.036299  1
  Rh  Rh22  1  0.321190  0.051673  0.961385  1
  Rh  Rh23  1  0.820254  0.450438  0.540042  1
  Rh  Rh24  1  0.321190  0.051673  0.538615  1
  Rh  Rh25  1  0.820254  0.450438  0.959958  1
  Rh  Rh26  1  0.680030  0.947907  0.035207  1
  Rh  Rh27  1  0.179424  0.550392  0.463701  1
  Rh  Rh28  1  0.457755  0.357082  0.750000  1
  Rh  Rh29  1  0.952068  0.157747  0.750000  1
  Rh  Rh30  1  0.544777  0.651190  0.250000  1
  Rh  Rh31  1  0.045622  0.846632  0.250000  1
  Rh  Rh32  1  0.695608  0.887047  0.750000  1
  Rh  Rh33  1  0.174079  0.610186  0.750000  1
  Rh  Rh34  1  0.309146  0.105636  0.250000  1
  Rh  Rh35  1  0.812203  0.393273  0.250000  1
