# generated using pymatgen
data_InRe6Sb13
_symmetry_space_group_name_H-M   'P 1'
_cell_length_a   8.25898260
_cell_length_b   8.25898297
_cell_length_c   8.23571500
_cell_angle_alpha   109.41416534
_cell_angle_beta   109.41416627
_cell_angle_gamma   109.52821723
_symmetry_Int_Tables_number   1
_chemical_formula_structural   InRe6Sb13
_chemical_formula_sum   'In1 Re6 Sb13'
_cell_volume   432.75076670
_cell_formula_units_Z   1
loop_
 _symmetry_equiv_pos_site_id
 _symmetry_equiv_pos_as_xyz
  1  'x, y, z'
loop_
 _atom_site_type_symbol
 _atom_site_label
 _atom_site_symmetry_multiplicity
 _atom_site_fract_x
 _atom_site_fract_y
 _atom_site_fract_z
 _atom_site_occupancy
  In  In0  1  0.000000  0.000000  0.669245  1
  Re  Re1  1  0.340458  0.000000  0.337722  1
  Re  Re2  1  0.000000  0.340458  0.337722  1
  Re  Re3  1  0.000000  0.648775  0.658120  1
  Re  Re4  1  0.351225  0.351225  0.009344  1
  Re  Re5  1  0.659542  0.659542  0.997265  1
  Re  Re6  1  0.648775  0.000000  0.658120  1
  Sb  Sb7  1  0.753216  0.502705  0.252590  1
  Sb  Sb8  1  0.502705  0.753216  0.252590  1
  Sb  Sb9  1  0.497295  0.250511  0.749885  1
  Sb  Sb10  1  0.749489  0.246784  0.499374  1
  Sb  Sb11  1  0.246784  0.749489  0.499374  1
  Sb  Sb12  1  0.250511  0.497295  0.749885  1
  Sb  Sb13  1  0.000000  0.000000  0.329823  1
  Sb  Sb14  1  0.667580  0.000000  0.000839  1
  Sb  Sb15  1  0.000000  0.667580  0.000839  1
  Sb  Sb16  1  0.332420  0.332420  0.333259  1
  Sb  Sb17  1  0.000000  0.316255  0.993419  1
  Sb  Sb18  1  0.683745  0.683745  0.677165  1
  Sb  Sb19  1  0.316255  0.000000  0.993419  1
