# generated using pymatgen
data_Tb8Tm12Ga13Si3
_symmetry_space_group_name_H-M   'P 1'
_cell_length_a   7.43904517
_cell_length_b   7.76419950
_cell_length_c   14.96998600
_cell_angle_alpha   90.00000000
_cell_angle_beta   90.00000000
_cell_angle_gamma   90.12654709
_symmetry_Int_Tables_number   1
_chemical_formula_structural   Tb8Tm12Ga13Si3
_chemical_formula_sum   'Tb8 Tm12 Ga13 Si3'
_cell_volume   864.63779652
_cell_formula_units_Z   1
loop_
 _symmetry_equiv_pos_site_id
 _symmetry_equiv_pos_as_xyz
  1  'x, y, z'
loop_
 _atom_site_type_symbol
 _atom_site_label
 _atom_site_symmetry_multiplicity
 _atom_site_fract_x
 _atom_site_fract_y
 _atom_site_fract_z
 _atom_site_occupancy
  Tb  Tb0  1  0.014588  0.180722  0.096983  1
  Tb  Tb1  1  0.984886  0.819025  0.904871  1
  Tb  Tb2  1  0.486417  0.679062  0.904661  1
  Tb  Tb3  1  0.984886  0.819025  0.595129  1
  Tb  Tb4  1  0.514313  0.319098  0.096589  1
  Tb  Tb5  1  0.014588  0.180722  0.403017  1
  Tb  Tb6  1  0.514313  0.319098  0.403411  1
  Tb  Tb7  1  0.486417  0.679062  0.595339  1
  Tm  Tm8  1  0.163241  0.509882  0.750000  1
  Tm  Tm9  1  0.837457  0.489257  0.250000  1
  Tm  Tm10  1  0.337889  0.011299  0.250000  1
  Tm  Tm11  1  0.665391  0.988040  0.750000  1
  Tm  Tm12  1  0.328783  0.175408  0.620773  1
  Tm  Tm13  1  0.671591  0.826583  0.379058  1
  Tm  Tm14  1  0.171824  0.673181  0.378591  1
  Tm  Tm15  1  0.671591  0.826583  0.120942  1
  Tm  Tm16  1  0.827205  0.327526  0.621352  1
  Tm  Tm17  1  0.328783  0.175408  0.879227  1
  Tm  Tm18  1  0.827205  0.327526  0.878648  1
  Tm  Tm19  1  0.171824  0.673181  0.121409  1
  Ga  Ga20  1  0.035269  0.112813  0.750000  1
  Ga  Ga21  1  0.964858  0.894012  0.250000  1
  Ga  Ga22  1  0.465067  0.606240  0.250000  1
  Ga  Ga23  1  0.535238  0.392755  0.750000  1
  Ga  Ga24  1  0.278852  0.872491  0.750000  1
  Ga  Ga25  1  0.158304  0.468348  0.540177  1
  Ga  Ga26  1  0.840669  0.530769  0.458460  1
  Ga  Ga27  1  0.340624  0.968541  0.458438  1
  Ga  Ga28  1  0.840669  0.530769  0.041540  1
  Ga  Ga29  1  0.659652  0.031582  0.540632  1
  Ga  Ga30  1  0.158304  0.468348  0.959823  1
  Ga  Ga31  1  0.659652  0.031582  0.959368  1
  Ga  Ga32  1  0.340624  0.968541  0.041562  1
  Si  Si33  1  0.719647  0.124858  0.250000  1
  Si  Si34  1  0.219429  0.374644  0.250000  1
  Si  Si35  1  0.779954  0.624022  0.750000  1
