# generated using pymatgen
data_NaTl(AgO2)4
_symmetry_space_group_name_H-M   'P 1'
_cell_length_a   6.67562325
_cell_length_b   6.67562370
_cell_length_c   6.67562300
_cell_angle_alpha   125.24629948
_cell_angle_beta   125.24630217
_cell_angle_gamma   81.13047023
_symmetry_Int_Tables_number   1
_chemical_formula_structural   NaTl(AgO2)4
_chemical_formula_sum   'Na1 Tl1 Ag4 O8'
_cell_volume   191.14968912
_cell_formula_units_Z   1
loop_
 _symmetry_equiv_pos_site_id
 _symmetry_equiv_pos_as_xyz
  1  'x, y, z'
loop_
 _atom_site_type_symbol
 _atom_site_label
 _atom_site_symmetry_multiplicity
 _atom_site_fract_x
 _atom_site_fract_y
 _atom_site_fract_z
 _atom_site_occupancy
  Na  Na0  1  0.000000  0.000000  0.000000  1
  Tl  Tl1  1  0.750000  0.250000  0.500000  1
  Ag  Ag2  1  0.364670  0.622827  0.237274  1
  Ag  Ag3  1  0.385552  0.127396  0.762726  1
  Ag  Ag4  1  0.377173  0.614448  0.741844  1
  Ag  Ag5  1  0.872604  0.635330  0.258156  1
  O  O6  1  0.746365  0.306533  0.156233  1
  O  O7  1  0.150300  0.590132  0.843767  1
  O  O8  1  0.010932  0.966891  0.378480  1
  O  O9  1  0.588412  0.632452  0.621520  1
  O  O10  1  0.033109  0.411588  0.044041  1
  O  O11  1  0.367548  0.989068  0.955959  1
  O  O12  1  0.409868  0.253635  0.560168  1
  O  O13  1  0.693467  0.849700  0.439832  1
