# generated using pymatgen
data_Sr4DyBi7S16
_symmetry_space_group_name_H-M   'P 1'
_cell_length_a   4.06183300
_cell_length_b   12.35634417
_cell_length_c   14.69053000
_cell_angle_alpha   89.99048497
_cell_angle_beta   90.00000000
_cell_angle_gamma   90.00000000
_symmetry_Int_Tables_number   1
_chemical_formula_structural   Sr4DyBi7S16
_chemical_formula_sum   'Sr4 Dy1 Bi7 S16'
_cell_volume   737.30897186
_cell_formula_units_Z   1
loop_
 _symmetry_equiv_pos_site_id
 _symmetry_equiv_pos_as_xyz
  1  'x, y, z'
loop_
 _atom_site_type_symbol
 _atom_site_label
 _atom_site_symmetry_multiplicity
 _atom_site_fract_x
 _atom_site_fract_y
 _atom_site_fract_z
 _atom_site_occupancy
  Sr  Sr0  1  0.250000  0.758433  0.665914  1
  Sr  Sr1  1  0.750000  0.739269  0.163557  1
  Sr  Sr2  1  0.250000  0.260981  0.836402  1
  Sr  Sr3  1  0.750000  0.241592  0.335846  1
  Dy  Dy4  1  0.750000  0.580135  0.899630  1
  Bi  Bi5  1  0.250000  0.436184  0.615529  1
  Bi  Bi6  1  0.750000  0.066024  0.111359  1
  Bi  Bi7  1  0.250000  0.932884  0.888712  1
  Bi  Bi8  1  0.750000  0.565491  0.388736  1
  Bi  Bi9  1  0.250000  0.419893  0.097908  1
  Bi  Bi10  1  0.750000  0.078880  0.599514  1
  Bi  Bi11  1  0.250000  0.920431  0.400425  1
  S  S12  1  0.250000  0.409771  0.419685  1
  S  S13  1  0.750000  0.089575  0.918078  1
  S  S14  1  0.250000  0.908529  0.081421  1
  S  S15  1  0.750000  0.591754  0.581921  1
  S  S16  1  0.250000  0.024132  0.716140  1
  S  S17  1  0.750000  0.476010  0.215278  1
  S  S18  1  0.250000  0.526593  0.787207  1
  S  S19  1  0.750000  0.975357  0.283843  1
  S  S20  1  0.250000  0.132262  0.464459  1
  S  S21  1  0.750000  0.372574  0.964066  1
  S  S22  1  0.250000  0.630134  0.025709  1
  S  S23  1  0.750000  0.867646  0.535788  1
  S  S24  1  0.250000  0.208248  0.179661  1
  S  S25  1  0.750000  0.292232  0.680749  1
  S  S26  1  0.250000  0.708118  0.318817  1
  S  S27  1  0.750000  0.786867  0.823646  1
