# generated using pymatgen
data_Nd18Dy2Ir5Pt7
_symmetry_space_group_name_H-M   'P 1'
_cell_length_a   11.38634912
_cell_length_b   11.38634912
_cell_length_c   6.50858909
_cell_angle_alpha   90.04701508
_cell_angle_beta   90.04701508
_cell_angle_gamma   89.98077828
_symmetry_Int_Tables_number   1
_chemical_formula_structural   Nd18Dy2Ir5Pt7
_chemical_formula_sum   'Nd18 Dy2 Ir5 Pt7'
_cell_volume   843.83110227
_cell_formula_units_Z   1
loop_
 _symmetry_equiv_pos_site_id
 _symmetry_equiv_pos_as_xyz
  1  'x, y, z'
loop_
 _atom_site_type_symbol
 _atom_site_label
 _atom_site_symmetry_multiplicity
 _atom_site_fract_x
 _atom_site_fract_y
 _atom_site_fract_z
 _atom_site_occupancy
  Nd  Nd0  1  0.293562  0.086253  0.376146  1
  Nd  Nd1  1  0.292338  0.909475  0.881680  1
  Nd  Nd2  1  0.705737  0.088894  0.877172  1
  Nd  Nd3  1  0.704754  0.910808  0.376896  1
  Nd  Nd4  1  0.588025  0.792572  0.877868  1
  Nd  Nd5  1  0.587981  0.207415  0.378393  1
  Nd  Nd6  1  0.408386  0.793183  0.378558  1
  Nd  Nd7  1  0.411457  0.207283  0.878159  1
  Nd  Nd8  1  0.207428  0.411975  0.622132  1
  Nd  Nd9  1  0.206817  0.591614  0.121442  1
  Nd  Nd10  1  0.792585  0.412019  0.121607  1
  Nd  Nd11  1  0.792717  0.588543  0.621841  1
  Nd  Nd12  1  0.913747  0.706438  0.123854  1
  Nd  Nd13  1  0.911106  0.294263  0.622828  1
  Nd  Nd14  1  0.090525  0.707662  0.618320  1
  Nd  Nd15  1  0.089192  0.295246  0.123104  1
  Nd  Nd16  1  0.001556  0.998164  0.500067  1
  Nd  Nd17  1  0.001836  0.998444  0.999933  1
  Dy  Dy18  1  0.499749  0.499827  0.000155  1
  Dy  Dy19  1  0.500173  0.500251  0.499845  1
  Ir  Ir20  1  0.153784  0.846216  0.250000  1
  Ir  Ir21  1  0.501026  0.000287  0.118865  1
  Ir  Ir22  1  0.500335  0.000384  0.619968  1
  Ir  Ir23  1  0.999616  0.499665  0.880032  1
  Ir  Ir24  1  0.999713  0.498974  0.381135  1
  Pt  Pt25  1  0.845404  0.154596  0.250000  1
  Pt  Pt26  1  0.844330  0.844699  0.750028  1
  Pt  Pt27  1  0.155301  0.155670  0.749972  1
  Pt  Pt28  1  0.647594  0.352406  0.750000  1
  Pt  Pt29  1  0.647679  0.647333  0.249724  1
  Pt  Pt30  1  0.352667  0.352321  0.250276  1
  Pt  Pt31  1  0.352882  0.647118  0.750000  1
