# generated using pymatgen
data_Ta7Mo12W5
_symmetry_space_group_name_H-M   'P 1'
_cell_length_a   4.50293300
_cell_length_b   6.42635200
_cell_length_c   13.72548500
_cell_angle_alpha   90.00000000
_cell_angle_beta   90.00015269
_cell_angle_gamma   90.00000000
_symmetry_Int_Tables_number   1
_chemical_formula_structural   Ta7Mo12W5
_chemical_formula_sum   'Ta7 Mo12 W5'
_cell_volume   397.18029559
_cell_formula_units_Z   1
loop_
 _symmetry_equiv_pos_site_id
 _symmetry_equiv_pos_as_xyz
  1  'x, y, z'
loop_
 _atom_site_type_symbol
 _atom_site_label
 _atom_site_symmetry_multiplicity
 _atom_site_fract_x
 _atom_site_fract_y
 _atom_site_fract_z
 _atom_site_occupancy
  Ta  Ta0  1  0.000000  0.000000  0.999999  1
  Ta  Ta1  1  0.499992  0.500000  0.167187  1
  Ta  Ta2  1  0.999991  0.000000  0.333503  1
  Ta  Ta3  1  0.500000  0.500000  0.499999  1
  Ta  Ta4  1  0.000010  0.000000  0.666498  1
  Ta  Ta5  1  0.500009  0.500000  0.832815  1
  Ta  Ta6  1  0.000000  0.500000  0.000001  1
  Mo  Mo7  1  0.500000  0.247389  0.000001  1
  Mo  Mo8  1  0.500000  0.752612  0.000001  1
  Mo  Mo9  1  0.999992  0.248379  0.168435  1
  Mo  Mo10  1  0.999992  0.751622  0.168435  1
  Mo  Mo11  1  0.499990  0.250272  0.334036  1
  Mo  Mo12  1  0.499990  0.749727  0.334036  1
  Mo  Mo13  1  0.000000  0.249725  0.500000  1
  Mo  Mo14  1  0.000000  0.750276  0.500000  1
  Mo  Mo15  1  0.500010  0.250271  0.665964  1
  Mo  Mo16  1  0.500010  0.749728  0.665964  1
  Mo  Mo17  1  0.000008  0.248379  0.831566  1
  Mo  Mo18  1  0.000008  0.751622  0.831566  1
  W  W19  1  0.499991  0.000000  0.167029  1
  W  W20  1  0.999991  0.500000  0.333815  1
  W  W21  1  0.500000  0.000000  0.500001  1
  W  W22  1  0.000009  0.500000  0.666186  1
  W  W23  1  0.500009  0.000000  0.832972  1
