# generated using pymatgen
data_La6FeOsBr6
_symmetry_space_group_name_H-M   'P 1'
_cell_length_a   4.28250800
_cell_length_b   9.27774452
_cell_length_c   12.01570068
_cell_angle_alpha   86.61297404
_cell_angle_beta   90.00000000
_cell_angle_gamma   90.00000000
_symmetry_Int_Tables_number   1
_chemical_formula_structural   La6FeOsBr6
_chemical_formula_sum   'La6 Fe1 Os1 Br6'
_cell_volume   476.57408017
_cell_formula_units_Z   1
loop_
 _symmetry_equiv_pos_site_id
 _symmetry_equiv_pos_as_xyz
  1  'x, y, z'
loop_
 _atom_site_type_symbol
 _atom_site_label
 _atom_site_symmetry_multiplicity
 _atom_site_fract_x
 _atom_site_fract_y
 _atom_site_fract_z
 _atom_site_occupancy
  La  La0  1  0.250000  0.330989  0.872876  1
  La  La1  1  0.750000  0.669993  0.130591  1
  La  La2  1  0.750000  0.122419  0.653163  1
  La  La3  1  0.250000  0.875306  0.330751  1
  La  La4  1  0.750000  0.100359  0.108334  1
  La  La5  1  0.250000  0.900326  0.893751  1
  Fe  Fe6  1  0.250000  0.875572  0.144301  1
  Os  Os7  1  0.750000  0.119753  0.870722  1
  Br  Br8  1  0.750000  0.116332  0.377326  1
  Br  Br9  1  0.250000  0.886752  0.617436  1
  Br  Br10  1  0.250000  0.357677  0.616613  1
  Br  Br11  1  0.750000  0.638345  0.381634  1
  Br  Br12  1  0.750000  0.613463  0.874356  1
  Br  Br13  1  0.250000  0.392713  0.128148  1
