# generated using pymatgen
data_PrTa3(PO4)6
_symmetry_space_group_name_H-M   'P 1'
_cell_length_a   8.92841220
_cell_length_b   9.17965572
_cell_length_c   8.92824700
_cell_angle_alpha   89.99809681
_cell_angle_beta   59.99882846
_cell_angle_gamma   119.09696111
_symmetry_Int_Tables_number   1
_chemical_formula_structural   PrTa3(PO4)6
_chemical_formula_sum   'Pr1 Ta3 P6 O24'
_cell_volume   524.36348497
_cell_formula_units_Z   1
loop_
 _symmetry_equiv_pos_site_id
 _symmetry_equiv_pos_as_xyz
  1  'x, y, z'
loop_
 _atom_site_type_symbol
 _atom_site_label
 _atom_site_symmetry_multiplicity
 _atom_site_fract_x
 _atom_site_fract_y
 _atom_site_fract_z
 _atom_site_occupancy
  Pr  Pr0  1  0.730834  0.096185  0.634526  1
  Ta  Ta1  1  0.283596  0.925281  0.358187  1
  Ta  Ta2  1  0.287871  0.431697  0.856054  1
  Ta  Ta3  1  0.717000  0.575403  0.141448  1
  P  P4  1  0.788997  0.746589  0.748908  1
  P  P5  1  0.468217  0.251730  0.535931  1
  P  P6  1  0.495657  0.746607  0.462004  1
  P  P7  1  0.247675  0.251788  0.216382  1
  P  P8  1  0.787789  0.251739  0.995783  1
  P  P9  1  0.208742  0.746600  0.042272  1
  O  O10  1  0.658665  0.904997  0.467106  1
  O  O11  1  0.987671  0.704220  0.113066  1
  O  O12  1  0.218627  0.583580  0.004365  1
  O  O13  1  0.233826  0.779435  0.203659  1
  O  O14  1  0.987803  0.273478  0.961000  1
  O  O15  1  0.799462  0.417087  0.041505  1
  O  O16  1  0.786047  0.244566  0.828999  1
  O  O17  1  0.817479  0.704336  0.899184  1
  O  O18  1  0.983198  0.779375  0.562434  1
  O  O19  1  0.629721  0.244729  0.541246  1
  O  O20  1  0.779144  0.904917  0.753564  1
  O  O21  1  0.588041  0.583517  0.777024  1
  O  O22  1  0.592260  0.084778  0.164225  1
  O  O23  1  0.575981  0.417008  0.382260  1
  O  O24  1  0.234491  0.273398  0.051210  1
  O  O25  1  0.324716  0.273433  0.714244  1
  O  O26  1  0.603651  0.704292  0.283287  1
  O  O27  1  0.328377  0.084688  0.507433  1
  O  O28  1  0.372181  0.904941  0.874093  1
  O  O29  1  0.360735  0.583587  0.634903  1
  O  O30  1  0.249161  0.084845  0.243535  1
  O  O31  1  0.458794  0.417180  0.158815  1
  O  O32  1  0.341930  0.779327  0.454285  1
  O  O33  1  0.073792  0.244671  0.384934  1
