# generated using pymatgen
data_ScTaMn4(NbP2)2
_symmetry_space_group_name_H-M   'P 1'
_cell_length_a   3.53990600
_cell_length_b   6.26790764
_cell_length_c   7.29404710
_cell_angle_alpha   89.50783649
_cell_angle_beta   90.00000000
_cell_angle_gamma   90.00000000
_symmetry_Int_Tables_number   1
_chemical_formula_structural   ScTaMn4(NbP2)2
_chemical_formula_sum   'Sc1 Ta1 Mn4 Nb2 P4'
_cell_volume   161.83291578
_cell_formula_units_Z   1
loop_
 _symmetry_equiv_pos_site_id
 _symmetry_equiv_pos_as_xyz
  1  'x, y, z'
loop_
 _atom_site_type_symbol
 _atom_site_label
 _atom_site_symmetry_multiplicity
 _atom_site_fract_x
 _atom_site_fract_y
 _atom_site_fract_z
 _atom_site_occupancy
  Sc  Sc0  1  0.250000  0.530327  0.674173  1
  Ta  Ta1  1  0.250000  0.030788  0.829122  1
  Mn  Mn2  1  0.750000  0.864979  0.559555  1
  Mn  Mn3  1  0.250000  0.135593  0.439698  1
  Mn  Mn4  1  0.750000  0.359564  0.940811  1
  Mn  Mn5  1  0.250000  0.641757  0.060057  1
  Nb  Nb6  1  0.750000  0.467760  0.326231  1
  Nb  Nb7  1  0.750000  0.967913  0.172253  1
  P  P8  1  0.250000  0.270280  0.128370  1
  P  P9  1  0.750000  0.732983  0.868576  1
  P  P10  1  0.250000  0.767118  0.370862  1
  P  P11  1  0.750000  0.230938  0.630293  1
