# generated using pymatgen
data_NdMgIn3Ir
_symmetry_space_group_name_H-M   'P 1'
_cell_length_a   4.39676400
_cell_length_b   7.57139700
_cell_length_c   8.24136900
_cell_angle_alpha   90.00000000
_cell_angle_beta   90.00000000
_cell_angle_gamma   90.00000000
_symmetry_Int_Tables_number   1
_chemical_formula_structural   NdMgIn3Ir
_chemical_formula_sum   'Nd2 Mg2 In6 Ir2'
_cell_volume   274.35225458
_cell_formula_units_Z   2
loop_
 _symmetry_equiv_pos_site_id
 _symmetry_equiv_pos_as_xyz
  1  'x, y, z'
loop_
 _atom_site_type_symbol
 _atom_site_label
 _atom_site_symmetry_multiplicity
 _atom_site_fract_x
 _atom_site_fract_y
 _atom_site_fract_z
 _atom_site_occupancy
  Nd  Nd0  1  0.000000  0.396276  0.250000  1
  Nd  Nd1  1  0.000000  0.603724  0.750000  1
  Mg  Mg2  1  0.000000  0.000000  0.000000  1
  Mg  Mg3  1  0.000000  0.000000  0.500000  1
  In  In4  1  0.500000  0.308437  0.555677  1
  In  In5  1  0.500000  0.052144  0.250000  1
  In  In6  1  0.500000  0.947856  0.750000  1
  In  In7  1  0.500000  0.308437  0.944323  1
  In  In8  1  0.500000  0.691563  0.055677  1
  In  In9  1  0.500000  0.691563  0.444323  1
  Ir  Ir10  1  0.000000  0.788670  0.250000  1
  Ir  Ir11  1  0.000000  0.211330  0.750000  1
