# generated using pymatgen
data_K4LiBi2Au
_symmetry_space_group_name_H-M   'P 1'
_cell_length_a   6.88780491
_cell_length_b   6.88780540
_cell_length_c   6.40554186
_cell_angle_alpha   90.71741680
_cell_angle_beta   90.71741876
_cell_angle_gamma   103.32118790
_symmetry_Int_Tables_number   1
_chemical_formula_structural   K4LiBi2Au
_chemical_formula_sum   'K4 Li1 Bi2 Au1'
_cell_volume   295.65400516
_cell_formula_units_Z   1
loop_
 _symmetry_equiv_pos_site_id
 _symmetry_equiv_pos_as_xyz
  1  'x, y, z'
loop_
 _atom_site_type_symbol
 _atom_site_label
 _atom_site_symmetry_multiplicity
 _atom_site_fract_x
 _atom_site_fract_y
 _atom_site_fract_z
 _atom_site_occupancy
  K  K0  1  0.482998  0.824920  0.234986  1
  K  K1  1  0.175080  0.517002  0.765014  1
  K  K2  1  0.517002  0.175080  0.765014  1
  K  K3  1  0.824920  0.482998  0.234986  1
  Li  Li4  1  0.000000  0.000000  0.500000  1
  Bi  Bi5  1  0.266420  0.266420  0.262030  1
  Bi  Bi6  1  0.733580  0.733580  0.737970  1
  Au  Au7  1  0.000000  0.000000  0.000000  1
