# generated using pymatgen
data_Yb2Zn14Co3
_symmetry_space_group_name_H-M   'P 1'
_cell_length_a   6.66868018
_cell_length_b   6.66868119
_cell_length_c   6.66868066
_cell_angle_alpha   97.24662490
_cell_angle_beta   82.75337654
_cell_angle_gamma   97.24663347
_symmetry_Int_Tables_number   1
_chemical_formula_structural   Yb2Zn14Co3
_chemical_formula_sum   'Yb2 Zn14 Co3'
_cell_volume   290.00952568
_cell_formula_units_Z   1
loop_
 _symmetry_equiv_pos_site_id
 _symmetry_equiv_pos_as_xyz
  1  'x, y, z'
loop_
 _atom_site_type_symbol
 _atom_site_label
 _atom_site_symmetry_multiplicity
 _atom_site_fract_x
 _atom_site_fract_y
 _atom_site_fract_z
 _atom_site_occupancy
  Yb  Yb0  1  0.337726  0.662274  0.337727  1
  Yb  Yb1  1  0.662274  0.337726  0.662275  1
  Zn  Zn2  1  0.707846  0.707846  0.000000  1
  Zn  Zn3  1  0.292155  0.292155  0.000000  1
  Zn  Zn4  1  0.107327  0.892672  0.107328  1
  Zn  Zn5  1  0.653620  0.346381  0.143694  1
  Zn  Zn6  1  0.000000  0.292154  0.292154  1
  Zn  Zn7  1  0.707844  0.000000  0.292155  1
  Zn  Zn8  1  0.346380  0.143695  0.346381  1
  Zn  Zn9  1  0.856306  0.653620  0.346381  1
  Zn  Zn10  1  0.143694  0.346381  0.653619  1
  Zn  Zn11  1  0.653620  0.856306  0.653619  1
  Zn  Zn12  1  0.292155  0.000000  0.707845  1
  Zn  Zn13  1  0.000000  0.707845  0.707845  1
  Zn  Zn14  1  0.346380  0.653620  0.856306  1
  Zn  Zn15  1  0.892672  0.107327  0.892673  1
  Co  Co16  1  0.499999  0.000000  0.000001  1
  Co  Co17  1  0.000000  0.500000  0.000000  1
  Co  Co18  1  0.000000  0.000000  0.500000  1
