# generated using pymatgen
data_Tm3Hg5
_symmetry_space_group_name_H-M   'P 1'
_cell_length_a   6.36026959
_cell_length_b   6.36026899
_cell_length_c   9.95551700
_cell_angle_alpha   90.00000000
_cell_angle_beta   90.00000000
_cell_angle_gamma   105.02685831
_symmetry_Int_Tables_number   1
_chemical_formula_structural   Tm3Hg5
_chemical_formula_sum   'Tm6 Hg10'
_cell_volume   388.95915948
_cell_formula_units_Z   2
loop_
 _symmetry_equiv_pos_site_id
 _symmetry_equiv_pos_as_xyz
  1  'x, y, z'
loop_
 _atom_site_type_symbol
 _atom_site_label
 _atom_site_symmetry_multiplicity
 _atom_site_fract_x
 _atom_site_fract_y
 _atom_site_fract_z
 _atom_site_occupancy
  Tm  Tm0  1  0.552952  0.552952  0.250000  1
  Tm  Tm1  1  0.447048  0.447048  0.750000  1
  Tm  Tm2  1  0.218763  0.781237  0.500000  1
  Tm  Tm3  1  0.218763  0.781237  0.000000  1
  Tm  Tm4  1  0.781237  0.218763  0.500000  1
  Tm  Tm5  1  0.781237  0.218763  0.000000  1
  Hg  Hg6  1  0.283749  0.283749  0.026806  1
  Hg  Hg7  1  0.716251  0.716251  0.973194  1
  Hg  Hg8  1  0.283749  0.283749  0.473194  1
  Hg  Hg9  1  0.716251  0.716251  0.526806  1
  Hg  Hg10  1  0.959793  0.959793  0.250000  1
  Hg  Hg11  1  0.040207  0.040207  0.750000  1
  Hg  Hg12  1  0.472201  0.024747  0.250000  1
  Hg  Hg13  1  0.975253  0.527799  0.750000  1
  Hg  Hg14  1  0.527799  0.975253  0.750000  1
  Hg  Hg15  1  0.024747  0.472201  0.250000  1
