# generated using pymatgen
data_HoLu3(NiPt)2
_symmetry_space_group_name_H-M   'P 1'
_cell_length_a   4.32286600
_cell_length_b   5.44956838
_cell_length_c   6.97667000
_cell_angle_alpha   90.12694396
_cell_angle_beta   90.00000000
_cell_angle_gamma   90.00000000
_symmetry_Int_Tables_number   1
_chemical_formula_structural   HoLu3(NiPt)2
_chemical_formula_sum   'Ho1 Lu3 Ni2 Pt2'
_cell_volume   164.35427112
_cell_formula_units_Z   1
loop_
 _symmetry_equiv_pos_site_id
 _symmetry_equiv_pos_as_xyz
  1  'x, y, z'
loop_
 _atom_site_type_symbol
 _atom_site_label
 _atom_site_symmetry_multiplicity
 _atom_site_fract_x
 _atom_site_fract_y
 _atom_site_fract_z
 _atom_site_occupancy
  Ho  Ho0  1  0.250000  0.136451  0.181389  1
  Lu  Lu1  1  0.250000  0.364081  0.680706  1
  Lu  Lu2  1  0.750000  0.633343  0.320594  1
  Lu  Lu3  1  0.750000  0.866885  0.820002  1
  Ni  Ni4  1  0.750000  0.144942  0.463995  1
  Ni  Ni5  1  0.750000  0.357189  0.953838  1
  Pt  Pt6  1  0.250000  0.861040  0.542066  1
  Pt  Pt7  1  0.250000  0.636072  0.037409  1
