# generated using pymatgen
data_Nd4Er2Al24Os5Pt3
_symmetry_space_group_name_H-M   'P 1'
_cell_length_a   8.87488037
_cell_length_b   8.89359636
_cell_length_c   9.63283280
_cell_angle_alpha   90.04624364
_cell_angle_beta   89.84322634
_cell_angle_gamma   119.66599667
_symmetry_Int_Tables_number   1
_chemical_formula_structural   Nd4Er2Al24Os5Pt3
_chemical_formula_sum   'Nd4 Er2 Al24 Os5 Pt3'
_cell_volume   660.65499941
_cell_formula_units_Z   1
loop_
 _symmetry_equiv_pos_site_id
 _symmetry_equiv_pos_as_xyz
  1  'x, y, z'
loop_
 _atom_site_type_symbol
 _atom_site_label
 _atom_site_symmetry_multiplicity
 _atom_site_fract_x
 _atom_site_fract_y
 _atom_site_fract_z
 _atom_site_occupancy
  Nd  Nd0  1  0.187649  0.379634  0.249844  1
  Nd  Nd1  1  0.812351  0.620366  0.750156  1
  Nd  Nd2  1  0.617699  0.813844  0.251700  1
  Nd  Nd3  1  0.382301  0.186156  0.748300  1
  Er  Er4  1  0.197741  0.807577  0.251445  1
  Er  Er5  1  0.802259  0.192423  0.748555  1
  Al  Al6  1  0.334837  0.671460  0.027800  1
  Al  Al7  1  0.665163  0.328540  0.972200  1
  Al  Al8  1  0.669864  0.331206  0.525949  1
  Al  Al9  1  0.330136  0.668794  0.474051  1
  Al  Al10  1  0.156564  0.325506  0.574398  1
  Al  Al11  1  0.843436  0.674494  0.425602  1
  Al  Al12  1  0.673651  0.842388  0.575443  1
  Al  Al13  1  0.838077  0.675736  0.077340  1
  Al  Al14  1  0.326349  0.157612  0.424557  1
  Al  Al15  1  0.161923  0.324264  0.922660  1
  Al  Al16  1  0.164328  0.834466  0.573482  1
  Al  Al17  1  0.325833  0.157287  0.075944  1
  Al  Al18  1  0.835672  0.165534  0.426518  1
  Al  Al19  1  0.674167  0.842713  0.924056  1
  Al  Al20  1  0.831496  0.159869  0.075159  1
  Al  Al21  1  0.168504  0.840131  0.924841  1
  Al  Al22  1  0.560679  0.125297  0.249699  1
  Al  Al23  1  0.439321  0.874703  0.750301  1
  Al  Al24  1  0.874130  0.438119  0.252896  1
  Al  Al25  1  0.125870  0.561881  0.747104  1
  Al  Al26  1  0.563850  0.435352  0.249695  1
  Al  Al27  1  0.436150  0.564648  0.750305  1
  Al  Al28  1  0.001755  0.999928  0.250170  1
  Al  Al29  1  0.998245  0.000072  0.749830  1
  Os  Os30  1  0.500000  0.000000  0.000000  1
  Os  Os31  1  0.500000  0.000000  0.500000  1
  Os  Os32  1  0.000000  0.500000  0.500000  1
  Os  Os33  1  0.000000  0.000000  0.000000  1
  Os  Os34  1  0.000000  0.000000  0.500000  1
  Pt  Pt35  1  0.000000  0.500000  0.000000  1
  Pt  Pt36  1  0.500000  0.500000  0.000000  1
  Pt  Pt37  1  0.500000  0.500000  0.500000  1
