# generated using pymatgen
data_YbEr4Pa3(Pt2Pb)4
_symmetry_space_group_name_H-M   'P 1'
_cell_length_a   7.94139809
_cell_length_b   7.94139774
_cell_length_c   7.17108000
_cell_angle_alpha   90.00000000
_cell_angle_beta   90.00000000
_cell_angle_gamma   90.89842472
_symmetry_Int_Tables_number   1
_chemical_formula_structural   YbEr4Pa3(Pt2Pb)4
_chemical_formula_sum   'Yb1 Er4 Pa3 Pt8 Pb4'
_cell_volume   452.19430519
_cell_formula_units_Z   1
loop_
 _symmetry_equiv_pos_site_id
 _symmetry_equiv_pos_as_xyz
  1  'x, y, z'
loop_
 _atom_site_type_symbol
 _atom_site_label
 _atom_site_symmetry_multiplicity
 _atom_site_fract_x
 _atom_site_fract_y
 _atom_site_fract_z
 _atom_site_occupancy
  Yb  Yb0  1  0.176368  0.823632  0.500000  1
  Er  Er1  1  0.341347  0.344491  0.500000  1
  Er  Er2  1  0.655509  0.658653  0.500000  1
  Er  Er3  1  0.841877  0.158123  0.000000  1
  Er  Er4  1  0.157474  0.842526  0.000000  1
  Pa  Pa5  1  0.679088  0.676023  0.000000  1
  Pa  Pa6  1  0.826731  0.173269  0.500000  1
  Pa  Pa7  1  0.323977  0.320912  0.000000  1
  Pt  Pt8  1  0.864662  0.873433  0.736339  1
  Pt  Pt9  1  0.126567  0.135338  0.736339  1
  Pt  Pt10  1  0.632855  0.367145  0.767389  1
  Pt  Pt11  1  0.632855  0.367145  0.232611  1
  Pt  Pt12  1  0.378673  0.621327  0.218338  1
  Pt  Pt13  1  0.126567  0.135338  0.263661  1
  Pt  Pt14  1  0.864662  0.873433  0.263661  1
  Pt  Pt15  1  0.378673  0.621327  0.781662  1
  Pb  Pb16  1  0.493470  0.997412  0.745929  1
  Pb  Pb17  1  0.493470  0.997412  0.254071  1
  Pb  Pb18  1  0.002588  0.506530  0.745929  1
  Pb  Pb19  1  0.002588  0.506530  0.254071  1
