# generated using pymatgen
data_La4LuSn3
_symmetry_space_group_name_H-M   'P 1'
_cell_length_a   9.42191699
_cell_length_b   9.42191681
_cell_length_c   9.42191643
_cell_angle_alpha   96.30570630
_cell_angle_beta   96.30570660
_cell_angle_gamma   141.29110785
_symmetry_Int_Tables_number   1
_chemical_formula_structural   La4LuSn3
_chemical_formula_sum   'La8 Lu2 Sn6'
_cell_volume   493.49888720
_cell_formula_units_Z   2
loop_
 _symmetry_equiv_pos_site_id
 _symmetry_equiv_pos_as_xyz
  1  'x, y, z'
loop_
 _atom_site_type_symbol
 _atom_site_label
 _atom_site_symmetry_multiplicity
 _atom_site_fract_x
 _atom_site_fract_y
 _atom_site_fract_z
 _atom_site_occupancy
  La  La0  1  0.911423  0.224124  0.135547  1
  La  La1  1  0.224124  0.088577  0.312701  1
  La  La2  1  0.775876  0.911423  0.687299  1
  La  La3  1  0.088577  0.775876  0.864453  1
  La  La4  1  0.724124  0.411423  0.135547  1
  La  La5  1  0.275876  0.588577  0.864453  1
  La  La6  1  0.588577  0.724124  0.312701  1
  La  La7  1  0.411423  0.275876  0.687299  1
  Lu  Lu8  1  0.750000  0.250000  0.500000  1
  Lu  Lu9  1  0.250000  0.750000  0.500000  1
  Sn  Sn10  1  0.750000  0.750000  0.000000  1
  Sn  Sn11  1  0.250000  0.250000  0.000000  1
  Sn  Sn12  1  0.846803  0.653197  0.500000  1
  Sn  Sn13  1  0.653197  0.153197  0.806395  1
  Sn  Sn14  1  0.346803  0.846803  0.193605  1
  Sn  Sn15  1  0.153197  0.346803  0.500000  1
