# generated using pymatgen
data_SrRh2F12
_symmetry_space_group_name_H-M   'P 1'
_cell_length_a   5.49974404
_cell_length_b   5.52963443
_cell_length_c   9.56245160
_cell_angle_alpha   97.19220090
_cell_angle_beta   96.54247485
_cell_angle_gamma   118.84943522
_symmetry_Int_Tables_number   1
_chemical_formula_structural   SrRh2F12
_chemical_formula_sum   'Sr1 Rh2 F12'
_cell_volume   247.57440168
_cell_formula_units_Z   1
loop_
 _symmetry_equiv_pos_site_id
 _symmetry_equiv_pos_as_xyz
  1  'x, y, z'
loop_
 _atom_site_type_symbol
 _atom_site_label
 _atom_site_symmetry_multiplicity
 _atom_site_fract_x
 _atom_site_fract_y
 _atom_site_fract_z
 _atom_site_occupancy
  Sr  Sr0  1  0.004016  0.976613  0.926623  1
  Rh  Rh1  1  0.221974  0.506153  0.605136  1
  Rh  Rh2  1  0.374113  0.687234  0.120713  1
  F  F3  1  0.245803  0.920644  0.207125  1
  F  F4  1  0.576321  0.660846  0.739956  1
  F  F5  1  0.038457  0.539736  0.970065  1
  F  F6  1  0.157879  0.375309  0.204136  1
  F  F7  1  0.475047  0.444351  0.006383  1
  F  F8  1  0.311425  0.264715  0.498276  1
  F  F9  1  0.699807  0.827266  0.261620  1
  F  F10  1  0.142956  0.760430  0.722496  1
  F  F11  1  0.873764  0.355366  0.480832  1
  F  F12  1  0.046470  0.228083  0.720279  1
  F  F13  1  0.399718  0.783903  0.500030  1
  F  F14  1  0.580248  0.979353  0.014329  1
