# generated using pymatgen
data_Ho20FeBi8Ru3
_symmetry_space_group_name_H-M   'P 1'
_cell_length_a   7.93977795
_cell_length_b   8.98404000
_cell_length_c   12.38963908
_cell_angle_alpha   90.00000000
_cell_angle_beta   90.14039856
_cell_angle_gamma   90.00000000
_symmetry_Int_Tables_number   1
_chemical_formula_structural   Ho20FeBi8Ru3
_chemical_formula_sum   'Ho20 Fe1 Bi8 Ru3'
_cell_volume   883.76619417
_cell_formula_units_Z   1
loop_
 _symmetry_equiv_pos_site_id
 _symmetry_equiv_pos_as_xyz
  1  'x, y, z'
loop_
 _atom_site_type_symbol
 _atom_site_label
 _atom_site_symmetry_multiplicity
 _atom_site_fract_x
 _atom_site_fract_y
 _atom_site_fract_z
 _atom_site_occupancy
  Ho  Ho0  1  0.343276  0.750000  0.707197  1
  Ho  Ho1  1  0.657410  0.250000  0.292444  1
  Ho  Ho2  1  0.843039  0.250000  0.792551  1
  Ho  Ho3  1  0.154583  0.750000  0.201350  1
  Ho  Ho4  1  0.883565  0.750000  0.812146  1
  Ho  Ho5  1  0.121239  0.250000  0.191767  1
  Ho  Ho6  1  0.379045  0.250000  0.692213  1
  Ho  Ho7  1  0.620767  0.750000  0.308252  1
  Ho  Ho8  1  0.675750  0.542268  0.564818  1
  Ho  Ho9  1  0.324716  0.457764  0.435665  1
  Ho  Ho10  1  0.173389  0.464124  0.937892  1
  Ho  Ho11  1  0.324716  0.042236  0.435665  1
  Ho  Ho12  1  0.824618  0.543825  0.063373  1
  Ho  Ho13  1  0.675750  0.957732  0.564818  1
  Ho  Ho14  1  0.824618  0.956175  0.063373  1
  Ho  Ho15  1  0.173389  0.035876  0.937892  1
  Ho  Ho16  1  0.055315  0.750000  0.495215  1
  Ho  Ho17  1  0.945862  0.250000  0.503790  1
  Ho  Ho18  1  0.554154  0.250000  0.003672  1
  Ho  Ho19  1  0.442712  0.750000  0.995896  1
  Fe  Fe20  1  0.072295  0.750000  0.989890  1
  Bi  Bi21  1  0.570879  0.508078  0.828141  1
  Bi  Bi22  1  0.429461  0.492599  0.172085  1
  Bi  Bi23  1  0.070724  0.492696  0.672561  1
  Bi  Bi24  1  0.429461  0.007401  0.172085  1
  Bi  Bi25  1  0.929822  0.507985  0.326910  1
  Bi  Bi26  1  0.570879  0.991922  0.828141  1
  Bi  Bi27  1  0.929822  0.992015  0.326910  1
  Bi  Bi28  1  0.070724  0.007304  0.672561  1
  Ru  Ru29  1  0.926644  0.250000  0.010146  1
  Ru  Ru30  1  0.574784  0.250000  0.510632  1
  Ru  Ru31  1  0.426589  0.750000  0.489944  1
