# generated using pymatgen
data_Pr2Pa(InPt)3
_symmetry_space_group_name_H-M   'P 1'
_cell_length_a   7.77979200
_cell_length_b   7.72685053
_cell_length_c   4.04864400
_cell_angle_alpha   90.00000000
_cell_angle_beta   90.00000000
_cell_angle_gamma   120.22690987
_symmetry_Int_Tables_number   1
_chemical_formula_structural   Pr2Pa(InPt)3
_chemical_formula_sum   'Pr2 Pa1 In3 Pt3'
_cell_volume   210.28735565
_cell_formula_units_Z   1
loop_
 _symmetry_equiv_pos_site_id
 _symmetry_equiv_pos_as_xyz
  1  'x, y, z'
loop_
 _atom_site_type_symbol
 _atom_site_label
 _atom_site_symmetry_multiplicity
 _atom_site_fract_x
 _atom_site_fract_y
 _atom_site_fract_z
 _atom_site_occupancy
  Pr  Pr0  1  0.001407  0.591946  0.000000  1
  Pr  Pr1  1  0.409461  0.408054  0.000000  1
  Pa  Pa2  1  0.587327  0.000000  0.000000  1
  In  In3  1  0.242357  0.000000  0.500000  1
  In  In4  1  0.008551  0.260988  0.500000  1
  In  In5  1  0.747563  0.739012  0.500000  1
  Pt  Pt6  1  0.362578  0.700917  0.500000  1
  Pt  Pt7  1  0.661663  0.299083  0.500000  1
  Pt  Pt8  1  0.979092  0.000000  0.000000  1
