# generated using pymatgen
data_YEr(Si2Ni9)2
_symmetry_space_group_name_H-M   'P 1'
_cell_length_a   7.54704557
_cell_length_b   7.54772468
_cell_length_c   7.54704390
_cell_angle_alpha   99.59589667
_cell_angle_beta   99.56179757
_cell_angle_gamma   131.84482859
_symmetry_Int_Tables_number   1
_chemical_formula_structural   YEr(Si2Ni9)2
_chemical_formula_sum   'Y1 Er1 Si4 Ni18'
_cell_volume   292.40640721
_cell_formula_units_Z   1
loop_
 _symmetry_equiv_pos_site_id
 _symmetry_equiv_pos_as_xyz
  1  'x, y, z'
loop_
 _atom_site_type_symbol
 _atom_site_label
 _atom_site_symmetry_multiplicity
 _atom_site_fract_x
 _atom_site_fract_y
 _atom_site_fract_z
 _atom_site_occupancy
  Y  Y0  1  0.749963  0.249847  0.499884  1
  Er  Er1  1  0.499992  0.500127  0.000135  1
  Si  Si2  1  0.625070  0.874996  0.750135  1
  Si  Si3  1  0.125059  0.374922  0.249863  1
  Si  Si4  1  0.125085  0.875179  0.750093  1
  Si  Si5  1  0.124860  0.874996  0.249926  1
  Ni  Ni6  1  0.250000  0.749987  0.499987  1
  Ni  Ni7  1  0.999997  0.000004  0.000007  1
  Ni  Ni8  1  0.686215  0.012140  0.078714  1
  Ni  Ni9  1  0.686210  0.607506  0.674041  1
  Ni  Ni10  1  0.262962  0.436325  0.579042  1
  Ni  Ni11  1  0.262930  0.683859  0.826652  1
  Ni  Ni12  1  0.933426  0.012140  0.325926  1
  Ni  Ni13  1  0.933463  0.607506  0.921296  1
  Ni  Ni14  1  0.857285  0.436325  0.173363  1
  Ni  Ni15  1  0.857209  0.683859  0.420929  1
  Ni  Ni16  1  0.563681  0.737047  0.420915  1
  Ni  Ni17  1  0.563722  0.142782  0.826660  1
  Ni  Ni18  1  0.987870  0.313798  0.921307  1
  Ni  Ni19  1  0.987785  0.066512  0.674040  1
  Ni  Ni20  1  0.316132  0.737047  0.173366  1
  Ni  Ni21  1  0.316123  0.142782  0.579061  1
  Ni  Ni22  1  0.392491  0.313798  0.325929  1
  Ni  Ni23  1  0.392471  0.066512  0.078727  1
