# generated using pymatgen
data_Ho2ZrReF14
_symmetry_space_group_name_H-M   'P 1'
_cell_length_a   5.64626800
_cell_length_b   8.96181590
_cell_length_c   12.11962137
_cell_angle_alpha   62.73933427
_cell_angle_beta   90.00000000
_cell_angle_gamma   90.00000000
_symmetry_Int_Tables_number   1
_chemical_formula_structural   Ho2ZrReF14
_chemical_formula_sum   'Ho4 Zr2 Re2 F28'
_cell_volume   545.14878148
_cell_formula_units_Z   2
loop_
 _symmetry_equiv_pos_site_id
 _symmetry_equiv_pos_as_xyz
  1  'x, y, z'
loop_
 _atom_site_type_symbol
 _atom_site_label
 _atom_site_symmetry_multiplicity
 _atom_site_fract_x
 _atom_site_fract_y
 _atom_site_fract_z
 _atom_site_occupancy
  Ho  Ho0  1  0.757391  0.815850  0.767315  1
  Ho  Ho1  1  0.257391  0.184150  0.732685  1
  Ho  Ho2  1  0.242314  0.186315  0.237044  1
  Ho  Ho3  1  0.742314  0.813685  0.262956  1
  Zr  Zr4  1  0.755897  0.272843  0.957514  1
  Zr  Zr5  1  0.255897  0.727157  0.542486  1
  Re  Re6  1  0.241427  0.726185  0.044416  1
  Re  Re7  1  0.741427  0.273815  0.455584  1
  F  F8  1  0.440911  0.705754  0.917465  1
  F  F9  1  0.940911  0.294246  0.582535  1
  F  F10  1  0.540315  0.289610  0.085155  1
  F  F11  1  0.040315  0.710390  0.414845  1
  F  F12  1  0.444852  0.275084  0.544846  1
  F  F13  1  0.944852  0.724916  0.955154  1
  F  F14  1  0.558581  0.723960  0.449994  1
  F  F15  1  0.058581  0.276040  0.050006  1
  F  F16  1  0.773599  0.527623  0.860665  1
  F  F17  1  0.273599  0.472377  0.639335  1
  F  F18  1  0.223614  0.478424  0.143176  1
  F  F19  1  0.723614  0.521576  0.356824  1
  F  F20  1  0.758593  0.018704  0.058058  1
  F  F21  1  0.258593  0.981296  0.441942  1
  F  F22  1  0.246105  0.973477  0.947235  1
  F  F23  1  0.746105  0.026523  0.552765  1
  F  F24  1  0.975356  0.731937  0.646896  1
  F  F25  1  0.475356  0.268063  0.853104  1
  F  F26  1  0.027017  0.274097  0.360219  1
  F  F27  1  0.527017  0.725903  0.139781  1
  F  F28  1  0.048754  0.745299  0.174844  1
  F  F29  1  0.548754  0.254701  0.325156  1
  F  F30  1  0.964212  0.250376  0.826621  1
  F  F31  1  0.464212  0.749624  0.673379  1
  F  F32  1  0.423542  0.971806  0.234448  1
  F  F33  1  0.923542  0.028194  0.265552  1
  F  F34  1  0.577523  0.029195  0.766831  1
  F  F35  1  0.077523  0.970805  0.733169  1
