# generated using pymatgen
data_TmSc2Al8(SiOs)4
_symmetry_space_group_name_H-M   'P 1'
_cell_length_a   8.60683911
_cell_length_b   8.60683954
_cell_length_c   9.33616500
_cell_angle_alpha   90.00000000
_cell_angle_beta   90.00000000
_cell_angle_gamma   120.07807764
_symmetry_Int_Tables_number   1
_chemical_formula_structural   TmSc2Al8(SiOs)4
_chemical_formula_sum   'Tm2 Sc4 Al16 Si8 Os8'
_cell_volume   598.47266254
_cell_formula_units_Z   2
loop_
 _symmetry_equiv_pos_site_id
 _symmetry_equiv_pos_as_xyz
  1  'x, y, z'
loop_
 _atom_site_type_symbol
 _atom_site_label
 _atom_site_symmetry_multiplicity
 _atom_site_fract_x
 _atom_site_fract_y
 _atom_site_fract_z
 _atom_site_occupancy
  Tm  Tm0  1  0.193680  0.806320  0.250000  1
  Tm  Tm1  1  0.806320  0.193680  0.750000  1
  Sc  Sc2  1  0.194080  0.392116  0.250000  1
  Sc  Sc3  1  0.805920  0.607884  0.750000  1
  Sc  Sc4  1  0.607884  0.805920  0.250000  1
  Sc  Sc5  1  0.392116  0.194080  0.750000  1
  Al  Al6  1  0.166197  0.329169  0.578235  1
  Al  Al7  1  0.833803  0.670831  0.421765  1
  Al  Al8  1  0.670831  0.833803  0.578235  1
  Al  Al9  1  0.833803  0.670831  0.078235  1
  Al  Al10  1  0.329169  0.166197  0.421765  1
  Al  Al11  1  0.166197  0.329169  0.921765  1
  Al  Al12  1  0.164287  0.835713  0.580652  1
  Al  Al13  1  0.329169  0.166197  0.078235  1
  Al  Al14  1  0.835713  0.164287  0.419348  1
  Al  Al15  1  0.670831  0.833803  0.921765  1
  Al  Al16  1  0.835713  0.164287  0.080652  1
  Al  Al17  1  0.164287  0.835713  0.919348  1
  Al  Al18  1  0.562610  0.437390  0.250000  1
  Al  Al19  1  0.437390  0.562610  0.750000  1
  Al  Al20  1  0.996098  0.003902  0.250000  1
  Al  Al21  1  0.003902  0.996098  0.750000  1
  Si  Si22  1  0.335670  0.664330  0.046755  1
  Si  Si23  1  0.664330  0.335670  0.953245  1
  Si  Si24  1  0.664330  0.335670  0.546755  1
  Si  Si25  1  0.335670  0.664330  0.453245  1
  Si  Si26  1  0.564799  0.124010  0.250000  1
  Si  Si27  1  0.435201  0.875990  0.750000  1
  Si  Si28  1  0.875990  0.435201  0.250000  1
  Si  Si29  1  0.124010  0.564799  0.750000  1
  Os  Os30  1  0.500000  0.000000  0.000000  1
  Os  Os31  1  0.000000  0.500000  0.000000  1
  Os  Os32  1  0.500000  0.000000  0.500000  1
  Os  Os33  1  0.500000  0.500000  0.000000  1
  Os  Os34  1  0.000000  0.500000  0.500000  1
  Os  Os35  1  0.500000  0.500000  0.500000  1
  Os  Os36  1  0.000000  0.000000  0.000000  1
  Os  Os37  1  0.000000  0.000000  0.500000  1
