# generated using pymatgen
data_Be8AlCrRu2
_symmetry_space_group_name_H-M   'P 1'
_cell_length_a   4.29970500
_cell_length_b   4.29970682
_cell_length_c   7.04311400
_cell_angle_alpha   90.00000000
_cell_angle_beta   90.00000000
_cell_angle_gamma   120.00000904
_symmetry_Int_Tables_number   1
_chemical_formula_structural   Be8AlCrRu2
_chemical_formula_sum   'Be8 Al1 Cr1 Ru2'
_cell_volume   112.76460794
_cell_formula_units_Z   1
loop_
 _symmetry_equiv_pos_site_id
 _symmetry_equiv_pos_as_xyz
  1  'x, y, z'
loop_
 _atom_site_type_symbol
 _atom_site_label
 _atom_site_symmetry_multiplicity
 _atom_site_fract_x
 _atom_site_fract_y
 _atom_site_fract_z
 _atom_site_occupancy
  Be  Be0  1  0.167132  0.334262  0.745523  1
  Be  Be1  1  0.167132  0.832868  0.745523  1
  Be  Be2  1  0.340659  0.170330  0.253852  1
  Be  Be3  1  0.829670  0.659341  0.253852  1
  Be  Be4  1  0.000000  0.000000  0.998785  1
  Be  Be5  1  0.665738  0.832868  0.745523  1
  Be  Be6  1  0.829670  0.170330  0.253852  1
  Be  Be7  1  0.000000  0.000000  0.497852  1
  Al  Al8  1  0.333333  0.666667  0.064688  1
  Cr  Cr9  1  0.666667  0.333333  0.565158  1
  Ru  Ru10  1  0.333333  0.666667  0.443631  1
  Ru  Ru11  1  0.666667  0.333333  0.931759  1
