# generated using pymatgen
data_Zn6SiRu12W5
_symmetry_space_group_name_H-M   'P 1'
_cell_length_a   4.32158600
_cell_length_b   6.11610600
_cell_length_c   12.92819300
_cell_angle_alpha   89.99994481
_cell_angle_beta   89.99919900
_cell_angle_gamma   90.00168775
_symmetry_Int_Tables_number   1
_chemical_formula_structural   Zn6SiRu12W5
_chemical_formula_sum   'Zn6 Si1 Ru12 W5'
_cell_volume   341.70866396
_cell_formula_units_Z   1
loop_
 _symmetry_equiv_pos_site_id
 _symmetry_equiv_pos_as_xyz
  1  'x, y, z'
loop_
 _atom_site_type_symbol
 _atom_site_label
 _atom_site_symmetry_multiplicity
 _atom_site_fract_x
 _atom_site_fract_y
 _atom_site_fract_z
 _atom_site_occupancy
  Zn  Zn0  1  0.999998  0.499999  0.999997  1
  Zn  Zn1  1  0.499965  0.999996  0.170948  1
  Zn  Zn2  1  0.999811  0.500000  0.328813  1
  Zn  Zn3  1  0.499998  0.000000  0.500002  1
  Zn  Zn4  1  0.000191  0.499998  0.671190  1
  Zn  Zn5  1  0.500030  0.000004  0.829047  1
  Si  Si6  1  0.999998  0.000000  0.000004  1
  Ru  Ru7  1  0.500151  0.237034  0.999998  1
  Ru  Ru8  1  0.499849  0.762968  0.999997  1
  Ru  Ru9  1  0.999832  0.243391  0.162096  1
  Ru  Ru10  1  0.000056  0.756608  0.162094  1
  Ru  Ru11  1  0.499902  0.251868  0.333254  1
  Ru  Ru12  1  0.499736  0.748134  0.333258  1
  Ru  Ru13  1  0.999958  0.250981  0.500000  1
  Ru  Ru14  1  0.000039  0.749018  0.500002  1
  Ru  Ru15  1  0.500270  0.251867  0.666743  1
  Ru  Ru16  1  0.500100  0.748134  0.666747  1
  Ru  Ru17  1  0.999946  0.243386  0.837904  1
  Ru  Ru18  1  0.000167  0.756611  0.837904  1
  W  W19  1  0.499863  0.500000  0.159565  1
  W  W20  1  0.999751  0.000000  0.330489  1
  W  W21  1  0.499999  0.499999  0.500001  1
  W  W22  1  0.000254  0.999999  0.669517  1
  W  W23  1  0.500134  0.500000  0.840435  1
