# generated using pymatgen
data_La2Pr2Ga7(GeRh2)3
_symmetry_space_group_name_H-M   'P 1'
_cell_length_a   8.69200422
_cell_length_b   8.72156902
_cell_length_c   8.72156954
_cell_angle_alpha   140.88073553
_cell_angle_beta   108.17809323
_cell_angle_gamma   85.00645492
_symmetry_Int_Tables_number   1
_chemical_formula_structural   La2Pr2Ga7(GeRh2)3
_chemical_formula_sum   'La2 Pr2 Ga7 Ge3 Rh6'
_cell_volume   382.85560573
_cell_formula_units_Z   1
loop_
 _symmetry_equiv_pos_site_id
 _symmetry_equiv_pos_as_xyz
  1  'x, y, z'
loop_
 _atom_site_type_symbol
 _atom_site_label
 _atom_site_symmetry_multiplicity
 _atom_site_fract_x
 _atom_site_fract_y
 _atom_site_fract_z
 _atom_site_occupancy
  La  La0  1  0.094319  0.365857  0.728461  1
  La  La1  1  0.909194  0.637493  0.271701  1
  Pr  Pr2  1  0.361156  0.130986  0.230170  1
  Pr  Pr3  1  0.637267  0.864584  0.772684  1
  Ga  Ga4  1  0.998517  0.250957  0.248522  1
  Ga  Ga5  1  0.998517  0.749997  0.747561  1
  Ga  Ga6  1  0.713651  0.965449  0.249852  1
  Ga  Ga7  1  0.287920  0.537702  0.253948  1
  Ga  Ga8  1  0.287920  0.033973  0.750218  1
  Ga  Ga9  1  0.713651  0.463798  0.748200  1
  Ga  Ga10  1  0.571742  0.406795  0.164947  1
  Ge  Ge11  1  0.238561  0.902237  0.336324  1
  Ge  Ge12  1  0.756883  0.092915  0.663968  1
  Ge  Ge13  1  0.431896  0.595212  0.836683  1
  Rh  Rh14  1  0.956423  0.857531  0.098893  1
  Rh  Rh15  1  0.498229  0.752431  0.249538  1
  Rh  Rh16  1  0.757144  0.356046  0.401099  1
  Rh  Rh17  1  0.244616  0.642524  0.602090  1
  Rh  Rh18  1  0.044165  0.144823  0.899342  1
  Rh  Rh19  1  0.498229  0.248691  0.745798  1
