# generated using pymatgen
data_Pa14Pt19Rh
_symmetry_space_group_name_H-M   'P 1'
_cell_length_a   8.56309887
_cell_length_b   8.55301195
_cell_length_c   10.14410204
_cell_angle_alpha   90.10224168
_cell_angle_beta   89.86090981
_cell_angle_gamma   107.53908157
_symmetry_Int_Tables_number   1
_chemical_formula_structural   Pa14Pt19Rh
_chemical_formula_sum   'Pa14 Pt19 Rh1'
_cell_volume   708.41555747
_cell_formula_units_Z   1
loop_
 _symmetry_equiv_pos_site_id
 _symmetry_equiv_pos_as_xyz
  1  'x, y, z'
loop_
 _atom_site_type_symbol
 _atom_site_label
 _atom_site_symmetry_multiplicity
 _atom_site_fract_x
 _atom_site_fract_y
 _atom_site_fract_z
 _atom_site_occupancy
  Pa  Pa0  1  0.688309  0.311254  0.000081  1
  Pa  Pa1  1  0.311376  0.688382  0.000185  1
  Pa  Pa2  1  0.811929  0.187747  0.497770  1
  Pa  Pa3  1  0.188443  0.811720  0.499223  1
  Pa  Pa4  1  0.998124  0.001354  0.003524  1
  Pa  Pa5  1  0.500329  0.500411  0.499572  1
  Pa  Pa6  1  0.995674  0.492896  0.249358  1
  Pa  Pa7  1  0.001489  0.502320  0.749197  1
  Pa  Pa8  1  0.501431  0.002577  0.749895  1
  Pa  Pa9  1  0.502777  0.998156  0.249104  1
  Pa  Pa10  1  0.308927  0.309092  0.189979  1
  Pa  Pa11  1  0.691149  0.690737  0.810266  1
  Pa  Pa12  1  0.190055  0.190884  0.690330  1
  Pa  Pa13  1  0.810612  0.813236  0.308706  1
  Pt  Pt14  1  0.148760  0.859985  0.791918  1
  Pt  Pt15  1  0.649837  0.359406  0.708781  1
  Pt  Pt16  1  0.640901  0.350312  0.290468  1
  Pt  Pt17  1  0.349727  0.640221  0.290962  1
  Pt  Pt18  1  0.358872  0.649591  0.709118  1
  Pt  Pt19  1  0.859142  0.149331  0.790881  1
  Pt  Pt20  1  0.142273  0.849594  0.209367  1
  Pt  Pt21  1  0.935698  0.644511  0.996158  1
  Pt  Pt22  1  0.064270  0.355690  0.003813  1
  Pt  Pt23  1  0.563948  0.855490  0.496811  1
  Pt  Pt24  1  0.144393  0.436053  0.504080  1
  Pt  Pt25  1  0.435136  0.143974  0.504083  1
  Pt  Pt26  1  0.856130  0.565013  0.494815  1
  Pt  Pt27  1  0.355393  0.064534  0.004478  1
  Pt  Pt28  1  0.644527  0.936587  0.995775  1
  Pt  Pt29  1  0.104268  0.104897  0.395339  1
  Pt  Pt30  1  0.896506  0.896441  0.603319  1
  Pt  Pt31  1  0.396878  0.396555  0.896503  1
  Pt  Pt32  1  0.603568  0.604274  0.103709  1
  Rh  Rh33  1  0.849148  0.136776  0.212433  1
