# generated using pymatgen
data_Pu3CrO12
_symmetry_space_group_name_H-M   'P 1'
_cell_length_a   5.52006599
_cell_length_b   5.57076511
_cell_length_c   7.87617030
_cell_angle_alpha   93.42030437
_cell_angle_beta   88.95632414
_cell_angle_gamma   90.08552357
_symmetry_Int_Tables_number   1
_chemical_formula_structural   Pu3CrO12
_chemical_formula_sum   'Pu3 Cr1 O12'
_cell_volume   241.72849392
_cell_formula_units_Z   1
loop_
 _symmetry_equiv_pos_site_id
 _symmetry_equiv_pos_as_xyz
  1  'x, y, z'
loop_
 _atom_site_type_symbol
 _atom_site_label
 _atom_site_symmetry_multiplicity
 _atom_site_fract_x
 _atom_site_fract_y
 _atom_site_fract_z
 _atom_site_occupancy
  Pu  Pu0  1  0.999648  0.006233  0.996796  1
  Pu  Pu1  1  0.000261  0.007496  0.496491  1
  Pu  Pu2  1  0.499770  0.506499  0.996676  1
  Cr  Cr3  1  0.500171  0.507547  0.496603  1
  O  O4  1  0.251158  0.240176  0.465586  1
  O  O5  1  0.108093  0.031062  0.770940  1
  O  O6  1  0.346227  0.802403  0.050829  1
  O  O7  1  0.233789  0.753737  0.466896  1
  O  O8  1  0.850775  0.708096  0.938107  1
  O  O9  1  0.438966  0.526965  0.757457  1
  O  O10  1  0.561117  0.486381  0.235794  1
  O  O11  1  0.148850  0.304409  0.055399  1
  O  O12  1  0.766860  0.261479  0.526092  1
  O  O13  1  0.653518  0.210374  0.942029  1
  O  O14  1  0.891529  0.981802  0.222065  1
  O  O15  1  0.749267  0.774940  0.527441  1
