# generated using pymatgen
data_Er3Mn(Co4P3)2
_symmetry_space_group_name_H-M   'P 1'
_cell_length_a   3.67096100
_cell_length_b   10.50242800
_cell_length_c   12.14119900
_cell_angle_alpha   90.00000000
_cell_angle_beta   90.00000000
_cell_angle_gamma   90.00000000
_symmetry_Int_Tables_number   1
_chemical_formula_structural   Er3Mn(Co4P3)2
_chemical_formula_sum   'Er6 Mn2 Co16 P12'
_cell_volume   468.09182987
_cell_formula_units_Z   2
loop_
 _symmetry_equiv_pos_site_id
 _symmetry_equiv_pos_as_xyz
  1  'x, y, z'
loop_
 _atom_site_type_symbol
 _atom_site_label
 _atom_site_symmetry_multiplicity
 _atom_site_fract_x
 _atom_site_fract_y
 _atom_site_fract_z
 _atom_site_occupancy
  Er  Er0  1  0.750000  0.250000  0.477172  1
  Er  Er1  1  0.250000  0.750000  0.522828  1
  Er  Er2  1  0.250000  0.931568  0.794537  1
  Er  Er3  1  0.250000  0.568432  0.794537  1
  Er  Er4  1  0.750000  0.068432  0.205463  1
  Er  Er5  1  0.750000  0.431568  0.205463  1
  Mn  Mn6  1  0.250000  0.250000  0.841047  1
  Mn  Mn7  1  0.750000  0.750000  0.158953  1
  Co  Co8  1  0.250000  0.250000  0.297549  1
  Co  Co9  1  0.750000  0.750000  0.702451  1
  Co  Co10  1  0.750000  0.250000  0.013872  1
  Co  Co11  1  0.250000  0.750000  0.986128  1
  Co  Co12  1  0.250000  0.416984  0.006352  1
  Co  Co13  1  0.250000  0.083016  0.006352  1
  Co  Co14  1  0.750000  0.583016  0.993648  1
  Co  Co15  1  0.750000  0.916984  0.993648  1
  Co  Co16  1  0.250000  0.453072  0.569290  1
  Co  Co17  1  0.250000  0.046928  0.569290  1
  Co  Co18  1  0.750000  0.546928  0.430710  1
  Co  Co19  1  0.750000  0.953072  0.430710  1
  Co  Co20  1  0.250000  0.870930  0.291160  1
  Co  Co21  1  0.250000  0.629070  0.291160  1
  Co  Co22  1  0.750000  0.129070  0.708840  1
  Co  Co23  1  0.750000  0.370930  0.708840  1
  P  P24  1  0.250000  0.250000  0.118075  1
  P  P25  1  0.750000  0.750000  0.881925  1
  P  P26  1  0.250000  0.250000  0.654450  1
  P  P27  1  0.750000  0.750000  0.345550  1
  P  P28  1  0.250000  0.438092  0.383739  1
  P  P29  1  0.250000  0.061908  0.383739  1
  P  P30  1  0.750000  0.561908  0.616261  1
  P  P31  1  0.750000  0.938092  0.616261  1
  P  P32  1  0.250000  0.902730  0.107918  1
  P  P33  1  0.250000  0.597270  0.107918  1
  P  P34  1  0.750000  0.097270  0.892082  1
  P  P35  1  0.750000  0.402730  0.892082  1
