# generated using pymatgen
data_Tb2Si7Rh12
_symmetry_space_group_name_H-M   'P 1'
_cell_length_a   3.87360305
_cell_length_b   9.74922153
_cell_length_c   9.74777093
_cell_angle_alpha   120.07119905
_cell_angle_beta   90.01859617
_cell_angle_gamma   89.95591732
_symmetry_Int_Tables_number   1
_chemical_formula_structural   Tb2Si7Rh12
_chemical_formula_sum   'Tb2 Si7 Rh12'
_cell_volume   318.57290702
_cell_formula_units_Z   1
loop_
 _symmetry_equiv_pos_site_id
 _symmetry_equiv_pos_as_xyz
  1  'x, y, z'
loop_
 _atom_site_type_symbol
 _atom_site_label
 _atom_site_symmetry_multiplicity
 _atom_site_fract_x
 _atom_site_fract_y
 _atom_site_fract_z
 _atom_site_occupancy
  Tb  Tb0  1  0.250403  0.666816  0.333275  1
  Tb  Tb1  1  0.749597  0.333184  0.666725  1
  Si  Si2  1  0.500000  0.000000  0.000000  1
  Si  Si3  1  0.751354  0.889917  0.599901  1
  Si  Si4  1  0.751393  0.400003  0.290105  1
  Si  Si5  1  0.751365  0.710184  0.110212  1
  Si  Si6  1  0.248646  0.110083  0.400099  1
  Si  Si7  1  0.248607  0.599997  0.709895  1
  Si  Si8  1  0.248635  0.289816  0.889788  1
  Rh  Rh9  1  0.744919  0.118769  0.857302  1
  Rh  Rh10  1  0.744052  0.142635  0.261702  1
  Rh  Rh11  1  0.744695  0.737683  0.881123  1
  Rh  Rh12  1  0.255081  0.881231  0.142698  1
  Rh  Rh13  1  0.255948  0.857365  0.738298  1
  Rh  Rh14  1  0.255305  0.262317  0.118877  1
  Rh  Rh15  1  0.751581  0.619479  0.556653  1
  Rh  Rh16  1  0.751930  0.443994  0.063377  1
  Rh  Rh17  1  0.752147  0.935952  0.380189  1
  Rh  Rh18  1  0.248419  0.380521  0.443347  1
  Rh  Rh19  1  0.248070  0.556006  0.936623  1
  Rh  Rh20  1  0.247853  0.064048  0.619811  1
