# generated using pymatgen
data_Y2Ho18Cd6OsRu
_symmetry_space_group_name_H-M   'P 1'
_cell_length_a   9.56786300
_cell_length_b   9.56786340
_cell_length_c   9.83233500
_cell_angle_alpha   90.00000000
_cell_angle_beta   90.00000000
_cell_angle_gamma   119.99670957
_symmetry_Int_Tables_number   1
_chemical_formula_structural   Y2Ho18Cd6OsRu
_chemical_formula_sum   'Y2 Ho18 Cd6 Os1 Ru1'
_cell_volume   779.52780795
_cell_formula_units_Z   1
loop_
 _symmetry_equiv_pos_site_id
 _symmetry_equiv_pos_as_xyz
  1  'x, y, z'
loop_
 _atom_site_type_symbol
 _atom_site_label
 _atom_site_symmetry_multiplicity
 _atom_site_fract_x
 _atom_site_fract_y
 _atom_site_fract_z
 _atom_site_occupancy
  Y  Y0  1  0.539822  0.079967  0.250000  1
  Y  Y1  1  0.920033  0.460178  0.250000  1
  Ho  Ho2  1  0.000032  0.999968  0.499687  1
  Ho  Ho3  1  0.000032  0.999968  0.000313  1
  Ho  Ho4  1  0.209814  0.790186  0.440691  1
  Ho  Ho5  1  0.210096  0.419778  0.440751  1
  Ho  Ho6  1  0.580222  0.789904  0.440751  1
  Ho  Ho7  1  0.790159  0.209841  0.560180  1
  Ho  Ho8  1  0.789885  0.580080  0.559949  1
  Ho  Ho9  1  0.419920  0.210115  0.559949  1
  Ho  Ho10  1  0.790159  0.209841  0.939820  1
  Ho  Ho11  1  0.789885  0.580080  0.940051  1
  Ho  Ho12  1  0.419920  0.210115  0.940051  1
  Ho  Ho13  1  0.209814  0.790186  0.059309  1
  Ho  Ho14  1  0.210096  0.419778  0.059249  1
  Ho  Ho15  1  0.580222  0.789904  0.059249  1
  Ho  Ho16  1  0.539699  0.460301  0.250000  1
  Ho  Ho17  1  0.458832  0.541168  0.750000  1
  Ho  Ho18  1  0.458845  0.917546  0.750000  1
  Ho  Ho19  1  0.082454  0.541155  0.750000  1
  Cd  Cd20  1  0.885453  0.114547  0.250000  1
  Cd  Cd21  1  0.885371  0.770756  0.250000  1
  Cd  Cd22  1  0.229244  0.114629  0.250000  1
  Cd  Cd23  1  0.114724  0.885276  0.750000  1
  Cd  Cd24  1  0.114580  0.229390  0.750000  1
  Cd  Cd25  1  0.770610  0.885420  0.750000  1
  Os  Os26  1  0.333494  0.666506  0.250000  1
  Ru  Ru27  1  0.666582  0.333418  0.750000  1
