# generated using pymatgen
data_KNdHo2(SbAu)4
_symmetry_space_group_name_H-M   'P 1'
_cell_length_a   4.63356600
_cell_length_b   4.63356612
_cell_length_c   17.34138900
_cell_angle_alpha   90.00000000
_cell_angle_beta   90.00000000
_cell_angle_gamma   119.99999917
_symmetry_Int_Tables_number   1
_chemical_formula_structural   KNdHo2(SbAu)4
_chemical_formula_sum   'K1 Nd1 Ho2 Sb4 Au4'
_cell_volume   322.43726854
_cell_formula_units_Z   1
loop_
 _symmetry_equiv_pos_site_id
 _symmetry_equiv_pos_as_xyz
  1  'x, y, z'
loop_
 _atom_site_type_symbol
 _atom_site_label
 _atom_site_symmetry_multiplicity
 _atom_site_fract_x
 _atom_site_fract_y
 _atom_site_fract_z
 _atom_site_occupancy
  K  K0  1  0.000000  0.000000  0.251156  1
  Nd  Nd1  1  0.000000  0.000000  0.986280  1
  Ho  Ho2  1  0.000000  0.000000  0.511549  1
  Ho  Ho3  1  0.000000  0.000000  0.746952  1
  Sb  Sb4  1  0.333333  0.666667  0.390521  1
  Sb  Sb5  1  0.666667  0.333333  0.613972  1
  Sb  Sb6  1  0.666667  0.333333  0.878845  1
  Sb  Sb7  1  0.333333  0.666667  0.110954  1
  Au  Au8  1  0.666667  0.333333  0.429186  1
  Au  Au9  1  0.333333  0.666667  0.666494  1
  Au  Au10  1  0.333333  0.666667  0.832061  1
  Au  Au11  1  0.666667  0.333333  0.082030  1
