# generated using pymatgen
data_LiTh6Mg6Cd16P
_symmetry_space_group_name_H-M   'P 1'
_cell_length_a   10.00207831
_cell_length_b   10.00207754
_cell_length_c   10.00207900
_cell_angle_alpha   59.99999848
_cell_angle_beta   60.00000104
_cell_angle_gamma   60.00000004
_symmetry_Int_Tables_number   1
_chemical_formula_structural   LiTh6Mg6Cd16P
_chemical_formula_sum   'Li1 Th6 Mg6 Cd16 P1'
_cell_volume   707.54774104
_cell_formula_units_Z   1
loop_
 _symmetry_equiv_pos_site_id
 _symmetry_equiv_pos_as_xyz
  1  'x, y, z'
loop_
 _atom_site_type_symbol
 _atom_site_label
 _atom_site_symmetry_multiplicity
 _atom_site_fract_x
 _atom_site_fract_y
 _atom_site_fract_z
 _atom_site_occupancy
  Li  Li0  1  0.500000  0.500000  0.500000  1
  Th  Th1  1  0.797870  0.797870  0.202130  1
  Th  Th2  1  0.202130  0.797870  0.202130  1
  Th  Th3  1  0.797870  0.202130  0.202130  1
  Th  Th4  1  0.202130  0.202130  0.797870  1
  Th  Th5  1  0.797870  0.202130  0.797870  1
  Th  Th6  1  0.202130  0.797870  0.797870  1
  Mg  Mg7  1  0.000000  0.000000  0.500000  1
  Mg  Mg8  1  0.500000  0.000000  0.500000  1
  Mg  Mg9  1  0.000000  0.500000  0.500000  1
  Mg  Mg10  1  0.500000  0.500000  0.000000  1
  Mg  Mg11  1  0.000000  0.500000  0.000000  1
  Mg  Mg12  1  0.500000  0.000000  0.000000  1
  Cd  Cd13  1  0.832228  0.832228  0.503317  1
  Cd  Cd14  1  0.832228  0.503317  0.832228  1
  Cd  Cd15  1  0.503317  0.832228  0.832228  1
  Cd  Cd16  1  0.832228  0.832228  0.832228  1
  Cd  Cd17  1  0.167772  0.167772  0.496683  1
  Cd  Cd18  1  0.167772  0.496683  0.167772  1
  Cd  Cd19  1  0.496683  0.167772  0.167772  1
  Cd  Cd20  1  0.167772  0.167772  0.167772  1
  Cd  Cd21  1  0.618113  0.618113  0.145660  1
  Cd  Cd22  1  0.618113  0.145660  0.618113  1
  Cd  Cd23  1  0.145660  0.618113  0.618113  1
  Cd  Cd24  1  0.618113  0.618113  0.618113  1
  Cd  Cd25  1  0.381887  0.381887  0.854340  1
  Cd  Cd26  1  0.381887  0.854340  0.381887  1
  Cd  Cd27  1  0.854340  0.381887  0.381887  1
  Cd  Cd28  1  0.381887  0.381887  0.381887  1
  P  P29  1  0.000000  0.000000  0.000000  1
