# generated using pymatgen
data_TbZr2(AlFe2)3
_symmetry_space_group_name_H-M   'P 1'
_cell_length_a   8.58287545
_cell_length_b   8.58287524
_cell_length_c   8.58287593
_cell_angle_alpha   34.56676727
_cell_angle_beta   34.56677060
_cell_angle_gamma   34.56677062
_symmetry_Int_Tables_number   1
_chemical_formula_structural   TbZr2(AlFe2)3
_chemical_formula_sum   'Tb1 Zr2 Al3 Fe6'
_cell_volume   181.59303544
_cell_formula_units_Z   1
loop_
 _symmetry_equiv_pos_site_id
 _symmetry_equiv_pos_as_xyz
  1  'x, y, z'
loop_
 _atom_site_type_symbol
 _atom_site_label
 _atom_site_symmetry_multiplicity
 _atom_site_fract_x
 _atom_site_fract_y
 _atom_site_fract_z
 _atom_site_occupancy
  Tb  Tb0  1  0.000000  0.000000  0.000000  1
  Zr  Zr1  1  0.140694  0.140694  0.140694  1
  Zr  Zr2  1  0.859306  0.859306  0.859306  1
  Al  Al3  1  0.500000  0.500000  0.500000  1
  Al  Al4  1  0.334586  0.334586  0.334586  1
  Al  Al5  1  0.665414  0.665414  0.665414  1
  Fe  Fe6  1  0.074598  0.589570  0.589570  1
  Fe  Fe7  1  0.589570  0.589570  0.074598  1
  Fe  Fe8  1  0.589570  0.074598  0.589570  1
  Fe  Fe9  1  0.410430  0.925402  0.410430  1
  Fe  Fe10  1  0.925402  0.410430  0.410430  1
  Fe  Fe11  1  0.410430  0.410430  0.925402  1
