# generated using pymatgen
data_Eu4Cr2SbWO14
_symmetry_space_group_name_H-M   'P 1'
_cell_length_a   7.37484113
_cell_length_b   7.35841311
_cell_length_c   7.47376893
_cell_angle_alpha   90.01383804
_cell_angle_beta   60.00140611
_cell_angle_gamma   119.96619037
_symmetry_Int_Tables_number   1
_chemical_formula_structural   Eu4Cr2SbWO14
_chemical_formula_sum   'Eu4 Cr2 Sb1 W1 O14'
_cell_volume   286.97547005
_cell_formula_units_Z   1
loop_
 _symmetry_equiv_pos_site_id
 _symmetry_equiv_pos_as_xyz
  1  'x, y, z'
loop_
 _atom_site_type_symbol
 _atom_site_label
 _atom_site_symmetry_multiplicity
 _atom_site_fract_x
 _atom_site_fract_y
 _atom_site_fract_z
 _atom_site_occupancy
  Eu  Eu0  1  0.500018  0.500013  0.000023  1
  Eu  Eu1  1  0.499993  0.000000  0.999989  1
  Eu  Eu2  1  0.999984  0.999998  0.499996  1
  Eu  Eu3  1  0.000023  0.999991  0.999976  1
  Cr  Cr4  1  0.499972  0.999957  0.500043  1
  Cr  Cr5  1  0.500031  0.499994  0.499953  1
  Sb  Sb6  1  0.999996  0.500004  0.500008  1
  W  W7  1  0.999994  0.499953  0.000011  1
  O  O8  1  0.253326  0.126739  0.122056  1
  O  O9  1  0.746684  0.873291  0.877935  1
  O  O10  1  0.668245  0.834158  0.414105  1
  O  O11  1  0.855375  0.427642  0.826902  1
  O  O12  1  0.244376  0.812527  0.826035  1
  O  O13  1  0.252511  0.426626  0.414751  1
  O  O14  1  0.244268  0.431850  0.826015  1
  O  O15  1  0.252717  0.825988  0.414612  1
  O  O16  1  0.331741  0.165827  0.585896  1
  O  O17  1  0.144631  0.572374  0.173098  1
  O  O18  1  0.755575  0.187478  0.174037  1
  O  O19  1  0.747489  0.573376  0.585235  1
  O  O20  1  0.755785  0.568203  0.173914  1
  O  O21  1  0.747267  0.174009  0.585409  1
