# generated using pymatgen
data_Li3Dy5P12Ir15Rh
_symmetry_space_group_name_H-M   'P 1'
_cell_length_a   12.69555556
_cell_length_b   12.71343238
_cell_length_c   3.97821900
_cell_angle_alpha   90.00000000
_cell_angle_beta   90.00000000
_cell_angle_gamma   119.98755348
_symmetry_Int_Tables_number   1
_chemical_formula_structural   Li3Dy5P12Ir15Rh
_chemical_formula_sum   'Li3 Dy5 P12 Ir15 Rh1'
_cell_volume   556.14533963
_cell_formula_units_Z   1
loop_
 _symmetry_equiv_pos_site_id
 _symmetry_equiv_pos_as_xyz
  1  'x, y, z'
loop_
 _atom_site_type_symbol
 _atom_site_label
 _atom_site_symmetry_multiplicity
 _atom_site_fract_x
 _atom_site_fract_y
 _atom_site_fract_z
 _atom_site_occupancy
  Li  Li0  1  0.000005  0.442025  0.500000  1
  Li  Li1  1  0.558026  0.558237  0.500000  1
  Li  Li2  1  0.442018  0.000028  0.500000  1
  Dy  Dy3  1  0.333465  0.666641  0.500000  1
  Dy  Dy4  1  0.666585  0.333427  0.500000  1
  Dy  Dy5  1  0.999828  0.809215  0.000000  1
  Dy  Dy6  1  0.190991  0.190985  0.000000  1
  Dy  Dy7  1  0.809000  0.999795  0.000000  1
  P  P8  1  0.999924  0.629915  0.500000  1
  P  P9  1  0.370074  0.369909  0.500000  1
  P  P10  1  0.629728  0.000279  0.500000  1
  P  P11  1  0.516960  0.687664  0.000000  1
  P  P12  1  0.312796  0.829156  0.000000  1
  P  P13  1  0.170939  0.483657  0.000000  1
  P  P14  1  0.483562  0.170857  0.000000  1
  P  P15  1  0.687174  0.516490  0.000000  1
  P  P16  1  0.829084  0.312801  0.000000  1
  P  P17  1  0.000167  0.179722  0.500000  1
  P  P18  1  0.820171  0.820095  0.500000  1
  P  P19  1  0.179609  0.999998  0.500000  1
  Ir  Ir20  1  0.510220  0.868479  0.000000  1
  Ir  Ir21  1  0.131543  0.641262  0.000000  1
  Ir  Ir22  1  0.358986  0.490617  0.000000  1
  Ir  Ir23  1  0.490159  0.358646  0.000000  1
  Ir  Ir24  1  0.868652  0.509732  0.000000  1
  Ir  Ir25  1  0.641418  0.131281  0.000000  1
  Ir  Ir26  1  0.999995  0.280306  0.000000  1
  Ir  Ir27  1  0.719420  0.719791  0.000000  1
  Ir  Ir28  1  0.280292  0.999880  0.000000  1
  Ir  Ir29  1  0.192930  0.819702  0.500000  1
  Ir  Ir30  1  0.180304  0.373104  0.500000  1
  Ir  Ir31  1  0.372962  0.180169  0.500000  1
  Ir  Ir32  1  0.807060  0.626808  0.500000  1
  Ir  Ir33  1  0.819730  0.192974  0.500000  1
  Ir  Ir34  1  0.999996  0.000256  0.500000  1
  Rh  Rh35  1  0.626224  0.806095  0.500000  1
