# generated using pymatgen
data_Tb2Y2Sn4Sb2Rh7
_symmetry_space_group_name_H-M   'P 1'
_cell_length_a   7.62632624
_cell_length_b   7.62445258
_cell_length_c   7.62519080
_cell_angle_alpha   109.33045120
_cell_angle_beta   109.53641647
_cell_angle_gamma   109.53242503
_symmetry_Int_Tables_number   1
_chemical_formula_structural   Tb2Y2Sn4Sb2Rh7
_chemical_formula_sum   'Tb2 Y2 Sn4 Sb2 Rh7'
_cell_volume   341.37246499
_cell_formula_units_Z   1
loop_
 _symmetry_equiv_pos_site_id
 _symmetry_equiv_pos_as_xyz
  1  'x, y, z'
loop_
 _atom_site_type_symbol
 _atom_site_label
 _atom_site_symmetry_multiplicity
 _atom_site_fract_x
 _atom_site_fract_y
 _atom_site_fract_z
 _atom_site_occupancy
  Tb  Tb0  1  0.997799  0.998904  0.498912  1
  Tb  Tb1  1  0.492185  0.493644  0.493638  1
  Y  Y2  1  0.492237  0.998587  0.998595  1
  Y  Y3  1  0.997871  0.498946  0.998941  1
  Sn  Sn4  1  0.994190  0.314626  0.314377  1
  Sn  Sn5  1  0.686940  0.997441  0.690090  1
  Sn  Sn6  1  0.686968  0.689804  0.997143  1
  Sn  Sn7  1  0.994739  0.679844  0.680101  1
  Sb  Sb8  1  0.319656  0.997434  0.321696  1
  Sb  Sb9  1  0.319652  0.321919  0.997660  1
  Rh  Rh10  1  0.015197  0.007571  0.007573  1
  Rh  Rh11  1  0.502388  0.751220  0.251192  1
  Rh  Rh12  1  0.748418  0.501322  0.247115  1
  Rh  Rh13  1  0.250455  0.749093  0.501298  1
  Rh  Rh14  1  0.250463  0.501349  0.749160  1
  Rh  Rh15  1  0.502420  0.251228  0.751238  1
  Rh  Rh16  1  0.748422  0.247069  0.501273  1
