# generated using pymatgen
data_Pr3Bi(AuO5)2
_symmetry_space_group_name_H-M   'P 1'
_cell_length_a   8.74764330
_cell_length_b   8.74764232
_cell_length_c   5.87458800
_cell_angle_alpha   88.82662955
_cell_angle_beta   91.17337032
_cell_angle_gamma   90.02025438
_symmetry_Int_Tables_number   1
_chemical_formula_structural   Pr3Bi(AuO5)2
_chemical_formula_sum   'Pr6 Bi2 Au4 O20'
_cell_volume   449.34233859
_cell_formula_units_Z   2
loop_
 _symmetry_equiv_pos_site_id
 _symmetry_equiv_pos_as_xyz
  1  'x, y, z'
loop_
 _atom_site_type_symbol
 _atom_site_label
 _atom_site_symmetry_multiplicity
 _atom_site_fract_x
 _atom_site_fract_y
 _atom_site_fract_z
 _atom_site_occupancy
  Pr  Pr0  1  0.348202  0.651608  0.247143  1
  Pr  Pr1  1  0.848392  0.151798  0.747143  1
  Pr  Pr2  1  0.651356  0.651356  0.750000  1
  Pr  Pr3  1  0.651608  0.348202  0.252857  1
  Pr  Pr4  1  0.848644  0.848644  0.250000  1
  Pr  Pr5  1  0.151798  0.848392  0.752857  1
  Bi  Bi6  1  0.354788  0.354788  0.750000  1
  Bi  Bi7  1  0.145212  0.145212  0.250000  1
  Au  Au8  1  0.491368  0.999450  0.400624  1
  Au  Au9  1  0.500550  0.008632  0.900624  1
  Au  Au10  1  0.999450  0.491368  0.099376  1
  Au  Au11  1  0.008632  0.500550  0.599376  1
  O  O12  1  0.110530  0.294487  0.601219  1
  O  O13  1  0.917599  0.277444  0.127036  1
  O  O14  1  0.915823  0.713099  0.611388  1
  O  O15  1  0.713099  0.915823  0.888612  1
  O  O16  1  0.222556  0.582401  0.627036  1
  O  O17  1  0.412486  0.794673  0.895501  1
  O  O18  1  0.389470  0.205513  0.398781  1
  O  O19  1  0.786901  0.584177  0.111388  1
  O  O20  1  0.277444  0.917599  0.372964  1
  O  O21  1  0.582401  0.222556  0.872964  1
  O  O22  1  0.483906  0.493725  0.991307  1
  O  O23  1  0.493725  0.483906  0.508693  1
  O  O24  1  0.794673  0.412486  0.604499  1
  O  O25  1  0.087514  0.705327  0.104499  1
  O  O26  1  0.294487  0.110530  0.898781  1
  O  O27  1  0.584177  0.786901  0.388612  1
  O  O28  1  0.205513  0.389470  0.101219  1
  O  O29  1  0.016094  0.006275  0.008693  1
  O  O30  1  0.006275  0.016094  0.491307  1
  O  O31  1  0.705327  0.087514  0.395501  1
