# generated using pymatgen
data_Nd8Al2IrRu
_symmetry_space_group_name_H-M   'P 1'
_cell_length_a   9.86463795
_cell_length_b   9.86463742
_cell_length_c   9.84644100
_cell_angle_alpha   60.06100387
_cell_angle_beta   60.06100565
_cell_angle_gamma   60.03728852
_symmetry_Int_Tables_number   1
_chemical_formula_structural   Nd8Al2IrRu
_chemical_formula_sum   'Nd16 Al4 Ir2 Ru2'
_cell_volume   678.34225196
_cell_formula_units_Z   2
loop_
 _symmetry_equiv_pos_site_id
 _symmetry_equiv_pos_as_xyz
  1  'x, y, z'
loop_
 _atom_site_type_symbol
 _atom_site_label
 _atom_site_symmetry_multiplicity
 _atom_site_fract_x
 _atom_site_fract_y
 _atom_site_fract_z
 _atom_site_occupancy
  Nd  Nd0  1  0.349958  0.349958  0.350401  1
  Nd  Nd1  1  0.349958  0.349958  0.949682  1
  Nd  Nd2  1  0.347977  0.951284  0.350369  1
  Nd  Nd3  1  0.951284  0.347977  0.350369  1
  Nd  Nd4  1  0.807040  0.193988  0.195161  1
  Nd  Nd5  1  0.193988  0.807040  0.803811  1
  Nd  Nd6  1  0.193988  0.807040  0.195161  1
  Nd  Nd7  1  0.807040  0.193988  0.803811  1
  Nd  Nd8  1  0.193840  0.193840  0.806160  1
  Nd  Nd9  1  0.804861  0.804861  0.195139  1
  Nd  Nd10  1  0.938724  0.561012  0.561811  1
  Nd  Nd11  1  0.561012  0.938724  0.938452  1
  Nd  Nd12  1  0.561012  0.938724  0.561811  1
  Nd  Nd13  1  0.938724  0.561012  0.938452  1
  Nd  Nd14  1  0.562522  0.562522  0.937478  1
  Nd  Nd15  1  0.936828  0.936828  0.563172  1
  Al  Al16  1  0.574809  0.574809  0.573024  1
  Al  Al17  1  0.574809  0.574809  0.277357  1
  Al  Al18  1  0.574737  0.276650  0.574306  1
  Al  Al19  1  0.276650  0.574737  0.574306  1
  Ir  Ir20  1  0.142024  0.578197  0.139889  1
  Ir  Ir21  1  0.578197  0.142024  0.139889  1
  Ru  Ru22  1  0.140007  0.140007  0.136529  1
  Ru  Ru23  1  0.140007  0.140007  0.583457  1
