# generated using pymatgen
data_Sc4ReI4
_symmetry_space_group_name_H-M   'P 1'
_cell_length_a   15.81032700
_cell_length_b   15.81032700
_cell_length_c   5.58575700
_cell_angle_alpha   90.00000000
_cell_angle_beta   90.00000000
_cell_angle_gamma   90.00000000
_symmetry_Int_Tables_number   1
_chemical_formula_structural   Sc4ReI4
_chemical_formula_sum   'Sc16 Re4 I16'
_cell_volume   1396.25179114
_cell_formula_units_Z   4
loop_
 _symmetry_equiv_pos_site_id
 _symmetry_equiv_pos_as_xyz
  1  'x, y, z'
loop_
 _atom_site_type_symbol
 _atom_site_label
 _atom_site_symmetry_multiplicity
 _atom_site_fract_x
 _atom_site_fract_y
 _atom_site_fract_z
 _atom_site_occupancy
  Sc  Sc0  1  0.137925  0.057516  0.000857  1
  Sc  Sc1  1  0.557516  0.362075  0.000857  1
  Sc  Sc2  1  0.442484  0.637925  0.000857  1
  Sc  Sc3  1  0.862075  0.942485  0.000857  1
  Sc  Sc4  1  0.057516  0.137925  0.499144  1
  Sc  Sc5  1  0.637925  0.442484  0.499144  1
  Sc  Sc6  1  0.362075  0.557516  0.499144  1
  Sc  Sc7  1  0.942485  0.862075  0.499144  1
  Sc  Sc8  1  0.862075  0.057516  0.500856  1
  Sc  Sc9  1  0.442484  0.362075  0.500856  1
  Sc  Sc10  1  0.557516  0.637925  0.500856  1
  Sc  Sc11  1  0.137925  0.942485  0.500856  1
  Sc  Sc12  1  0.942485  0.137925  0.999143  1
  Sc  Sc13  1  0.362075  0.442484  0.999143  1
  Sc  Sc14  1  0.637925  0.557516  0.999143  1
  Sc  Sc15  1  0.057516  0.862075  0.999143  1
  Re  Re16  1  0.000000  0.000000  0.250000  1
  Re  Re17  1  0.500000  0.500000  0.250000  1
  Re  Re18  1  0.000000  0.000000  0.749999  1
  Re  Re19  1  0.500000  0.500000  0.749999  1
  I  I20  1  0.100254  0.246548  0.013540  1
  I  I21  1  0.746548  0.399746  0.013540  1
  I  I22  1  0.253453  0.600254  0.013540  1
  I  I23  1  0.899746  0.753453  0.013540  1
  I  I24  1  0.246548  0.100254  0.486459  1
  I  I25  1  0.600254  0.253453  0.486459  1
  I  I26  1  0.399746  0.746548  0.486459  1
  I  I27  1  0.753453  0.899746  0.486459  1
  I  I28  1  0.899746  0.246548  0.513541  1
  I  I29  1  0.253453  0.399746  0.513541  1
  I  I30  1  0.746548  0.600254  0.513541  1
  I  I31  1  0.100254  0.753453  0.513541  1
  I  I32  1  0.753453  0.100254  0.986460  1
  I  I33  1  0.399746  0.253453  0.986460  1
  I  I34  1  0.600254  0.746548  0.986460  1
  I  I35  1  0.246548  0.899746  0.986460  1
