# generated using pymatgen
data_Ba4TiFe2WO12
_symmetry_space_group_name_H-M   'P 1'
_cell_length_a   10.00965077
_cell_length_b   10.00965117
_cell_length_c   10.00965255
_cell_angle_alpha   33.47193836
_cell_angle_beta   33.47193607
_cell_angle_gamma   33.47194197
_symmetry_Int_Tables_number   1
_chemical_formula_structural   Ba4TiFe2WO12
_chemical_formula_sum   'Ba4 Ti1 Fe2 W1 O12'
_cell_volume   271.69074477
_cell_formula_units_Z   1
loop_
 _symmetry_equiv_pos_site_id
 _symmetry_equiv_pos_as_xyz
  1  'x, y, z'
loop_
 _atom_site_type_symbol
 _atom_site_label
 _atom_site_symmetry_multiplicity
 _atom_site_fract_x
 _atom_site_fract_y
 _atom_site_fract_z
 _atom_site_occupancy
  Ba  Ba0  1  0.622550  0.622550  0.622550  1
  Ba  Ba1  1  0.127001  0.127001  0.127001  1
  Ba  Ba2  1  0.872999  0.872999  0.872999  1
  Ba  Ba3  1  0.377450  0.377450  0.377450  1
  Ti  Ti4  1  0.500000  0.500000  0.500000  1
  Fe  Fe5  1  0.245960  0.245960  0.245960  1
  Fe  Fe6  1  0.754040  0.754040  0.754040  1
  W  W7  1  0.000000  0.000000  0.000000  1
  O  O8  1  0.121491  0.121491  0.637509  1
  O  O9  1  0.622235  0.622235  0.130995  1
  O  O10  1  0.377765  0.869005  0.377765  1
  O  O11  1  0.878509  0.362491  0.878509  1
  O  O12  1  0.637509  0.121491  0.121491  1
  O  O13  1  0.130995  0.622235  0.622235  1
  O  O14  1  0.377765  0.377765  0.869005  1
  O  O15  1  0.878509  0.878509  0.362491  1
  O  O16  1  0.121491  0.637509  0.121491  1
  O  O17  1  0.622235  0.130995  0.622235  1
  O  O18  1  0.869005  0.377765  0.377765  1
  O  O19  1  0.362491  0.878509  0.878509  1
