# generated using pymatgen
data_TmLu9Ru4
_symmetry_space_group_name_H-M   'P 1'
_cell_length_a   6.18678750
_cell_length_b   7.20790441
_cell_length_c   8.26670935
_cell_angle_alpha   96.97498397
_cell_angle_beta   112.00872187
_cell_angle_gamma   89.96354716
_symmetry_Int_Tables_number   1
_chemical_formula_structural   TmLu9Ru4
_chemical_formula_sum   'Tm1 Lu9 Ru4'
_cell_volume   338.84657606
_cell_formula_units_Z   1
loop_
 _symmetry_equiv_pos_site_id
 _symmetry_equiv_pos_as_xyz
  1  'x, y, z'
loop_
 _atom_site_type_symbol
 _atom_site_label
 _atom_site_symmetry_multiplicity
 _atom_site_fract_x
 _atom_site_fract_y
 _atom_site_fract_z
 _atom_site_occupancy
  Tm  Tm0  1  0.523473  0.083655  0.814168  1
  Lu  Lu1  1  0.476841  0.916063  0.185687  1
  Lu  Lu2  1  0.708319  0.415790  0.185730  1
  Lu  Lu3  1  0.291325  0.584146  0.814844  1
  Lu  Lu4  1  0.295144  0.316693  0.434862  1
  Lu  Lu5  1  0.704905  0.683661  0.564863  1
  Lu  Lu6  1  0.860431  0.183547  0.564536  1
  Lu  Lu7  1  0.139610  0.815801  0.434892  1
  Lu  Lu8  1  0.081518  0.250568  0.000367  1
  Lu  Lu9  1  0.918957  0.749262  0.000193  1
  Ru  Ru10  1  0.323728  0.578186  0.220046  1
  Ru  Ru11  1  0.677285  0.422997  0.779394  1
  Ru  Ru12  1  0.101087  0.923258  0.780194  1
  Ru  Ru13  1  0.897376  0.076373  0.220225  1
