# generated using pymatgen
data_Ca2TbHo(FeO3)4
_symmetry_space_group_name_H-M   'P 1'
_cell_length_a   5.36080530
_cell_length_b   5.57480009
_cell_length_c   7.63786815
_cell_angle_alpha   89.99937428
_cell_angle_beta   89.99781692
_cell_angle_gamma   89.79632926
_symmetry_Int_Tables_number   1
_chemical_formula_structural   Ca2TbHo(FeO3)4
_chemical_formula_sum   'Ca2 Tb1 Ho1 Fe4 O12'
_cell_volume   228.25943881
_cell_formula_units_Z   1
loop_
 _symmetry_equiv_pos_site_id
 _symmetry_equiv_pos_as_xyz
  1  'x, y, z'
loop_
 _atom_site_type_symbol
 _atom_site_label
 _atom_site_symmetry_multiplicity
 _atom_site_fract_x
 _atom_site_fract_y
 _atom_site_fract_z
 _atom_site_occupancy
  Ca  Ca0  1  0.986223  0.055426  0.749956  1
  Ca  Ca1  1  0.014266  0.944323  0.250082  1
  Tb  Tb2  1  0.485300  0.437854  0.249974  1
  Ho  Ho3  1  0.515063  0.564957  0.750011  1
  Fe  Fe4  1  0.000025  0.499823  0.999161  1
  Fe  Fe5  1  0.000101  0.499736  0.500824  1
  Fe  Fe6  1  0.499748  0.000212  0.500255  1
  Fe  Fe7  1  0.499942  0.000147  0.999642  1
  O  O8  1  0.409242  0.966494  0.749997  1
  O  O9  1  0.903072  0.525268  0.250005  1
  O  O10  1  0.102386  0.474223  0.750001  1
  O  O11  1  0.590702  0.030703  0.249995  1
  O  O12  1  0.209306  0.208823  0.052119  1
  O  O13  1  0.209330  0.208822  0.448007  1
  O  O14  1  0.694947  0.306225  0.952055  1
  O  O15  1  0.789232  0.789879  0.553187  1
  O  O16  1  0.303342  0.695555  0.454738  1
  O  O17  1  0.789312  0.789893  0.946733  1
  O  O18  1  0.695035  0.306119  0.548027  1
  O  O19  1  0.303426  0.695514  0.045225  1
