# generated using pymatgen
data_Sm8Si(PdPt11)2
_symmetry_space_group_name_H-M   'P 1'
_cell_length_a   8.42352100
_cell_length_b   8.42745400
_cell_length_c   8.45085600
_cell_angle_alpha   90.00000000
_cell_angle_beta   90.00000000
_cell_angle_gamma   90.00000000
_symmetry_Int_Tables_number   1
_chemical_formula_structural   Sm8Si(PdPt11)2
_chemical_formula_sum   'Sm8 Si1 Pd2 Pt22'
_cell_volume   599.91642849
_cell_formula_units_Z   1
loop_
 _symmetry_equiv_pos_site_id
 _symmetry_equiv_pos_as_xyz
  1  'x, y, z'
loop_
 _atom_site_type_symbol
 _atom_site_label
 _atom_site_symmetry_multiplicity
 _atom_site_fract_x
 _atom_site_fract_y
 _atom_site_fract_z
 _atom_site_occupancy
  Sm  Sm0  1  0.252775  0.252926  0.252853  1
  Sm  Sm1  1  0.747225  0.747074  0.747147  1
  Sm  Sm2  1  0.747225  0.747074  0.252853  1
  Sm  Sm3  1  0.747225  0.252926  0.747147  1
  Sm  Sm4  1  0.252775  0.252926  0.747147  1
  Sm  Sm5  1  0.252775  0.747074  0.252853  1
  Sm  Sm6  1  0.252775  0.747074  0.747147  1
  Sm  Sm7  1  0.747225  0.252926  0.252853  1
  Si  Si8  1  0.000000  0.000000  0.000000  1
  Pd  Pd9  1  0.000000  0.500000  0.257865  1
  Pd  Pd10  1  0.000000  0.500000  0.742135  1
  Pt  Pt11  1  0.257385  0.500000  0.000000  1
  Pt  Pt12  1  0.742615  0.500000  0.000000  1
  Pt  Pt13  1  0.000000  0.258269  0.500000  1
  Pt  Pt14  1  0.500000  0.257999  0.000000  1
  Pt  Pt15  1  0.000000  0.741731  0.500000  1
  Pt  Pt16  1  0.500000  0.742001  0.000000  1
  Pt  Pt17  1  0.500000  0.000000  0.257540  1
  Pt  Pt18  1  0.257597  0.000000  0.500000  1
  Pt  Pt19  1  0.500000  0.000000  0.742460  1
  Pt  Pt20  1  0.742403  0.000000  0.500000  1
  Pt  Pt21  1  0.251574  0.500000  0.500000  1
  Pt  Pt22  1  0.748426  0.500000  0.500000  1
  Pt  Pt23  1  0.500000  0.252178  0.500000  1
  Pt  Pt24  1  0.500000  0.747822  0.500000  1
  Pt  Pt25  1  0.500000  0.500000  0.251956  1
  Pt  Pt26  1  0.500000  0.500000  0.748044  1
  Pt  Pt27  1  0.281679  0.000000  0.000000  1
  Pt  Pt28  1  0.718321  0.000000  0.000000  1
  Pt  Pt29  1  0.000000  0.282297  0.000000  1
  Pt  Pt30  1  0.000000  0.717703  0.000000  1
  Pt  Pt31  1  0.000000  0.000000  0.281833  1
  Pt  Pt32  1  0.000000  0.000000  0.718167  1
