# generated using pymatgen
data_Ho3Er13In4NiRh3
_symmetry_space_group_name_H-M   'P 1'
_cell_length_a   9.55430501
_cell_length_b   9.56483048
_cell_length_c   9.55433500
_cell_angle_alpha   60.03628828
_cell_angle_beta   59.99989270
_cell_angle_gamma   59.99257099
_symmetry_Int_Tables_number   1
_chemical_formula_structural   Ho3Er13In4NiRh3
_chemical_formula_sum   'Ho3 Er13 In4 Ni1 Rh3'
_cell_volume   617.52714644
_cell_formula_units_Z   1
loop_
 _symmetry_equiv_pos_site_id
 _symmetry_equiv_pos_as_xyz
  1  'x, y, z'
loop_
 _atom_site_type_symbol
 _atom_site_label
 _atom_site_symmetry_multiplicity
 _atom_site_fract_x
 _atom_site_fract_y
 _atom_site_fract_z
 _atom_site_occupancy
  Ho  Ho0  1  0.187457  0.190249  0.811147  1
  Ho  Ho1  1  0.438228  0.061269  0.061882  1
  Ho  Ho2  1  0.438228  0.061269  0.438622  1
  Er  Er3  1  0.062498  0.438418  0.062366  1
  Er  Er4  1  0.649137  0.050676  0.650094  1
  Er  Er5  1  0.189347  0.811064  0.810748  1
  Er  Er6  1  0.061226  0.060784  0.438996  1
  Er  Er7  1  0.811057  0.190698  0.187125  1
  Er  Er8  1  0.810870  0.811138  0.188996  1
  Er  Er9  1  0.652154  0.648279  0.046426  1
  Er  Er10  1  0.652154  0.648279  0.653140  1
  Er  Er11  1  0.062498  0.438418  0.436719  1
  Er  Er12  1  0.047579  0.647934  0.652243  1
  Er  Er13  1  0.811057  0.190698  0.811121  1
  Er  Er14  1  0.436313  0.438734  0.062477  1
  Er  Er15  1  0.189347  0.811064  0.188840  1
  In  In16  1  0.417463  0.746973  0.417781  1
  In  In17  1  0.416201  0.418256  0.749740  1
  In  In18  1  0.749228  0.418066  0.416353  1
  In  In19  1  0.416201  0.418256  0.415803  1
  Ni  Ni20  1  0.857913  0.426418  0.857835  1
  Rh  Rh21  1  0.858230  0.857845  0.426798  1
  Rh  Rh22  1  0.427387  0.857367  0.857623  1
  Rh  Rh23  1  0.858230  0.857845  0.857128  1
