# generated using pymatgen
data_Sc4Sn2B4Ir7Rh3
_symmetry_space_group_name_H-M   'P 1'
_cell_length_a   9.41503109
_cell_length_b   9.43296409
_cell_length_c   3.22412000
_cell_angle_alpha   90.00000000
_cell_angle_beta   90.00000000
_cell_angle_gamma   90.01617224
_symmetry_Int_Tables_number   1
_chemical_formula_structural   Sc4Sn2B4Ir7Rh3
_chemical_formula_sum   'Sc4 Sn2 B4 Ir7 Rh3'
_cell_volume   286.33940640
_cell_formula_units_Z   1
loop_
 _symmetry_equiv_pos_site_id
 _symmetry_equiv_pos_as_xyz
  1  'x, y, z'
loop_
 _atom_site_type_symbol
 _atom_site_label
 _atom_site_symmetry_multiplicity
 _atom_site_fract_x
 _atom_site_fract_y
 _atom_site_fract_z
 _atom_site_occupancy
  Sc  Sc0  1  0.825221  0.324068  0.000000  1
  Sc  Sc1  1  0.323689  0.174732  0.000000  1
  Sc  Sc2  1  0.675456  0.824324  0.000000  1
  Sc  Sc3  1  0.175249  0.675393  0.000000  1
  Sn  Sn4  1  0.999986  0.000204  0.000000  1
  Sn  Sn5  1  0.500846  0.497727  0.000000  1
  B  B6  1  0.622233  0.119633  0.000000  1
  B  B7  1  0.119522  0.377755  0.000000  1
  B  B8  1  0.880297  0.622550  0.000000  1
  B  B9  1  0.378620  0.878143  0.000000  1
  Ir  Ir10  1  0.072670  0.223759  0.500000  1
  Ir  Ir11  1  0.222569  0.928858  0.500000  1
  Ir  Ir12  1  0.777038  0.072689  0.500000  1
  Ir  Ir13  1  0.927570  0.776682  0.500000  1
  Ir  Ir14  1  0.428063  0.722748  0.500000  1
  Ir  Ir15  1  0.500140  0.001093  0.500000  1
  Ir  Ir16  1  0.999338  0.499934  0.500000  1
  Rh  Rh17  1  0.571961  0.278302  0.500000  1
  Rh  Rh18  1  0.721160  0.572191  0.500000  1
  Rh  Rh19  1  0.278372  0.429215  0.500000  1
