# generated using pymatgen
data_DyHoGa(Ni2P)6
_symmetry_space_group_name_H-M   'P 1'
_cell_length_a   9.09509800
_cell_length_b   9.09509907
_cell_length_c   3.67921700
_cell_angle_alpha   90.00000000
_cell_angle_beta   90.00000000
_cell_angle_gamma   120.00000435
_symmetry_Int_Tables_number   1
_chemical_formula_structural   DyHoGa(Ni2P)6
_chemical_formula_sum   'Dy1 Ho1 Ga1 Ni12 P6'
_cell_volume   263.57294732
_cell_formula_units_Z   1
loop_
 _symmetry_equiv_pos_site_id
 _symmetry_equiv_pos_as_xyz
  1  'x, y, z'
loop_
 _atom_site_type_symbol
 _atom_site_label
 _atom_site_symmetry_multiplicity
 _atom_site_fract_x
 _atom_site_fract_y
 _atom_site_fract_z
 _atom_site_occupancy
  Dy  Dy0  1  0.000000  0.000000  0.500000  1
  Ho  Ho1  1  0.666667  0.333333  0.000000  1
  Ga  Ga2  1  0.333333  0.666667  0.000000  1
  Ni  Ni3  1  0.715985  0.101193  0.500000  1
  Ni  Ni4  1  0.898807  0.614792  0.500000  1
  Ni  Ni5  1  0.385208  0.284015  0.500000  1
  Ni  Ni6  1  0.771007  0.729166  0.000000  1
  Ni  Ni7  1  0.270834  0.041840  0.000000  1
  Ni  Ni8  1  0.958160  0.228993  0.000000  1
  Ni  Ni9  1  0.571761  0.772167  0.500000  1
  Ni  Ni10  1  0.227833  0.799593  0.500000  1
  Ni  Ni11  1  0.200407  0.428239  0.500000  1
  Ni  Ni12  1  0.495708  0.959475  0.000000  1
  Ni  Ni13  1  0.040525  0.536232  0.000000  1
  Ni  Ni14  1  0.463768  0.504292  0.000000  1
  P  P15  1  0.443935  0.071882  0.500000  1
  P  P16  1  0.928118  0.372052  0.500000  1
  P  P17  1  0.627948  0.556065  0.500000  1
  P  P18  1  0.738158  0.958324  0.000000  1
  P  P19  1  0.041676  0.779834  0.000000  1
  P  P20  1  0.220166  0.261842  0.000000  1
