# generated using pymatgen
data_NaHf2CuF11
_symmetry_space_group_name_H-M   'P 1'
_cell_length_a   5.52038556
_cell_length_b   5.82907997
_cell_length_c   7.68727056
_cell_angle_alpha   110.79215950
_cell_angle_beta   96.08005686
_cell_angle_gamma   106.00904702
_symmetry_Int_Tables_number   1
_chemical_formula_structural   NaHf2CuF11
_chemical_formula_sum   'Na1 Hf2 Cu1 F11'
_cell_volume   216.49522797
_cell_formula_units_Z   1
loop_
 _symmetry_equiv_pos_site_id
 _symmetry_equiv_pos_as_xyz
  1  'x, y, z'
loop_
 _atom_site_type_symbol
 _atom_site_label
 _atom_site_symmetry_multiplicity
 _atom_site_fract_x
 _atom_site_fract_y
 _atom_site_fract_z
 _atom_site_occupancy
  Na  Na0  1  0.000000  0.000000  0.000000  1
  Hf  Hf1  1  0.484433  0.267378  0.763449  1
  Hf  Hf2  1  0.515567  0.732622  0.236551  1
  Cu  Cu3  1  0.000000  0.500000  0.500000  1
  F  F4  1  0.249602  0.821660  0.114089  1
  F  F5  1  0.191053  0.944983  0.717496  1
  F  F6  1  0.756088  0.483624  0.660375  1
  F  F7  1  0.750398  0.178340  0.885911  1
  F  F8  1  0.348474  0.340143  0.023420  1
  F  F9  1  0.808947  0.055017  0.282504  1
  F  F10  1  0.775273  0.601594  0.347615  1
  F  F11  1  0.224727  0.398406  0.652385  1
  F  F12  1  0.243912  0.516376  0.339625  1
  F  F13  1  0.500000  0.000000  0.500000  1
  F  F14  1  0.651526  0.659857  0.976580  1
