# generated using pymatgen
data_Dy5(RuO6)2
_symmetry_space_group_name_H-M   'P 1'
_cell_length_a   6.84377844
_cell_length_b   6.84377811
_cell_length_c   7.39453808
_cell_angle_alpha   74.14735188
_cell_angle_beta   74.14735119
_cell_angle_gamma   50.40136283
_symmetry_Int_Tables_number   1
_chemical_formula_structural   Dy5(RuO6)2
_chemical_formula_sum   'Dy5 Ru2 O12'
_cell_volume   254.41307613
_cell_formula_units_Z   1
loop_
 _symmetry_equiv_pos_site_id
 _symmetry_equiv_pos_as_xyz
  1  'x, y, z'
loop_
 _atom_site_type_symbol
 _atom_site_label
 _atom_site_symmetry_multiplicity
 _atom_site_fract_x
 _atom_site_fract_y
 _atom_site_fract_z
 _atom_site_occupancy
  Dy  Dy0  1  0.302819  0.302819  0.360061  1
  Dy  Dy1  1  0.697181  0.697181  0.639939  1
  Dy  Dy2  1  0.310833  0.310833  0.827133  1
  Dy  Dy3  1  0.689167  0.689167  0.172867  1
  Dy  Dy4  1  0.000000  0.000000  0.500000  1
  Ru  Ru5  1  0.764076  0.235924  0.000000  1
  Ru  Ru6  1  0.235924  0.764076  0.000000  1
  O  O7  1  0.905938  0.423718  0.915956  1
  O  O8  1  0.423718  0.905938  0.915956  1
  O  O9  1  0.094062  0.576282  0.084044  1
  O  O10  1  0.576282  0.094062  0.084044  1
  O  O11  1  0.097473  0.595403  0.574215  1
  O  O12  1  0.595403  0.097473  0.574215  1
  O  O13  1  0.902527  0.404597  0.425785  1
  O  O14  1  0.404597  0.902527  0.425785  1
  O  O15  1  0.999273  0.999273  0.805774  1
  O  O16  1  0.000727  0.000727  0.194226  1
  O  O17  1  0.500537  0.500537  0.815240  1
  O  O18  1  0.499463  0.499463  0.184760  1
