# generated using pymatgen
data_Co5Si7(BMo6)2
_symmetry_space_group_name_H-M   'P 1'
_cell_length_a   7.78563293
_cell_length_b   7.78563282
_cell_length_c   7.78563200
_cell_angle_alpha   60.26302658
_cell_angle_beta   60.26302930
_cell_angle_gamma   60.26303164
_symmetry_Int_Tables_number   1
_chemical_formula_structural   Co5Si7(BMo6)2
_chemical_formula_sum   'Co5 Si7 B2 Mo12'
_cell_volume   335.69482696
_cell_formula_units_Z   1
loop_
 _symmetry_equiv_pos_site_id
 _symmetry_equiv_pos_as_xyz
  1  'x, y, z'
loop_
 _atom_site_type_symbol
 _atom_site_label
 _atom_site_symmetry_multiplicity
 _atom_site_fract_x
 _atom_site_fract_y
 _atom_site_fract_z
 _atom_site_occupancy
  Co  Co0  1  0.830571  0.830571  0.830571  1
  Co  Co1  1  0.617711  0.617711  0.141932  1
  Co  Co2  1  0.617711  0.141932  0.617711  1
  Co  Co3  1  0.141932  0.617711  0.617711  1
  Co  Co4  1  0.627476  0.627476  0.627476  1
  Si  Si5  1  0.414881  0.414881  0.757741  1
  Si  Si6  1  0.414881  0.757741  0.414881  1
  Si  Si7  1  0.757741  0.414881  0.414881  1
  Si  Si8  1  0.413073  0.413073  0.413073  1
  Si  Si9  1  0.836914  0.836914  0.501829  1
  Si  Si10  1  0.836914  0.501829  0.836914  1
  Si  Si11  1  0.501829  0.836914  0.836914  1
  B  B12  1  0.249226  0.249226  0.249226  1
  B  B13  1  0.999192  0.999192  0.999192  1
  Mo  Mo14  1  0.048923  0.048923  0.453878  1
  Mo  Mo15  1  0.447242  0.051850  0.447242  1
  Mo  Mo16  1  0.051850  0.447242  0.447242  1
  Mo  Mo17  1  0.447242  0.447242  0.051850  1
  Mo  Mo18  1  0.048923  0.453878  0.048923  1
  Mo  Mo19  1  0.453878  0.048923  0.048923  1
  Mo  Mo20  1  0.194987  0.194987  0.804190  1
  Mo  Mo21  1  0.803122  0.191482  0.803122  1
  Mo  Mo22  1  0.191482  0.803122  0.803122  1
  Mo  Mo23  1  0.803122  0.803122  0.191482  1
  Mo  Mo24  1  0.194987  0.804190  0.194987  1
  Mo  Mo25  1  0.804190  0.194987  0.194987  1
