# generated using pymatgen
data_BaCr4(SbO6)2
_symmetry_space_group_name_H-M   'P 1'
_cell_length_a   8.59897831
_cell_length_b   8.59897936
_cell_length_c   8.59897763
_cell_angle_alpha   106.75609655
_cell_angle_beta   106.75609803
_cell_angle_gamma   115.04965811
_symmetry_Int_Tables_number   1
_chemical_formula_structural   BaCr4(SbO6)2
_chemical_formula_sum   'Ba2 Cr8 Sb4 O24'
_cell_volume   485.94780468
_cell_formula_units_Z   2
loop_
 _symmetry_equiv_pos_site_id
 _symmetry_equiv_pos_as_xyz
  1  'x, y, z'
loop_
 _atom_site_type_symbol
 _atom_site_label
 _atom_site_symmetry_multiplicity
 _atom_site_fract_x
 _atom_site_fract_y
 _atom_site_fract_z
 _atom_site_occupancy
  Ba  Ba0  1  0.222181  0.222181  0.000000  1
  Ba  Ba1  1  0.777819  0.777819  0.000000  1
  Cr  Cr2  1  0.984937  0.500984  0.817958  1
  Cr  Cr3  1  0.683026  0.166980  0.182042  1
  Cr  Cr4  1  0.166980  0.984937  0.483954  1
  Cr  Cr5  1  0.500984  0.683026  0.516046  1
  Cr  Cr6  1  0.015063  0.499016  0.182042  1
  Cr  Cr7  1  0.316974  0.833020  0.817958  1
  Cr  Cr8  1  0.833020  0.015063  0.516046  1
  Cr  Cr9  1  0.499016  0.316974  0.483954  1
  Sb  Sb10  1  0.648196  0.165305  0.813501  1
  Sb  Sb11  1  0.351804  0.834695  0.186499  1
  Sb  Sb12  1  0.834695  0.648196  0.482892  1
  Sb  Sb13  1  0.165305  0.351804  0.517108  1
  O  O14  1  0.846118  0.199482  0.045601  1
  O  O15  1  0.153882  0.800518  0.954399  1
  O  O16  1  0.800518  0.846118  0.646635  1
  O  O17  1  0.199482  0.153882  0.353365  1
  O  O18  1  0.181959  0.535368  0.049118  1
  O  O19  1  0.486250  0.132842  0.950882  1
  O  O20  1  0.132842  0.181959  0.646592  1
  O  O21  1  0.535368  0.486250  0.353408  1
  O  O22  1  0.818041  0.464632  0.950882  1
  O  O23  1  0.513750  0.867158  0.049118  1
  O  O24  1  0.867158  0.818041  0.353408  1
  O  O25  1  0.464632  0.513750  0.646592  1
  O  O26  1  0.456541  0.162567  0.619108  1
  O  O27  1  0.543459  0.837433  0.380892  1
  O  O28  1  0.837433  0.456541  0.293974  1
  O  O29  1  0.162567  0.543459  0.706026  1
  O  O30  1  0.790697  0.502436  0.625967  1
  O  O31  1  0.876469  0.164730  0.374033  1
  O  O32  1  0.164730  0.790697  0.288261  1
  O  O33  1  0.502436  0.876469  0.711739  1
  O  O34  1  0.209303  0.497564  0.374033  1
  O  O35  1  0.123531  0.835270  0.625967  1
  O  O36  1  0.835270  0.209303  0.711739  1
  O  O37  1  0.497564  0.123531  0.288261  1
