# generated using pymatgen
data_Li2PrNdSi2Pb
_symmetry_space_group_name_H-M   'P 1'
_cell_length_a   9.89995864
_cell_length_b   9.89995790
_cell_length_c   6.91734500
_cell_angle_alpha   90.00000000
_cell_angle_beta   90.00000000
_cell_angle_gamma   153.29060682
_symmetry_Int_Tables_number   1
_chemical_formula_structural   Li2PrNdSi2Pb
_chemical_formula_sum   'Li4 Pr2 Nd2 Si4 Pb2'
_cell_volume   304.72106758
_cell_formula_units_Z   2
loop_
 _symmetry_equiv_pos_site_id
 _symmetry_equiv_pos_as_xyz
  1  'x, y, z'
loop_
 _atom_site_type_symbol
 _atom_site_label
 _atom_site_symmetry_multiplicity
 _atom_site_fract_x
 _atom_site_fract_y
 _atom_site_fract_z
 _atom_site_occupancy
  Li  Li0  1  0.182327  0.817673  0.054525  1
  Li  Li1  1  0.182327  0.817673  0.445475  1
  Li  Li2  1  0.817673  0.182327  0.945475  1
  Li  Li3  1  0.817673  0.182327  0.554525  1
  Pr  Pr4  1  0.351665  0.648335  0.250000  1
  Pr  Pr5  1  0.648335  0.351665  0.750000  1
  Nd  Nd6  1  0.547768  0.452232  0.250000  1
  Nd  Nd7  1  0.452232  0.547768  0.750000  1
  Si  Si8  1  0.056230  0.943770  0.925014  1
  Si  Si9  1  0.943770  0.056230  0.074986  1
  Si  Si10  1  0.943770  0.056230  0.425014  1
  Si  Si11  1  0.056230  0.943770  0.574986  1
  Pb  Pb12  1  0.718898  0.281102  0.250000  1
  Pb  Pb13  1  0.281102  0.718898  0.750000  1
