# generated using pymatgen
data_Nd2B2IrPt6Rh
_symmetry_space_group_name_H-M   'P 1'
_cell_length_a   5.49202522
_cell_length_b   5.46888367
_cell_length_c   7.63458100
_cell_angle_alpha   90.00000000
_cell_angle_beta   90.00000000
_cell_angle_gamma   119.86071220
_symmetry_Int_Tables_number   1
_chemical_formula_structural   Nd2B2IrPt6Rh
_chemical_formula_sum   'Nd2 B2 Ir1 Pt6 Rh1'
_cell_volume   198.86341550
_cell_formula_units_Z   1
loop_
 _symmetry_equiv_pos_site_id
 _symmetry_equiv_pos_as_xyz
  1  'x, y, z'
loop_
 _atom_site_type_symbol
 _atom_site_label
 _atom_site_symmetry_multiplicity
 _atom_site_fract_x
 _atom_site_fract_y
 _atom_site_fract_z
 _atom_site_occupancy
  Nd  Nd0  1  0.000000  0.000000  0.498541  1
  Nd  Nd1  1  0.000000  0.000000  0.999600  1
  B  B2  1  0.328873  0.664438  0.000410  1
  B  B3  1  0.671127  0.335562  0.000410  1
  Ir  Ir4  1  0.000000  0.500000  0.190913  1
  Pt  Pt5  1  0.309067  0.654534  0.500248  1
  Pt  Pt6  1  0.690933  0.345466  0.500248  1
  Pt  Pt7  1  0.500000  0.000000  0.201942  1
  Pt  Pt8  1  0.500000  0.000000  0.798209  1
  Pt  Pt9  1  0.500000  0.500000  0.201942  1
  Pt  Pt10  1  0.500000  0.500000  0.798209  1
  Rh  Rh11  1  0.000000  0.500000  0.809328  1
