# generated using pymatgen
data_Er5Zr(SnIr)6
_symmetry_space_group_name_H-M   'P 1'
_cell_length_a   7.45218866
_cell_length_b   7.51184335
_cell_length_c   7.75433400
_cell_angle_alpha   90.00000000
_cell_angle_beta   90.00000000
_cell_angle_gamma   120.37540591
_symmetry_Int_Tables_number   1
_chemical_formula_structural   Er5Zr(SnIr)6
_chemical_formula_sum   'Er5 Zr1 Sn6 Ir6'
_cell_volume   374.49857666
_cell_formula_units_Z   1
loop_
 _symmetry_equiv_pos_site_id
 _symmetry_equiv_pos_as_xyz
  1  'x, y, z'
loop_
 _atom_site_type_symbol
 _atom_site_label
 _atom_site_symmetry_multiplicity
 _atom_site_fract_x
 _atom_site_fract_y
 _atom_site_fract_z
 _atom_site_occupancy
  Er  Er0  1  0.406339  0.005768  0.250000  1
  Er  Er1  1  0.596806  0.593468  0.750000  1
  Er  Er2  1  0.595946  0.596011  0.250000  1
  Er  Er3  1  0.001644  0.409094  0.750000  1
  Er  Er4  1  0.402882  0.995896  0.750000  1
  Zr  Zr5  1  0.998824  0.398242  0.250000  1
  Sn  Sn6  1  0.264495  0.262255  0.501793  1
  Sn  Sn7  1  0.264495  0.262255  0.998207  1
  Sn  Sn8  1  0.734884  0.996792  0.998822  1
  Sn  Sn9  1  0.000663  0.742214  0.492003  1
  Sn  Sn10  1  0.734884  0.996792  0.501178  1
  Sn  Sn11  1  0.000663  0.742214  0.007997  1
  Ir  Ir12  1  0.677263  0.335489  0.493341  1
  Ir  Ir13  1  0.677263  0.335489  0.006659  1
  Ir  Ir14  1  0.321821  0.658031  0.014966  1
  Ir  Ir15  1  0.321821  0.658031  0.485034  1
  Ir  Ir16  1  0.999309  0.998641  0.750000  1
  Ir  Ir17  1  0.999999  0.013318  0.250000  1
