# generated using pymatgen
data_Th2Si3Ag
_symmetry_space_group_name_H-M   'P 1'
_cell_length_a   4.15827200
_cell_length_b   4.31448500
_cell_length_c   7.20355100
_cell_angle_alpha   90.00000000
_cell_angle_beta   90.00000000
_cell_angle_gamma   90.00000000
_symmetry_Int_Tables_number   1
_chemical_formula_structural   Th2Si3Ag
_chemical_formula_sum   'Th2 Si3 Ag1'
_cell_volume   129.23748341
_cell_formula_units_Z   1
loop_
 _symmetry_equiv_pos_site_id
 _symmetry_equiv_pos_as_xyz
  1  'x, y, z'
loop_
 _atom_site_type_symbol
 _atom_site_label
 _atom_site_symmetry_multiplicity
 _atom_site_fract_x
 _atom_site_fract_y
 _atom_site_fract_z
 _atom_site_occupancy
  Th  Th0  1  0.000000  0.500000  0.986043  1
  Th  Th1  1  0.000000  0.000000  0.518008  1
  Si  Si2  1  0.500000  0.000000  0.827275  1
  Si  Si3  1  0.500000  0.000000  0.156634  1
  Si  Si4  1  0.500000  0.500000  0.677964  1
  Ag  Ag5  1  0.500000  0.500000  0.334077  1
