# generated using pymatgen
data_Pr10Os3Rh
_symmetry_space_group_name_H-M   'P 1'
_cell_length_a   8.98301756
_cell_length_b   8.99333894
_cell_length_c   7.47926823
_cell_angle_alpha   83.56890796
_cell_angle_beta   83.51987376
_cell_angle_gamma   43.64604535
_symmetry_Int_Tables_number   1
_chemical_formula_structural   Pr10Os3Rh
_chemical_formula_sum   'Pr10 Os3 Rh1'
_cell_volume   413.97015298
_cell_formula_units_Z   1
loop_
 _symmetry_equiv_pos_site_id
 _symmetry_equiv_pos_as_xyz
  1  'x, y, z'
loop_
 _atom_site_type_symbol
 _atom_site_label
 _atom_site_symmetry_multiplicity
 _atom_site_fract_x
 _atom_site_fract_y
 _atom_site_fract_z
 _atom_site_occupancy
  Pr  Pr0  1  0.016169  0.801018  0.915874  1
  Pr  Pr1  1  0.201660  0.985226  0.584906  1
  Pr  Pr2  1  0.982239  0.201350  0.085891  1
  Pr  Pr3  1  0.796481  0.021052  0.412256  1
  Pr  Pr4  1  0.361139  0.203149  0.817915  1
  Pr  Pr5  1  0.786980  0.642503  0.685389  1
  Pr  Pr6  1  0.643691  0.790766  0.185406  1
  Pr  Pr7  1  0.207955  0.356817  0.314163  1
  Pr  Pr8  1  0.573025  0.428063  0.750759  1
  Pr  Pr9  1  0.429039  0.573354  0.245957  1
  Os  Os10  1  0.400499  0.821702  0.924880  1
  Os  Os11  1  0.822389  0.399030  0.426802  1
  Os  Os12  1  0.600274  0.177517  0.074995  1
  Rh  Rh13  1  0.178462  0.598451  0.574807  1
