# generated using pymatgen
data_Nb2HgPbO7
_symmetry_space_group_name_H-M   'P 1'
_cell_length_a   7.69580334
_cell_length_b   7.60679696
_cell_length_c   7.60679692
_cell_angle_alpha   58.98497801
_cell_angle_beta   59.61217547
_cell_angle_gamma   59.61217651
_symmetry_Int_Tables_number   1
_chemical_formula_structural   Nb2HgPbO7
_chemical_formula_sum   'Nb4 Hg2 Pb2 O14'
_cell_volume   310.57611267
_cell_formula_units_Z   2
loop_
 _symmetry_equiv_pos_site_id
 _symmetry_equiv_pos_as_xyz
  1  'x, y, z'
loop_
 _atom_site_type_symbol
 _atom_site_label
 _atom_site_symmetry_multiplicity
 _atom_site_fract_x
 _atom_site_fract_y
 _atom_site_fract_z
 _atom_site_occupancy
  Nb  Nb0  1  0.125000  0.625000  0.125000  1
  Nb  Nb1  1  0.125000  0.125000  0.625000  1
  Nb  Nb2  1  0.625000  0.125000  0.125000  1
  Nb  Nb3  1  0.125000  0.125000  0.125000  1
  Hg  Hg4  1  0.625000  0.125000  0.625000  1
  Hg  Hg5  1  0.625000  0.625000  0.125000  1
  Pb  Pb6  1  0.625000  0.625000  0.625000  1
  Pb  Pb7  1  0.125000  0.625000  0.625000  1
  O  O8  1  0.723587  0.776413  0.776413  1
  O  O9  1  0.192336  0.807664  0.807664  1
  O  O10  1  0.182158  0.810632  0.192713  1
  O  O11  1  0.814498  0.810632  0.192713  1
  O  O12  1  0.814498  0.192713  0.810632  1
  O  O13  1  0.182158  0.192713  0.810632  1
  O  O14  1  0.431806  0.068194  0.068194  1
  O  O15  1  0.818194  0.181806  0.181806  1
  O  O16  1  0.067842  0.439368  0.057287  1
  O  O17  1  0.067842  0.057287  0.439368  1
  O  O18  1  0.435502  0.439368  0.057287  1
  O  O19  1  0.435502  0.057287  0.439368  1
  O  O20  1  0.057664  0.442336  0.442336  1
  O  O21  1  0.526413  0.473587  0.473587  1
