# generated using pymatgen
data_PrBiSO6
_symmetry_space_group_name_H-M   'P 1'
_cell_length_a   4.27235016
_cell_length_b   7.50270152
_cell_length_c   8.31165739
_cell_angle_alpha   105.91246670
_cell_angle_beta   91.15321054
_cell_angle_gamma   105.97638172
_symmetry_Int_Tables_number   1
_chemical_formula_structural   PrBiSO6
_chemical_formula_sum   'Pr2 Bi2 S2 O12'
_cell_volume   244.99809129
_cell_formula_units_Z   2
loop_
 _symmetry_equiv_pos_site_id
 _symmetry_equiv_pos_as_xyz
  1  'x, y, z'
loop_
 _atom_site_type_symbol
 _atom_site_label
 _atom_site_symmetry_multiplicity
 _atom_site_fract_x
 _atom_site_fract_y
 _atom_site_fract_z
 _atom_site_occupancy
  Pr  Pr0  1  0.342250  0.675267  0.921016  1
  Pr  Pr1  1  0.657750  0.324733  0.078984  1
  Bi  Bi2  1  0.673075  0.346250  0.589701  1
  Bi  Bi3  1  0.326925  0.653750  0.410299  1
  S  S4  1  0.943367  0.998798  0.755886  1
  S  S5  1  0.056633  0.001202  0.244114  1
  O  O6  1  0.766038  0.506860  0.871941  1
  O  O7  1  0.233962  0.493140  0.128059  1
  O  O8  1  0.264304  0.495211  0.616931  1
  O  O9  1  0.735696  0.504789  0.383069  1
  O  O10  1  0.746380  0.992716  0.605036  1
  O  O11  1  0.253620  0.007284  0.394964  1
  O  O12  1  0.730337  0.001540  0.898849  1
  O  O13  1  0.269663  0.998460  0.101151  1
  O  O14  1  0.221458  0.180656  0.807011  1
  O  O15  1  0.778542  0.819344  0.192989  1
  O  O16  1  0.054564  0.822587  0.723599  1
  O  O17  1  0.945436  0.177413  0.276401  1
