# generated using pymatgen
data_Tb4Er12Cd4Co3Ni
_symmetry_space_group_name_H-M   'P 1'
_cell_length_a   9.45033518
_cell_length_b   9.44036454
_cell_length_c   9.44036500
_cell_angle_alpha   59.99999488
_cell_angle_beta   60.03488975
_cell_angle_gamma   60.03489633
_symmetry_Int_Tables_number   1
_chemical_formula_structural   Tb4Er12Cd4Co3Ni
_chemical_formula_sum   'Tb4 Er12 Cd4 Co3 Ni1'
_cell_volume   595.85226922
_cell_formula_units_Z   1
loop_
 _symmetry_equiv_pos_site_id
 _symmetry_equiv_pos_as_xyz
  1  'x, y, z'
loop_
 _atom_site_type_symbol
 _atom_site_label
 _atom_site_symmetry_multiplicity
 _atom_site_fract_x
 _atom_site_fract_y
 _atom_site_fract_z
 _atom_site_occupancy
  Tb  Tb0  1  0.345274  0.349545  0.349545  1
  Tb  Tb1  1  0.345274  0.349545  0.955636  1
  Tb  Tb2  1  0.345274  0.955636  0.349545  1
  Tb  Tb3  1  0.960698  0.346434  0.346434  1
  Er  Er4  1  0.816442  0.187026  0.187026  1
  Er  Er5  1  0.186327  0.813288  0.813288  1
  Er  Er6  1  0.186327  0.813288  0.187097  1
  Er  Er7  1  0.816442  0.187026  0.809506  1
  Er  Er8  1  0.186327  0.187097  0.813288  1
  Er  Er9  1  0.816442  0.809506  0.187026  1
  Er  Er10  1  0.935110  0.563971  0.563971  1
  Er  Er11  1  0.561330  0.936720  0.936720  1
  Er  Er12  1  0.561330  0.936720  0.565230  1
  Er  Er13  1  0.935110  0.563971  0.936948  1
  Er  Er14  1  0.561330  0.565230  0.936720  1
  Er  Er15  1  0.935110  0.936948  0.563971  1
  Cd  Cd16  1  0.582332  0.580209  0.580209  1
  Cd  Cd17  1  0.582332  0.580209  0.257250  1
  Cd  Cd18  1  0.582332  0.257250  0.580209  1
  Cd  Cd19  1  0.256011  0.581330  0.581330  1
  Co  Co20  1  0.142084  0.140101  0.140101  1
  Co  Co21  1  0.142084  0.140101  0.577713  1
  Co  Co22  1  0.142084  0.577713  0.140101  1
  Ni  Ni23  1  0.576594  0.141136  0.141136  1
