# generated using pymatgen
data_Pr8Nd8Cd4CoPt3
_symmetry_space_group_name_H-M   'P 1'
_cell_length_a   10.01071067
_cell_length_b   10.01071025
_cell_length_c   10.01248700
_cell_angle_alpha   60.15355713
_cell_angle_beta   60.15356062
_cell_angle_gamma   60.19601729
_symmetry_Int_Tables_number   1
_chemical_formula_structural   Pr8Nd8Cd4CoPt3
_chemical_formula_sum   'Pr8 Nd8 Cd4 Co1 Pt3'
_cell_volume   712.20187110
_cell_formula_units_Z   1
loop_
 _symmetry_equiv_pos_site_id
 _symmetry_equiv_pos_as_xyz
  1  'x, y, z'
loop_
 _atom_site_type_symbol
 _atom_site_label
 _atom_site_symmetry_multiplicity
 _atom_site_fract_x
 _atom_site_fract_y
 _atom_site_fract_z
 _atom_site_occupancy
  Pr  Pr0  1  0.189079  0.189079  0.820396  1
  Pr  Pr1  1  0.808830  0.808830  0.190207  1
  Pr  Pr2  1  0.938611  0.561832  0.561853  1
  Pr  Pr3  1  0.561950  0.936064  0.936177  1
  Pr  Pr4  1  0.561832  0.938611  0.561853  1
  Pr  Pr5  1  0.936064  0.561950  0.936177  1
  Pr  Pr6  1  0.561821  0.561821  0.938513  1
  Pr  Pr7  1  0.936176  0.936176  0.561813  1
  Nd  Nd8  1  0.350502  0.350502  0.350300  1
  Nd  Nd9  1  0.345246  0.345246  0.954155  1
  Nd  Nd10  1  0.344556  0.954352  0.345019  1
  Nd  Nd11  1  0.954352  0.344556  0.345019  1
  Nd  Nd12  1  0.819501  0.189399  0.189479  1
  Nd  Nd13  1  0.190471  0.808776  0.808589  1
  Nd  Nd14  1  0.189399  0.819501  0.189479  1
  Nd  Nd15  1  0.808776  0.190471  0.808589  1
  Cd  Cd16  1  0.579406  0.579406  0.579937  1
  Cd  Cd17  1  0.580527  0.580527  0.259693  1
  Cd  Cd18  1  0.581055  0.259529  0.580551  1
  Cd  Cd19  1  0.259529  0.581055  0.580551  1
  Co  Co20  1  0.142364  0.142364  0.143262  1
  Pt  Pt21  1  0.143440  0.143440  0.571646  1
  Pt  Pt22  1  0.144966  0.571546  0.143370  1
  Pt  Pt23  1  0.571546  0.144966  0.143370  1
