# generated using pymatgen
data_Tb16Ni3Hg4Ir
_symmetry_space_group_name_H-M   'P 1'
_cell_length_a   9.57150432
_cell_length_b   9.57150569
_cell_length_c   9.57150524
_cell_angle_alpha   59.82696330
_cell_angle_beta   59.82696757
_cell_angle_gamma   59.82696528
_symmetry_Int_Tables_number   1
_chemical_formula_structural   Tb16Ni3Hg4Ir
_chemical_formula_sum   'Tb16 Ni3 Hg4 Ir1'
_cell_volume   617.61339883
_cell_formula_units_Z   1
loop_
 _symmetry_equiv_pos_site_id
 _symmetry_equiv_pos_as_xyz
  1  'x, y, z'
loop_
 _atom_site_type_symbol
 _atom_site_label
 _atom_site_symmetry_multiplicity
 _atom_site_fract_x
 _atom_site_fract_y
 _atom_site_fract_z
 _atom_site_occupancy
  Tb  Tb0  1  0.348033  0.348033  0.348033  1
  Tb  Tb1  1  0.353931  0.353931  0.945732  1
  Tb  Tb2  1  0.353931  0.945732  0.353931  1
  Tb  Tb3  1  0.945732  0.353931  0.353931  1
  Tb  Tb4  1  0.809815  0.189463  0.189463  1
  Tb  Tb5  1  0.187559  0.811078  0.811078  1
  Tb  Tb6  1  0.189463  0.809815  0.189463  1
  Tb  Tb7  1  0.811078  0.187559  0.811078  1
  Tb  Tb8  1  0.189463  0.189463  0.809815  1
  Tb  Tb9  1  0.811078  0.811078  0.187559  1
  Tb  Tb10  1  0.937595  0.564418  0.564418  1
  Tb  Tb11  1  0.558586  0.938496  0.938496  1
  Tb  Tb12  1  0.564418  0.937595  0.564418  1
  Tb  Tb13  1  0.938496  0.558586  0.938496  1
  Tb  Tb14  1  0.564418  0.564418  0.937595  1
  Tb  Tb15  1  0.938496  0.938496  0.558586  1
  Ni  Ni16  1  0.142071  0.142071  0.572757  1
  Ni  Ni17  1  0.142071  0.572757  0.142071  1
  Ni  Ni18  1  0.572757  0.142071  0.142071  1
  Hg  Hg19  1  0.584658  0.584658  0.584658  1
  Hg  Hg20  1  0.583964  0.583964  0.244379  1
  Hg  Hg21  1  0.583964  0.244379  0.583964  1
  Hg  Hg22  1  0.244379  0.583964  0.583964  1
  Ir  Ir23  1  0.144041  0.144041  0.144041  1
