# generated using pymatgen
data_Dy7Ho3Si5As
_symmetry_space_group_name_H-M   'P 1'
_cell_length_a   8.44098000
_cell_length_b   8.45644229
_cell_length_c   6.31658700
_cell_angle_alpha   90.00406737
_cell_angle_beta   89.99823770
_cell_angle_gamma   119.94097221
_symmetry_Int_Tables_number   1
_chemical_formula_structural   Dy7Ho3Si5As
_chemical_formula_sum   'Dy7 Ho3 Si5 As1'
_cell_volume   390.70744472
_cell_formula_units_Z   1
loop_
 _symmetry_equiv_pos_site_id
 _symmetry_equiv_pos_as_xyz
  1  'x, y, z'
loop_
 _atom_site_type_symbol
 _atom_site_label
 _atom_site_symmetry_multiplicity
 _atom_site_fract_x
 _atom_site_fract_y
 _atom_site_fract_z
 _atom_site_occupancy
  Dy  Dy0  1  0.996490  0.753680  0.750069  1
  Dy  Dy1  1  0.000144  0.243944  0.249933  1
  Dy  Dy2  1  0.756261  0.755989  0.249924  1
  Dy  Dy3  1  0.758295  0.000048  0.750063  1
  Dy  Dy4  1  0.242843  0.246259  0.750061  1
  Dy  Dy5  1  0.243088  0.000048  0.249949  1
  Dy  Dy6  1  0.332996  0.663929  0.498839  1
  Ho  Ho7  1  0.669122  0.336122  0.001242  1
  Ho  Ho8  1  0.669152  0.336171  0.498733  1
  Ho  Ho9  1  0.332970  0.663875  0.001210  1
  Si  Si10  1  0.394250  0.392991  0.249780  1
  Si  Si11  1  0.000821  0.606776  0.249783  1
  Si  Si12  1  0.999567  0.393922  0.750212  1
  Si  Si13  1  0.605845  0.605819  0.750206  1
  Si  Si14  1  0.606938  0.000215  0.249806  1
  As  As15  1  0.391216  0.000213  0.750190  1
