# generated using pymatgen
data_Dy3Er5Al4
_symmetry_space_group_name_H-M   'P 1'
_cell_length_a   5.07726200
_cell_length_b   6.54846809
_cell_length_c   9.37616898
_cell_angle_alpha   90.09140745
_cell_angle_beta   90.00000000
_cell_angle_gamma   90.00000000
_symmetry_Int_Tables_number   1
_chemical_formula_structural   Dy3Er5Al4
_chemical_formula_sum   'Dy3 Er5 Al4'
_cell_volume   311.74117145
_cell_formula_units_Z   1
loop_
 _symmetry_equiv_pos_site_id
 _symmetry_equiv_pos_as_xyz
  1  'x, y, z'
loop_
 _atom_site_type_symbol
 _atom_site_label
 _atom_site_symmetry_multiplicity
 _atom_site_fract_x
 _atom_site_fract_y
 _atom_site_fract_z
 _atom_site_occupancy
  Dy  Dy0  1  0.250000  0.810531  0.928721  1
  Dy  Dy1  1  0.250000  0.312214  0.571224  1
  Dy  Dy2  1  0.750000  0.188916  0.070903  1
  Er  Er3  1  0.750000  0.688545  0.429044  1
  Er  Er4  1  0.250000  0.968839  0.289501  1
  Er  Er5  1  0.250000  0.470023  0.211248  1
  Er  Er6  1  0.750000  0.029410  0.710435  1
  Er  Er7  1  0.750000  0.530482  0.788958  1
  Al  Al8  1  0.250000  0.290739  0.895739  1
  Al  Al9  1  0.250000  0.790161  0.602747  1
  Al  Al10  1  0.750000  0.709583  0.105544  1
  Al  Al11  1  0.750000  0.210558  0.395936  1
