# generated using pymatgen
data_TbTm4(In2Pd)2
_symmetry_space_group_name_H-M   'P 1'
_cell_length_a   3.58875500
_cell_length_b   8.11551600
_cell_length_c   18.17324600
_cell_angle_alpha   90.00000000
_cell_angle_beta   90.00000000
_cell_angle_gamma   90.00000000
_symmetry_Int_Tables_number   1
_chemical_formula_structural   TbTm4(In2Pd)2
_chemical_formula_sum   'Tb2 Tm8 In8 Pd4'
_cell_volume   529.28849542
_cell_formula_units_Z   2
loop_
 _symmetry_equiv_pos_site_id
 _symmetry_equiv_pos_as_xyz
  1  'x, y, z'
loop_
 _atom_site_type_symbol
 _atom_site_label
 _atom_site_symmetry_multiplicity
 _atom_site_fract_x
 _atom_site_fract_y
 _atom_site_fract_z
 _atom_site_occupancy
  Tb  Tb0  1  0.000000  0.000000  0.000000  1
  Tb  Tb1  1  0.000000  0.500000  0.500000  1
  Tm  Tm2  1  0.000000  0.118708  0.415366  1
  Tm  Tm3  1  0.000000  0.881292  0.584634  1
  Tm  Tm4  1  0.000000  0.381292  0.915366  1
  Tm  Tm5  1  0.000000  0.618708  0.084634  1
  Tm  Tm6  1  0.000000  0.243642  0.220203  1
  Tm  Tm7  1  0.000000  0.756358  0.779797  1
  Tm  Tm8  1  0.000000  0.256358  0.720203  1
  Tm  Tm9  1  0.000000  0.743642  0.279797  1
  In  In10  1  0.500000  0.423125  0.350199  1
  In  In11  1  0.500000  0.576875  0.649801  1
  In  In12  1  0.500000  0.076875  0.850199  1
  In  In13  1  0.500000  0.923125  0.149801  1
  In  In14  1  0.500000  0.294861  0.067620  1
  In  In15  1  0.500000  0.705139  0.932380  1
  In  In16  1  0.500000  0.205139  0.567620  1
  In  In17  1  0.500000  0.794861  0.432380  1
  Pd  Pd18  1  0.500000  0.025227  0.303879  1
  Pd  Pd19  1  0.500000  0.974773  0.696121  1
  Pd  Pd20  1  0.500000  0.474773  0.803879  1
  Pd  Pd21  1  0.500000  0.525227  0.196121  1
