# generated using pymatgen
data_Nd3LuIn4
_symmetry_space_group_name_H-M   'P 1'
_cell_length_a   6.69948224
_cell_length_b   6.69948201
_cell_length_c   10.14976300
_cell_angle_alpha   90.00000000
_cell_angle_beta   90.00000000
_cell_angle_gamma   98.03257578
_symmetry_Int_Tables_number   1
_chemical_formula_structural   Nd3LuIn4
_chemical_formula_sum   'Nd6 Lu2 In8'
_cell_volume   451.08290502
_cell_formula_units_Z   2
loop_
 _symmetry_equiv_pos_site_id
 _symmetry_equiv_pos_as_xyz
  1  'x, y, z'
loop_
 _atom_site_type_symbol
 _atom_site_label
 _atom_site_symmetry_multiplicity
 _atom_site_fract_x
 _atom_site_fract_y
 _atom_site_fract_z
 _atom_site_occupancy
  Nd  Nd0  1  0.534766  0.534766  0.250000  1
  Nd  Nd1  1  0.465234  0.465234  0.750000  1
  Nd  Nd2  1  0.245183  0.754817  0.500000  1
  Nd  Nd3  1  0.245183  0.754817  0.000000  1
  Nd  Nd4  1  0.754817  0.245183  0.500000  1
  Nd  Nd5  1  0.754817  0.245183  0.000000  1
  Lu  Lu6  1  0.977351  0.977350  0.250000  1
  Lu  Lu7  1  0.022650  0.022649  0.750000  1
  In  In8  1  0.249697  0.249697  0.022960  1
  In  In9  1  0.750303  0.750303  0.977040  1
  In  In10  1  0.249697  0.249697  0.477040  1
  In  In11  1  0.750303  0.750303  0.522960  1
  In  In12  1  0.478239  0.024683  0.250000  1
  In  In13  1  0.975317  0.521761  0.750000  1
  In  In14  1  0.521761  0.975317  0.750000  1
  In  In15  1  0.024683  0.478239  0.250000  1
