# generated using pymatgen
data_AlVFeO4
_symmetry_space_group_name_H-M   'P 1'
_cell_length_a   5.83567900
_cell_length_b   6.01181447
_cell_length_c   6.01114937
_cell_angle_alpha   91.46079947
_cell_angle_beta   119.17077905
_cell_angle_gamma   119.18261897
_symmetry_Int_Tables_number   1
_chemical_formula_structural   AlVFeO4
_chemical_formula_sum   'Al2 V2 Fe2 O8'
_cell_volume   150.88699429
_cell_formula_units_Z   2
loop_
 _symmetry_equiv_pos_site_id
 _symmetry_equiv_pos_as_xyz
  1  'x, y, z'
loop_
 _atom_site_type_symbol
 _atom_site_label
 _atom_site_symmetry_multiplicity
 _atom_site_fract_x
 _atom_site_fract_y
 _atom_site_fract_z
 _atom_site_occupancy
  Al  Al0  1  0.750325  0.374994  0.624951  1
  Al  Al1  1  0.249874  0.375033  0.625156  1
  V  V2  1  0.248707  0.875069  0.624973  1
  V  V3  1  0.751141  0.374995  0.124812  1
  Fe  Fe4  1  0.500088  0.757052  0.243109  1
  Fe  Fe5  1  0.999749  0.991001  0.009178  1
  O  O6  1  0.268459  0.149672  0.850248  1
  O  O7  1  0.731295  0.149778  0.850025  1
  O  O8  1  0.233262  0.602438  0.401288  1
  O  O9  1  0.766763  0.598673  0.397438  1
  O  O10  1  0.714656  0.583391  0.844825  1
  O  O11  1  0.285439  0.155112  0.416674  1
  O  O12  1  0.784774  0.167112  0.404279  1
  O  O13  1  0.215469  0.595682  0.833041  1
