# generated using pymatgen
data_TbYb2ThPd4
_symmetry_space_group_name_H-M   'P 1'
_cell_length_a   4.50580100
_cell_length_b   5.67384295
_cell_length_c   7.26672620
_cell_angle_alpha   90.94481199
_cell_angle_beta   90.00000000
_cell_angle_gamma   90.00000000
_symmetry_Int_Tables_number   1
_chemical_formula_structural   TbYb2ThPd4
_chemical_formula_sum   'Tb1 Yb2 Th1 Pd4'
_cell_volume   185.75010356
_cell_formula_units_Z   1
loop_
 _symmetry_equiv_pos_site_id
 _symmetry_equiv_pos_as_xyz
  1  'x, y, z'
loop_
 _atom_site_type_symbol
 _atom_site_label
 _atom_site_symmetry_multiplicity
 _atom_site_fract_x
 _atom_site_fract_y
 _atom_site_fract_z
 _atom_site_occupancy
  Tb  Tb0  1  0.750000  0.642091  0.314376  1
  Yb  Yb1  1  0.250000  0.142170  0.182522  1
  Yb  Yb2  1  0.750000  0.857760  0.821547  1
  Th  Th3  1  0.250000  0.358014  0.683009  1
  Pd  Pd4  1  0.250000  0.838499  0.538747  1
  Pd  Pd5  1  0.250000  0.645504  0.044733  1
  Pd  Pd6  1  0.750000  0.160357  0.464120  1
  Pd  Pd7  1  0.750000  0.355603  0.950945  1
