# generated using pymatgen
data_FeNi5As2P
_symmetry_space_group_name_H-M   'P 1'
_cell_length_a   6.06834666
_cell_length_b   6.07715947
_cell_length_c   3.33041800
_cell_angle_alpha   90.00000000
_cell_angle_beta   90.00000000
_cell_angle_gamma   120.04803352
_symmetry_Int_Tables_number   1
_chemical_formula_structural   FeNi5As2P
_chemical_formula_sum   'Fe1 Ni5 As2 P1'
_cell_volume   106.31388326
_cell_formula_units_Z   1
loop_
 _symmetry_equiv_pos_site_id
 _symmetry_equiv_pos_as_xyz
  1  'x, y, z'
loop_
 _atom_site_type_symbol
 _atom_site_label
 _atom_site_symmetry_multiplicity
 _atom_site_fract_x
 _atom_site_fract_y
 _atom_site_fract_z
 _atom_site_occupancy
  Fe  Fe0  1  0.000000  0.748749  0.000000  1
  Ni  Ni1  1  0.398891  0.015703  0.500000  1
  Ni  Ni2  1  0.601109  0.616812  0.500000  1
  Ni  Ni3  1  0.000000  0.371331  0.500000  1
  Ni  Ni4  1  0.252373  0.252200  0.000000  1
  Ni  Ni5  1  0.747627  0.999825  0.000000  1
  As  As6  1  0.673478  0.341305  0.000000  1
  As  As7  1  0.326522  0.667828  0.000000  1
  P  P8  1  0.000000  0.986246  0.500000  1
