# generated using pymatgen
data_Tm20Ir5Pt5Au2
_symmetry_space_group_name_H-M   'P 1'
_cell_length_a   10.94100717
_cell_length_b   10.96200657
_cell_length_c   6.31087949
_cell_angle_alpha   90.01378958
_cell_angle_beta   89.89152261
_cell_angle_gamma   90.36649000
_symmetry_Int_Tables_number   1
_chemical_formula_structural   Tm20Ir5Pt5Au2
_chemical_formula_sum   'Tm20 Ir5 Pt5 Au2'
_cell_volume   756.88094767
_cell_formula_units_Z   1
loop_
 _symmetry_equiv_pos_site_id
 _symmetry_equiv_pos_as_xyz
  1  'x, y, z'
loop_
 _atom_site_type_symbol
 _atom_site_label
 _atom_site_symmetry_multiplicity
 _atom_site_fract_x
 _atom_site_fract_y
 _atom_site_fract_z
 _atom_site_occupancy
  Tm  Tm0  1  0.295852  0.085241  0.373778  1
  Tm  Tm1  1  0.294804  0.908882  0.873912  1
  Tm  Tm2  1  0.702190  0.084398  0.874183  1
  Tm  Tm3  1  0.700702  0.913846  0.364791  1
  Tm  Tm4  1  0.577299  0.791034  0.870925  1
  Tm  Tm5  1  0.583721  0.202292  0.366980  1
  Tm  Tm6  1  0.410189  0.793469  0.377514  1
  Tm  Tm7  1  0.408662  0.202213  0.875612  1
  Tm  Tm8  1  0.208189  0.416818  0.629076  1
  Tm  Tm9  1  0.206669  0.588531  0.121994  1
  Tm  Tm10  1  0.798401  0.414694  0.133426  1
  Tm  Tm11  1  0.797747  0.585533  0.624430  1
  Tm  Tm12  1  0.917219  0.702519  0.133883  1
  Tm  Tm13  1  0.919635  0.294861  0.627720  1
  Tm  Tm14  1  0.094794  0.703179  0.624026  1
  Tm  Tm15  1  0.088665  0.296819  0.127845  1
  Tm  Tm16  1  0.001805  0.002303  0.498953  1
  Tm  Tm17  1  0.002890  0.003955  0.001567  1
  Tm  Tm18  1  0.495152  0.502475  0.001125  1
  Tm  Tm19  1  0.496880  0.505075  0.498293  1
  Ir  Ir20  1  0.346626  0.653737  0.750736  1
  Ir  Ir21  1  0.498949  0.999560  0.116997  1
  Ir  Ir22  1  0.499698  0.999890  0.619112  1
  Ir  Ir23  1  0.000098  0.500681  0.880815  1
  Ir  Ir24  1  0.001011  0.500197  0.382614  1
  Pt  Pt25  1  0.846468  0.153728  0.250164  1
  Pt  Pt26  1  0.153600  0.155454  0.748506  1
  Pt  Pt27  1  0.152910  0.847679  0.250306  1
  Pt  Pt28  1  0.654839  0.654047  0.248826  1
  Pt  Pt29  1  0.345980  0.345479  0.250777  1
  Au  Au30  1  0.843904  0.845520  0.751256  1
  Au  Au31  1  0.654450  0.345891  0.749859  1
