# generated using pymatgen
data_YEr2Pa(InNi2)2
_symmetry_space_group_name_H-M   'P 1'
_cell_length_a   7.43614894
_cell_length_b   7.43383787
_cell_length_c   3.57844200
_cell_angle_alpha   90.00000000
_cell_angle_beta   90.00000000
_cell_angle_gamma   92.54835399
_symmetry_Int_Tables_number   1
_chemical_formula_structural   YEr2Pa(InNi2)2
_chemical_formula_sum   'Y1 Er2 Pa1 In2 Ni4'
_cell_volume   197.61751811
_cell_formula_units_Z   1
loop_
 _symmetry_equiv_pos_site_id
 _symmetry_equiv_pos_as_xyz
  1  'x, y, z'
loop_
 _atom_site_type_symbol
 _atom_site_label
 _atom_site_symmetry_multiplicity
 _atom_site_fract_x
 _atom_site_fract_y
 _atom_site_fract_z
 _atom_site_occupancy
  Y  Y0  1  0.174865  0.329138  0.500000  1
  Er  Er1  1  0.324461  0.824293  0.500000  1
  Er  Er2  1  0.829595  0.674618  0.500000  1
  Pa  Pa3  1  0.670647  0.170369  0.500000  1
  In  In4  1  0.499219  0.506488  0.000000  1
  In  In5  1  0.005622  0.997762  0.000000  1
  Ni  Ni6  1  0.112860  0.615747  0.000000  1
  Ni  Ni7  1  0.859325  0.361456  0.000000  1
  Ni  Ni8  1  0.629063  0.892725  0.000000  1
  Ni  Ni9  1  0.394341  0.127403  0.000000  1
