# generated using pymatgen
data_LiYTh7Si12Ru2Rh
_symmetry_space_group_name_H-M   'P 1'
_cell_length_a   8.26371200
_cell_length_b   8.21725410
_cell_length_c   8.33658100
_cell_angle_alpha   90.00000000
_cell_angle_beta   90.00000000
_cell_angle_gamma   119.81421263
_symmetry_Int_Tables_number   1
_chemical_formula_structural   LiYTh7Si12Ru2Rh
_chemical_formula_sum   'Li1 Y1 Th7 Si12 Ru2 Rh1'
_cell_volume   491.16849836
_cell_formula_units_Z   1
loop_
 _symmetry_equiv_pos_site_id
 _symmetry_equiv_pos_as_xyz
  1  'x, y, z'
loop_
 _atom_site_type_symbol
 _atom_site_label
 _atom_site_symmetry_multiplicity
 _atom_site_fract_x
 _atom_site_fract_y
 _atom_site_fract_z
 _atom_site_occupancy
  Li  Li0  1  0.666306  0.333153  0.994976  1
  Y  Y1  1  0.006846  0.503423  0.749895  1
  Th  Th2  1  0.000964  0.000481  0.249511  1
  Th  Th3  1  0.998878  0.999439  0.750291  1
  Th  Th4  1  0.011040  0.505521  0.252184  1
  Th  Th5  1  0.494829  0.505483  0.251814  1
  Th  Th6  1  0.493649  0.987747  0.750207  1
  Th  Th7  1  0.494829  0.989345  0.251814  1
  Th  Th8  1  0.493649  0.505903  0.750207  1
  Si  Si9  1  0.166161  0.335072  0.003595  1
  Si  Si10  1  0.669831  0.834915  0.007236  1
  Si  Si11  1  0.164396  0.333854  0.506209  1
  Si  Si12  1  0.331542  0.165771  0.998090  1
  Si  Si13  1  0.166161  0.831091  0.003595  1
  Si  Si14  1  0.671584  0.835792  0.502164  1
  Si  Si15  1  0.834885  0.666950  0.997463  1
  Si  Si16  1  0.330029  0.165014  0.496073  1
  Si  Si17  1  0.164396  0.830543  0.506209  1
  Si  Si18  1  0.833257  0.664233  0.498014  1
  Si  Si19  1  0.834885  0.167936  0.997463  1
  Si  Si20  1  0.833257  0.169024  0.498014  1
  Ru  Ru21  1  0.338562  0.669282  0.983757  1
  Ru  Ru22  1  0.338004  0.669003  0.492893  1
  Rh  Rh23  1  0.662057  0.331028  0.508327  1
