# generated using pymatgen
data_CaCr4Cd(P2O9)2
_symmetry_space_group_name_H-M   'P 1'
_cell_length_a   6.42365000
_cell_length_b   7.40328700
_cell_length_c   14.34262400
_cell_angle_alpha   90.00000000
_cell_angle_beta   90.00000000
_cell_angle_gamma   90.00000000
_symmetry_Int_Tables_number   1
_chemical_formula_structural   CaCr4Cd(P2O9)2
_chemical_formula_sum   'Ca2 Cr8 Cd2 P8 O36'
_cell_volume   682.07961314
_cell_formula_units_Z   2
loop_
 _symmetry_equiv_pos_site_id
 _symmetry_equiv_pos_as_xyz
  1  'x, y, z'
loop_
 _atom_site_type_symbol
 _atom_site_label
 _atom_site_symmetry_multiplicity
 _atom_site_fract_x
 _atom_site_fract_y
 _atom_site_fract_z
 _atom_site_occupancy
  Ca  Ca0  1  0.250000  0.392814  0.720549  1
  Ca  Ca1  1  0.250000  0.107186  0.220549  1
  Cr  Cr2  1  0.750000  0.353357  0.878121  1
  Cr  Cr3  1  0.250000  0.647684  0.121936  1
  Cr  Cr4  1  0.250000  0.852316  0.621936  1
  Cr  Cr5  1  0.750000  0.146643  0.378121  1
  Cr  Cr6  1  0.500726  0.999849  0.999751  1
  Cr  Cr7  1  0.500726  0.500151  0.499751  1
  Cr  Cr8  1  0.999274  0.500151  0.499751  1
  Cr  Cr9  1  0.999274  0.999849  0.999751  1
  Cd  Cd10  1  0.750000  0.895048  0.780226  1
  Cd  Cd11  1  0.750000  0.604952  0.280226  1
  P  P12  1  0.250000  0.361629  0.933867  1
  P  P13  1  0.750000  0.637963  0.067495  1
  P  P14  1  0.750000  0.862037  0.567495  1
  P  P15  1  0.250000  0.138371  0.433867  1
  P  P16  1  0.750000  0.391757  0.690521  1
  P  P17  1  0.750000  0.108243  0.190521  1
  P  P18  1  0.250000  0.891303  0.807311  1
  P  P19  1  0.250000  0.608697  0.307311  1
  O  O20  1  0.050453  0.604722  0.369294  1
  O  O21  1  0.551764  0.395800  0.629042  1
  O  O22  1  0.948236  0.104200  0.129042  1
  O  O23  1  0.449547  0.895278  0.869294  1
  O  O24  1  0.948236  0.395800  0.629042  1
  O  O25  1  0.449547  0.604722  0.369294  1
  O  O26  1  0.050453  0.895278  0.869294  1
  O  O27  1  0.551764  0.104200  0.129042  1
  O  O28  1  0.250000  0.329842  0.482383  1
  O  O29  1  0.750000  0.670914  0.518472  1
  O  O30  1  0.750000  0.829086  0.018472  1
  O  O31  1  0.250000  0.170158  0.982383  1
  O  O32  1  0.750000  0.125864  0.944637  1
  O  O33  1  0.250000  0.873964  0.054740  1
  O  O34  1  0.250000  0.626036  0.554740  1
  O  O35  1  0.750000  0.374136  0.444637  1
  O  O36  1  0.750000  0.218621  0.753056  1
  O  O37  1  0.250000  0.783184  0.246634  1
  O  O38  1  0.250000  0.716816  0.746634  1
  O  O39  1  0.750000  0.281379  0.253056  1
  O  O40  1  0.438345  0.131278  0.366719  1
  O  O41  1  0.938825  0.868665  0.634838  1
  O  O42  1  0.561175  0.631335  0.134838  1
  O  O43  1  0.061655  0.368722  0.866719  1
  O  O44  1  0.561175  0.868665  0.634838  1
  O  O45  1  0.061655  0.131278  0.366719  1
  O  O46  1  0.438345  0.368722  0.866719  1
  O  O47  1  0.938825  0.631335  0.134838  1
  O  O48  1  0.750000  0.492789  0.994476  1
  O  O49  1  0.250000  0.045976  0.733775  1
  O  O50  1  0.250000  0.454024  0.233775  1
  O  O51  1  0.750000  0.544743  0.765554  1
  O  O52  1  0.750000  0.007211  0.494476  1
  O  O53  1  0.250000  0.993444  0.506958  1
  O  O54  1  0.250000  0.506556  0.006958  1
  O  O55  1  0.750000  0.955257  0.265554  1
