# generated using pymatgen
data_Pm8S11Br
_symmetry_space_group_name_H-M   'P 1'
_cell_length_a   3.96727300
_cell_length_b   10.79955282
_cell_length_c   11.05566369
_cell_angle_alpha   89.95185298
_cell_angle_beta   90.00000000
_cell_angle_gamma   90.00000000
_symmetry_Int_Tables_number   1
_chemical_formula_structural   Pm8S11Br
_chemical_formula_sum   'Pm8 S11 Br1'
_cell_volume   473.67724838
_cell_formula_units_Z   1
loop_
 _symmetry_equiv_pos_site_id
 _symmetry_equiv_pos_as_xyz
  1  'x, y, z'
loop_
 _atom_site_type_symbol
 _atom_site_label
 _atom_site_symmetry_multiplicity
 _atom_site_fract_x
 _atom_site_fract_y
 _atom_site_fract_z
 _atom_site_occupancy
  Pm  Pm0  1  0.250000  0.994012  0.687473  1
  Pm  Pm1  1  0.750000  0.978117  0.309804  1
  Pm  Pm2  1  0.750000  0.500135  0.811980  1
  Pm  Pm3  1  0.250000  0.513568  0.190404  1
  Pm  Pm4  1  0.250000  0.320295  0.522552  1
  Pm  Pm5  1  0.750000  0.682003  0.492841  1
  Pm  Pm6  1  0.750000  0.815025  0.986575  1
  Pm  Pm7  1  0.250000  0.188987  0.996530  1
  S  S8  1  0.750000  0.053337  0.873848  1
  S  S9  1  0.250000  0.950669  0.117645  1
  S  S10  1  0.250000  0.556116  0.626813  1
  S  S11  1  0.750000  0.445038  0.379261  1
  S  S12  1  0.250000  0.866646  0.454714  1
  S  S13  1  0.750000  0.127083  0.540075  1
  S  S14  1  0.750000  0.371846  0.049377  1
  S  S15  1  0.250000  0.629442  0.955716  1
  S  S16  1  0.250000  0.304222  0.772535  1
  S  S17  1  0.750000  0.704096  0.229813  1
  S  S18  1  0.750000  0.801313  0.727271  1
  Br  Br19  1  0.250000  0.198051  0.274772  1
