# generated using pymatgen
data_Y5Ho5BiPb5
_symmetry_space_group_name_H-M   'P 1'
_cell_length_a   9.07811637
_cell_length_b   9.07523982
_cell_length_c   6.56128700
_cell_angle_alpha   90.00000000
_cell_angle_beta   90.00000000
_cell_angle_gamma   119.97784743
_symmetry_Int_Tables_number   1
_chemical_formula_structural   Y5Ho5BiPb5
_chemical_formula_sum   'Y5 Ho5 Bi1 Pb5'
_cell_volume   468.24206235
_cell_formula_units_Z   1
loop_
 _symmetry_equiv_pos_site_id
 _symmetry_equiv_pos_as_xyz
  1  'x, y, z'
loop_
 _atom_site_type_symbol
 _atom_site_label
 _atom_site_symmetry_multiplicity
 _atom_site_fract_x
 _atom_site_fract_y
 _atom_site_fract_z
 _atom_site_occupancy
  Y  Y0  1  0.236473  0.999917  0.250000  1
  Y  Y1  1  0.237902  0.238554  0.750000  1
  Y  Y2  1  0.999206  0.761553  0.750000  1
  Y  Y3  1  0.003226  0.239874  0.250000  1
  Y  Y4  1  0.762008  0.999867  0.750000  1
  Ho  Ho5  1  0.331660  0.664609  0.000067  1
  Ho  Ho6  1  0.667041  0.335472  0.499906  1
  Ho  Ho7  1  0.667041  0.335472  0.000094  1
  Ho  Ho8  1  0.331660  0.664609  0.499933  1
  Ho  Ho9  1  0.763341  0.759872  0.250000  1
  Bi  Bi10  1  0.606433  0.999766  0.250000  1
  Pb  Pb11  1  0.605271  0.606331  0.750000  1
  Pb  Pb12  1  0.998971  0.393690  0.750000  1
  Pb  Pb13  1  0.999976  0.605049  0.250000  1
  Pb  Pb14  1  0.395573  0.395343  0.250000  1
  Pb  Pb15  1  0.394219  0.000024  0.750000  1
