# generated using pymatgen
data_YHo15In4Ir3Pt
_symmetry_space_group_name_H-M   'P 1'
_cell_length_a   9.64815455
_cell_length_b   9.65155489
_cell_length_c   9.64237500
_cell_angle_alpha   60.03146161
_cell_angle_beta   60.01981727
_cell_angle_gamma   60.01902799
_symmetry_Int_Tables_number   1
_chemical_formula_structural   YHo15In4Ir3Pt
_chemical_formula_sum   'Y1 Ho15 In4 Ir3 Pt1'
_cell_volume   635.24493089
_cell_formula_units_Z   1
loop_
 _symmetry_equiv_pos_site_id
 _symmetry_equiv_pos_as_xyz
  1  'x, y, z'
loop_
 _atom_site_type_symbol
 _atom_site_label
 _atom_site_symmetry_multiplicity
 _atom_site_fract_x
 _atom_site_fract_y
 _atom_site_fract_z
 _atom_site_occupancy
  Y  Y0  1  0.440070  0.436929  0.061501  1
  Ho  Ho1  1  0.653291  0.648946  0.048217  1
  Ho  Ho2  1  0.187994  0.809436  0.193967  1
  Ho  Ho3  1  0.060217  0.439373  0.060134  1
  Ho  Ho4  1  0.187994  0.809436  0.808603  1
  Ho  Ho5  1  0.060217  0.439373  0.440275  1
  Ho  Ho6  1  0.810252  0.190718  0.190139  1
  Ho  Ho7  1  0.653291  0.648946  0.649548  1
  Ho  Ho8  1  0.810252  0.190718  0.808891  1
  Ho  Ho9  1  0.187814  0.194441  0.808872  1
  Ho  Ho10  1  0.046856  0.650327  0.651409  1
  Ho  Ho11  1  0.440259  0.060697  0.061101  1
  Ho  Ho12  1  0.060527  0.059931  0.439771  1
  Ho  Ho13  1  0.652446  0.049630  0.648963  1
  Ho  Ho14  1  0.810031  0.809356  0.190307  1
  Ho  Ho15  1  0.440259  0.060697  0.437942  1
  In  In16  1  0.416624  0.416889  0.417151  1
  In  In17  1  0.416624  0.416889  0.749339  1
  In  In18  1  0.416681  0.749134  0.417093  1
  In  In19  1  0.749290  0.416771  0.416970  1
  Ir  Ir20  1  0.857786  0.858952  0.858665  1
  Ir  Ir21  1  0.858104  0.424772  0.858562  1
  Ir  Ir22  1  0.857786  0.858952  0.424597  1
  Pt  Pt23  1  0.425333  0.858692  0.857987  1
