# generated using pymatgen
data_Rb2DyHo5F20
_symmetry_space_group_name_H-M   'P 1'
_cell_length_a   8.26322418
_cell_length_b   8.26322422
_cell_length_c   8.25688300
_cell_angle_alpha   60.02534452
_cell_angle_beta   60.02534817
_cell_angle_gamma   59.94931269
_symmetry_Int_Tables_number   1
_chemical_formula_structural   Rb2DyHo5F20
_chemical_formula_sum   'Rb2 Dy1 Ho5 F20'
_cell_volume   398.65729332
_cell_formula_units_Z   1
loop_
 _symmetry_equiv_pos_site_id
 _symmetry_equiv_pos_as_xyz
  1  'x, y, z'
loop_
 _atom_site_type_symbol
 _atom_site_label
 _atom_site_symmetry_multiplicity
 _atom_site_fract_x
 _atom_site_fract_y
 _atom_site_fract_z
 _atom_site_occupancy
  Rb  Rb0  1  0.749948  0.749948  0.750052  1
  Rb  Rb1  1  0.249949  0.249949  0.250054  1
  Dy  Dy2  1  0.759565  0.759565  0.240435  1
  Ho  Ho3  1  0.240466  0.759437  0.240563  1
  Ho  Ho4  1  0.759437  0.240466  0.240563  1
  Ho  Ho5  1  0.240466  0.759438  0.759534  1
  Ho  Ho6  1  0.240491  0.240491  0.759508  1
  Ho  Ho7  1  0.759438  0.240466  0.759534  1
  F  F8  1  0.828786  0.171120  0.500047  1
  F  F9  1  0.500013  0.171010  0.828990  1
  F  F10  1  0.829426  0.499050  0.170573  1
  F  F11  1  0.500013  0.171010  0.499987  1
  F  F12  1  0.829426  0.499050  0.500949  1
  F  F13  1  0.171010  0.500013  0.828990  1
  F  F14  1  0.499050  0.829426  0.500949  1
  F  F15  1  0.499953  0.499953  0.171215  1
  F  F16  1  0.889602  0.331171  0.889613  1
  F  F17  1  0.110387  0.110387  0.668830  1
  F  F18  1  0.668541  0.111402  0.110029  1
  F  F19  1  0.110387  0.110387  0.110398  1
  F  F20  1  0.331171  0.889602  0.889613  1
  F  F21  1  0.889971  0.889971  0.888598  1
  F  F22  1  0.889970  0.889970  0.331458  1
  F  F23  1  0.111402  0.668541  0.110029  1
  F  F24  1  0.171120  0.828786  0.500047  1
  F  F25  1  0.499050  0.829426  0.170573  1
  F  F26  1  0.171010  0.500013  0.499987  1
  F  F27  1  0.499953  0.499953  0.828880  1
