# generated using pymatgen
data_Ta9Zn(NiPt)2
_symmetry_space_group_name_H-M   'P 1'
_cell_length_a   5.10228496
_cell_length_b   9.83006688
_cell_length_c   9.83006646
_cell_angle_alpha   86.13803425
_cell_angle_beta   74.95816400
_cell_angle_gamma   74.95815901
_symmetry_Int_Tables_number   1
_chemical_formula_structural   Ta9Zn(NiPt)2
_chemical_formula_sum   'Ta18 Zn2 Ni4 Pt4'
_cell_volume   459.82755701
_cell_formula_units_Z   2
loop_
 _symmetry_equiv_pos_site_id
 _symmetry_equiv_pos_as_xyz
  1  'x, y, z'
loop_
 _atom_site_type_symbol
 _atom_site_label
 _atom_site_symmetry_multiplicity
 _atom_site_fract_x
 _atom_site_fract_y
 _atom_site_fract_z
 _atom_site_occupancy
  Ta  Ta0  1  0.750000  0.500000  0.500000  1
  Ta  Ta1  1  0.250000  0.500000  0.500000  1
  Ta  Ta2  1  0.789709  0.780992  0.639589  1
  Ta  Ta3  1  0.210291  0.219008  0.360411  1
  Ta  Ta4  1  0.710291  0.360411  0.219008  1
  Ta  Ta5  1  0.289709  0.639589  0.780992  1
  Ta  Ta6  1  0.570702  0.639589  0.219008  1
  Ta  Ta7  1  0.429298  0.360411  0.780992  1
  Ta  Ta8  1  0.070702  0.219008  0.639589  1
  Ta  Ta9  1  0.929298  0.780992  0.360411  1
  Ta  Ta10  1  0.585968  0.076748  0.751316  1
  Ta  Ta11  1  0.414032  0.923252  0.248684  1
  Ta  Ta12  1  0.914032  0.248684  0.923252  1
  Ta  Ta13  1  0.085968  0.751316  0.076748  1
  Ta  Ta14  1  0.662716  0.751316  0.923252  1
  Ta  Ta15  1  0.337284  0.248684  0.076748  1
  Ta  Ta16  1  0.162716  0.923252  0.751316  1
  Ta  Ta17  1  0.837284  0.076748  0.248684  1
  Zn  Zn18  1  0.250000  0.000000  0.000000  1
  Zn  Zn19  1  0.750000  0.000000  0.000000  1
  Ni  Ni20  1  0.500000  0.000000  0.500000  1
  Ni  Ni21  1  0.000000  0.000000  0.500000  1
  Ni  Ni22  1  0.500000  0.500000  0.000000  1
  Ni  Ni23  1  0.000000  0.500000  0.000000  1
  Pt  Pt24  1  0.130331  0.500000  0.239338  1
  Pt  Pt25  1  0.869669  0.500000  0.760662  1
  Pt  Pt26  1  0.369669  0.760662  0.500000  1
  Pt  Pt27  1  0.630331  0.239338  0.500000  1
