# generated using pymatgen
data_Ce4Zn2PRh10
_symmetry_space_group_name_H-M   'P 1'
_cell_length_a   7.16935808
_cell_length_b   7.27677322
_cell_length_c   7.27677383
_cell_angle_alpha   107.39177046
_cell_angle_beta   110.84248984
_cell_angle_gamma   110.84249459
_symmetry_Int_Tables_number   1
_chemical_formula_structural   Ce4Zn2PRh10
_chemical_formula_sum   'Ce4 Zn2 P1 Rh10'
_cell_volume   289.56178906
_cell_formula_units_Z   1
loop_
 _symmetry_equiv_pos_site_id
 _symmetry_equiv_pos_as_xyz
  1  'x, y, z'
loop_
 _atom_site_type_symbol
 _atom_site_label
 _atom_site_symmetry_multiplicity
 _atom_site_fract_x
 _atom_site_fract_y
 _atom_site_fract_z
 _atom_site_occupancy
  Ce  Ce0  1  0.024566  0.012283  0.512283  1
  Ce  Ce1  1  0.024566  0.512283  0.012283  1
  Ce  Ce2  1  0.477438  0.969139  0.969139  1
  Ce  Ce3  1  0.477438  0.508298  0.508298  1
  Zn  Zn4  1  0.748400  0.250271  0.498129  1
  Zn  Zn5  1  0.748400  0.498129  0.250271  1
  P  P6  1  0.000059  0.000030  0.000030  1
  Rh  Rh7  1  0.517084  0.258542  0.758542  1
  Rh  Rh8  1  0.234338  0.489416  0.744922  1
  Rh  Rh9  1  0.234338  0.744922  0.489416  1
  Rh  Rh10  1  0.517084  0.758542  0.258542  1
  Rh  Rh11  1  0.740229  0.725699  0.014530  1
  Rh  Rh12  1  0.290132  0.013496  0.276636  1
  Rh  Rh13  1  0.967782  0.254604  0.254604  1
  Rh  Rh14  1  0.290132  0.276636  0.013496  1
  Rh  Rh15  1  0.740229  0.014530  0.725699  1
  Rh  Rh16  1  0.967782  0.713180  0.713180  1
