# generated using pymatgen
data_Sc10Ag3Pt
_symmetry_space_group_name_H-M   'P 1'
_cell_length_a   8.82984800
_cell_length_b   8.82984691
_cell_length_c   9.08419200
_cell_angle_alpha   90.00000000
_cell_angle_beta   90.00000000
_cell_angle_gamma   119.99999659
_symmetry_Int_Tables_number   1
_chemical_formula_structural   Sc10Ag3Pt
_chemical_formula_sum   'Sc20 Ag6 Pt2'
_cell_volume   613.37116116
_cell_formula_units_Z   2
loop_
 _symmetry_equiv_pos_site_id
 _symmetry_equiv_pos_as_xyz
  1  'x, y, z'
loop_
 _atom_site_type_symbol
 _atom_site_label
 _atom_site_symmetry_multiplicity
 _atom_site_fract_x
 _atom_site_fract_y
 _atom_site_fract_z
 _atom_site_occupancy
  Sc  Sc0  1  0.000000  0.000000  0.500000  1
  Sc  Sc1  1  0.000000  0.000000  0.000000  1
  Sc  Sc2  1  0.206977  0.793023  0.447289  1
  Sc  Sc3  1  0.206977  0.413954  0.447289  1
  Sc  Sc4  1  0.586046  0.793023  0.447289  1
  Sc  Sc5  1  0.793023  0.206977  0.552711  1
  Sc  Sc6  1  0.793023  0.586046  0.552711  1
  Sc  Sc7  1  0.413954  0.206977  0.552711  1
  Sc  Sc8  1  0.793023  0.206977  0.947289  1
  Sc  Sc9  1  0.793023  0.586046  0.947289  1
  Sc  Sc10  1  0.413954  0.206977  0.947289  1
  Sc  Sc11  1  0.206977  0.793023  0.052711  1
  Sc  Sc12  1  0.206977  0.413954  0.052711  1
  Sc  Sc13  1  0.586046  0.793023  0.052711  1
  Sc  Sc14  1  0.541852  0.458148  0.250000  1
  Sc  Sc15  1  0.541852  0.083704  0.250000  1
  Sc  Sc16  1  0.916296  0.458148  0.250000  1
  Sc  Sc17  1  0.458148  0.541852  0.750000  1
  Sc  Sc18  1  0.458148  0.916296  0.750000  1
  Sc  Sc19  1  0.083704  0.541852  0.750000  1
  Ag  Ag20  1  0.884333  0.115667  0.250000  1
  Ag  Ag21  1  0.884333  0.768668  0.250000  1
  Ag  Ag22  1  0.231332  0.115667  0.250000  1
  Ag  Ag23  1  0.115667  0.884333  0.750000  1
  Ag  Ag24  1  0.115667  0.231332  0.750000  1
  Ag  Ag25  1  0.768668  0.884333  0.750000  1
  Pt  Pt26  1  0.333333  0.666667  0.250000  1
  Pt  Pt27  1  0.666667  0.333333  0.750000  1
