# generated using pymatgen
data_Pa3Al7Cu2
_symmetry_space_group_name_H-M   'P 1'
_cell_length_a   9.01513132
_cell_length_b   9.01513179
_cell_length_c   9.01513227
_cell_angle_alpha   35.40975967
_cell_angle_beta   35.40975648
_cell_angle_gamma   35.40976085
_symmetry_Int_Tables_number   1
_chemical_formula_structural   Pa3Al7Cu2
_chemical_formula_sum   'Pa3 Al7 Cu2'
_cell_volume   219.78714776
_cell_formula_units_Z   1
loop_
 _symmetry_equiv_pos_site_id
 _symmetry_equiv_pos_as_xyz
  1  'x, y, z'
loop_
 _atom_site_type_symbol
 _atom_site_label
 _atom_site_symmetry_multiplicity
 _atom_site_fract_x
 _atom_site_fract_y
 _atom_site_fract_z
 _atom_site_occupancy
  Pa  Pa0  1  0.000000  0.000000  0.000000  1
  Pa  Pa1  1  0.857675  0.857675  0.857675  1
  Pa  Pa2  1  0.142325  0.142325  0.142325  1
  Al  Al3  1  0.418222  0.418222  0.927466  1
  Al  Al4  1  0.927466  0.418222  0.418222  1
  Al  Al5  1  0.418222  0.927466  0.418222  1
  Al  Al6  1  0.500000  0.500000  0.500000  1
  Al  Al7  1  0.581778  0.072534  0.581778  1
  Al  Al8  1  0.072534  0.581778  0.581778  1
  Al  Al9  1  0.581778  0.581778  0.072534  1
  Cu  Cu10  1  0.664895  0.664895  0.664895  1
  Cu  Cu11  1  0.335105  0.335105  0.335105  1
