# generated using pymatgen
data_Lu4Zr2TaBi2
_symmetry_space_group_name_H-M   'P 1'
_cell_length_a   7.99868681
_cell_length_b   7.99868788
_cell_length_c   4.33925900
_cell_angle_alpha   90.00000000
_cell_angle_beta   90.00000000
_cell_angle_gamma   119.67176958
_symmetry_Int_Tables_number   1
_chemical_formula_structural   Lu4Zr2TaBi2
_chemical_formula_sum   'Lu4 Zr2 Ta1 Bi2'
_cell_volume   241.21848264
_cell_formula_units_Z   1
loop_
 _symmetry_equiv_pos_site_id
 _symmetry_equiv_pos_as_xyz
  1  'x, y, z'
loop_
 _atom_site_type_symbol
 _atom_site_label
 _atom_site_symmetry_multiplicity
 _atom_site_fract_x
 _atom_site_fract_y
 _atom_site_fract_z
 _atom_site_occupancy
  Lu  Lu0  1  0.763200  0.763200  0.500000  1
  Lu  Lu1  1  0.606770  0.002587  0.000000  1
  Lu  Lu2  1  0.002587  0.606770  0.000000  1
  Lu  Lu3  1  0.391586  0.391586  0.000000  1
  Zr  Zr4  1  0.231500  0.004845  0.500000  1
  Zr  Zr5  1  0.004845  0.231500  0.500000  1
  Ta  Ta6  1  0.005674  0.005674  0.000000  1
  Bi  Bi7  1  0.327981  0.665857  0.500000  1
  Bi  Bi8  1  0.665857  0.327981  0.500000  1
