# generated using pymatgen
data_LiEu4CdAs4
_symmetry_space_group_name_H-M   'P 1'
_cell_length_a   8.55337989
_cell_length_b   8.55338048
_cell_length_c   7.42264695
_cell_angle_alpha   90.80581947
_cell_angle_beta   90.80582090
_cell_angle_gamma   29.70309777
_symmetry_Int_Tables_number   1
_chemical_formula_structural   LiEu4CdAs4
_chemical_formula_sum   'Li1 Eu4 Cd1 As4'
_cell_volume   269.05246582
_cell_formula_units_Z   1
loop_
 _symmetry_equiv_pos_site_id
 _symmetry_equiv_pos_as_xyz
  1  'x, y, z'
loop_
 _atom_site_type_symbol
 _atom_site_label
 _atom_site_symmetry_multiplicity
 _atom_site_fract_x
 _atom_site_fract_y
 _atom_site_fract_z
 _atom_site_occupancy
  Li  Li0  1  0.101177  0.101177  0.426007  1
  Eu  Eu1  1  0.292676  0.292676  0.607393  1
  Eu  Eu2  1  0.702284  0.702284  0.114136  1
  Eu  Eu3  1  0.472664  0.472664  0.270346  1
  Eu  Eu4  1  0.535568  0.535568  0.759732  1
  Cd  Cd5  1  0.903082  0.903082  0.922233  1
  As  As6  1  0.321376  0.321376  0.029519  1
  As  As7  1  0.671860  0.671860  0.509263  1
  As  As8  1  0.064070  0.064070  0.058908  1
  As  As9  1  0.935242  0.935242  0.554299  1
