# generated using pymatgen
data_BeFe5(SiMo2)2
_symmetry_space_group_name_H-M   'P 1'
_cell_length_a   4.71039458
_cell_length_b   4.71039305
_cell_length_c   7.67738200
_cell_angle_alpha   90.00000000
_cell_angle_beta   90.00000000
_cell_angle_gamma   120.12252058
_symmetry_Int_Tables_number   1
_chemical_formula_structural   BeFe5(SiMo2)2
_chemical_formula_sum   'Be1 Fe5 Si2 Mo4'
_cell_volume   147.34001633
_cell_formula_units_Z   1
loop_
 _symmetry_equiv_pos_site_id
 _symmetry_equiv_pos_as_xyz
  1  'x, y, z'
loop_
 _atom_site_type_symbol
 _atom_site_label
 _atom_site_symmetry_multiplicity
 _atom_site_fract_x
 _atom_site_fract_y
 _atom_site_fract_z
 _atom_site_occupancy
  Be  Be0  1  0.826993  0.173007  0.250000  1
  Fe  Fe1  1  0.828333  0.659068  0.250000  1
  Fe  Fe2  1  0.340932  0.171667  0.250000  1
  Fe  Fe3  1  0.170867  0.829133  0.750000  1
  Fe  Fe4  1  0.172580  0.340904  0.750000  1
  Fe  Fe5  1  0.659096  0.827420  0.750000  1
  Si  Si6  1  0.997971  0.002029  0.494947  1
  Si  Si7  1  0.997971  0.002029  0.005053  1
  Mo  Mo8  1  0.332520  0.667480  0.431879  1
  Mo  Mo9  1  0.670109  0.329891  0.561163  1
  Mo  Mo10  1  0.670109  0.329891  0.938837  1
  Mo  Mo11  1  0.332520  0.667480  0.068121  1
