# generated using pymatgen
data_PrNd5(RuBr3)2
_symmetry_space_group_name_H-M   'P 1'
_cell_length_a   4.23188400
_cell_length_b   9.07427333
_cell_length_c   12.16319623
_cell_angle_alpha   87.25662305
_cell_angle_beta   90.00000000
_cell_angle_gamma   90.00000000
_symmetry_Int_Tables_number   1
_chemical_formula_structural   PrNd5(RuBr3)2
_chemical_formula_sum   'Pr1 Nd5 Ru2 Br6'
_cell_volume   466.54689758
_cell_formula_units_Z   1
loop_
 _symmetry_equiv_pos_site_id
 _symmetry_equiv_pos_as_xyz
  1  'x, y, z'
loop_
 _atom_site_type_symbol
 _atom_site_label
 _atom_site_symmetry_multiplicity
 _atom_site_fract_x
 _atom_site_fract_y
 _atom_site_fract_z
 _atom_site_occupancy
  Pr  Pr0  1  0.750000  0.120534  0.160379  1
  Nd  Nd1  1  0.250000  0.320327  0.378724  1
  Nd  Nd2  1  0.750000  0.679997  0.621633  1
  Nd  Nd3  1  0.250000  0.896638  0.387479  1
  Nd  Nd4  1  0.750000  0.103189  0.613035  1
  Nd  Nd5  1  0.250000  0.879138  0.838769  1
  Ru  Ru6  1  0.250000  0.888086  0.622497  1
  Ru  Ru7  1  0.750000  0.111931  0.378150  1
  Br  Br8  1  0.250000  0.394766  0.627014  1
  Br  Br9  1  0.750000  0.605275  0.372977  1
  Br  Br10  1  0.250000  0.883253  0.114790  1
  Br  Br11  1  0.750000  0.114940  0.884531  1
  Br  Br12  1  0.250000  0.356462  0.125616  1
  Br  Br13  1  0.750000  0.645463  0.874408  1
