# generated using pymatgen
data_Tb5ErTiAl23Os8
_symmetry_space_group_name_H-M   'P 1'
_cell_length_a   8.85895635
_cell_length_b   8.85898023
_cell_length_c   9.57337301
_cell_angle_alpha   90.00355439
_cell_angle_beta   89.99681668
_cell_angle_gamma   120.03188029
_symmetry_Int_Tables_number   1
_chemical_formula_structural   Tb5ErTiAl23Os8
_chemical_formula_sum   'Tb5 Er1 Ti1 Al23 Os8'
_cell_volume   650.46255421
_cell_formula_units_Z   1
loop_
 _symmetry_equiv_pos_site_id
 _symmetry_equiv_pos_as_xyz
  1  'x, y, z'
loop_
 _atom_site_type_symbol
 _atom_site_label
 _atom_site_symmetry_multiplicity
 _atom_site_fract_x
 _atom_site_fract_y
 _atom_site_fract_z
 _atom_site_occupancy
  Tb  Tb0  1  0.194001  0.388021  0.250156  1
  Tb  Tb1  1  0.806932  0.613755  0.748144  1
  Tb  Tb2  1  0.611977  0.806000  0.250156  1
  Tb  Tb3  1  0.386246  0.193067  0.748145  1
  Tb  Tb4  1  0.194053  0.805947  0.250154  1
  Er  Er5  1  0.806506  0.193481  0.747973  1
  Ti  Ti6  1  0.333342  0.666664  0.992167  1
  Al  Al7  1  0.666790  0.333210  0.981067  1
  Al  Al8  1  0.666808  0.333194  0.516615  1
  Al  Al9  1  0.333343  0.666656  0.481910  1
  Al  Al10  1  0.162164  0.324766  0.575505  1
  Al  Al11  1  0.837300  0.674598  0.424100  1
  Al  Al12  1  0.675235  0.837836  0.575505  1
  Al  Al13  1  0.836860  0.673737  0.076930  1
  Al  Al14  1  0.325402  0.162701  0.424100  1
  Al  Al15  1  0.159408  0.319196  0.925567  1
  Al  Al16  1  0.162413  0.837587  0.575432  1
  Al  Al17  1  0.326264  0.163141  0.076929  1
  Al  Al18  1  0.837302  0.162699  0.424367  1
  Al  Al19  1  0.680805  0.840593  0.925567  1
  Al  Al20  1  0.836869  0.163132  0.076717  1
  Al  Al21  1  0.159637  0.840364  0.925636  1
  Al  Al22  1  0.561787  0.123523  0.253102  1
  Al  Al23  1  0.441399  0.882220  0.750302  1
  Al  Al24  1  0.876478  0.438213  0.253102  1
  Al  Al25  1  0.117781  0.558602  0.750301  1
  Al  Al26  1  0.561763  0.438237  0.253092  1
  Al  Al27  1  0.440873  0.559127  0.750301  1
  Al  Al28  1  0.000019  0.999981  0.250153  1
  Al  Al29  1  0.999767  0.000233  0.749557  1
  Os  Os30  1  0.499562  0.998575  0.002537  1
  Os  Os31  1  0.001423  0.500436  0.002533  1
  Os  Os32  1  0.500056  0.999528  0.503184  1
  Os  Os33  1  0.499236  0.500759  0.002767  1
  Os  Os34  1  0.000476  0.499945  0.503185  1
  Os  Os35  1  0.499714  0.500285  0.502954  1
  Os  Os36  1  0.000004  0.999998  0.000284  1
  Os  Os37  1  0.000002  0.999998  0.499804  1
