# generated using pymatgen
data_Eu9HoSn6F2
_symmetry_space_group_name_H-M   'P 1'
_cell_length_a   9.64477052
_cell_length_b   9.64477042
_cell_length_c   9.64477000
_cell_angle_alpha   128.82279605
_cell_angle_beta   128.82280318
_cell_angle_gamma   75.29586071
_symmetry_Int_Tables_number   1
_chemical_formula_structural   Eu9HoSn6F2
_chemical_formula_sum   'Eu9 Ho1 Sn6 F2'
_cell_volume   530.05228037
_cell_formula_units_Z   1
loop_
 _symmetry_equiv_pos_site_id
 _symmetry_equiv_pos_as_xyz
  1  'x, y, z'
loop_
 _atom_site_type_symbol
 _atom_site_label
 _atom_site_symmetry_multiplicity
 _atom_site_fract_x
 _atom_site_fract_y
 _atom_site_fract_z
 _atom_site_occupancy
  Eu  Eu0  1  0.500000  0.500000  0.000000  1
  Eu  Eu1  1  0.514798  0.013156  0.829044  1
  Eu  Eu2  1  0.184111  0.685753  0.170956  1
  Eu  Eu3  1  0.013156  0.184111  0.498359  1
  Eu  Eu4  1  0.685753  0.514798  0.501641  1
  Eu  Eu5  1  0.485202  0.986844  0.170956  1
  Eu  Eu6  1  0.815889  0.314247  0.829044  1
  Eu  Eu7  1  0.986844  0.815889  0.501641  1
  Eu  Eu8  1  0.314247  0.485202  0.498359  1
  Ho  Ho9  1  0.000000  0.000000  0.000000  1
  Sn  Sn10  1  0.246687  0.246687  0.000000  1
  Sn  Sn11  1  0.753313  0.753313  0.000000  1
  Sn  Sn12  1  0.878325  0.366087  0.244412  1
  Sn  Sn13  1  0.121675  0.633913  0.755588  1
  Sn  Sn14  1  0.366087  0.121675  0.487761  1
  Sn  Sn15  1  0.633913  0.878325  0.512239  1
  F  F16  1  0.250000  0.750000  0.500000  1
  F  F17  1  0.750000  0.250000  0.500000  1
