# generated using pymatgen
data_Zr4TiSn3S
_symmetry_space_group_name_H-M   'P 1'
_cell_length_a   8.52240300
_cell_length_b   8.52240368
_cell_length_c   5.92446800
_cell_angle_alpha   90.00000000
_cell_angle_beta   90.00000000
_cell_angle_gamma   120.00000123
_symmetry_Int_Tables_number   1
_chemical_formula_structural   Zr4TiSn3S
_chemical_formula_sum   'Zr8 Ti2 Sn6 S2'
_cell_volume   372.65259772
_cell_formula_units_Z   2
loop_
 _symmetry_equiv_pos_site_id
 _symmetry_equiv_pos_as_xyz
  1  'x, y, z'
loop_
 _atom_site_type_symbol
 _atom_site_label
 _atom_site_symmetry_multiplicity
 _atom_site_fract_x
 _atom_site_fract_y
 _atom_site_fract_z
 _atom_site_occupancy
  Zr  Zr0  1  0.333333  0.666667  0.500000  1
  Zr  Zr1  1  0.666667  0.333333  0.500000  1
  Zr  Zr2  1  0.749266  0.749266  0.748867  1
  Zr  Zr3  1  0.250734  0.000000  0.748867  1
  Zr  Zr4  1  0.000000  0.250734  0.748867  1
  Zr  Zr5  1  0.250734  0.250734  0.251133  1
  Zr  Zr6  1  0.749266  0.000000  0.251133  1
  Zr  Zr7  1  0.000000  0.749266  0.251133  1
  Ti  Ti8  1  0.666667  0.333333  0.000000  1
  Ti  Ti9  1  0.333333  0.666667  0.000000  1
  Sn  Sn10  1  0.402243  0.402243  0.759877  1
  Sn  Sn11  1  0.597757  0.000000  0.759877  1
  Sn  Sn12  1  0.000000  0.597757  0.759877  1
  Sn  Sn13  1  0.597757  0.597757  0.240123  1
  Sn  Sn14  1  0.402243  0.000000  0.240123  1
  Sn  Sn15  1  0.000000  0.402243  0.240123  1
  S  S16  1  0.000000  0.000000  0.000000  1
  S  S17  1  0.000000  0.000000  0.500000  1
