# generated using pymatgen
data_Dy5Tm11Tl3InRh4
_symmetry_space_group_name_H-M   'P 1'
_cell_length_a   9.58661764
_cell_length_b   9.58327002
_cell_length_c   9.58127195
_cell_angle_alpha   60.01142368
_cell_angle_beta   59.91301953
_cell_angle_gamma   59.93939780
_symmetry_Int_Tables_number   1
_chemical_formula_structural   Dy5Tm11Tl3InRh4
_chemical_formula_sum   'Dy5 Tm11 Tl3 In1 Rh4'
_cell_volume   621.78373450
_cell_formula_units_Z   1
loop_
 _symmetry_equiv_pos_site_id
 _symmetry_equiv_pos_as_xyz
  1  'x, y, z'
loop_
 _atom_site_type_symbol
 _atom_site_label
 _atom_site_symmetry_multiplicity
 _atom_site_fract_x
 _atom_site_fract_y
 _atom_site_fract_z
 _atom_site_occupancy
  Dy  Dy0  1  0.060534  0.061040  0.438213  1
  Dy  Dy1  1  0.438020  0.061670  0.437823  1
  Dy  Dy2  1  0.061976  0.437713  0.060741  1
  Dy  Dy3  1  0.050551  0.648759  0.649402  1
  Dy  Dy4  1  0.437724  0.437392  0.061189  1
  Tm  Tm5  1  0.648950  0.049447  0.649040  1
  Tm  Tm6  1  0.187463  0.813490  0.187314  1
  Tm  Tm7  1  0.188064  0.187616  0.813931  1
  Tm  Tm8  1  0.811841  0.812189  0.189239  1
  Tm  Tm9  1  0.440289  0.059304  0.057748  1
  Tm  Tm10  1  0.813280  0.187432  0.187715  1
  Tm  Tm11  1  0.059277  0.440011  0.440057  1
  Tm  Tm12  1  0.810744  0.189470  0.812718  1
  Tm  Tm13  1  0.189002  0.811809  0.813460  1
  Tm  Tm14  1  0.649159  0.648525  0.049582  1
  Tm  Tm15  1  0.650788  0.651760  0.652594  1
  Tl  Tl16  1  0.414118  0.414015  0.415415  1
  Tl  Tl17  1  0.756595  0.414835  0.416014  1
  Tl  Tl18  1  0.415719  0.756057  0.414895  1
  In  In19  1  0.418176  0.415635  0.750498  1
  Rh  Rh20  1  0.857368  0.857731  0.426885  1
  Rh  Rh21  1  0.855205  0.859036  0.859082  1
  Rh  Rh22  1  0.427716  0.858480  0.858583  1
  Rh  Rh23  1  0.857442  0.426581  0.857860  1
