# generated using pymatgen
data_SmLuFe4(CoB2)4
_symmetry_space_group_name_H-M   'P 1'
_cell_length_a   6.93574360
_cell_length_b   6.95662660
_cell_length_c   3.81516600
_cell_angle_alpha   90.00000000
_cell_angle_beta   90.00000000
_cell_angle_gamma   89.95255443
_symmetry_Int_Tables_number   1
_chemical_formula_structural   SmLuFe4(CoB2)4
_chemical_formula_sum   'Sm1 Lu1 Fe4 Co4 B8'
_cell_volume   184.07932471
_cell_formula_units_Z   1
loop_
 _symmetry_equiv_pos_site_id
 _symmetry_equiv_pos_as_xyz
  1  'x, y, z'
loop_
 _atom_site_type_symbol
 _atom_site_label
 _atom_site_symmetry_multiplicity
 _atom_site_fract_x
 _atom_site_fract_y
 _atom_site_fract_z
 _atom_site_occupancy
  Sm  Sm0  1  0.500000  0.500000  0.500525  1
  Lu  Lu1  1  0.000000  0.000000  0.999169  1
  Fe  Fe2  1  0.382605  0.130733  0.892243  1
  Fe  Fe3  1  0.617395  0.869267  0.892243  1
  Fe  Fe4  1  0.365568  0.885328  0.392655  1
  Fe  Fe5  1  0.634432  0.114672  0.392655  1
  Co  Co6  1  0.115840  0.359202  0.609817  1
  Co  Co7  1  0.884160  0.640798  0.609817  1
  Co  Co8  1  0.135311  0.618997  0.110103  1
  Co  Co9  1  0.864689  0.381003  0.110103  1
  B  B10  1  0.802857  0.666323  0.103660  1
  B  B11  1  0.197143  0.333677  0.103660  1
  B  B12  1  0.838252  0.293017  0.605902  1
  B  B13  1  0.161748  0.706983  0.605902  1
  B  B14  1  0.702652  0.836776  0.391468  1
  B  B15  1  0.297348  0.163224  0.391468  1
  B  B16  1  0.667801  0.194006  0.894307  1
  B  B17  1  0.332199  0.805994  0.894307  1
