# generated using pymatgen
data_Ca8Bi5I
_symmetry_space_group_name_H-M   'P 1'
_cell_length_a   8.44764395
_cell_length_b   8.44767430
_cell_length_c   8.44763231
_cell_angle_alpha   109.47246385
_cell_angle_beta   109.46856432
_cell_angle_gamma   109.47250597
_symmetry_Int_Tables_number   1
_chemical_formula_structural   Ca8Bi5I
_chemical_formula_sum   'Ca8 Bi5 I1'
_cell_volume   464.07327401
_cell_formula_units_Z   1
loop_
 _symmetry_equiv_pos_site_id
 _symmetry_equiv_pos_as_xyz
  1  'x, y, z'
loop_
 _atom_site_type_symbol
 _atom_site_label
 _atom_site_symmetry_multiplicity
 _atom_site_fract_x
 _atom_site_fract_y
 _atom_site_fract_z
 _atom_site_occupancy
  Ca  Ca0  1  0.480987  0.989691  0.620997  1
  Ca  Ca1  1  0.157038  0.508585  0.998847  1
  Ca  Ca2  1  0.379004  0.359990  0.368696  1
  Ca  Ca3  1  0.008705  0.140011  0.519012  1
  Ca  Ca4  1  0.851546  0.841818  0.842967  1
  Ca  Ca5  1  0.001150  0.658180  0.509728  1
  Ca  Ca6  1  0.490261  0.991417  0.148453  1
  Ca  Ca7  1  0.631305  0.510307  0.991295  1
  Bi  Bi8  1  0.109358  0.866912  0.240541  1
  Bi  Bi9  1  0.373628  0.633089  0.742448  1
  Bi  Bi10  1  0.257553  0.131183  0.890644  1
  Bi  Bi11  1  0.759462  0.368817  0.626372  1
  Bi  Bi12  1  0.625001  0.750001  0.375000  1
  I  I13  1  0.874999  0.250000  0.125002  1
