# generated using pymatgen
data_Zr4V4FeOs3
_symmetry_space_group_name_H-M   'P 1'
_cell_length_a   5.15161552
_cell_length_b   5.15161498
_cell_length_c   8.57503200
_cell_angle_alpha   90.00000000
_cell_angle_beta   90.00000000
_cell_angle_gamma   120.41010156
_symmetry_Int_Tables_number   1
_chemical_formula_structural   Zr4V4FeOs3
_chemical_formula_sum   'Zr4 V4 Fe1 Os3'
_cell_volume   196.26535523
_cell_formula_units_Z   1
loop_
 _symmetry_equiv_pos_site_id
 _symmetry_equiv_pos_as_xyz
  1  'x, y, z'
loop_
 _atom_site_type_symbol
 _atom_site_label
 _atom_site_symmetry_multiplicity
 _atom_site_fract_x
 _atom_site_fract_y
 _atom_site_fract_z
 _atom_site_occupancy
  Zr  Zr0  1  0.332501  0.667499  0.439708  1
  Zr  Zr1  1  0.665288  0.334712  0.562114  1
  Zr  Zr2  1  0.665288  0.334712  0.937886  1
  Zr  Zr3  1  0.332501  0.667499  0.060292  1
  V  V4  1  0.831368  0.667624  0.250000  1
  V  V5  1  0.332376  0.168632  0.250000  1
  V  V6  1  0.170068  0.336583  0.750000  1
  V  V7  1  0.663417  0.829932  0.750000  1
  Fe  Fe8  1  0.181587  0.818413  0.750000  1
  Os  Os9  1  0.001563  0.998437  0.506280  1
  Os  Os10  1  0.001563  0.998437  0.993720  1
  Os  Os11  1  0.822481  0.177519  0.250000  1
