# generated using pymatgen
data_ZnBiPt2O7
_symmetry_space_group_name_H-M   'P 1'
_cell_length_a   7.21384373
_cell_length_b   7.21384385
_cell_length_c   7.10241400
_cell_angle_alpha   60.50966960
_cell_angle_beta   60.50966906
_cell_angle_gamma   61.39450338
_symmetry_Int_Tables_number   1
_chemical_formula_structural   ZnBiPt2O7
_chemical_formula_sum   'Zn2 Bi2 Pt4 O14'
_cell_volume   266.05253861
_cell_formula_units_Z   2
loop_
 _symmetry_equiv_pos_site_id
 _symmetry_equiv_pos_as_xyz
  1  'x, y, z'
loop_
 _atom_site_type_symbol
 _atom_site_label
 _atom_site_symmetry_multiplicity
 _atom_site_fract_x
 _atom_site_fract_y
 _atom_site_fract_z
 _atom_site_occupancy
  Zn  Zn0  1  0.125000  0.125000  0.625000  1
  Zn  Zn1  1  0.125000  0.125000  0.125000  1
  Bi  Bi2  1  0.125000  0.625000  0.125000  1
  Bi  Bi3  1  0.625000  0.125000  0.125000  1
  Pt  Pt4  1  0.625000  0.625000  0.125000  1
  Pt  Pt5  1  0.625000  0.125000  0.625000  1
  Pt  Pt6  1  0.125000  0.625000  0.625000  1
  Pt  Pt7  1  0.625000  0.625000  0.625000  1
  O  O8  1  0.237475  0.237475  0.262525  1
  O  O9  1  0.012525  0.012525  0.987475  1
  O  O10  1  0.534175  0.960017  0.542124  1
  O  O11  1  0.289983  0.715825  0.286316  1
  O  O12  1  0.536936  0.536936  0.963064  1
  O  O13  1  0.960017  0.534175  0.542124  1
  O  O14  1  0.534175  0.960017  0.963684  1
  O  O15  1  0.963590  0.963590  0.536410  1
  O  O16  1  0.960017  0.534175  0.963684  1
  O  O17  1  0.715825  0.289983  0.286316  1
  O  O18  1  0.289983  0.715825  0.707876  1
  O  O19  1  0.715825  0.289983  0.707876  1
  O  O20  1  0.286410  0.286410  0.713590  1
  O  O21  1  0.713064  0.713064  0.286936  1
