# generated using pymatgen
data_SmEuCuSi4Pt3
_symmetry_space_group_name_H-M   'P 1'
_cell_length_a   4.25452900
_cell_length_b   4.24992700
_cell_length_c   9.88350600
_cell_angle_alpha   90.00000000
_cell_angle_beta   90.00000000
_cell_angle_gamma   90.00000000
_symmetry_Int_Tables_number   1
_chemical_formula_structural   SmEuCuSi4Pt3
_chemical_formula_sum   'Sm1 Eu1 Cu1 Si4 Pt3'
_cell_volume   178.70799769
_cell_formula_units_Z   1
loop_
 _symmetry_equiv_pos_site_id
 _symmetry_equiv_pos_as_xyz
  1  'x, y, z'
loop_
 _atom_site_type_symbol
 _atom_site_label
 _atom_site_symmetry_multiplicity
 _atom_site_fract_x
 _atom_site_fract_y
 _atom_site_fract_z
 _atom_site_occupancy
  Sm  Sm0  1  0.500000  0.000000  0.248614  1
  Eu  Eu1  1  0.000000  0.500000  0.750377  1
  Cu  Cu2  1  0.000000  0.000000  0.002910  1
  Si  Si3  1  0.000000  0.500000  0.130325  1
  Si  Si4  1  0.500000  0.500000  0.498497  1
  Si  Si5  1  0.500000  0.000000  0.871088  1
  Si  Si6  1  0.000000  0.000000  0.498822  1
  Pt  Pt7  1  0.500000  0.000000  0.621231  1
  Pt  Pt8  1  0.500000  0.500000  0.001692  1
  Pt  Pt9  1  0.000000  0.500000  0.376444  1
