# generated using pymatgen
data_Yb11Y8TmSn16
_symmetry_space_group_name_H-M   'P 1'
_cell_length_a   7.84104846
_cell_length_b   8.44945177
_cell_length_c   16.01334800
_cell_angle_alpha   90.00000000
_cell_angle_beta   90.00000000
_cell_angle_gamma   89.84832606
_symmetry_Int_Tables_number   1
_chemical_formula_structural   Yb11Y8TmSn16
_chemical_formula_sum   'Yb11 Y8 Tm1 Sn16'
_cell_volume   1060.92159457
_cell_formula_units_Z   1
loop_
 _symmetry_equiv_pos_site_id
 _symmetry_equiv_pos_as_xyz
  1  'x, y, z'
loop_
 _atom_site_type_symbol
 _atom_site_label
 _atom_site_symmetry_multiplicity
 _atom_site_fract_x
 _atom_site_fract_y
 _atom_site_fract_z
 _atom_site_occupancy
  Yb  Yb0  1  0.503999  0.688256  0.594282  1
  Yb  Yb1  1  0.003706  0.813491  0.907357  1
  Yb  Yb2  1  0.494983  0.310688  0.092494  1
  Yb  Yb3  1  0.996211  0.188421  0.407833  1
  Yb  Yb4  1  0.494983  0.310688  0.407506  1
  Yb  Yb5  1  0.996211  0.188421  0.092167  1
  Yb  Yb6  1  0.503999  0.688256  0.905718  1
  Yb  Yb7  1  0.003706  0.813491  0.592643  1
  Yb  Yb8  1  0.335848  0.989602  0.750000  1
  Yb  Yb9  1  0.163540  0.488888  0.250000  1
  Yb  Yb10  1  0.662363  0.009692  0.250000  1
  Y  Y11  1  0.672439  0.165154  0.622298  1
  Y  Y12  1  0.173700  0.333531  0.876969  1
  Y  Y13  1  0.327417  0.832212  0.122163  1
  Y  Y14  1  0.827958  0.665772  0.378089  1
  Y  Y15  1  0.327417  0.832212  0.377837  1
  Y  Y16  1  0.827958  0.665772  0.121911  1
  Y  Y17  1  0.672439  0.165154  0.877702  1
  Y  Y18  1  0.173700  0.333531  0.623031  1
  Tm  Tm19  1  0.837491  0.510827  0.750000  1
  Sn  Sn20  1  0.672430  0.964402  0.459464  1
  Sn  Sn21  1  0.172424  0.535099  0.039846  1
  Sn  Sn22  1  0.328363  0.035595  0.959386  1
  Sn  Sn23  1  0.828350  0.466533  0.543632  1
  Sn  Sn24  1  0.328363  0.035595  0.540614  1
  Sn  Sn25  1  0.828350  0.466533  0.956368  1
  Sn  Sn26  1  0.672430  0.964402  0.040536  1
  Sn  Sn27  1  0.172424  0.535099  0.460154  1
  Sn  Sn28  1  0.474837  0.380600  0.750000  1
  Sn  Sn29  1  0.970074  0.130936  0.750000  1
  Sn  Sn30  1  0.528970  0.621817  0.250000  1
  Sn  Sn31  1  0.027879  0.875690  0.250000  1
  Sn  Sn32  1  0.720415  0.864925  0.750000  1
  Sn  Sn33  1  0.209823  0.631203  0.750000  1
  Sn  Sn34  1  0.281253  0.127264  0.250000  1
  Sn  Sn35  1  0.783550  0.370247  0.250000  1
