# generated using pymatgen
data_LaPrTeO6
_symmetry_space_group_name_H-M   'P 1'
_cell_length_a   5.54491200
_cell_length_b   9.51104400
_cell_length_c   10.43193900
_cell_angle_alpha   90.00000000
_cell_angle_beta   90.00000000
_cell_angle_gamma   90.00000000
_symmetry_Int_Tables_number   1
_chemical_formula_structural   LaPrTeO6
_chemical_formula_sum   'La4 Pr4 Te4 O24'
_cell_volume   550.15857674
_cell_formula_units_Z   4
loop_
 _symmetry_equiv_pos_site_id
 _symmetry_equiv_pos_as_xyz
  1  'x, y, z'
loop_
 _atom_site_type_symbol
 _atom_site_label
 _atom_site_symmetry_multiplicity
 _atom_site_fract_x
 _atom_site_fract_y
 _atom_site_fract_z
 _atom_site_occupancy
  La  La0  1  0.030733  0.217273  0.140227  1
  La  La1  1  0.469267  0.782727  0.640227  1
  La  La2  1  0.969267  0.717273  0.359773  1
  La  La3  1  0.530733  0.282727  0.859773  1
  Pr  Pr4  1  0.024968  0.103765  0.541297  1
  Pr  Pr5  1  0.475032  0.896235  0.041297  1
  Pr  Pr6  1  0.975032  0.603765  0.958703  1
  Pr  Pr7  1  0.524968  0.396235  0.458703  1
  Te  Te8  1  0.540449  0.004485  0.356894  1
  Te  Te9  1  0.959551  0.995515  0.856894  1
  Te  Te10  1  0.459551  0.504485  0.143106  1
  Te  Te11  1  0.040449  0.495515  0.643106  1
  O  O12  1  0.425991  0.149931  0.474587  1
  O  O13  1  0.074009  0.850069  0.974587  1
  O  O14  1  0.574009  0.649931  0.025413  1
  O  O15  1  0.925991  0.350069  0.525413  1
  O  O16  1  0.719847  0.389188  0.066042  1
  O  O17  1  0.780153  0.610812  0.566042  1
  O  O18  1  0.280153  0.889188  0.433958  1
  O  O19  1  0.219847  0.110812  0.933958  1
  O  O20  1  0.253589  0.415806  0.009767  1
  O  O21  1  0.246411  0.584194  0.509767  1
  O  O22  1  0.746411  0.915806  0.490233  1
  O  O23  1  0.753589  0.084194  0.990233  1
  O  O24  1  0.194723  0.637346  0.175074  1
  O  O25  1  0.305277  0.362654  0.675074  1
  O  O26  1  0.805277  0.137346  0.324926  1
  O  O27  1  0.694723  0.862654  0.824926  1
  O  O28  1  0.334633  0.052529  0.213587  1
  O  O29  1  0.165367  0.947471  0.713587  1
  O  O30  1  0.665367  0.552529  0.286413  1
  O  O31  1  0.834633  0.447471  0.786413  1
  O  O32  1  0.322013  0.364535  0.256585  1
  O  O33  1  0.177987  0.635465  0.756585  1
  O  O34  1  0.677987  0.864535  0.243415  1
  O  O35  1  0.822013  0.135465  0.743415  1
