# generated using pymatgen
data_Dy5Tm3P12Ir11Rh5
_symmetry_space_group_name_H-M   'P 1'
_cell_length_a   12.97511854
_cell_length_b   12.95982527
_cell_length_c   3.98008500
_cell_angle_alpha   90.00000000
_cell_angle_beta   90.00000000
_cell_angle_gamma   119.91540590
_symmetry_Int_Tables_number   1
_chemical_formula_structural   Dy5Tm3P12Ir11Rh5
_chemical_formula_sum   'Dy5 Tm3 P12 Ir11 Rh5'
_cell_volume   580.10022298
_cell_formula_units_Z   1
loop_
 _symmetry_equiv_pos_site_id
 _symmetry_equiv_pos_as_xyz
  1  'x, y, z'
loop_
 _atom_site_type_symbol
 _atom_site_label
 _atom_site_symmetry_multiplicity
 _atom_site_fract_x
 _atom_site_fract_y
 _atom_site_fract_z
 _atom_site_occupancy
  Dy  Dy0  1  0.333350  0.666403  0.500000  1
  Dy  Dy1  1  0.666061  0.332411  0.500000  1
  Dy  Dy2  1  0.999961  0.813514  0.000000  1
  Dy  Dy3  1  0.186695  0.186719  0.000000  1
  Dy  Dy4  1  0.813449  0.000097  0.000000  1
  Tm  Tm5  1  0.000269  0.445878  0.500000  1
  Tm  Tm6  1  0.554067  0.554266  0.500000  1
  Tm  Tm7  1  0.445738  0.999805  0.500000  1
  P  P8  1  0.000098  0.652097  0.500000  1
  P  P9  1  0.347996  0.347698  0.500000  1
  P  P10  1  0.652290  0.000606  0.500000  1
  P  P11  1  0.517548  0.690068  0.000000  1
  P  P12  1  0.309407  0.827210  0.000000  1
  P  P13  1  0.172594  0.482519  0.000000  1
  P  P14  1  0.482724  0.171923  0.000000  1
  P  P15  1  0.689937  0.517524  0.000000  1
  P  P16  1  0.827891  0.310904  0.000000  1
  P  P17  1  0.000459  0.176235  0.500000  1
  P  P18  1  0.823686  0.823788  0.500000  1
  P  P19  1  0.176427  0.000300  0.500000  1
  Ir  Ir20  1  0.642831  0.132873  0.000000  1
  Ir  Ir21  1  0.000032  0.273930  0.000000  1
  Ir  Ir22  1  0.725876  0.725981  0.000000  1
  Ir  Ir23  1  0.273743  0.999609  0.000000  1
  Ir  Ir24  1  0.628926  0.808288  0.500000  1
  Ir  Ir25  1  0.192388  0.821038  0.500000  1
  Ir  Ir26  1  0.178830  0.371687  0.500000  1
  Ir  Ir27  1  0.371362  0.178539  0.500000  1
  Ir  Ir28  1  0.807585  0.628662  0.500000  1
  Ir  Ir29  1  0.821611  0.192159  0.500000  1
  Ir  Ir30  1  0.000004  0.999802  0.500000  1
  Rh  Rh31  1  0.510329  0.867896  0.000000  1
  Rh  Rh32  1  0.131496  0.643019  0.000000  1
  Rh  Rh33  1  0.356821  0.488615  0.000000  1
  Rh  Rh34  1  0.489419  0.356529  0.000000  1
  Rh  Rh35  1  0.868101  0.511406  0.000000  1
