# generated using pymatgen
data_La6PdAu7
_symmetry_space_group_name_H-M   'P 1'
_cell_length_a   8.43024793
_cell_length_b   8.43024807
_cell_length_c   8.43024818
_cell_angle_alpha   114.00623226
_cell_angle_beta   114.00622623
_cell_angle_gamma   114.00623633
_symmetry_Int_Tables_number   1
_chemical_formula_structural   La6PdAu7
_chemical_formula_sum   'La6 Pd1 Au7'
_cell_volume   363.83426411
_cell_formula_units_Z   1
loop_
 _symmetry_equiv_pos_site_id
 _symmetry_equiv_pos_as_xyz
  1  'x, y, z'
loop_
 _atom_site_type_symbol
 _atom_site_label
 _atom_site_symmetry_multiplicity
 _atom_site_fract_x
 _atom_site_fract_y
 _atom_site_fract_z
 _atom_site_occupancy
  La  La0  1  0.978125  0.606689  0.728769  1
  La  La1  1  0.728769  0.978125  0.606689  1
  La  La2  1  0.606689  0.728769  0.978125  1
  La  La3  1  0.021875  0.393311  0.271231  1
  La  La4  1  0.271231  0.021875  0.393311  1
  La  La5  1  0.393311  0.271231  0.021875  1
  Pd  Pd6  1  0.000000  0.000000  0.000000  1
  Au  Au7  1  0.500000  0.500000  0.500000  1
  Au  Au8  1  0.935573  0.771875  0.438202  1
  Au  Au9  1  0.438202  0.935573  0.771875  1
  Au  Au10  1  0.771875  0.438202  0.935573  1
  Au  Au11  1  0.064427  0.228125  0.561798  1
  Au  Au12  1  0.561798  0.064427  0.228125  1
  Au  Au13  1  0.228125  0.561798  0.064427  1
