# generated using pymatgen
data_Tb4Y12MgCd3Ir4
_symmetry_space_group_name_H-M   'P 1'
_cell_length_a   9.71000976
_cell_length_b   9.71001022
_cell_length_c   9.71001048
_cell_angle_alpha   59.78560882
_cell_angle_beta   59.78560463
_cell_angle_gamma   59.78560905
_symmetry_Int_Tables_number   1
_chemical_formula_structural   Tb4Y12MgCd3Ir4
_chemical_formula_sum   'Tb4 Y12 Mg1 Cd3 Ir4'
_cell_volume   644.20640639
_cell_formula_units_Z   1
loop_
 _symmetry_equiv_pos_site_id
 _symmetry_equiv_pos_as_xyz
  1  'x, y, z'
loop_
 _atom_site_type_symbol
 _atom_site_label
 _atom_site_symmetry_multiplicity
 _atom_site_fract_x
 _atom_site_fract_y
 _atom_site_fract_z
 _atom_site_occupancy
  Tb  Tb0  1  0.349150  0.349150  0.349150  1
  Tb  Tb1  1  0.348429  0.348429  0.956345  1
  Tb  Tb2  1  0.348429  0.956345  0.348429  1
  Tb  Tb3  1  0.956345  0.348429  0.348429  1
  Y  Y4  1  0.809004  0.190433  0.190433  1
  Y  Y5  1  0.186778  0.810815  0.810815  1
  Y  Y6  1  0.190433  0.809004  0.190433  1
  Y  Y7  1  0.810815  0.186778  0.810815  1
  Y  Y8  1  0.190433  0.190433  0.809004  1
  Y  Y9  1  0.810815  0.810815  0.186778  1
  Y  Y10  1  0.940593  0.561928  0.561928  1
  Y  Y11  1  0.561512  0.938440  0.938440  1
  Y  Y12  1  0.561928  0.940593  0.561928  1
  Y  Y13  1  0.938440  0.561512  0.938440  1
  Y  Y14  1  0.561928  0.561928  0.940593  1
  Y  Y15  1  0.938440  0.938440  0.561512  1
  Mg  Mg16  1  0.575099  0.575099  0.575099  1
  Cd  Cd17  1  0.581601  0.581601  0.254248  1
  Cd  Cd18  1  0.581601  0.254248  0.581601  1
  Cd  Cd19  1  0.254248  0.581601  0.581601  1
  Ir  Ir20  1  0.142160  0.142160  0.142160  1
  Ir  Ir21  1  0.143357  0.143357  0.575106  1
  Ir  Ir22  1  0.143357  0.575106  0.143357  1
  Ir  Ir23  1  0.575106  0.143357  0.143357  1
