# generated using pymatgen
data_Tb3Er9In20
_symmetry_space_group_name_H-M   'P 1'
_cell_length_a   6.52130909
_cell_length_b   10.39225237
_cell_length_c   12.22060411
_cell_angle_alpha   90.12388080
_cell_angle_beta   89.96470807
_cell_angle_gamma   90.00226218
_symmetry_Int_Tables_number   1
_chemical_formula_structural   Tb3Er9In20
_chemical_formula_sum   'Tb3 Er9 In20'
_cell_volume   828.20156619
_cell_formula_units_Z   1
loop_
 _symmetry_equiv_pos_site_id
 _symmetry_equiv_pos_as_xyz
  1  'x, y, z'
loop_
 _atom_site_type_symbol
 _atom_site_label
 _atom_site_symmetry_multiplicity
 _atom_site_fract_x
 _atom_site_fract_y
 _atom_site_fract_z
 _atom_site_occupancy
  Tb  Tb0  1  0.389694  0.992075  0.358486  1
  Tb  Tb1  1  0.889840  0.008551  0.141387  1
  Tb  Tb2  1  0.610093  0.491644  0.641395  1
  Er  Er3  1  0.351007  0.751017  0.053803  1
  Er  Er4  1  0.149105  0.749182  0.554047  1
  Er  Er5  1  0.649926  0.250849  0.945932  1
  Er  Er6  1  0.851384  0.248650  0.446020  1
  Er  Er7  1  0.890803  0.491907  0.140017  1
  Er  Er8  1  0.609429  0.008010  0.641024  1
  Er  Er9  1  0.109920  0.991597  0.858859  1
  Er  Er10  1  0.390201  0.508101  0.359336  1
  Er  Er11  1  0.109418  0.508402  0.859457  1
  In  In12  1  0.614815  0.750069  0.505195  1
  In  In13  1  0.885595  0.749718  0.005331  1
  In  In14  1  0.385256  0.250469  0.495043  1
  In  In15  1  0.115696  0.250536  0.993249  1
  In  In16  1  0.651831  0.748554  0.243502  1
  In  In17  1  0.847756  0.750547  0.743671  1
  In  In18  1  0.347512  0.249674  0.756978  1
  In  In19  1  0.151991  0.251540  0.256211  1
  In  In20  1  0.125148  0.748536  0.281844  1
  In  In21  1  0.373244  0.749701  0.782185  1
  In  In22  1  0.874740  0.248760  0.718153  1
  In  In23  1  0.625130  0.251797  0.218177  1
  In  In24  1  0.874903  0.542522  0.399545  1
  In  In25  1  0.625534  0.957010  0.899413  1
  In  In26  1  0.125356  0.042863  0.600386  1
  In  In27  1  0.374876  0.457457  0.100386  1
  In  In28  1  0.124032  0.456425  0.600389  1
  In  In29  1  0.375178  0.044153  0.098805  1
  In  In30  1  0.875504  0.955895  0.401063  1
  In  In31  1  0.625086  0.543792  0.900707  1
