# generated using pymatgen
data_BaUSe3
_symmetry_space_group_name_H-M   'P 1'
_cell_length_a   4.32465000
_cell_length_b   9.17001400
_cell_length_c   15.44635900
_cell_angle_alpha   90.00000000
_cell_angle_beta   90.00000000
_cell_angle_gamma   90.00000000
_symmetry_Int_Tables_number   1
_chemical_formula_structural   BaUSe3
_chemical_formula_sum   'Ba4 U4 Se12'
_cell_volume   612.55781964
_cell_formula_units_Z   4
loop_
 _symmetry_equiv_pos_site_id
 _symmetry_equiv_pos_as_xyz
  1  'x, y, z'
loop_
 _atom_site_type_symbol
 _atom_site_label
 _atom_site_symmetry_multiplicity
 _atom_site_fract_x
 _atom_site_fract_y
 _atom_site_fract_z
 _atom_site_occupancy
  Ba  Ba0  1  0.750000  0.566547  0.176521  1
  Ba  Ba1  1  0.250000  0.433453  0.823479  1
  Ba  Ba2  1  0.750000  0.066547  0.323479  1
  Ba  Ba3  1  0.250000  0.933453  0.676521  1
  U  U4  1  0.250000  0.663962  0.443000  1
  U  U5  1  0.750000  0.336038  0.557000  1
  U  U6  1  0.250000  0.163962  0.057000  1
  U  U7  1  0.750000  0.836038  0.943000  1
  Se  Se8  1  0.750000  0.833656  0.507640  1
  Se  Se9  1  0.250000  0.166344  0.492360  1
  Se  Se10  1  0.750000  0.333656  0.992360  1
  Se  Se11  1  0.250000  0.666344  0.007640  1
  Se  Se12  1  0.250000  0.523572  0.607670  1
  Se  Se13  1  0.750000  0.476428  0.392330  1
  Se  Se14  1  0.250000  0.023572  0.892330  1
  Se  Se15  1  0.750000  0.976428  0.107670  1
  Se  Se16  1  0.250000  0.790899  0.282104  1
  Se  Se17  1  0.750000  0.209101  0.717896  1
  Se  Se18  1  0.250000  0.290899  0.217896  1
  Se  Se19  1  0.750000  0.709101  0.782104  1
