# generated using pymatgen
data_ZrU(PO4)3
_symmetry_space_group_name_H-M   'P 1'
_cell_length_a   9.11536711
_cell_length_b   9.11576499
_cell_length_c   9.41899689
_cell_angle_alpha   90.10675446
_cell_angle_beta   118.81779046
_cell_angle_gamma   119.99399510
_symmetry_Int_Tables_number   1
_chemical_formula_structural   ZrU(PO4)3
_chemical_formula_sum   'Zr2 U2 P6 O24'
_cell_volume   562.66540260
_cell_formula_units_Z   2
loop_
 _symmetry_equiv_pos_site_id
 _symmetry_equiv_pos_as_xyz
  1  'x, y, z'
loop_
 _atom_site_type_symbol
 _atom_site_label
 _atom_site_symmetry_multiplicity
 _atom_site_fract_x
 _atom_site_fract_y
 _atom_site_fract_z
 _atom_site_occupancy
  Zr  Zr0  1  0.214645  0.858403  0.072684  1
  Zr  Zr1  1  0.786246  0.642091  0.428976  1
  U  U2  1  0.212713  0.357459  0.569545  1
  U  U3  1  0.786384  0.142002  0.928884  1
  P  P4  1  0.997891  0.958228  0.248336  1
  P  P5  1  0.290078  0.540374  0.250884  1
  P  P6  1  0.275779  0.751176  0.748094  1
  P  P7  1  0.709590  0.249321  0.252067  1
  P  P8  1  0.725243  0.474426  0.749281  1
  P  P9  1  0.001573  0.026564  0.751621  1
  O  O10  1  0.290466  0.704408  0.217068  1
  O  O11  1  0.863787  0.987715  0.085233  1
  O  O12  1  0.864693  0.860873  0.595562  1
  O  O13  1  0.858223  0.802022  0.282575  1
  O  O14  1  0.134778  0.926484  0.223566  1
  O  O15  1  0.481882  0.559224  0.286168  1
  O  O16  1  0.092736  0.727681  0.586504  1
  O  O17  1  0.910290  0.635042  0.910001  1
  O  O18  1  0.277253  0.783040  0.908463  1
  O  O19  1  0.475328  0.912285  0.772651  1
  O  O20  1  0.731238  0.495125  0.590713  1
  O  O21  1  0.720489  0.420857  0.278852  1
  O  O22  1  0.276948  0.581927  0.725167  1
  O  O23  1  0.272005  0.511040  0.406912  1
  O  O24  1  0.514836  0.085674  0.223251  1
  O  O25  1  0.720528  0.220292  0.094570  1
  O  O26  1  0.098191  0.370353  0.092874  1
  O  O27  1  0.898550  0.269008  0.411336  1
  O  O28  1  0.527165  0.447403  0.717420  1
  O  O29  1  0.863754  0.066301  0.772416  1
  O  O30  1  0.143517  0.192615  0.721353  1
  O  O31  1  0.135138  0.133801  0.401087  1
  O  O32  1  0.134652  0.005371  0.916665  1
  O  O33  1  0.713411  0.301415  0.779216  1
