# generated using pymatgen
data_Dy15Tm4ThSn16
_symmetry_space_group_name_H-M   'P 1'
_cell_length_a   8.03326735
_cell_length_b   8.15861342
_cell_length_c   15.44829028
_cell_angle_alpha   90.03844721
_cell_angle_beta   89.74653258
_cell_angle_gamma   89.85592719
_symmetry_Int_Tables_number   1
_chemical_formula_structural   Dy15Tm4ThSn16
_chemical_formula_sum   'Dy15 Tm4 Th1 Sn16'
_cell_volume   1012.47258703
_cell_formula_units_Z   1
loop_
 _symmetry_equiv_pos_site_id
 _symmetry_equiv_pos_as_xyz
  1  'x, y, z'
loop_
 _atom_site_type_symbol
 _atom_site_label
 _atom_site_symmetry_multiplicity
 _atom_site_fract_x
 _atom_site_fract_y
 _atom_site_fract_z
 _atom_site_occupancy
  Dy  Dy0  1  0.366910  0.836639  0.877067  1
  Dy  Dy1  1  0.869003  0.663873  0.621480  1
  Dy  Dy2  1  0.630637  0.162633  0.377429  1
  Dy  Dy3  1  0.132616  0.337616  0.123211  1
  Dy  Dy4  1  0.633258  0.162872  0.123225  1
  Dy  Dy5  1  0.131191  0.337536  0.377677  1
  Dy  Dy6  1  0.369615  0.836835  0.622238  1
  Dy  Dy7  1  0.867967  0.662153  0.877486  1
  Dy  Dy8  1  0.523555  0.322134  0.902629  1
  Dy  Dy9  1  0.024485  0.178987  0.598433  1
  Dy  Dy10  1  0.477104  0.678561  0.402211  1
  Dy  Dy11  1  0.978644  0.821064  0.097999  1
  Dy  Dy12  1  0.478619  0.678686  0.097916  1
  Dy  Dy13  1  0.977399  0.821170  0.402274  1
  Dy  Dy14  1  0.522526  0.322831  0.596235  1
  Tm  Tm15  1  0.197997  0.501678  0.749038  1
  Tm  Tm16  1  0.697871  0.996297  0.748732  1
  Tm  Tm17  1  0.801739  0.497104  0.250857  1
  Tm  Tm18  1  0.302179  0.002818  0.250373  1
  Th  Th19  1  0.017775  0.180243  0.903961  1
  Sn  Sn20  1  0.294411  0.034386  0.043280  1
  Sn  Sn21  1  0.790764  0.464082  0.457840  1
  Sn  Sn22  1  0.709717  0.966019  0.541757  1
  Sn  Sn23  1  0.210000  0.536625  0.958354  1
  Sn  Sn24  1  0.702835  0.959541  0.959420  1
  Sn  Sn25  1  0.208740  0.536525  0.541579  1
  Sn  Sn26  1  0.291080  0.035524  0.458201  1
  Sn  Sn27  1  0.792315  0.463004  0.041734  1
  Sn  Sn28  1  0.564139  0.619887  0.749864  1
  Sn  Sn29  1  0.064566  0.879003  0.750389  1
  Sn  Sn30  1  0.435495  0.381295  0.250060  1
  Sn  Sn31  1  0.935628  0.118791  0.250374  1
  Sn  Sn32  1  0.333473  0.149581  0.749424  1
  Sn  Sn33  1  0.827528  0.353991  0.747442  1
  Sn  Sn34  1  0.669374  0.850495  0.249843  1
  Sn  Sn35  1  0.168844  0.649520  0.249968  1
