# generated using pymatgen
data_GaCo3(Mo3N)2
_symmetry_space_group_name_H-M   'P 1'
_cell_length_a   6.70546800
_cell_length_b   6.70602708
_cell_length_c   6.69728037
_cell_angle_alpha   90.53406118
_cell_angle_beta   90.00000000
_cell_angle_gamma   90.00000000
_symmetry_Int_Tables_number   1
_chemical_formula_structural   GaCo3(Mo3N)2
_chemical_formula_sum   'Ga2 Co6 Mo12 N4'
_cell_volume   301.14385878
_cell_formula_units_Z   2
loop_
 _symmetry_equiv_pos_site_id
 _symmetry_equiv_pos_as_xyz
  1  'x, y, z'
loop_
 _atom_site_type_symbol
 _atom_site_label
 _atom_site_symmetry_multiplicity
 _atom_site_fract_x
 _atom_site_fract_y
 _atom_site_fract_z
 _atom_site_occupancy
  Ga  Ga0  1  0.316983  0.823061  0.931555  1
  Ga  Ga1  1  0.816983  0.176939  0.068445  1
  Co  Co2  1  0.183695  0.315650  0.567574  1
  Co  Co3  1  0.683695  0.684350  0.432426  1
  Co  Co4  1  0.934172  0.433109  0.317012  1
  Co  Co5  1  0.568697  0.927888  0.182284  1
  Co  Co6  1  0.434172  0.566891  0.682988  1
  Co  Co7  1  0.068697  0.072112  0.817716  1
  Mo  Mo8  1  0.378848  0.952506  0.543588  1
  Mo  Mo9  1  0.878848  0.047494  0.456412  1
  Mo  Mo10  1  0.128010  0.451218  0.945867  1
  Mo  Mo11  1  0.628010  0.548782  0.054133  1
  Mo  Mo12  1  0.801139  0.377625  0.693976  1
  Mo  Mo13  1  0.700615  0.872073  0.789129  1
  Mo  Mo14  1  0.200615  0.127927  0.210871  1
  Mo  Mo15  1  0.301139  0.622375  0.306024  1
  Mo  Mo16  1  0.945090  0.788265  0.135196  1
  Mo  Mo17  1  0.043277  0.693924  0.618831  1
  Mo  Mo18  1  0.445090  0.211735  0.864804  1
  Mo  Mo19  1  0.543277  0.306076  0.381169  1
  N  N20  1  0.625362  0.126583  0.622884  1
  N  N21  1  0.125362  0.873417  0.377116  1
  N  N22  1  0.874112  0.625068  0.873647  1
  N  N23  1  0.374112  0.374932  0.126353  1
