# generated using pymatgen
data_Tb6YFeBr12
_symmetry_space_group_name_H-M   'P 1'
_cell_length_a   9.27411143
_cell_length_b   9.30757242
_cell_length_c   9.29426400
_cell_angle_alpha   106.97152565
_cell_angle_beta   106.97506632
_cell_angle_gamma   106.88568733
_symmetry_Int_Tables_number   1
_chemical_formula_structural   Tb6YFeBr12
_chemical_formula_sum   'Tb6 Y1 Fe1 Br12'
_cell_volume   669.15898583
_cell_formula_units_Z   1
loop_
 _symmetry_equiv_pos_site_id
 _symmetry_equiv_pos_as_xyz
  1  'x, y, z'
loop_
 _atom_site_type_symbol
 _atom_site_label
 _atom_site_symmetry_multiplicity
 _atom_site_fract_x
 _atom_site_fract_y
 _atom_site_fract_z
 _atom_site_occupancy
  Tb  Tb0  1  0.902620  0.978042  0.695503  1
  Tb  Tb1  1  0.708669  0.907002  0.979494  1
  Tb  Tb2  1  0.979749  0.694943  0.901492  1
  Tb  Tb3  1  0.097574  0.021735  0.304485  1
  Tb  Tb4  1  0.291557  0.093279  0.020709  1
  Tb  Tb5  1  0.499653  0.500401  0.499998  1
  Y  Y6  1  0.020398  0.304817  0.098298  1
  Fe  Fe7  1  0.000189  0.999566  0.000003  1
  Br  Br8  1  0.831711  0.613899  0.537952  1
  Br  Br9  1  0.541288  0.833544  0.616420  1
  Br  Br10  1  0.616575  0.542031  0.833541  1
  Br  Br11  1  0.167239  0.385867  0.461096  1
  Br  Br12  1  0.458749  0.167415  0.383812  1
  Br  Br13  1  0.382475  0.458090  0.166003  1
  Br  Br14  1  0.929450  0.319750  0.778816  1
  Br  Br15  1  0.779008  0.928415  0.318030  1
  Br  Br16  1  0.319421  0.780799  0.930865  1
  Br  Br17  1  0.070435  0.678386  0.221324  1
  Br  Br18  1  0.221386  0.071924  0.682202  1
  Br  Br19  1  0.681853  0.220094  0.069954  1
