# generated using pymatgen
data_La11Pr5Cd4Ru3Pt
_symmetry_space_group_name_H-M   'P 1'
_cell_length_a   10.06677256
_cell_length_b   10.09839435
_cell_length_c   10.09839383
_cell_angle_alpha   59.90565924
_cell_angle_beta   59.65797033
_cell_angle_gamma   59.65796874
_symmetry_Int_Tables_number   1
_chemical_formula_structural   La11Pr5Cd4Ru3Pt
_chemical_formula_sum   'La11 Pr5 Cd4 Ru3 Pt1'
_cell_volume   721.61884202
_cell_formula_units_Z   1
loop_
 _symmetry_equiv_pos_site_id
 _symmetry_equiv_pos_as_xyz
  1  'x, y, z'
loop_
 _atom_site_type_symbol
 _atom_site_label
 _atom_site_symmetry_multiplicity
 _atom_site_fract_x
 _atom_site_fract_y
 _atom_site_fract_z
 _atom_site_occupancy
  La  La0  1  0.342911  0.349010  0.349010  1
  La  La1  1  0.342680  0.349411  0.956585  1
  La  La2  1  0.342680  0.956585  0.349411  1
  La  La3  1  0.961756  0.344997  0.344997  1
  La  La4  1  0.816117  0.191389  0.191389  1
  La  La5  1  0.189774  0.810606  0.810606  1
  La  La6  1  0.191093  0.810407  0.188620  1
  La  La7  1  0.815935  0.191277  0.801471  1
  La  La8  1  0.191093  0.188620  0.810407  1
  La  La9  1  0.815935  0.801471  0.191277  1
  La  La10  1  0.937500  0.562775  0.562775  1
  Pr  Pr11  1  0.560981  0.937789  0.937789  1
  Pr  Pr12  1  0.560794  0.937954  0.565337  1
  Pr  Pr13  1  0.936858  0.562518  0.939083  1
  Pr  Pr14  1  0.560794  0.565337  0.937954  1
  Pr  Pr15  1  0.936858  0.939083  0.562518  1
  Cd  Cd16  1  0.579001  0.579577  0.579577  1
  Cd  Cd17  1  0.579864  0.580090  0.259775  1
  Cd  Cd18  1  0.579864  0.259775  0.580090  1
  Cd  Cd19  1  0.260416  0.579994  0.579994  1
  Ru  Ru20  1  0.140293  0.137328  0.137328  1
  Ru  Ru21  1  0.139813  0.138079  0.584931  1
  Ru  Ru22  1  0.139813  0.584931  0.138079  1
  Pt  Pt23  1  0.577179  0.140998  0.140998  1
