# generated using pymatgen
data_Tm2V3Ni9As7
_symmetry_space_group_name_H-M   'P 1'
_cell_length_a   9.48432100
_cell_length_b   9.48431995
_cell_length_c   3.77659100
_cell_angle_alpha   90.00000000
_cell_angle_beta   90.00000000
_cell_angle_gamma   120.00000017
_symmetry_Int_Tables_number   1
_chemical_formula_structural   Tm2V3Ni9As7
_chemical_formula_sum   'Tm2 V3 Ni9 As7'
_cell_volume   294.20024190
_cell_formula_units_Z   1
loop_
 _symmetry_equiv_pos_site_id
 _symmetry_equiv_pos_as_xyz
  1  'x, y, z'
loop_
 _atom_site_type_symbol
 _atom_site_label
 _atom_site_symmetry_multiplicity
 _atom_site_fract_x
 _atom_site_fract_y
 _atom_site_fract_z
 _atom_site_occupancy
  Tm  Tm0  1  0.333333  0.666667  0.000000  1
  Tm  Tm1  1  0.666667  0.333333  0.500000  1
  V  V2  1  0.217537  0.115865  0.500000  1
  V  V3  1  0.884135  0.101673  0.500000  1
  V  V4  1  0.898327  0.782463  0.500000  1
  Ni  Ni5  1  0.126451  0.281403  0.000000  1
  Ni  Ni6  1  0.718597  0.845048  0.000000  1
  Ni  Ni7  1  0.154952  0.873549  0.000000  1
  Ni  Ni8  1  0.433381  0.373275  0.000000  1
  Ni  Ni9  1  0.626725  0.060106  0.000000  1
  Ni  Ni10  1  0.939894  0.566619  0.000000  1
  Ni  Ni11  1  0.054586  0.435909  0.500000  1
  Ni  Ni12  1  0.564091  0.618678  0.500000  1
  Ni  Ni13  1  0.381322  0.945414  0.500000  1
  As  As14  1  0.292252  0.407915  0.500000  1
  As  As15  1  0.592085  0.884337  0.500000  1
  As  As16  1  0.115663  0.707748  0.500000  1
  As  As17  1  0.410419  0.116963  0.000000  1
  As  As18  1  0.883037  0.293457  0.000000  1
  As  As19  1  0.706543  0.589581  0.000000  1
  As  As20  1  0.000000  0.000000  0.000000  1
