# generated using pymatgen
data_RbAl2Au3
_symmetry_space_group_name_H-M   'P 1'
_cell_length_a   5.65279700
_cell_length_b   7.16866600
_cell_length_c   13.47762100
_cell_angle_alpha   90.00000000
_cell_angle_beta   90.00000000
_cell_angle_gamma   90.00000000
_symmetry_Int_Tables_number   1
_chemical_formula_structural   RbAl2Au3
_chemical_formula_sum   'Rb4 Al8 Au12'
_cell_volume   546.15381987
_cell_formula_units_Z   4
loop_
 _symmetry_equiv_pos_site_id
 _symmetry_equiv_pos_as_xyz
  1  'x, y, z'
loop_
 _atom_site_type_symbol
 _atom_site_label
 _atom_site_symmetry_multiplicity
 _atom_site_fract_x
 _atom_site_fract_y
 _atom_site_fract_z
 _atom_site_occupancy
  Rb  Rb0  1  0.250000  0.095212  0.070606  1
  Rb  Rb1  1  0.250000  0.404788  0.570606  1
  Rb  Rb2  1  0.750000  0.904788  0.929394  1
  Rb  Rb3  1  0.750000  0.595212  0.429394  1
  Al  Al4  1  0.998463  0.908746  0.657199  1
  Al  Al5  1  0.501537  0.591254  0.157199  1
  Al  Al6  1  0.498463  0.091254  0.342801  1
  Al  Al7  1  0.001537  0.408746  0.842801  1
  Al  Al8  1  0.001537  0.091254  0.342801  1
  Al  Al9  1  0.498463  0.408746  0.842801  1
  Al  Al10  1  0.501537  0.908746  0.657199  1
  Al  Al11  1  0.998463  0.591254  0.157199  1
  Au  Au12  1  0.250000  0.123788  0.785325  1
  Au  Au13  1  0.250000  0.376212  0.285325  1
  Au  Au14  1  0.750000  0.876212  0.214675  1
  Au  Au15  1  0.750000  0.623788  0.714675  1
  Au  Au16  1  0.250000  0.709655  0.789961  1
  Au  Au17  1  0.250000  0.790345  0.289961  1
  Au  Au18  1  0.750000  0.290345  0.210039  1
  Au  Au19  1  0.750000  0.209655  0.710039  1
  Au  Au20  1  0.250000  0.578247  0.995725  1
  Au  Au21  1  0.250000  0.921753  0.495725  1
  Au  Au22  1  0.750000  0.421753  0.004275  1
  Au  Au23  1  0.750000  0.078247  0.504275  1
