# generated using pymatgen
data_Sm4Ho4Be3Si12Ni
_symmetry_space_group_name_H-M   'P 1'
_cell_length_a   7.88955148
_cell_length_b   7.89220741
_cell_length_c   8.23358205
_cell_angle_alpha   90.00000067
_cell_angle_beta   89.98535238
_cell_angle_gamma   120.01114079
_symmetry_Int_Tables_number   1
_chemical_formula_structural   Sm4Ho4Be3Si12Ni
_chemical_formula_sum   'Sm4 Ho4 Be3 Si12 Ni1'
_cell_volume   443.93712916
_cell_formula_units_Z   1
loop_
 _symmetry_equiv_pos_site_id
 _symmetry_equiv_pos_as_xyz
  1  'x, y, z'
loop_
 _atom_site_type_symbol
 _atom_site_label
 _atom_site_symmetry_multiplicity
 _atom_site_fract_x
 _atom_site_fract_y
 _atom_site_fract_z
 _atom_site_occupancy
  Sm  Sm0  1  0.000058  0.000029  0.249575  1
  Sm  Sm1  1  0.999672  0.999836  0.750305  1
  Sm  Sm2  1  0.499953  0.500144  0.250744  1
  Sm  Sm3  1  0.499953  0.999808  0.250744  1
  Ho  Ho4  1  0.001163  0.500582  0.250430  1
  Ho  Ho5  1  0.499169  0.500671  0.749715  1
  Ho  Ho6  1  0.499169  0.998497  0.749715  1
  Ho  Ho7  1  0.001639  0.500820  0.749637  1
  Be  Be8  1  0.333015  0.666507  0.502964  1
  Be  Be9  1  0.667234  0.333617  0.505806  1
  Be  Be10  1  0.667300  0.333650  0.994956  1
  Si  Si11  1  0.172455  0.826094  0.502380  1
  Si  Si12  1  0.172455  0.346360  0.502380  1
  Si  Si13  1  0.654740  0.827369  0.503791  1
  Si  Si14  1  0.827344  0.174496  0.502235  1
  Si  Si15  1  0.827344  0.652849  0.502235  1
  Si  Si16  1  0.346181  0.173091  0.503681  1
  Si  Si17  1  0.829137  0.171903  0.997313  1
  Si  Si18  1  0.829137  0.657235  0.997313  1
  Si  Si19  1  0.341986  0.170994  0.995799  1
  Si  Si20  1  0.172402  0.826013  0.998468  1
  Si  Si21  1  0.172402  0.346388  0.998468  1
  Si  Si22  1  0.653722  0.826861  0.996936  1
  Ni  Ni23  1  0.332373  0.666187  0.994410  1
