# generated using pymatgen
data_Pr11Y(Hg2Ir)4
_symmetry_space_group_name_H-M   'P 1'
_cell_length_a   13.55660871
_cell_length_b   13.55660857
_cell_length_c   3.87946600
_cell_angle_alpha   90.00000000
_cell_angle_beta   90.00000000
_cell_angle_gamma   113.22630202
_symmetry_Int_Tables_number   1
_chemical_formula_structural   Pr11Y(Hg2Ir)4
_chemical_formula_sum   'Pr11 Y1 Hg8 Ir4'
_cell_volume   655.19116033
_cell_formula_units_Z   1
loop_
 _symmetry_equiv_pos_site_id
 _symmetry_equiv_pos_as_xyz
  1  'x, y, z'
loop_
 _atom_site_type_symbol
 _atom_site_label
 _atom_site_symmetry_multiplicity
 _atom_site_fract_x
 _atom_site_fract_y
 _atom_site_fract_z
 _atom_site_occupancy
  Pr  Pr0  1  0.500000  0.500000  0.500000  1
  Pr  Pr1  1  0.787077  0.787077  0.500000  1
  Pr  Pr2  1  0.212923  0.212923  0.500000  1
  Pr  Pr3  1  0.592678  0.922040  0.500000  1
  Pr  Pr4  1  0.407322  0.077960  0.500000  1
  Pr  Pr5  1  0.922040  0.592678  0.500000  1
  Pr  Pr6  1  0.077960  0.407322  0.500000  1
  Pr  Pr7  1  0.139627  0.860373  0.500000  1
  Pr  Pr8  1  0.860373  0.139627  0.500000  1
  Pr  Pr9  1  0.334531  0.665469  0.500000  1
  Pr  Pr10  1  0.665469  0.334531  0.500000  1
  Y  Y11  1  0.000000  0.000000  0.000000  1
  Hg  Hg12  1  0.352679  0.862778  0.000000  1
  Hg  Hg13  1  0.647321  0.137222  0.000000  1
  Hg  Hg14  1  0.862778  0.352679  0.000000  1
  Hg  Hg15  1  0.137222  0.647321  0.000000  1
  Hg  Hg16  1  0.549976  0.711290  0.000000  1
  Hg  Hg17  1  0.450024  0.288710  0.000000  1
  Hg  Hg18  1  0.711290  0.549976  0.000000  1
  Hg  Hg19  1  0.288710  0.450024  0.000000  1
  Ir  Ir20  1  0.766282  0.950801  0.000000  1
  Ir  Ir21  1  0.233718  0.049199  0.000000  1
  Ir  Ir22  1  0.950801  0.766282  0.000000  1
  Ir  Ir23  1  0.049199  0.233718  0.000000  1
