# generated using pymatgen
data_Y2Er2LuIr2
_symmetry_space_group_name_H-M   'P 1'
_cell_length_a   6.44538605
_cell_length_b   7.21164080
_cell_length_c   8.49190300
_cell_angle_alpha   96.82391704
_cell_angle_beta   112.30283017
_cell_angle_gamma   90.00000069
_symmetry_Int_Tables_number   1
_chemical_formula_structural   Y2Er2LuIr2
_chemical_formula_sum   'Y4 Er4 Lu2 Ir4'
_cell_volume   362.16636671
_cell_formula_units_Z   2
loop_
 _symmetry_equiv_pos_site_id
 _symmetry_equiv_pos_as_xyz
  1  'x, y, z'
loop_
 _atom_site_type_symbol
 _atom_site_label
 _atom_site_symmetry_multiplicity
 _atom_site_fract_x
 _atom_site_fract_y
 _atom_site_fract_z
 _atom_site_occupancy
  Y  Y0  1  0.971335  0.920031  0.185640  1
  Y  Y1  1  0.785694  0.579969  0.814360  1
  Y  Y2  1  0.028665  0.079969  0.814360  1
  Y  Y3  1  0.214306  0.420031  0.185640  1
  Er  Er4  1  0.648887  0.816791  0.439728  1
  Er  Er5  1  0.209159  0.683209  0.560272  1
  Er  Er6  1  0.351113  0.183209  0.560272  1
  Er  Er7  1  0.790841  0.316791  0.439728  1
  Lu  Lu8  1  0.428665  0.750000  0.000000  1
  Lu  Lu9  1  0.571335  0.250000  0.000000  1
  Ir  Ir10  1  0.818293  0.573100  0.219926  1
  Ir  Ir11  1  0.598367  0.926900  0.780074  1
  Ir  Ir12  1  0.181708  0.426900  0.780074  1
  Ir  Ir13  1  0.401633  0.073100  0.219926  1
