# generated using pymatgen
data_Nd3Er(ScPt)4
_symmetry_space_group_name_H-M   'P 1'
_cell_length_a   4.68442300
_cell_length_b   7.08453980
_cell_length_c   8.51125331
_cell_angle_alpha   90.01603003
_cell_angle_beta   90.00000000
_cell_angle_gamma   90.00000000
_symmetry_Int_Tables_number   1
_chemical_formula_structural   Nd3Er(ScPt)4
_chemical_formula_sum   'Nd3 Er1 Sc4 Pt4'
_cell_volume   282.46279234
_cell_formula_units_Z   1
loop_
 _symmetry_equiv_pos_site_id
 _symmetry_equiv_pos_as_xyz
  1  'x, y, z'
loop_
 _atom_site_type_symbol
 _atom_site_label
 _atom_site_symmetry_multiplicity
 _atom_site_fract_x
 _atom_site_fract_y
 _atom_site_fract_z
 _atom_site_occupancy
  Nd  Nd0  1  0.250000  0.516093  0.819213  1
  Nd  Nd1  1  0.750000  0.984805  0.322852  1
  Nd  Nd2  1  0.750000  0.483621  0.178586  1
  Er  Er3  1  0.250000  0.018189  0.677573  1
  Sc  Sc4  1  0.250000  0.138292  0.068624  1
  Sc  Sc5  1  0.250000  0.640684  0.430352  1
  Sc  Sc6  1  0.750000  0.860434  0.921477  1
  Sc  Sc7  1  0.750000  0.357887  0.574458  1
  Pt  Pt8  1  0.250000  0.261122  0.412041  1
  Pt  Pt9  1  0.250000  0.762825  0.094089  1
  Pt  Pt10  1  0.750000  0.741929  0.598843  1
  Pt  Pt11  1  0.750000  0.234119  0.901891  1
