# generated using pymatgen
data_Sr3Pr(IrO6)2
_symmetry_space_group_name_H-M   'P 1'
_cell_length_a   5.57445358
_cell_length_b   9.62797898
_cell_length_c   10.36912486
_cell_angle_alpha   90.15021950
_cell_angle_beta   89.57016113
_cell_angle_gamma   89.76690418
_symmetry_Int_Tables_number   1
_chemical_formula_structural   Sr3Pr(IrO6)2
_chemical_formula_sum   'Sr6 Pr2 Ir4 O24'
_cell_volume   556.49619262
_cell_formula_units_Z   2
loop_
 _symmetry_equiv_pos_site_id
 _symmetry_equiv_pos_as_xyz
  1  'x, y, z'
loop_
 _atom_site_type_symbol
 _atom_site_label
 _atom_site_symmetry_multiplicity
 _atom_site_fract_x
 _atom_site_fract_y
 _atom_site_fract_z
 _atom_site_occupancy
  Sr  Sr0  1  0.468652  0.721049  0.133331  1
  Sr  Sr1  1  0.467537  0.603361  0.537269  1
  Sr  Sr2  1  0.536364  0.099976  0.960498  1
  Sr  Sr3  1  0.532033  0.223140  0.364847  1
  Sr  Sr4  1  0.967471  0.778495  0.865796  1
  Sr  Sr5  1  0.970656  0.905190  0.463651  1
  Pr  Pr6  1  0.031670  0.398779  0.036627  1
  Pr  Pr7  1  0.033707  0.282065  0.630886  1
  Ir  Ir8  1  0.049141  0.004183  0.139470  1
  Ir  Ir9  1  0.449515  0.000344  0.641115  1
  Ir  Ir10  1  0.544160  0.493263  0.860078  1
  Ir  Ir11  1  0.956568  0.501833  0.359408  1
  O  O12  1  0.048232  0.647882  0.471859  1
  O  O13  1  0.159961  0.553636  0.221419  1
  O  O14  1  0.194471  0.877195  0.678331  1
  O  O15  1  0.163589  0.866463  0.252088  1
  O  O16  1  0.212697  0.394046  0.437474  1
  O  O17  1  0.248888  0.097944  0.514130  1
  O  O18  1  0.242351  0.914802  0.008803  1
  O  O19  1  0.277318  0.597483  0.930208  1
  O  O20  1  0.315025  0.135261  0.755458  1
  O  O21  1  0.306525  0.123263  0.178009  1
  O  O22  1  0.352083  0.426805  0.723329  1
  O  O23  1  0.442207  0.351803  0.979296  1
  O  O24  1  0.541007  0.867458  0.514845  1
  O  O25  1  0.645741  0.936208  0.772548  1
  O  O26  1  0.693959  0.615098  0.317655  1
  O  O27  1  0.662147  0.631126  0.749309  1
  O  O28  1  0.714188  0.115911  0.581034  1
  O  O29  1  0.760838  0.411769  0.492776  1
  O  O30  1  0.746674  0.577507  0.993379  1
  O  O31  1  0.788303  0.899691  0.070272  1
  O  O32  1  0.851356  0.359160  0.243785  1
  O  O33  1  0.817716  0.370368  0.823073  1
  O  O34  1  0.852446  0.065683  0.273731  1
  O  O35  1  0.954806  0.151761  0.024212  1
