# generated using pymatgen
data_Pr4MgInSi3Ge
_symmetry_space_group_name_H-M   'P 1'
_cell_length_a   7.42851627
_cell_length_b   7.43302085
_cell_length_c   4.43332500
_cell_angle_alpha   90.00000000
_cell_angle_beta   90.00000000
_cell_angle_gamma   90.13944582
_symmetry_Int_Tables_number   1
_chemical_formula_structural   Pr4MgInSi3Ge
_chemical_formula_sum   'Pr4 Mg1 In1 Si3 Ge1'
_cell_volume   244.79115066
_cell_formula_units_Z   1
loop_
 _symmetry_equiv_pos_site_id
 _symmetry_equiv_pos_as_xyz
  1  'x, y, z'
loop_
 _atom_site_type_symbol
 _atom_site_label
 _atom_site_symmetry_multiplicity
 _atom_site_fract_x
 _atom_site_fract_y
 _atom_site_fract_z
 _atom_site_occupancy
  Pr  Pr0  1  0.320516  0.817750  0.500000  1
  Pr  Pr1  1  0.819149  0.676126  0.500000  1
  Pr  Pr2  1  0.181012  0.322556  0.500000  1
  Pr  Pr3  1  0.677620  0.184322  0.500000  1
  Mg  Mg4  1  0.002953  0.001556  0.000000  1
  In  In5  1  0.497724  0.496421  0.000000  1
  Si  Si6  1  0.378329  0.113129  0.000000  1
  Si  Si7  1  0.890094  0.381624  0.000000  1
  Si  Si8  1  0.110219  0.618205  0.000000  1
  Ge  Ge9  1  0.622384  0.888311  0.000000  1
