# generated using pymatgen
data_K2MnCrS4
_symmetry_space_group_name_H-M   'P 1'
_cell_length_a   13.20953088
_cell_length_b   11.76999938
_cell_length_c   7.12638632
_cell_angle_alpha   84.92945855
_cell_angle_beta   62.56528208
_cell_angle_gamma   32.50525550
_symmetry_Int_Tables_number   1
_chemical_formula_structural   K2MnCrS4
_chemical_formula_sum   'K4 Mn2 Cr2 S8'
_cell_volume   410.65223337
_cell_formula_units_Z   2
loop_
 _symmetry_equiv_pos_site_id
 _symmetry_equiv_pos_as_xyz
  1  'x, y, z'
loop_
 _atom_site_type_symbol
 _atom_site_label
 _atom_site_symmetry_multiplicity
 _atom_site_fract_x
 _atom_site_fract_y
 _atom_site_fract_z
 _atom_site_occupancy
  K  K0  1  0.678504  0.678504  0.321496  1
  K  K1  1  0.928504  0.928504  0.571496  1
  K  K2  1  0.321496  0.321496  0.678504  1
  K  K3  1  0.571496  0.571496  0.928504  1
  Mn  Mn4  1  0.000000  0.000000  0.000000  1
  Mn  Mn5  1  0.250000  0.250000  0.250000  1
  Cr  Cr6  1  0.750000  0.750000  0.750000  1
  Cr  Cr7  1  0.500000  0.500000  0.500000  1
  S  S8  1  0.027035  0.366198  0.665807  1
  S  S9  1  0.222965  0.883802  0.584193  1
  S  S10  1  0.883802  0.222965  0.309042  1
  S  S11  1  0.584193  0.309042  0.222965  1
  S  S12  1  0.940958  0.665807  0.366198  1
  S  S13  1  0.665807  0.940958  0.027035  1
  S  S14  1  0.366198  0.027035  0.940958  1
  S  S15  1  0.309042  0.584193  0.883802  1
