# generated using pymatgen
data_TbHo3Al18(Ir2Pd)2
_symmetry_space_group_name_H-M   'P 1'
_cell_length_a   7.57880830
_cell_length_b   7.58111413
_cell_length_c   9.46238004
_cell_angle_alpha   89.95205588
_cell_angle_beta   89.93032192
_cell_angle_gamma   119.61857359
_symmetry_Int_Tables_number   1
_chemical_formula_structural   TbHo3Al18(Ir2Pd)2
_chemical_formula_sum   'Tb1 Ho3 Al18 Ir4 Pd2'
_cell_volume   472.62911838
_cell_formula_units_Z   1
loop_
 _symmetry_equiv_pos_site_id
 _symmetry_equiv_pos_as_xyz
  1  'x, y, z'
loop_
 _atom_site_type_symbol
 _atom_site_label
 _atom_site_symmetry_multiplicity
 _atom_site_fract_x
 _atom_site_fract_y
 _atom_site_fract_z
 _atom_site_occupancy
  Tb  Tb0  1  0.995438  0.670614  0.251504  1
  Ho  Ho1  1  0.004530  0.329235  0.748382  1
  Ho  Ho2  1  0.670712  0.995514  0.251624  1
  Ho  Ho3  1  0.329345  0.004588  0.748364  1
  Al  Al4  1  0.127645  0.127810  0.250602  1
  Al  Al5  1  0.872469  0.872435  0.749399  1
  Al  Al6  1  0.000911  0.331352  0.077584  1
  Al  Al7  1  0.999082  0.668429  0.922115  1
  Al  Al8  1  0.000200  0.664935  0.574758  1
  Al  Al9  1  0.335282  0.999989  0.425574  1
  Al  Al10  1  0.999785  0.334819  0.425585  1
  Al  Al11  1  0.664959  0.000252  0.574531  1
  Al  Al12  1  0.668377  0.999141  0.922301  1
  Al  Al13  1  0.331847  0.001085  0.077590  1
  Al  Al14  1  0.332395  0.332389  0.550463  1
  Al  Al15  1  0.667408  0.667592  0.449670  1
  Al  Al16  1  0.668679  0.668823  0.058591  1
  Al  Al17  1  0.331123  0.331169  0.941256  1
  Al  Al18  1  0.340371  0.547449  0.252970  1
  Al  Al19  1  0.659771  0.452468  0.747032  1
  Al  Al20  1  0.547277  0.340067  0.252955  1
  Al  Al21  1  0.452423  0.659724  0.747056  1
  Ir  Ir22  1  0.328085  0.671990  0.500113  1
  Ir  Ir23  1  0.671863  0.327922  0.500086  1
  Ir  Ir24  1  0.000012  0.000126  0.999888  1
  Ir  Ir25  1  0.000028  0.000123  0.500117  1
  Pd  Pd26  1  0.672281  0.327588  0.999940  1
  Pd  Pd27  1  0.327701  0.672373  0.999949  1
