# generated using pymatgen
data_Dy4Sc4RhAu3
_symmetry_space_group_name_H-M   'P 1'
_cell_length_a   4.74012500
_cell_length_b   7.06142108
_cell_length_c   8.50675800
_cell_angle_alpha   89.71220629
_cell_angle_beta   90.00000000
_cell_angle_gamma   90.00000000
_symmetry_Int_Tables_number   1
_chemical_formula_structural   Dy4Sc4RhAu3
_chemical_formula_sum   'Dy4 Sc4 Rh1 Au3'
_cell_volume   284.73476999
_cell_formula_units_Z   1
loop_
 _symmetry_equiv_pos_site_id
 _symmetry_equiv_pos_as_xyz
  1  'x, y, z'
loop_
 _atom_site_type_symbol
 _atom_site_label
 _atom_site_symmetry_multiplicity
 _atom_site_fract_x
 _atom_site_fract_y
 _atom_site_fract_z
 _atom_site_occupancy
  Dy  Dy0  1  0.250000  0.986560  0.326678  1
  Dy  Dy1  1  0.250000  0.474391  0.180801  1
  Dy  Dy2  1  0.750000  0.027470  0.670714  1
  Dy  Dy3  1  0.750000  0.520817  0.817737  1
  Sc  Sc4  1  0.250000  0.355874  0.566298  1
  Sc  Sc5  1  0.250000  0.857382  0.926931  1
  Sc  Sc6  1  0.750000  0.631999  0.422537  1
  Sc  Sc7  1  0.750000  0.144737  0.080006  1
  Rh  Rh8  1  0.750000  0.256949  0.405375  1
  Au  Au9  1  0.250000  0.245518  0.892395  1
  Au  Au10  1  0.250000  0.744138  0.606505  1
  Au  Au11  1  0.750000  0.754166  0.104023  1
