# generated using pymatgen
data_HoErU(InPt)3
_symmetry_space_group_name_H-M   'P 1'
_cell_length_a   7.61206360
_cell_length_b   7.58232254
_cell_length_c   3.90720400
_cell_angle_alpha   90.00000000
_cell_angle_beta   90.00000000
_cell_angle_gamma   120.03539280
_symmetry_Int_Tables_number   1
_chemical_formula_structural   HoErU(InPt)3
_chemical_formula_sum   'Ho1 Er1 U1 In3 Pt3'
_cell_volume   195.22992317
_cell_formula_units_Z   1
loop_
 _symmetry_equiv_pos_site_id
 _symmetry_equiv_pos_as_xyz
  1  'x, y, z'
loop_
 _atom_site_type_symbol
 _atom_site_label
 _atom_site_symmetry_multiplicity
 _atom_site_fract_x
 _atom_site_fract_y
 _atom_site_fract_z
 _atom_site_occupancy
  Ho  Ho0  1  0.998737  0.405154  0.500000  1
  Er  Er1  1  0.593439  0.594825  0.500000  1
  U  U2  1  0.410258  0.999964  0.500000  1
  In  In3  1  0.988083  0.729879  0.000000  1
  In  In4  1  0.258433  0.270040  0.000000  1
  In  In5  1  0.751684  0.999840  0.000000  1
  Pt  Pt6  1  0.336106  0.687535  0.000000  1
  Pt  Pt7  1  0.647962  0.313139  0.000000  1
  Pt  Pt8  1  0.015296  0.999625  0.500000  1
