# generated using pymatgen
data_TiMn2(ZnRh2)3
_symmetry_space_group_name_H-M   'P 1'
_cell_length_a   4.29396200
_cell_length_b   6.11074600
_cell_length_c   12.84979200
_cell_angle_alpha   90.00000000
_cell_angle_beta   89.99981303
_cell_angle_gamma   90.00000000
_symmetry_Int_Tables_number   1
_chemical_formula_structural   TiMn2(ZnRh2)3
_chemical_formula_sum   'Ti2 Mn4 Zn6 Rh12'
_cell_volume   337.16969006
_cell_formula_units_Z   2
loop_
 _symmetry_equiv_pos_site_id
 _symmetry_equiv_pos_as_xyz
  1  'x, y, z'
loop_
 _atom_site_type_symbol
 _atom_site_label
 _atom_site_symmetry_multiplicity
 _atom_site_fract_x
 _atom_site_fract_y
 _atom_site_fract_z
 _atom_site_occupancy
  Ti  Ti0  1  0.999998  0.000000  0.998109  1
  Ti  Ti1  1  0.499923  0.499999  0.168542  1
  Mn  Mn2  1  0.999901  0.000000  0.334330  1
  Mn  Mn3  1  0.500000  0.499999  0.500065  1
  Mn  Mn4  1  0.000109  0.000000  0.666603  1
  Mn  Mn5  1  0.500098  0.499999  0.832319  1
  Zn  Zn6  1  0.999994  0.499999  0.999158  1
  Zn  Zn7  1  0.499997  0.000000  0.167471  1
  Zn  Zn8  1  0.999982  0.499999  0.335395  1
  Zn  Zn9  1  0.499998  0.000000  0.500826  1
  Zn  Zn10  1  0.999999  0.499999  0.665850  1
  Zn  Zn11  1  0.500010  0.000000  0.831313  1
  Rh  Rh12  1  0.499998  0.250000  0.000010  1
  Rh  Rh13  1  0.499998  0.750001  0.000010  1
  Rh  Rh14  1  0.999981  0.249996  0.166674  1
  Rh  Rh15  1  0.999981  0.750002  0.166674  1
  Rh  Rh16  1  0.499972  0.249022  0.332639  1
  Rh  Rh17  1  0.499972  0.750978  0.332639  1
  Rh  Rh18  1  0.999998  0.250121  0.499872  1
  Rh  Rh19  1  0.999998  0.749877  0.499872  1
  Rh  Rh20  1  0.500022  0.249747  0.666811  1
  Rh  Rh21  1  0.500022  0.750253  0.666811  1
  Rh  Rh22  1  0.000023  0.250925  0.834004  1
  Rh  Rh23  1  0.000023  0.749073  0.834004  1
