# generated using pymatgen
data_Yb2HoEr(NiB4)4
_symmetry_space_group_name_H-M   'P 1'
_cell_length_a   6.78248431
_cell_length_b   6.78248433
_cell_length_c   6.78248506
_cell_angle_alpha   112.84826734
_cell_angle_beta   112.84826990
_cell_angle_gamma   102.90974507
_symmetry_Int_Tables_number   1
_chemical_formula_structural   Yb2HoEr(NiB4)4
_chemical_formula_sum   'Yb2 Ho1 Er1 Ni4 B16'
_cell_volume   237.85911453
_cell_formula_units_Z   1
loop_
 _symmetry_equiv_pos_site_id
 _symmetry_equiv_pos_as_xyz
  1  'x, y, z'
loop_
 _atom_site_type_symbol
 _atom_site_label
 _atom_site_symmetry_multiplicity
 _atom_site_fract_x
 _atom_site_fract_y
 _atom_site_fract_z
 _atom_site_occupancy
  Yb  Yb0  1  0.795472  0.795472  0.000000  1
  Yb  Yb1  1  0.204528  0.204528  0.000000  1
  Ho  Ho2  1  0.250000  0.750000  0.500000  1
  Er  Er3  1  0.750000  0.250000  0.500000  1
  Ni  Ni4  1  0.272646  0.499890  0.772757  1
  Ni  Ni5  1  0.727133  0.499890  0.227243  1
  Ni  Ni6  1  0.500110  0.727354  0.227243  1
  Ni  Ni7  1  0.500110  0.272867  0.772757  1
  B  B8  1  0.276383  0.111986  0.388318  1
  B  B9  1  0.723668  0.888064  0.611682  1
  B  B10  1  0.276383  0.888064  0.164397  1
  B  B11  1  0.723668  0.111986  0.835603  1
  B  B12  1  0.111936  0.723617  0.835603  1
  B  B13  1  0.888014  0.276332  0.164397  1
  B  B14  1  0.111936  0.276332  0.388318  1
  B  B15  1  0.888014  0.723617  0.611682  1
  B  B16  1  0.113061  0.113216  0.530305  1
  B  B17  1  0.582910  0.582756  0.469695  1
  B  B18  1  0.113061  0.582756  0.999846  1
  B  B19  1  0.582910  0.113216  0.000154  1
  B  B20  1  0.886784  0.886939  0.469695  1
  B  B21  1  0.417244  0.417090  0.530305  1
  B  B22  1  0.886784  0.417090  0.999846  1
  B  B23  1  0.417244  0.886939  0.000154  1
