# generated using pymatgen
data_Gd5Ni2
_symmetry_space_group_name_H-M   'P 1'
_cell_length_a   8.78188584
_cell_length_b   8.78188586
_cell_length_c   6.91559600
_cell_angle_alpha   84.22239386
_cell_angle_beta   84.22239385
_cell_angle_gamma   42.13328489
_symmetry_Int_Tables_number   1
_chemical_formula_structural   Gd5Ni2
_chemical_formula_sum   'Gd10 Ni4'
_cell_volume   355.70797808
_cell_formula_units_Z   2
loop_
 _symmetry_equiv_pos_site_id
 _symmetry_equiv_pos_as_xyz
  1  'x, y, z'
loop_
 _atom_site_type_symbol
 _atom_site_label
 _atom_site_symmetry_multiplicity
 _atom_site_fract_x
 _atom_site_fract_y
 _atom_site_fract_z
 _atom_site_occupancy
  Gd  Gd0  1  0.009243  0.801238  0.920359  1
  Gd  Gd1  1  0.198762  0.990757  0.579641  1
  Gd  Gd2  1  0.990757  0.198762  0.079641  1
  Gd  Gd3  1  0.801238  0.009243  0.420359  1
  Gd  Gd4  1  0.350439  0.217029  0.816049  1
  Gd  Gd5  1  0.782971  0.649561  0.683951  1
  Gd  Gd6  1  0.649561  0.782971  0.183951  1
  Gd  Gd7  1  0.217029  0.350439  0.316049  1
  Gd  Gd8  1  0.572901  0.427099  0.750000  1
  Gd  Gd9  1  0.427099  0.572901  0.250000  1
  Ni  Ni10  1  0.193471  0.587651  0.573104  1
  Ni  Ni11  1  0.412349  0.806529  0.926896  1
  Ni  Ni12  1  0.806529  0.412349  0.426896  1
  Ni  Ni13  1  0.587651  0.193471  0.073104  1
