# generated using pymatgen
data_LiNb12Si4Os7C4
_symmetry_space_group_name_H-M   'P 1'
_cell_length_a   8.29073922
_cell_length_b   8.29457180
_cell_length_c   8.25836987
_cell_angle_alpha   59.86459667
_cell_angle_beta   59.86389178
_cell_angle_gamma   60.00283414
_symmetry_Int_Tables_number   1
_chemical_formula_structural   LiNb12Si4Os7C4
_chemical_formula_sum   'Li1 Nb12 Si4 Os7 C4'
_cell_volume   400.75746083
_cell_formula_units_Z   1
loop_
 _symmetry_equiv_pos_site_id
 _symmetry_equiv_pos_as_xyz
  1  'x, y, z'
loop_
 _atom_site_type_symbol
 _atom_site_label
 _atom_site_symmetry_multiplicity
 _atom_site_fract_x
 _atom_site_fract_y
 _atom_site_fract_z
 _atom_site_occupancy
  Li  Li0  1  0.918990  0.918880  0.243180  1
  Nb  Nb1  1  0.552426  0.552247  0.946972  1
  Nb  Nb2  1  0.946332  0.946502  0.557719  1
  Nb  Nb3  1  0.694941  0.695027  0.300474  1
  Nb  Nb4  1  0.305445  0.695182  0.693948  1
  Nb  Nb5  1  0.694994  0.309584  0.300394  1
  Nb  Nb6  1  0.305513  0.305459  0.693954  1
  Nb  Nb7  1  0.549512  0.946418  0.557757  1
  Nb  Nb8  1  0.309549  0.694991  0.300518  1
  Nb  Nb9  1  0.948276  0.552281  0.947061  1
  Nb  Nb10  1  0.946465  0.549354  0.557649  1
  Nb  Nb11  1  0.694997  0.305505  0.693961  1
  Nb  Nb12  1  0.552368  0.948461  0.946879  1
  Si  Si13  1  0.124175  0.124306  0.627292  1
  Si  Si14  1  0.122938  0.628075  0.126044  1
  Si  Si15  1  0.628152  0.123033  0.125779  1
  Si  Si16  1  0.122997  0.122995  0.125886  1
  Os  Os17  1  0.247327  0.916474  0.919519  1
  Os  Os18  1  0.916717  0.247610  0.919092  1
  Os  Os19  1  0.333083  0.332909  0.334143  1
  Os  Os20  1  0.332915  0.999957  0.334279  1
  Os  Os21  1  0.332655  0.332448  0.002328  1
  Os  Os22  1  0.999805  0.333018  0.334050  1
  Os  Os23  1  0.916782  0.916436  0.919334  1
  C  C24  1  0.625709  0.625824  0.122713  1
  C  C25  1  0.124969  0.626027  0.623000  1
  C  C26  1  0.625975  0.124966  0.623061  1
  C  C27  1  0.625989  0.626030  0.623019  1
