# generated using pymatgen
data_Ho3Er13Ga6FeCo
_symmetry_space_group_name_H-M   'P 1'
_cell_length_a   9.91841404
_cell_length_b   9.91802587
_cell_length_c   6.91517300
_cell_angle_alpha   90.00280497
_cell_angle_beta   89.99963159
_cell_angle_gamma   120.01101414
_symmetry_Int_Tables_number   1
_chemical_formula_structural   Ho3Er13Ga6FeCo
_chemical_formula_sum   'Ho3 Er13 Ga6 Fe1 Co1'
_cell_volume   589.05105718
_cell_formula_units_Z   1
loop_
 _symmetry_equiv_pos_site_id
 _symmetry_equiv_pos_as_xyz
  1  'x, y, z'
loop_
 _atom_site_type_symbol
 _atom_site_label
 _atom_site_symmetry_multiplicity
 _atom_site_fract_x
 _atom_site_fract_y
 _atom_site_fract_z
 _atom_site_occupancy
  Ho  Ho0  1  0.536054  0.072116  0.707360  1
  Ho  Ho1  1  0.000006  0.000105  0.232000  1
  Ho  Ho2  1  0.999987  0.999884  0.732986  1
  Er  Er3  1  0.173097  0.826590  0.510528  1
  Er  Er4  1  0.653488  0.826591  0.510531  1
  Er  Er5  1  0.173336  0.346659  0.510697  1
  Er  Er6  1  0.826598  0.173555  0.012027  1
  Er  Er7  1  0.346894  0.173524  0.011988  1
  Er  Er8  1  0.826426  0.652847  0.011866  1
  Er  Er9  1  0.333277  0.666481  0.830438  1
  Er  Er10  1  0.666798  0.333509  0.329330  1
  Er  Er11  1  0.462687  0.537323  0.207721  1
  Er  Er12  1  0.074593  0.537309  0.207802  1
  Er  Er13  1  0.462618  0.925253  0.207907  1
  Er  Er14  1  0.536197  0.463892  0.707114  1
  Er  Er15  1  0.927762  0.463901  0.707223  1
  Ga  Ga16  1  0.163415  0.836594  0.958143  1
  Ga  Ga17  1  0.673166  0.836635  0.958112  1
  Ga  Ga18  1  0.163372  0.326819  0.957898  1
  Ga  Ga19  1  0.836259  0.164022  0.457583  1
  Ga  Ga20  1  0.327821  0.164044  0.457600  1
  Ga  Ga21  1  0.835999  0.671985  0.457836  1
  Fe  Fe22  1  0.333320  0.666689  0.445648  1
  Co  Co23  1  0.666828  0.333673  0.943706  1
