# generated using pymatgen
data_Nd20Ir4Pt7Au
_symmetry_space_group_name_H-M   'P 1'
_cell_length_a   11.47901509
_cell_length_b   11.47901463
_cell_length_c   6.53765317
_cell_angle_alpha   89.97762479
_cell_angle_beta   89.97762372
_cell_angle_gamma   89.91037212
_symmetry_Int_Tables_number   1
_chemical_formula_structural   Nd20Ir4Pt7Au
_chemical_formula_sum   'Nd20 Ir4 Pt7 Au1'
_cell_volume   861.45087427
_cell_formula_units_Z   1
loop_
 _symmetry_equiv_pos_site_id
 _symmetry_equiv_pos_as_xyz
  1  'x, y, z'
loop_
 _atom_site_type_symbol
 _atom_site_label
 _atom_site_symmetry_multiplicity
 _atom_site_fract_x
 _atom_site_fract_y
 _atom_site_fract_z
 _atom_site_occupancy
  Nd  Nd0  1  0.087921  0.293808  0.126699  1
  Nd  Nd1  1  0.794623  0.410194  0.125604  1
  Nd  Nd2  1  0.205800  0.582677  0.126557  1
  Nd  Nd3  1  0.907558  0.702530  0.125539  1
  Nd  Nd4  1  0.417323  0.794200  0.373443  1
  Nd  Nd5  1  0.589806  0.205377  0.374396  1
  Nd  Nd6  1  0.297470  0.092442  0.374461  1
  Nd  Nd7  1  0.706192  0.912079  0.373301  1
  Nd  Nd8  1  0.411391  0.205805  0.875077  1
  Nd  Nd9  1  0.703740  0.090147  0.873918  1
  Nd  Nd10  1  0.299123  0.913146  0.865056  1
  Nd  Nd11  1  0.590701  0.796022  0.874083  1
  Nd  Nd12  1  0.086854  0.700877  0.634944  1
  Nd  Nd13  1  0.909853  0.296260  0.626082  1
  Nd  Nd14  1  0.203978  0.409299  0.625917  1
  Nd  Nd15  1  0.794195  0.588609  0.624923  1
  Nd  Nd16  1  0.997066  0.002105  0.998810  1
  Nd  Nd17  1  0.500561  0.501032  0.999653  1
  Nd  Nd18  1  0.498968  0.499439  0.500347  1
  Nd  Nd19  1  0.997895  0.002934  0.501190  1
  Ir  Ir20  1  0.999449  0.500531  0.384054  1
  Ir  Ir21  1  0.499469  0.000551  0.115946  1
  Ir  Ir22  1  0.500876  0.000148  0.613949  1
  Ir  Ir23  1  0.999852  0.499124  0.886051  1
  Pt  Pt24  1  0.345853  0.347422  0.249228  1
  Pt  Pt25  1  0.652578  0.654147  0.250772  1
  Pt  Pt26  1  0.845715  0.154285  0.250000  1
  Pt  Pt27  1  0.346595  0.653405  0.750000  1
  Pt  Pt28  1  0.153148  0.152909  0.749511  1
  Pt  Pt29  1  0.847091  0.846852  0.750489  1
  Pt  Pt30  1  0.652907  0.347093  0.750000  1
  Au  Au31  1  0.155454  0.844546  0.250000  1
