# generated using pymatgen
data_Er5Tl2In2IrPd
_symmetry_space_group_name_H-M   'P 1'
_cell_length_a   3.59893800
_cell_length_b   8.14682553
_cell_length_c   18.25031660
_cell_angle_alpha   90.00450182
_cell_angle_beta   90.00000000
_cell_angle_gamma   90.00000000
_symmetry_Int_Tables_number   1
_chemical_formula_structural   Er5Tl2In2IrPd
_chemical_formula_sum   'Er10 Tl4 In4 Ir2 Pd2'
_cell_volume   535.09782073
_cell_formula_units_Z   2
loop_
 _symmetry_equiv_pos_site_id
 _symmetry_equiv_pos_as_xyz
  1  'x, y, z'
loop_
 _atom_site_type_symbol
 _atom_site_label
 _atom_site_symmetry_multiplicity
 _atom_site_fract_x
 _atom_site_fract_y
 _atom_site_fract_z
 _atom_site_occupancy
  Er  Er0  1  0.000000  0.500000  0.500000  1
  Er  Er1  1  0.000000  0.000000  0.000000  1
  Er  Er2  1  0.000000  0.727684  0.277358  1
  Er  Er3  1  0.000000  0.272316  0.722642  1
  Er  Er4  1  0.000000  0.746159  0.780006  1
  Er  Er5  1  0.000000  0.253841  0.219994  1
  Er  Er6  1  0.000000  0.613038  0.088513  1
  Er  Er7  1  0.000000  0.386962  0.911487  1
  Er  Er8  1  0.000000  0.885012  0.586329  1
  Er  Er9  1  0.000000  0.114988  0.413671  1
  Tl  Tl10  1  0.500000  0.710843  0.933710  1
  Tl  Tl11  1  0.500000  0.289157  0.066290  1
  Tl  Tl12  1  0.500000  0.790510  0.432739  1
  Tl  Tl13  1  0.500000  0.209490  0.567261  1
  In  In14  1  0.500000  0.581057  0.648488  1
  In  In15  1  0.500000  0.418943  0.351512  1
  In  In16  1  0.500000  0.920973  0.150130  1
  In  In17  1  0.500000  0.079027  0.849870  1
  Ir  Ir18  1  0.500000  0.522263  0.197200  1
  Ir  Ir19  1  0.500000  0.477737  0.802800  1
  Pd  Pd20  1  0.500000  0.978084  0.697088  1
  Pd  Pd21  1  0.500000  0.021916  0.302912  1
