# generated using pymatgen
data_Y3Er5Ti11Si16Rh
_symmetry_space_group_name_H-M   'P 1'
_cell_length_a   7.03320864
_cell_length_b   7.03200489
_cell_length_c   12.85499076
_cell_angle_alpha   90.13491588
_cell_angle_beta   89.85788262
_cell_angle_gamma   89.78639403
_symmetry_Int_Tables_number   1
_chemical_formula_structural   Y3Er5Ti11Si16Rh
_chemical_formula_sum   'Y3 Er5 Ti11 Si16 Rh1'
_cell_volume   635.76829493
_cell_formula_units_Z   1
loop_
 _symmetry_equiv_pos_site_id
 _symmetry_equiv_pos_as_xyz
  1  'x, y, z'
loop_
 _atom_site_type_symbol
 _atom_site_label
 _atom_site_symmetry_multiplicity
 _atom_site_fract_x
 _atom_site_fract_y
 _atom_site_fract_z
 _atom_site_occupancy
  Y  Y0  1  0.340446  0.004708  0.467187  1
  Y  Y1  1  0.495854  0.842329  0.718026  1
  Y  Y2  1  0.501810  0.157950  0.214390  1
  Er  Er3  1  0.842686  0.496689  0.282016  1
  Er  Er4  1  0.157347  0.501286  0.785520  1
  Er  Er5  1  0.656620  0.998612  0.968329  1
  Er  Er6  1  0.003499  0.341245  0.532838  1
  Er  Er7  1  0.998704  0.656540  0.031525  1
  Ti  Ti8  1  0.175378  0.825434  0.248219  1
  Ti  Ti9  1  0.826327  0.176465  0.751857  1
  Ti  Ti10  1  0.674484  0.673556  0.500022  1
  Ti  Ti11  1  0.148130  0.003274  0.876271  1
  Ti  Ti12  1  0.494027  0.654849  0.124681  1
  Ti  Ti13  1  0.507432  0.350339  0.628336  1
  Ti  Ti14  1  0.655986  0.493973  0.875373  1
  Ti  Ti15  1  0.349598  0.506619  0.371950  1
  Ti  Ti16  1  0.849454  0.993846  0.374666  1
  Ti  Ti17  1  0.003131  0.148170  0.123692  1
  Ti  Ti18  1  0.994301  0.849557  0.625626  1
  Si  Si19  1  0.201055  0.135245  0.685791  1
  Si  Si20  1  0.371440  0.702601  0.933748  1
  Si  Si21  1  0.632854  0.297071  0.434077  1
  Si  Si22  1  0.704938  0.372180  0.066192  1
  Si  Si23  1  0.294685  0.630108  0.566044  1
  Si  Si24  1  0.797374  0.865973  0.183179  1
  Si  Si25  1  0.132174  0.203038  0.314289  1
  Si  Si26  1  0.867918  0.796327  0.817079  1
  Si  Si27  1  0.286043  0.948363  0.063568  1
  Si  Si28  1  0.548488  0.790598  0.315334  1
  Si  Si29  1  0.447915  0.211187  0.818276  1
  Si  Si30  1  0.793113  0.547296  0.684548  1
  Si  Si31  1  0.209071  0.449081  0.181950  1
  Si  Si32  1  0.709839  0.049312  0.565405  1
  Si  Si33  1  0.950078  0.286701  0.936197  1
  Si  Si34  1  0.047446  0.707642  0.434481  1
  Rh  Rh35  1  0.330353  0.331836  0.999321  1
