# generated using pymatgen
data_DyLu4Co19(Si5P)2
_symmetry_space_group_name_H-M   'P 1'
_cell_length_a   12.08674807
_cell_length_b   12.11499088
_cell_length_c   3.69451200
_cell_angle_alpha   90.00000000
_cell_angle_beta   90.00000000
_cell_angle_gamma   119.93498861
_symmetry_Int_Tables_number   1
_chemical_formula_structural   DyLu4Co19(Si5P)2
_chemical_formula_sum   'Dy1 Lu4 Co19 Si10 P2'
_cell_volume   468.81813979
_cell_formula_units_Z   1
loop_
 _symmetry_equiv_pos_site_id
 _symmetry_equiv_pos_as_xyz
  1  'x, y, z'
loop_
 _atom_site_type_symbol
 _atom_site_label
 _atom_site_symmetry_multiplicity
 _atom_site_fract_x
 _atom_site_fract_y
 _atom_site_fract_z
 _atom_site_occupancy
  Dy  Dy0  1  0.332805  0.666274  0.500000  1
  Lu  Lu1  1  0.666588  0.333761  0.500000  1
  Lu  Lu2  1  0.184590  0.999853  0.000000  1
  Lu  Lu3  1  0.000946  0.185490  0.000000  1
  Lu  Lu4  1  0.815187  0.814756  0.000000  1
  Co  Co5  1  0.196588  0.371653  0.500000  1
  Co  Co6  1  0.624853  0.821089  0.500000  1
  Co  Co7  1  0.175138  0.803847  0.500000  1
  Co  Co8  1  0.823923  0.626834  0.500000  1
  Co  Co9  1  0.803140  0.179945  0.500000  1
  Co  Co10  1  0.372853  0.196677  0.500000  1
  Co  Co11  1  0.557794  0.000010  0.500000  1
  Co  Co12  1  0.000623  0.557885  0.500000  1
  Co  Co13  1  0.442830  0.442004  0.500000  1
  Co  Co14  1  0.123518  0.477829  0.000000  1
  Co  Co15  1  0.521965  0.644239  0.000000  1
  Co  Co16  1  0.354075  0.876796  0.000000  1
  Co  Co17  1  0.645619  0.520892  0.000000  1
  Co  Co18  1  0.876512  0.355766  0.000000  1
  Co  Co19  1  0.478486  0.124345  0.000000  1
  Co  Co20  1  0.720110  0.000979  0.000000  1
  Co  Co21  1  0.998957  0.722700  0.000000  1
  Co  Co22  1  0.277161  0.276391  0.000000  1
  Co  Co23  1  0.004524  0.999995  0.500000  1
  Si  Si24  1  0.369005  0.000117  0.500000  1
  Si  Si25  1  0.000232  0.369150  0.500000  1
  Si  Si26  1  0.631218  0.630686  0.500000  1
  Si  Si27  1  0.319124  0.477142  0.000000  1
  Si  Si28  1  0.522293  0.840536  0.000000  1
  Si  Si29  1  0.158419  0.681094  0.000000  1
  Si  Si30  1  0.840101  0.521106  0.000000  1
  Si  Si31  1  0.681740  0.161330  0.000000  1
  Si  Si32  1  0.479139  0.318822  0.000000  1
  Si  Si33  1  0.819771  0.000608  0.500000  1
  P  P34  1  0.999112  0.818666  0.500000  1
  P  P35  1  0.181059  0.180734  0.500000  1
