# generated using pymatgen
data_Er4Ga18CoNiIr4
_symmetry_space_group_name_H-M   'P 1'
_cell_length_a   7.54471185
_cell_length_b   7.54471290
_cell_length_c   9.43267872
_cell_angle_alpha   90.04320481
_cell_angle_beta   90.04320615
_cell_angle_gamma   120.13032820
_symmetry_Int_Tables_number   1
_chemical_formula_structural   Er4Ga18CoNiIr4
_chemical_formula_sum   'Er4 Ga18 Co1 Ni1 Ir4'
_cell_volume   464.38556046
_cell_formula_units_Z   1
loop_
 _symmetry_equiv_pos_site_id
 _symmetry_equiv_pos_as_xyz
  1  'x, y, z'
loop_
 _atom_site_type_symbol
 _atom_site_label
 _atom_site_symmetry_multiplicity
 _atom_site_fract_x
 _atom_site_fract_y
 _atom_site_fract_z
 _atom_site_occupancy
  Er  Er0  1  0.996921  0.660170  0.749425  1
  Er  Er1  1  0.003079  0.339830  0.250575  1
  Er  Er2  1  0.660170  0.996921  0.749425  1
  Er  Er3  1  0.339830  0.003079  0.250575  1
  Ga  Ga4  1  0.110010  0.110010  0.748186  1
  Ga  Ga5  1  0.889990  0.889990  0.251814  1
  Ga  Ga6  1  0.999024  0.324685  0.578010  1
  Ga  Ga7  1  0.000976  0.675315  0.421990  1
  Ga  Ga8  1  0.000824  0.672474  0.079968  1
  Ga  Ga9  1  0.327526  0.999176  0.920032  1
  Ga  Ga10  1  0.999176  0.327526  0.920032  1
  Ga  Ga11  1  0.672474  0.000824  0.079968  1
  Ga  Ga12  1  0.675315  0.000976  0.421990  1
  Ga  Ga13  1  0.324685  0.999024  0.578010  1
  Ga  Ga14  1  0.326529  0.326529  0.065371  1
  Ga  Ga15  1  0.673471  0.673471  0.934629  1
  Ga  Ga16  1  0.676729  0.676729  0.563607  1
  Ga  Ga17  1  0.323271  0.323271  0.436393  1
  Ga  Ga18  1  0.338715  0.542456  0.749617  1
  Ga  Ga19  1  0.661285  0.457544  0.250383  1
  Ga  Ga20  1  0.542456  0.338715  0.749617  1
  Ga  Ga21  1  0.457544  0.661285  0.250383  1
  Co  Co22  1  0.000000  0.000000  0.500000  1
  Ni  Ni23  1  0.000000  0.000000  0.000000  1
  Ir  Ir24  1  0.672045  0.327955  0.500000  1
  Ir  Ir25  1  0.327955  0.672045  0.500000  1
  Ir  Ir26  1  0.327849  0.672151  0.000000  1
  Ir  Ir27  1  0.672151  0.327849  0.000000  1
