# generated using pymatgen
data_Tb3Nd3Dy10Cd4PdPt3
_symmetry_space_group_name_H-M   'P 1'
_cell_length_a   9.77052520
_cell_length_b   9.72793207
_cell_length_c   9.74812300
_cell_angle_alpha   60.22080058
_cell_angle_beta   60.09738226
_cell_angle_gamma   59.99203244
_symmetry_Int_Tables_number   1
_chemical_formula_structural   Tb3Nd3Dy10Cd4PdPt3
_chemical_formula_sum   'Tb3 Nd3 Dy10 Cd4 Pd1 Pt3'
_cell_volume   656.68532152
_cell_formula_units_Z   1
loop_
 _symmetry_equiv_pos_site_id
 _symmetry_equiv_pos_as_xyz
  1  'x, y, z'
loop_
 _atom_site_type_symbol
 _atom_site_label
 _atom_site_symmetry_multiplicity
 _atom_site_fract_x
 _atom_site_fract_y
 _atom_site_fract_z
 _atom_site_occupancy
  Tb  Tb0  1  0.938602  0.562032  0.559691  1
  Tb  Tb1  1  0.561147  0.939129  0.938125  1
  Tb  Tb2  1  0.562473  0.937434  0.562625  1
  Nd  Nd3  1  0.936211  0.564450  0.936380  1
  Nd  Nd4  1  0.563584  0.567299  0.934499  1
  Nd  Nd5  1  0.933969  0.934258  0.564596  1
  Dy  Dy6  1  0.351211  0.349618  0.350855  1
  Dy  Dy7  1  0.354639  0.352452  0.943336  1
  Dy  Dy8  1  0.352034  0.946888  0.352479  1
  Dy  Dy9  1  0.943393  0.351878  0.354648  1
  Dy  Dy10  1  0.809293  0.188161  0.190446  1
  Dy  Dy11  1  0.190647  0.810611  0.810968  1
  Dy  Dy12  1  0.189990  0.808652  0.190041  1
  Dy  Dy13  1  0.811623  0.188707  0.811415  1
  Dy  Dy14  1  0.189943  0.188856  0.809723  1
  Dy  Dy15  1  0.811280  0.810258  0.190169  1
  Cd  Cd16  1  0.582567  0.581975  0.578679  1
  Cd  Cd17  1  0.579419  0.582371  0.258704  1
  Cd  Cd18  1  0.578451  0.257295  0.582272  1
  Cd  Cd19  1  0.258640  0.579291  0.579355  1
  Pd  Pd20  1  0.144790  0.143636  0.142309  1
  Pt  Pt21  1  0.143066  0.144277  0.571149  1
  Pt  Pt22  1  0.141898  0.569560  0.144667  1
  Pt  Pt23  1  0.571128  0.140911  0.142867  1
