# generated using pymatgen
data_Zr5Pa3Fe6(Co5P6)2
_symmetry_space_group_name_H-M   'P 1'
_cell_length_a   12.24969997
_cell_length_b   12.22597376
_cell_length_c   3.71995800
_cell_angle_alpha   90.00000000
_cell_angle_beta   90.00000000
_cell_angle_gamma   120.21750531
_symmetry_Int_Tables_number   1
_chemical_formula_structural   Zr5Pa3Fe6(Co5P6)2
_chemical_formula_sum   'Zr5 Pa3 Fe6 Co10 P12'
_cell_volume   481.41713670
_cell_formula_units_Z   1
loop_
 _symmetry_equiv_pos_site_id
 _symmetry_equiv_pos_as_xyz
  1  'x, y, z'
loop_
 _atom_site_type_symbol
 _atom_site_label
 _atom_site_symmetry_multiplicity
 _atom_site_fract_x
 _atom_site_fract_y
 _atom_site_fract_z
 _atom_site_occupancy
  Zr  Zr0  1  0.437649  0.437975  0.000000  1
  Zr  Zr1  1  0.562659  0.000401  0.000000  1
  Zr  Zr2  1  0.999475  0.562556  0.000000  1
  Zr  Zr3  1  0.666539  0.333556  0.000000  1
  Zr  Zr4  1  0.330791  0.665199  0.000000  1
  Pa  Pa5  1  0.820089  0.818625  0.500000  1
  Pa  Pa6  1  0.183035  0.999749  0.500000  1
  Pa  Pa7  1  0.001239  0.184955  0.500000  1
  Fe  Fe8  1  0.192758  0.371977  0.000000  1
  Fe  Fe9  1  0.181935  0.809233  0.000000  1
  Fe  Fe10  1  0.817834  0.627493  0.000000  1
  Fe  Fe11  1  0.809529  0.181449  0.000000  1
  Fe  Fe12  1  0.374048  0.191823  0.000000  1
  Fe  Fe13  1  0.123929  0.480904  0.500000  1
  Co  Co14  1  0.357227  0.873006  0.500000  1
  Co  Co15  1  0.517136  0.644050  0.500000  1
  Co  Co16  1  0.642544  0.517863  0.500000  1
  Co  Co17  1  0.870859  0.358310  0.500000  1
  Co  Co18  1  0.484235  0.126013  0.500000  1
  Co  Co19  1  0.998964  0.998814  0.000000  1
  Co  Co20  1  0.720377  0.997470  0.500000  1
  Co  Co21  1  0.999325  0.722040  0.500000  1
  Co  Co22  1  0.626487  0.818205  0.000000  1
  Co  Co23  1  0.279279  0.277530  0.500000  1
  P  P24  1  0.645271  0.643795  0.000000  1
  P  P25  1  0.356165  0.000061  0.000000  1
  P  P26  1  0.003395  0.359132  0.000000  1
  P  P27  1  0.481826  0.305661  0.500000  1
  P  P28  1  0.694760  0.176194  0.500000  1
  P  P29  1  0.824118  0.519178  0.500000  1
  P  P30  1  0.515284  0.823440  0.500000  1
  P  P31  1  0.174360  0.691337  0.500000  1
  P  P32  1  0.818496  0.001743  0.000000  1
  P  P33  1  0.001039  0.817045  0.000000  1
  P  P34  1  0.304327  0.480940  0.500000  1
  P  P35  1  0.183016  0.182278  0.000000  1
