# generated using pymatgen
data_Zr13Al9CrRh7
_symmetry_space_group_name_H-M   'P 1'
_cell_length_a   9.16911309
_cell_length_b   9.16911279
_cell_length_c   9.16911300
_cell_angle_alpha   59.68348775
_cell_angle_beta   59.68348882
_cell_angle_gamma   59.68349519
_symmetry_Int_Tables_number   1
_chemical_formula_structural   Zr13Al9CrRh7
_chemical_formula_sum   'Zr13 Al9 Cr1 Rh7'
_cell_volume   541.16914008
_cell_formula_units_Z   1
loop_
 _symmetry_equiv_pos_site_id
 _symmetry_equiv_pos_as_xyz
  1  'x, y, z'
loop_
 _atom_site_type_symbol
 _atom_site_label
 _atom_site_symmetry_multiplicity
 _atom_site_fract_x
 _atom_site_fract_y
 _atom_site_fract_z
 _atom_site_occupancy
  Zr  Zr0  1  0.205477  0.205477  0.794895  1
  Zr  Zr1  1  0.794895  0.205477  0.205477  1
  Zr  Zr2  1  0.205477  0.794895  0.205477  1
  Zr  Zr3  1  0.806151  0.806151  0.174096  1
  Zr  Zr4  1  0.174096  0.806151  0.806151  1
  Zr  Zr5  1  0.806151  0.174096  0.806151  1
  Zr  Zr6  1  0.378678  0.378678  0.378678  1
  Zr  Zr7  1  0.379533  0.865978  0.379533  1
  Zr  Zr8  1  0.865978  0.379533  0.379533  1
  Zr  Zr9  1  0.379533  0.379533  0.865978  1
  Zr  Zr10  1  0.839860  0.481174  0.839860  1
  Zr  Zr11  1  0.481174  0.839860  0.839860  1
  Zr  Zr12  1  0.839860  0.839860  0.481174  1
  Al  Al13  1  0.154745  0.154745  0.154745  1
  Al  Al14  1  0.159663  0.526746  0.159663  1
  Al  Al15  1  0.526746  0.159663  0.159663  1
  Al  Al16  1  0.159663  0.159663  0.526746  1
  Al  Al17  1  0.616813  0.616813  0.616813  1
  Al  Al18  1  0.620465  0.146454  0.620465  1
  Al  Al19  1  0.146454  0.620465  0.620465  1
  Al  Al20  1  0.620465  0.620465  0.146454  1
  Al  Al21  1  0.827113  0.827113  0.827113  1
  Cr  Cr22  1  0.004289  0.004289  0.004289  1
  Rh  Rh23  1  0.005812  0.005812  0.499822  1
  Rh  Rh24  1  0.499822  0.005812  0.005812  1
  Rh  Rh25  1  0.005812  0.499822  0.005812  1
  Rh  Rh26  1  0.494857  0.494857  0.005785  1
  Rh  Rh27  1  0.005785  0.494857  0.494857  1
  Rh  Rh28  1  0.494857  0.005785  0.494857  1
  Rh  Rh29  1  0.499778  0.499778  0.499778  1
