# generated using pymatgen
data_HfZr9Sn2(BSb2)2
_symmetry_space_group_name_H-M   'P 1'
_cell_length_a   8.52701635
_cell_length_b   8.52701581
_cell_length_c   5.80877900
_cell_angle_alpha   90.00000000
_cell_angle_beta   90.00000000
_cell_angle_gamma   120.02782016
_symmetry_Int_Tables_number   1
_chemical_formula_structural   HfZr9Sn2(BSb2)2
_chemical_formula_sum   'Hf1 Zr9 Sn2 B2 Sb4'
_cell_volume   365.66873817
_cell_formula_units_Z   1
loop_
 _symmetry_equiv_pos_site_id
 _symmetry_equiv_pos_as_xyz
  1  'x, y, z'
loop_
 _atom_site_type_symbol
 _atom_site_label
 _atom_site_symmetry_multiplicity
 _atom_site_fract_x
 _atom_site_fract_y
 _atom_site_fract_z
 _atom_site_occupancy
  Hf  Hf0  1  0.230251  0.230251  0.250000  1
  Zr  Zr1  1  0.666268  0.334490  0.000684  1
  Zr  Zr2  1  0.334490  0.666268  0.000684  1
  Zr  Zr3  1  0.334490  0.666268  0.499316  1
  Zr  Zr4  1  0.666268  0.334490  0.499316  1
  Zr  Zr5  1  0.767451  0.767451  0.750000  1
  Zr  Zr6  1  0.231019  0.999686  0.750000  1
  Zr  Zr7  1  0.999686  0.231019  0.750000  1
  Zr  Zr8  1  0.767461  0.000890  0.250000  1
  Zr  Zr9  1  0.000890  0.767461  0.250000  1
  Sn  Sn10  1  0.399017  0.000728  0.250000  1
  Sn  Sn11  1  0.000728  0.399017  0.250000  1
  B  B12  1  0.001335  0.001335  0.001909  1
  B  B13  1  0.001335  0.001335  0.498091  1
  Sb  Sb14  1  0.397839  0.397839  0.750000  1
  Sb  Sb15  1  0.599259  0.000909  0.750000  1
  Sb  Sb16  1  0.000909  0.599259  0.750000  1
  Sb  Sb17  1  0.601303  0.601303  0.250000  1
