# generated using pymatgen
data_Tm5Lu11(Ga3Ir)2
_symmetry_space_group_name_H-M   'P 1'
_cell_length_a   9.82973653
_cell_length_b   9.82973695
_cell_length_c   6.92972000
_cell_angle_alpha   90.04856574
_cell_angle_beta   89.95143425
_cell_angle_gamma   119.99999879
_symmetry_Int_Tables_number   1
_chemical_formula_structural   Tm5Lu11(Ga3Ir)2
_chemical_formula_sum   'Tm5 Lu11 Ga6 Ir2'
_cell_volume   579.86899712
_cell_formula_units_Z   1
loop_
 _symmetry_equiv_pos_site_id
 _symmetry_equiv_pos_as_xyz
  1  'x, y, z'
loop_
 _atom_site_type_symbol
 _atom_site_label
 _atom_site_symmetry_multiplicity
 _atom_site_fract_x
 _atom_site_fract_y
 _atom_site_fract_z
 _atom_site_occupancy
  Tm  Tm0  1  0.467025  0.933855  0.293378  1
  Tm  Tm1  1  0.066145  0.532975  0.293378  1
  Tm  Tm2  1  0.533151  0.466849  0.793384  1
  Tm  Tm3  1  0.000001  0.999999  0.265032  1
  Tm  Tm4  1  0.999991  0.000009  0.765046  1
  Lu  Lu5  1  0.171604  0.828396  0.989547  1
  Lu  Lu6  1  0.343192  0.171673  0.490132  1
  Lu  Lu7  1  0.828327  0.656808  0.490132  1
  Lu  Lu8  1  0.171539  0.343214  0.990044  1
  Lu  Lu9  1  0.656786  0.828461  0.990044  1
  Lu  Lu10  1  0.828380  0.171620  0.490590  1
  Lu  Lu11  1  0.333359  0.666641  0.660968  1
  Lu  Lu12  1  0.666693  0.333307  0.160716  1
  Lu  Lu13  1  0.466564  0.533436  0.293342  1
  Lu  Lu14  1  0.933021  0.466403  0.793310  1
  Lu  Lu15  1  0.533597  0.066979  0.793310  1
  Ga  Ga16  1  0.163645  0.836355  0.544370  1
  Ga  Ga17  1  0.327502  0.163677  0.043969  1
  Ga  Ga18  1  0.836323  0.672498  0.043969  1
  Ga  Ga19  1  0.163882  0.327567  0.543817  1
  Ga  Ga20  1  0.672433  0.836118  0.543817  1
  Ga  Ga21  1  0.836127  0.163873  0.043405  1
  Ir  Ir22  1  0.333689  0.666311  0.053976  1
  Ir  Ir23  1  0.667025  0.332975  0.554326  1
