# generated using pymatgen
data_Dy2Co9TcAs6
_symmetry_space_group_name_H-M   'P 1'
_cell_length_a   3.80463400
_cell_length_b   10.69473900
_cell_length_c   12.18792500
_cell_angle_alpha   90.00000000
_cell_angle_beta   90.00000000
_cell_angle_gamma   90.00000000
_symmetry_Int_Tables_number   1
_chemical_formula_structural   Dy2Co9TcAs6
_chemical_formula_sum   'Dy4 Co18 Tc2 As12'
_cell_volume   495.92139844
_cell_formula_units_Z   2
loop_
 _symmetry_equiv_pos_site_id
 _symmetry_equiv_pos_as_xyz
  1  'x, y, z'
loop_
 _atom_site_type_symbol
 _atom_site_label
 _atom_site_symmetry_multiplicity
 _atom_site_fract_x
 _atom_site_fract_y
 _atom_site_fract_z
 _atom_site_occupancy
  Dy  Dy0  1  0.250000  0.580982  0.701607  1
  Dy  Dy1  1  0.250000  0.919018  0.201607  1
  Dy  Dy2  1  0.750000  0.416917  0.295864  1
  Dy  Dy3  1  0.750000  0.083083  0.795864  1
  Co  Co4  1  0.750000  0.289144  0.009581  1
  Co  Co5  1  0.750000  0.210856  0.509581  1
  Co  Co6  1  0.250000  0.406349  0.488577  1
  Co  Co7  1  0.250000  0.093651  0.988577  1
  Co  Co8  1  0.750000  0.593678  0.511434  1
  Co  Co9  1  0.750000  0.906322  0.011434  1
  Co  Co10  1  0.250000  0.215777  0.177020  1
  Co  Co11  1  0.250000  0.284223  0.677020  1
  Co  Co12  1  0.750000  0.783131  0.824088  1
  Co  Co13  1  0.750000  0.716869  0.324088  1
  Co  Co14  1  0.250000  0.886313  0.699234  1
  Co  Co15  1  0.250000  0.613687  0.199234  1
  Co  Co16  1  0.750000  0.116681  0.302639  1
  Co  Co17  1  0.750000  0.383319  0.802639  1
  Co  Co18  1  0.250000  0.467033  0.932265  1
  Co  Co19  1  0.250000  0.032967  0.432265  1
  Co  Co20  1  0.750000  0.532235  0.068137  1
  Co  Co21  1  0.750000  0.967765  0.568137  1
  Tc  Tc22  1  0.250000  0.707537  0.989676  1
  Tc  Tc23  1  0.250000  0.792463  0.489676  1
  As  As24  1  0.250000  0.414590  0.113692  1
  As  As25  1  0.250000  0.085410  0.613692  1
  As  As26  1  0.750000  0.581523  0.884260  1
  As  As27  1  0.750000  0.918477  0.384260  1
  As  As28  1  0.250000  0.268214  0.869189  1
  As  As29  1  0.250000  0.231786  0.369189  1
  As  As30  1  0.750000  0.731440  0.133492  1
  As  As31  1  0.750000  0.768560  0.633492  1
  As  As32  1  0.250000  0.595343  0.390399  1
  As  As33  1  0.250000  0.904657  0.890399  1
  As  As34  1  0.750000  0.398673  0.608847  1
  As  As35  1  0.750000  0.101327  0.108847  1
