# generated using pymatgen
data_Dy3Ho(B2Ir5)2
_symmetry_space_group_name_H-M   'P 1'
_cell_length_a   11.01525196
_cell_length_b   11.01525196
_cell_length_c   11.01525309
_cell_angle_alpha   28.76499310
_cell_angle_beta   28.76499547
_cell_angle_gamma   28.76499840
_symmetry_Int_Tables_number   1
_chemical_formula_structural   Dy3Ho(B2Ir5)2
_chemical_formula_sum   'Dy3 Ho1 B4 Ir10'
_cell_volume   273.66204559
_cell_formula_units_Z   1
loop_
 _symmetry_equiv_pos_site_id
 _symmetry_equiv_pos_as_xyz
  1  'x, y, z'
loop_
 _atom_site_type_symbol
 _atom_site_label
 _atom_site_symmetry_multiplicity
 _atom_site_fract_x
 _atom_site_fract_y
 _atom_site_fract_z
 _atom_site_occupancy
  Dy  Dy0  1  0.152065  0.152065  0.152065  1
  Dy  Dy1  1  0.950202  0.950202  0.950202  1
  Dy  Dy2  1  0.847907  0.847907  0.847907  1
  Ho  Ho3  1  0.049814  0.049814  0.049814  1
  B  B4  1  0.617490  0.617490  0.617490  1
  B  B5  1  0.716101  0.716101  0.716101  1
  B  B6  1  0.382523  0.382523  0.382523  1
  B  B7  1  0.283916  0.283916  0.283916  1
  Ir  Ir8  1  0.405689  0.899724  0.405689  1
  Ir  Ir9  1  0.899724  0.405689  0.405689  1
  Ir  Ir10  1  0.500045  0.500045  0.000042  1
  Ir  Ir11  1  0.500045  0.000042  0.500045  1
  Ir  Ir12  1  0.000042  0.500045  0.500045  1
  Ir  Ir13  1  0.499992  0.499992  0.499992  1
  Ir  Ir14  1  0.594256  0.100244  0.594256  1
  Ir  Ir15  1  0.594256  0.594256  0.100244  1
  Ir  Ir16  1  0.100244  0.594256  0.594256  1
  Ir  Ir17  1  0.405689  0.405689  0.899724  1
