# generated using pymatgen
data_PrU2(GaIr)3
_symmetry_space_group_name_H-M   'P 1'
_cell_length_a   7.21180808
_cell_length_b   7.21180873
_cell_length_c   3.97250400
_cell_angle_alpha   90.00000000
_cell_angle_beta   90.00000000
_cell_angle_gamma   121.22009550
_symmetry_Int_Tables_number   1
_chemical_formula_structural   PrU2(GaIr)3
_chemical_formula_sum   'Pr1 U2 Ga3 Ir3'
_cell_volume   176.68981586
_cell_formula_units_Z   1
loop_
 _symmetry_equiv_pos_site_id
 _symmetry_equiv_pos_as_xyz
  1  'x, y, z'
loop_
 _atom_site_type_symbol
 _atom_site_label
 _atom_site_symmetry_multiplicity
 _atom_site_fract_x
 _atom_site_fract_y
 _atom_site_fract_z
 _atom_site_occupancy
  Pr  Pr0  1  0.414121  0.414121  0.500000  1
  U  U1  1  0.586296  0.004741  0.500000  1
  U  U2  1  0.004741  0.586296  0.500000  1
  Ga  Ga3  1  0.745898  0.745898  0.000000  1
  Ga  Ga4  1  0.239497  0.007808  0.000000  1
  Ga  Ga5  1  0.007808  0.239497  0.000000  1
  Ir  Ir6  1  0.699161  0.330096  0.000000  1
  Ir  Ir7  1  0.330096  0.699161  0.000000  1
  Ir  Ir8  1  0.972385  0.972385  0.500000  1
