# generated using pymatgen
data_Zr10InNi2Bi5
_symmetry_space_group_name_H-M   'P 1'
_cell_length_a   8.81647582
_cell_length_b   8.81647589
_cell_length_c   5.89613600
_cell_angle_alpha   90.00000000
_cell_angle_beta   90.00000000
_cell_angle_gamma   120.06543217
_symmetry_Int_Tables_number   1
_chemical_formula_structural   Zr10InNi2Bi5
_chemical_formula_sum   'Zr10 In1 Ni2 Bi5'
_cell_volume   396.64450692
_cell_formula_units_Z   1
loop_
 _symmetry_equiv_pos_site_id
 _symmetry_equiv_pos_as_xyz
  1  'x, y, z'
loop_
 _atom_site_type_symbol
 _atom_site_label
 _atom_site_symmetry_multiplicity
 _atom_site_fract_x
 _atom_site_fract_y
 _atom_site_fract_z
 _atom_site_occupancy
  Zr  Zr0  1  0.746738  0.746738  0.750000  1
  Zr  Zr1  1  0.255675  0.006000  0.750000  1
  Zr  Zr2  1  0.006000  0.255675  0.750000  1
  Zr  Zr3  1  0.245805  0.245805  0.250000  1
  Zr  Zr4  1  0.752046  0.996862  0.250000  1
  Zr  Zr5  1  0.996862  0.752046  0.250000  1
  Zr  Zr6  1  0.665104  0.332162  0.997865  1
  Zr  Zr7  1  0.332162  0.665104  0.997865  1
  Zr  Zr8  1  0.332162  0.665104  0.502135  1
  Zr  Zr9  1  0.665104  0.332162  0.502135  1
  In  In10  1  0.391367  0.391367  0.750000  1
  Ni  Ni11  1  0.002506  0.002506  0.991371  1
  Ni  Ni12  1  0.002506  0.002506  0.508629  1
  Bi  Bi13  1  0.613105  0.000309  0.750000  1
  Bi  Bi14  1  0.000309  0.613105  0.750000  1
  Bi  Bi15  1  0.603835  0.603835  0.250000  1
  Bi  Bi16  1  0.389748  0.998963  0.250000  1
  Bi  Bi17  1  0.998963  0.389748  0.250000  1
