# generated using pymatgen
data_TmMn3P6N13
_symmetry_space_group_name_H-M   'P 1'
_cell_length_a   7.13655478
_cell_length_b   7.16509861
_cell_length_c   7.16509900
_cell_angle_alpha   109.55178004
_cell_angle_beta   109.39055124
_cell_angle_gamma   109.39053909
_symmetry_Int_Tables_number   1
_chemical_formula_structural   TmMn3P6N13
_chemical_formula_sum   'Tm1 Mn3 P6 N13'
_cell_volume   282.32054901
_cell_formula_units_Z   1
loop_
 _symmetry_equiv_pos_site_id
 _symmetry_equiv_pos_as_xyz
  1  'x, y, z'
loop_
 _atom_site_type_symbol
 _atom_site_label
 _atom_site_symmetry_multiplicity
 _atom_site_fract_x
 _atom_site_fract_y
 _atom_site_fract_z
 _atom_site_occupancy
  Tm  Tm0  1  0.707525  0.000000  0.000000  1
  Mn  Mn1  1  0.002884  0.000000  0.709161  1
  Mn  Mn2  1  0.002884  0.709161  0.000000  1
  Mn  Mn3  1  0.293723  0.290839  0.290839  1
  P  P4  1  0.245846  0.748314  0.496526  1
  P  P5  1  0.749321  0.251788  0.503474  1
  P  P6  1  0.749321  0.503474  0.251788  1
  P  P7  1  0.245846  0.496526  0.748314  1
  P  P8  1  0.497533  0.748212  0.251686  1
  P  P9  1  0.497533  0.251686  0.748212  1
  N  N10  1  0.012804  0.000000  0.000000  1
  N  N11  1  0.722527  0.278707  0.278707  1
  N  N12  1  0.267820  0.717585  0.269349  1
  N  N13  1  0.290192  0.559510  0.559510  1
  N  N14  1  0.550235  0.551764  0.282415  1
  N  N15  1  0.443820  0.721293  0.000000  1
  N  N16  1  0.998471  0.730651  0.448236  1
  N  N17  1  0.550235  0.282415  0.551764  1
  N  N18  1  0.730682  0.000000  0.440490  1
  N  N19  1  0.443820  0.000000  0.721293  1
  N  N20  1  0.730682  0.440490  0.000000  1
  N  N21  1  0.267820  0.269349  0.717585  1
  N  N22  1  0.998471  0.448236  0.730651  1
