# generated using pymatgen
data_KBa2Fe2(Co2As3)2
_symmetry_space_group_name_H-M   'P 1'
_cell_length_a   5.51239220
_cell_length_b   7.12169024
_cell_length_c   8.71100494
_cell_angle_alpha   111.54484061
_cell_angle_beta   108.46303003
_cell_angle_gamma   89.97634756
_symmetry_Int_Tables_number   1
_chemical_formula_structural   KBa2Fe2(Co2As3)2
_chemical_formula_sum   'K1 Ba2 Fe2 Co4 As6'
_cell_volume   299.09306435
_cell_formula_units_Z   1
loop_
 _symmetry_equiv_pos_site_id
 _symmetry_equiv_pos_as_xyz
  1  'x, y, z'
loop_
 _atom_site_type_symbol
 _atom_site_label
 _atom_site_symmetry_multiplicity
 _atom_site_fract_x
 _atom_site_fract_y
 _atom_site_fract_z
 _atom_site_occupancy
  K  K0  1  0.999602  0.999436  0.999777  1
  Ba  Ba1  1  0.660999  0.000995  0.323947  1
  Ba  Ba2  1  0.340199  0.000685  0.676615  1
  Fe  Fe3  1  0.249625  0.500313  0.000784  1
  Fe  Fe4  1  0.917243  0.501389  0.333743  1
  Co  Co5  1  0.417039  0.501107  0.334742  1
  Co  Co6  1  0.082314  0.498260  0.665570  1
  Co  Co7  1  0.750098  0.499395  0.999214  1
  Co  Co8  1  0.583505  0.499355  0.665885  1
  As  As9  1  0.215294  0.306601  0.434004  1
  As  As10  1  0.887240  0.306116  0.770012  1
  As  As11  1  0.550967  0.307893  0.102746  1
  As  As12  1  0.783649  0.693628  0.563091  1
  As  As13  1  0.446349  0.690116  0.897967  1
  As  As14  1  0.115877  0.694712  0.231903  1
