# generated using pymatgen
data_La5Sc3(P7Ir8)2
_symmetry_space_group_name_H-M   'P 1'
_cell_length_a   3.96441200
_cell_length_b   12.76904798
_cell_length_c   13.19306442
_cell_angle_alpha   81.50652822
_cell_angle_beta   90.00000000
_cell_angle_gamma   90.00000000
_symmetry_Int_Tables_number   1
_chemical_formula_structural   La5Sc3(P7Ir8)2
_chemical_formula_sum   'La5 Sc3 P14 Ir16'
_cell_volume   660.53165267
_cell_formula_units_Z   1
loop_
 _symmetry_equiv_pos_site_id
 _symmetry_equiv_pos_as_xyz
  1  'x, y, z'
loop_
 _atom_site_type_symbol
 _atom_site_label
 _atom_site_symmetry_multiplicity
 _atom_site_fract_x
 _atom_site_fract_y
 _atom_site_fract_z
 _atom_site_occupancy
  La  La0  1  0.250000  0.517586  0.293693  1
  La  La1  1  0.750000  0.719007  0.893705  1
  La  La2  1  0.250000  0.105268  0.785751  1
  La  La3  1  0.750000  0.896067  0.214059  1
  La  La4  1  0.250000  0.281362  0.103371  1
  Sc  Sc5  1  0.750000  0.795307  0.556759  1
  Sc  Sc6  1  0.250000  0.203213  0.446693  1
  Sc  Sc7  1  0.750000  0.477460  0.703567  1
  P  P8  1  0.250000  0.907765  0.416922  1
  P  P9  1  0.750000  0.474150  0.124824  1
  P  P10  1  0.250000  0.526943  0.866705  1
  P  P11  1  0.750000  0.093054  0.586416  1
  P  P12  1  0.250000  0.744140  0.082303  1
  P  P13  1  0.750000  0.257567  0.916417  1
  P  P14  1  0.750000  0.158021  0.287955  1
  P  P15  1  0.250000  0.838825  0.711556  1
  P  P16  1  0.250000  0.053816  0.100875  1
  P  P17  1  0.750000  0.947195  0.898515  1
  P  P18  1  0.250000  0.318559  0.685709  1
  P  P19  1  0.750000  0.686384  0.318224  1
  P  P20  1  0.250000  0.606818  0.567885  1
  P  P21  1  0.750000  0.386293  0.437631  1
  Ir  Ir22  1  0.250000  0.989500  0.575150  1
  Ir  Ir23  1  0.750000  0.012864  0.426580  1
  Ir  Ir24  1  0.250000  0.657751  0.725776  1
  Ir  Ir25  1  0.750000  0.337305  0.271639  1
  Ir  Ir26  1  0.250000  0.552760  0.045615  1
  Ir  Ir27  1  0.750000  0.449311  0.946728  1
  Ir  Ir28  1  0.250000  0.065346  0.277125  1
  Ir  Ir29  1  0.750000  0.933173  0.723076  1
  Ir  Ir30  1  0.250000  0.421741  0.525365  1
  Ir  Ir31  1  0.750000  0.578309  0.483168  1
  Ir  Ir32  1  0.250000  0.917298  0.996826  1
  Ir  Ir33  1  0.750000  0.084412  0.002357  1
  Ir  Ir34  1  0.250000  0.729504  0.405557  1
  Ir  Ir35  1  0.750000  0.271557  0.599511  1
  Ir  Ir36  1  0.250000  0.344214  0.852947  1
  Ir  Ir37  1  0.750000  0.660157  0.143045  1
