# generated using pymatgen
data_Ca2Pr2NdIr2
_symmetry_space_group_name_H-M   'P 1'
_cell_length_a   8.83069699
_cell_length_b   8.83069641
_cell_length_c   7.46750315
_cell_angle_alpha   83.26567503
_cell_angle_beta   83.26567342
_cell_angle_gamma   44.93248227
_symmetry_Int_Tables_number   1
_chemical_formula_structural   Ca2Pr2NdIr2
_chemical_formula_sum   'Ca4 Pr4 Nd2 Ir4'
_cell_volume   407.95555544
_cell_formula_units_Z   2
loop_
 _symmetry_equiv_pos_site_id
 _symmetry_equiv_pos_as_xyz
  1  'x, y, z'
loop_
 _atom_site_type_symbol
 _atom_site_label
 _atom_site_symmetry_multiplicity
 _atom_site_fract_x
 _atom_site_fract_y
 _atom_site_fract_z
 _atom_site_occupancy
  Ca  Ca0  1  0.016563  0.800641  0.917215  1
  Ca  Ca1  1  0.199359  0.983437  0.582785  1
  Ca  Ca2  1  0.983437  0.199359  0.082785  1
  Ca  Ca3  1  0.800641  0.016563  0.417215  1
  Pr  Pr4  1  0.347755  0.212130  0.815680  1
  Pr  Pr5  1  0.787870  0.652245  0.684320  1
  Pr  Pr6  1  0.652245  0.787870  0.184320  1
  Pr  Pr7  1  0.212130  0.347755  0.315680  1
  Nd  Nd8  1  0.565219  0.434781  0.750000  1
  Nd  Nd9  1  0.434781  0.565219  0.250000  1
  Ir  Ir10  1  0.185154  0.587632  0.571927  1
  Ir  Ir11  1  0.412368  0.814846  0.928073  1
  Ir  Ir12  1  0.814846  0.412368  0.428073  1
  Ir  Ir13  1  0.587632  0.185154  0.071927  1
