# generated using pymatgen
data_Zr4In2Sb2PdPt3
_symmetry_space_group_name_H-M   'P 1'
_cell_length_a   6.40641587
_cell_length_b   6.40748573
_cell_length_c   7.86494281
_cell_angle_alpha   66.03769140
_cell_angle_beta   65.96842462
_cell_angle_gamma   90.00799943
_symmetry_Int_Tables_number   1
_chemical_formula_structural   Zr4In2Sb2PdPt3
_chemical_formula_sum   'Zr4 In2 Sb2 Pd1 Pt3'
_cell_volume   264.09755545
_cell_formula_units_Z   1
loop_
 _symmetry_equiv_pos_site_id
 _symmetry_equiv_pos_as_xyz
  1  'x, y, z'
loop_
 _atom_site_type_symbol
 _atom_site_label
 _atom_site_symmetry_multiplicity
 _atom_site_fract_x
 _atom_site_fract_y
 _atom_site_fract_z
 _atom_site_occupancy
  Zr  Zr0  1  0.493581  0.996014  0.010416  1
  Zr  Zr1  1  0.754061  0.754013  0.489517  1
  Zr  Zr2  1  0.247720  0.247644  0.507497  1
  Zr  Zr3  1  0.005284  0.502400  0.992432  1
  In  In4  1  0.999333  0.998668  0.997363  1
  In  In5  1  0.246488  0.751274  0.502816  1
  Sb  Sb6  1  0.503262  0.502632  0.998244  1
  Sb  Sb7  1  0.751474  0.247374  0.501685  1
  Pd  Pd8  1  0.867874  0.875045  0.749980  1
  Pt  Pt9  1  0.125221  0.619919  0.249952  1
  Pt  Pt10  1  0.625199  0.130020  0.250059  1
  Pt  Pt11  1  0.380501  0.374994  0.750040  1
