# generated using pymatgen
data_Yb2SmOs2O9
_symmetry_space_group_name_H-M   'P 1'
_cell_length_a   5.49314503
_cell_length_b   6.79595214
_cell_length_c   10.77850242
_cell_angle_alpha   76.10328058
_cell_angle_beta   75.34893977
_cell_angle_gamma   69.41101333
_symmetry_Int_Tables_number   1
_chemical_formula_structural   Yb2SmOs2O9
_chemical_formula_sum   'Yb4 Sm2 Os4 O18'
_cell_volume   359.30924602
_cell_formula_units_Z   2
loop_
 _symmetry_equiv_pos_site_id
 _symmetry_equiv_pos_as_xyz
  1  'x, y, z'
loop_
 _atom_site_type_symbol
 _atom_site_label
 _atom_site_symmetry_multiplicity
 _atom_site_fract_x
 _atom_site_fract_y
 _atom_site_fract_z
 _atom_site_occupancy
  Yb  Yb0  1  0.012553  0.212483  0.262463  1
  Yb  Yb1  1  0.987447  0.787517  0.737537  1
  Yb  Yb2  1  0.236420  0.145551  0.887024  1
  Yb  Yb3  1  0.763580  0.854449  0.112976  1
  Sm  Sm4  1  0.297195  0.605226  0.366637  1
  Sm  Sm5  1  0.702805  0.394774  0.633363  1
  Os  Os6  1  0.342838  0.125895  0.571997  1
  Os  Os7  1  0.657162  0.874105  0.428003  1
  Os  Os8  1  0.524599  0.380084  0.094448  1
  Os  Os9  1  0.475401  0.619916  0.905552  1
  O  O10  1  0.062745  0.116522  0.720766  1
  O  O11  1  0.937255  0.883478  0.279234  1
  O  O12  1  0.085100  0.209856  0.470037  1
  O  O13  1  0.914900  0.790144  0.529963  1
  O  O14  1  0.195150  0.487336  0.202316  1
  O  O15  1  0.804850  0.512664  0.797684  1
  O  O16  1  0.283423  0.422731  0.579299  1
  O  O17  1  0.716577  0.577269  0.420701  1
  O  O18  1  0.394184  0.174063  0.070702  1
  O  O19  1  0.605816  0.825937  0.929298  1
  O  O20  1  0.592526  0.071705  0.682321  1
  O  O21  1  0.407474  0.928295  0.317679  1
  O  O22  1  0.603197  0.188004  0.405917  1
  O  O23  1  0.396803  0.811996  0.594083  1
  O  O24  1  0.654960  0.529322  0.177945  1
  O  O25  1  0.345040  0.470678  0.822055  1
  O  O26  1  0.867884  0.196457  0.056945  1
  O  O27  1  0.132116  0.803543  0.943055  1
