# generated using pymatgen
data_Ho4Si4IrRu3
_symmetry_space_group_name_H-M   'P 1'
_cell_length_a   4.32074900
_cell_length_b   6.94826065
_cell_length_c   7.14342116
_cell_angle_alpha   90.28867404
_cell_angle_beta   90.00000000
_cell_angle_gamma   90.00000000
_symmetry_Int_Tables_number   1
_chemical_formula_structural   Ho4Si4IrRu3
_chemical_formula_sum   'Ho4 Si4 Ir1 Ru3'
_cell_volume   214.45485519
_cell_formula_units_Z   1
loop_
 _symmetry_equiv_pos_site_id
 _symmetry_equiv_pos_as_xyz
  1  'x, y, z'
loop_
 _atom_site_type_symbol
 _atom_site_label
 _atom_site_symmetry_multiplicity
 _atom_site_fract_x
 _atom_site_fract_y
 _atom_site_fract_z
 _atom_site_occupancy
  Ho  Ho0  1  0.750000  0.514986  0.813781  1
  Ho  Ho1  1  0.250000  0.988712  0.313996  1
  Ho  Ho2  1  0.750000  0.009648  0.687478  1
  Ho  Ho3  1  0.250000  0.486830  0.185224  1
  Si  Si4  1  0.250000  0.802866  0.894267  1
  Si  Si5  1  0.250000  0.302717  0.611159  1
  Si  Si6  1  0.750000  0.197789  0.104226  1
  Si  Si7  1  0.750000  0.697921  0.391427  1
  Ir  Ir8  1  0.750000  0.343949  0.432121  1
  Ru  Ru9  1  0.250000  0.653035  0.565558  1
  Ru  Ru10  1  0.250000  0.154747  0.933272  1
  Ru  Ru11  1  0.750000  0.846799  0.067491  1
