# generated using pymatgen
data_Yb(FeAs3)4
_symmetry_space_group_name_H-M   'P 1'
_cell_length_a   7.22903026
_cell_length_b   7.22903097
_cell_length_c   7.22903100
_cell_angle_alpha   109.47122071
_cell_angle_beta   109.47122272
_cell_angle_gamma   109.47122051
_symmetry_Int_Tables_number   1
_chemical_formula_structural   Yb(FeAs3)4
_chemical_formula_sum   'Yb1 Fe4 As12'
_cell_volume   290.81601117
_cell_formula_units_Z   1
loop_
 _symmetry_equiv_pos_site_id
 _symmetry_equiv_pos_as_xyz
  1  'x, y, z'
loop_
 _atom_site_type_symbol
 _atom_site_label
 _atom_site_symmetry_multiplicity
 _atom_site_fract_x
 _atom_site_fract_y
 _atom_site_fract_z
 _atom_site_occupancy
  Yb  Yb0  1  0.000000  0.000000  0.000000  1
  Fe  Fe1  1  0.000000  0.000000  0.500000  1
  Fe  Fe2  1  0.500000  0.000000  0.000000  1
  Fe  Fe3  1  0.000000  0.500000  0.000000  1
  Fe  Fe4  1  0.500000  0.500000  0.500000  1
  As  As5  1  0.342040  0.187269  0.845229  1
  As  As6  1  0.657960  0.812731  0.154771  1
  As  As7  1  0.657960  0.503189  0.845229  1
  As  As8  1  0.342040  0.496811  0.154771  1
  As  As9  1  0.187269  0.845229  0.342040  1
  As  As10  1  0.812731  0.154771  0.657960  1
  As  As11  1  0.503189  0.845229  0.657960  1
  As  As12  1  0.496811  0.154771  0.342040  1
  As  As13  1  0.845229  0.342040  0.187269  1
  As  As14  1  0.154771  0.657960  0.812731  1
  As  As15  1  0.845229  0.657960  0.503189  1
  As  As16  1  0.154771  0.342040  0.496811  1
