# generated using pymatgen
data_Dy2Ho2PtAu
_symmetry_space_group_name_H-M   'P 1'
_cell_length_a   4.86096500
_cell_length_b   7.12019500
_cell_length_c   8.86535400
_cell_angle_alpha   90.00000000
_cell_angle_beta   90.00000000
_cell_angle_gamma   90.00000000
_symmetry_Int_Tables_number   1
_chemical_formula_structural   Dy2Ho2PtAu
_chemical_formula_sum   'Dy4 Ho4 Pt2 Au2'
_cell_volume   306.83893297
_cell_formula_units_Z   2
loop_
 _symmetry_equiv_pos_site_id
 _symmetry_equiv_pos_as_xyz
  1  'x, y, z'
loop_
 _atom_site_type_symbol
 _atom_site_label
 _atom_site_symmetry_multiplicity
 _atom_site_fract_x
 _atom_site_fract_y
 _atom_site_fract_z
 _atom_site_occupancy
  Dy  Dy0  1  0.250000  0.005711  0.329956  1
  Dy  Dy1  1  0.250000  0.505711  0.170044  1
  Dy  Dy2  1  0.750000  0.984808  0.671304  1
  Dy  Dy3  1  0.750000  0.484808  0.828696  1
  Ho  Ho4  1  0.250000  0.149232  0.926129  1
  Ho  Ho5  1  0.250000  0.649232  0.573871  1
  Ho  Ho6  1  0.750000  0.855868  0.089491  1
  Ho  Ho7  1  0.750000  0.355868  0.410509  1
  Pt  Pt8  1  0.750000  0.760017  0.408742  1
  Pt  Pt9  1  0.750000  0.260017  0.091258  1
  Au  Au10  1  0.250000  0.244363  0.599774  1
  Au  Au11  1  0.250000  0.744363  0.900226  1
