# generated using pymatgen
data_La8Nd12(Ir3Pt)3
_symmetry_space_group_name_H-M   'P 1'
_cell_length_a   11.42776068
_cell_length_b   11.42775486
_cell_length_c   6.58559879
_cell_angle_alpha   89.90566444
_cell_angle_beta   89.90568717
_cell_angle_gamma   90.14065368
_symmetry_Int_Tables_number   1
_chemical_formula_structural   La8Nd12(Ir3Pt)3
_chemical_formula_sum   'La8 Nd12 Ir9 Pt3'
_cell_volume   860.03243874
_cell_formula_units_Z   1
loop_
 _symmetry_equiv_pos_site_id
 _symmetry_equiv_pos_as_xyz
  1  'x, y, z'
loop_
 _atom_site_type_symbol
 _atom_site_label
 _atom_site_symmetry_multiplicity
 _atom_site_fract_x
 _atom_site_fract_y
 _atom_site_fract_z
 _atom_site_occupancy
  La  La0  1  0.087250  0.289740  0.115511  1
  La  La1  1  0.791954  0.405383  0.115326  1
  La  La2  1  0.208485  0.589799  0.114712  1
  La  La3  1  0.909199  0.707694  0.114785  1
  La  La4  1  0.410201  0.791516  0.385290  1
  La  La5  1  0.594617  0.208045  0.384675  1
  La  La6  1  0.292307  0.090801  0.385215  1
  La  La7  1  0.710259  0.912751  0.384489  1
  Nd  Nd8  1  0.411056  0.205584  0.877423  1
  Nd  Nd9  1  0.707485  0.091467  0.882667  1
  Nd  Nd10  1  0.294091  0.910669  0.878280  1
  Nd  Nd11  1  0.589906  0.795108  0.876938  1
  Nd  Nd12  1  0.089331  0.705911  0.621720  1
  Nd  Nd13  1  0.908533  0.292513  0.617333  1
  Nd  Nd14  1  0.204893  0.410094  0.623062  1
  Nd  Nd15  1  0.794415  0.588944  0.622577  1
  Nd  Nd16  1  0.998110  0.001166  0.996672  1
  Nd  Nd17  1  0.500442  0.500266  0.996889  1
  Nd  Nd18  1  0.499733  0.499557  0.503111  1
  Nd  Nd19  1  0.998834  0.001890  0.503328  1
  Ir  Ir20  1  0.846451  0.153550  0.250000  1
  Ir  Ir21  1  0.347147  0.652853  0.749999  1
  Ir  Ir22  1  0.154523  0.153300  0.749981  1
  Ir  Ir23  1  0.846700  0.845476  0.750019  1
  Ir  Ir24  1  0.652192  0.347808  0.750000  1
  Ir  Ir25  1  0.000260  0.500975  0.376752  1
  Ir  Ir26  1  0.499025  0.999740  0.123247  1
  Ir  Ir27  1  0.499629  0.999566  0.617881  1
  Ir  Ir28  1  0.000434  0.500372  0.882118  1
  Pt  Pt29  1  0.153636  0.846364  0.250000  1
  Pt  Pt30  1  0.345126  0.346226  0.249617  1
  Pt  Pt31  1  0.653774  0.654874  0.250383  1
