# generated using pymatgen
data_Tm2NiPS
_symmetry_space_group_name_H-M   'P 1'
_cell_length_a   3.88258300
_cell_length_b   3.88258417
_cell_length_c   13.94191500
_cell_angle_alpha   90.00000000
_cell_angle_beta   90.00000000
_cell_angle_gamma   120.00001556
_symmetry_Int_Tables_number   1
_chemical_formula_structural   Tm2NiPS
_chemical_formula_sum   'Tm4 Ni2 P2 S2'
_cell_volume   182.00973731
_cell_formula_units_Z   2
loop_
 _symmetry_equiv_pos_site_id
 _symmetry_equiv_pos_as_xyz
  1  'x, y, z'
loop_
 _atom_site_type_symbol
 _atom_site_label
 _atom_site_symmetry_multiplicity
 _atom_site_fract_x
 _atom_site_fract_y
 _atom_site_fract_z
 _atom_site_occupancy
  Tm  Tm0  1  0.333333  0.666667  0.381867  1
  Tm  Tm1  1  0.666667  0.333333  0.618133  1
  Tm  Tm2  1  0.666667  0.333333  0.881867  1
  Tm  Tm3  1  0.333333  0.666667  0.118133  1
  Ni  Ni4  1  0.000000  0.000000  0.250000  1
  Ni  Ni5  1  0.000000  0.000000  0.750000  1
  P  P6  1  0.333333  0.666667  0.750000  1
  P  P7  1  0.666667  0.333333  0.250000  1
  S  S8  1  0.000000  0.000000  0.500000  1
  S  S9  1  0.000000  0.000000  0.000000  1
