# generated using pymatgen
data_ErU(FeGe)2
_symmetry_space_group_name_H-M   'P 1'
_cell_length_a   7.08432571
_cell_length_b   4.37319700
_cell_length_c   6.82705402
_cell_angle_alpha   90.00000000
_cell_angle_beta   94.95811442
_cell_angle_gamma   90.00000000
_symmetry_Int_Tables_number   1
_chemical_formula_structural   ErU(FeGe)2
_chemical_formula_sum   'Er2 U2 Fe4 Ge4'
_cell_volume   210.71855853
_cell_formula_units_Z   2
loop_
 _symmetry_equiv_pos_site_id
 _symmetry_equiv_pos_as_xyz
  1  'x, y, z'
loop_
 _atom_site_type_symbol
 _atom_site_label
 _atom_site_symmetry_multiplicity
 _atom_site_fract_x
 _atom_site_fract_y
 _atom_site_fract_z
 _atom_site_occupancy
  Er  Er0  1  0.025410  0.249999  0.725645  1
  Er  Er1  1  0.974591  0.750001  0.274355  1
  U  U2  1  0.515001  0.249999  0.801655  1
  U  U3  1  0.485001  0.750001  0.198346  1
  Fe  Fe4  1  0.733596  0.249999  0.036393  1
  Fe  Fe5  1  0.266405  0.750001  0.963606  1
  Fe  Fe6  1  0.372031  0.249999  0.474127  1
  Fe  Fe7  1  0.627968  0.750001  0.525874  1
  Ge  Ge8  1  0.713899  0.249999  0.399715  1
  Ge  Ge9  1  0.286101  0.750001  0.600285  1
  Ge  Ge10  1  0.198522  0.249999  0.119420  1
  Ge  Ge11  1  0.801479  0.750001  0.880580  1
