# generated using pymatgen
data_Sc8Ti9Ge16Mo3
_symmetry_space_group_name_H-M   'P 1'
_cell_length_a   6.78983572
_cell_length_b   6.92115302
_cell_length_c   13.14670200
_cell_angle_alpha   90.00000000
_cell_angle_beta   90.00000000
_cell_angle_gamma   90.18432996
_symmetry_Int_Tables_number   1
_chemical_formula_structural   Sc8Ti9Ge16Mo3
_chemical_formula_sum   'Sc8 Ti9 Ge16 Mo3'
_cell_volume   617.80623807
_cell_formula_units_Z   1
loop_
 _symmetry_equiv_pos_site_id
 _symmetry_equiv_pos_as_xyz
  1  'x, y, z'
loop_
 _atom_site_type_symbol
 _atom_site_label
 _atom_site_symmetry_multiplicity
 _atom_site_fract_x
 _atom_site_fract_y
 _atom_site_fract_z
 _atom_site_occupancy
  Sc  Sc0  1  0.492901  0.678742  0.593750  1
  Sc  Sc1  1  0.995307  0.825206  0.906325  1
  Sc  Sc2  1  0.507341  0.321944  0.094820  1
  Sc  Sc3  1  0.006327  0.178174  0.404453  1
  Sc  Sc4  1  0.507341  0.321944  0.405180  1
  Sc  Sc5  1  0.006327  0.178174  0.095547  1
  Sc  Sc6  1  0.492901  0.678742  0.906250  1
  Sc  Sc7  1  0.995307  0.825206  0.593675  1
  Ti  Ti8  1  0.656064  0.166387  0.627652  1
  Ti  Ti9  1  0.162505  0.329240  0.873006  1
  Ti  Ti10  1  0.338905  0.830714  0.127435  1
  Ti  Ti11  1  0.839593  0.667141  0.373150  1
  Ti  Ti12  1  0.338905  0.830714  0.372565  1
  Ti  Ti13  1  0.839593  0.667141  0.126850  1
  Ti  Ti14  1  0.656064  0.166387  0.872348  1
  Ti  Ti15  1  0.162505  0.329240  0.626994  1
  Ti  Ti16  1  0.835439  0.490584  0.750000  1
  Ge  Ge17  1  0.680542  0.961652  0.458511  1
  Ge  Ge18  1  0.179652  0.537209  0.041046  1
  Ge  Ge19  1  0.320241  0.038572  0.959550  1
  Ge  Ge20  1  0.820661  0.462923  0.541761  1
  Ge  Ge21  1  0.320241  0.038572  0.540450  1
  Ge  Ge22  1  0.820661  0.462923  0.958239  1
  Ge  Ge23  1  0.680542  0.961652  0.041489  1
  Ge  Ge24  1  0.179652  0.537209  0.458954  1
  Ge  Ge25  1  0.463244  0.384528  0.750000  1
  Ge  Ge26  1  0.961591  0.118585  0.750000  1
  Ge  Ge27  1  0.537697  0.616934  0.250000  1
  Ge  Ge28  1  0.036727  0.883432  0.250000  1
  Ge  Ge29  1  0.694179  0.850164  0.750000  1
  Ge  Ge30  1  0.191586  0.646945  0.750000  1
  Ge  Ge31  1  0.307120  0.147455  0.250000  1
  Ge  Ge32  1  0.806108  0.353511  0.250000  1
  Mo  Mo33  1  0.335965  0.011098  0.750000  1
  Mo  Mo34  1  0.165794  0.512132  0.250000  1
  Mo  Mo35  1  0.664470  0.988828  0.250000  1
