# generated using pymatgen
data_La4As3Br
_symmetry_space_group_name_H-M   'P 1'
_cell_length_a   8.72456800
_cell_length_b   4.38738300
_cell_length_c   6.16251302
_cell_angle_alpha   90.00000000
_cell_angle_beta   90.00511353
_cell_angle_gamma   90.00000000
_symmetry_Int_Tables_number   1
_chemical_formula_structural   La4As3Br
_chemical_formula_sum   'La4 As3 Br1'
_cell_volume   235.88880381
_cell_formula_units_Z   1
loop_
 _symmetry_equiv_pos_site_id
 _symmetry_equiv_pos_as_xyz
  1  'x, y, z'
loop_
 _atom_site_type_symbol
 _atom_site_label
 _atom_site_symmetry_multiplicity
 _atom_site_fract_x
 _atom_site_fract_y
 _atom_site_fract_z
 _atom_site_occupancy
  La  La0  1  0.394137  0.249999  0.249933  1
  La  La1  1  0.855754  0.249999  0.250071  1
  La  La2  1  0.125100  0.750001  0.749900  1
  La  La3  1  0.625037  0.750001  0.750097  1
  As  As4  1  0.624909  0.750001  0.250098  1
  As  As5  1  0.369864  0.249999  0.749942  1
  As  As6  1  0.880256  0.249999  0.750098  1
  Br  Br7  1  0.124947  0.750001  0.249864  1
