# generated using pymatgen
data_Pr5Nd5(In2Ir)4
_symmetry_space_group_name_H-M   'P 1'
_cell_length_a   3.81688100
_cell_length_b   8.29187542
_cell_length_c   18.69251241
_cell_angle_alpha   90.24935461
_cell_angle_beta   90.00000000
_cell_angle_gamma   90.00000000
_symmetry_Int_Tables_number   1
_chemical_formula_structural   Pr5Nd5(In2Ir)4
_chemical_formula_sum   'Pr5 Nd5 In8 Ir4'
_cell_volume   591.59562420
_cell_formula_units_Z   1
loop_
 _symmetry_equiv_pos_site_id
 _symmetry_equiv_pos_as_xyz
  1  'x, y, z'
loop_
 _atom_site_type_symbol
 _atom_site_label
 _atom_site_symmetry_multiplicity
 _atom_site_fract_x
 _atom_site_fract_y
 _atom_site_fract_z
 _atom_site_occupancy
  Pr  Pr0  1  0.000000  0.115279  0.410325  1
  Pr  Pr1  1  0.000000  0.884676  0.589444  1
  Pr  Pr2  1  0.000000  0.385329  0.910838  1
  Pr  Pr3  1  0.000000  0.999477  0.000547  1
  Pr  Pr4  1  0.000000  0.500934  0.500355  1
  Nd  Nd5  1  0.000000  0.614336  0.089902  1
  Nd  Nd6  1  0.000000  0.241183  0.220760  1
  Nd  Nd7  1  0.000000  0.758499  0.778905  1
  Nd  Nd8  1  0.000000  0.259039  0.721648  1
  Nd  Nd9  1  0.000000  0.740550  0.278239  1
  In  In10  1  0.500000  0.432624  0.348881  1
  In  In11  1  0.500000  0.567186  0.651153  1
  In  In12  1  0.500000  0.068089  0.849381  1
  In  In13  1  0.500000  0.930925  0.150737  1
  In  In14  1  0.500000  0.292868  0.069930  1
  In  In15  1  0.500000  0.708853  0.929944  1
  In  In16  1  0.500000  0.208912  0.570202  1
  In  In17  1  0.500000  0.790689  0.429413  1
  Ir  Ir18  1  0.500000  0.006698  0.303601  1
  Ir  Ir19  1  0.500000  0.993526  0.696195  1
  Ir  Ir20  1  0.500000  0.490926  0.803556  1
  Ir  Ir21  1  0.500000  0.509402  0.196046  1
