# generated using pymatgen
data_Pr2Ga2Ir5
_symmetry_space_group_name_H-M   'P 1'
_cell_length_a   5.58082160
_cell_length_b   5.58082149
_cell_length_c   12.65550449
_cell_angle_alpha   77.26218280
_cell_angle_beta   77.26219117
_cell_angle_gamma   60.00000414
_symmetry_Int_Tables_number   1
_chemical_formula_structural   Pr2Ga2Ir5
_chemical_formula_sum   'Pr4 Ga4 Ir10'
_cell_volume   330.10623795
_cell_formula_units_Z   2
loop_
 _symmetry_equiv_pos_site_id
 _symmetry_equiv_pos_as_xyz
  1  'x, y, z'
loop_
 _atom_site_type_symbol
 _atom_site_label
 _atom_site_symmetry_multiplicity
 _atom_site_fract_x
 _atom_site_fract_y
 _atom_site_fract_z
 _atom_site_occupancy
  Pr  Pr0  1  0.950903  0.950903  0.147290  1
  Pr  Pr1  1  0.049097  0.049097  0.852710  1
  Pr  Pr2  1  0.852564  0.852564  0.442307  1
  Pr  Pr3  1  0.147436  0.147436  0.557693  1
  Ga  Ga4  1  0.720490  0.720490  0.838530  1
  Ga  Ga5  1  0.279510  0.279510  0.161470  1
  Ga  Ga6  1  0.611470  0.611470  0.165590  1
  Ga  Ga7  1  0.388530  0.388530  0.834410  1
  Ir  Ir8  1  0.500000  0.500000  0.500000  1
  Ir  Ir9  1  0.000000  0.500000  0.000000  1
  Ir  Ir10  1  0.500000  0.000000  0.000000  1
  Ir  Ir11  1  0.500000  0.500000  0.000000  1
  Ir  Ir12  1  0.388290  0.388290  0.327820  1
  Ir  Ir13  1  0.895601  0.388290  0.327820  1
  Ir  Ir14  1  0.388290  0.895601  0.327820  1
  Ir  Ir15  1  0.611710  0.611710  0.672180  1
  Ir  Ir16  1  0.104399  0.611710  0.672180  1
  Ir  Ir17  1  0.611710  0.104399  0.672180  1
