# generated using pymatgen
data_TmHg4Se2Cl5
_symmetry_space_group_name_H-M   'P 1'
_cell_length_a   10.41595500
_cell_length_b   9.48539988
_cell_length_c   16.55235500
_cell_angle_alpha   59.35058556
_cell_angle_beta   90.00000000
_cell_angle_gamma   90.00000000
_symmetry_Int_Tables_number   1
_chemical_formula_structural   TmHg4Se2Cl5
_chemical_formula_sum   'Tm4 Hg16 Se8 Cl20'
_cell_volume   1406.90836087
_cell_formula_units_Z   4
loop_
 _symmetry_equiv_pos_site_id
 _symmetry_equiv_pos_as_xyz
  1  'x, y, z'
loop_
 _atom_site_type_symbol
 _atom_site_label
 _atom_site_symmetry_multiplicity
 _atom_site_fract_x
 _atom_site_fract_y
 _atom_site_fract_z
 _atom_site_occupancy
  Tm  Tm0  1  0.998896  0.013111  0.740420  1
  Tm  Tm1  1  0.501104  0.013111  0.240420  1
  Tm  Tm2  1  0.001104  0.986889  0.259580  1
  Tm  Tm3  1  0.498896  0.986889  0.759580  1
  Hg  Hg4  1  0.749541  0.853734  0.048666  1
  Hg  Hg5  1  0.750459  0.853734  0.548666  1
  Hg  Hg6  1  0.250459  0.146266  0.951334  1
  Hg  Hg7  1  0.249541  0.146266  0.451334  1
  Hg  Hg8  1  0.749239  0.172810  0.948258  1
  Hg  Hg9  1  0.750761  0.172810  0.448258  1
  Hg  Hg10  1  0.250761  0.827190  0.051742  1
  Hg  Hg11  1  0.249239  0.827190  0.551742  1
  Hg  Hg12  1  0.737550  0.516192  0.991773  1
  Hg  Hg13  1  0.762450  0.516192  0.491773  1
  Hg  Hg14  1  0.262450  0.483808  0.008227  1
  Hg  Hg15  1  0.237550  0.483808  0.508227  1
  Hg  Hg16  1  0.505838  0.507183  0.648599  1
  Hg  Hg17  1  0.994162  0.507183  0.148599  1
  Hg  Hg18  1  0.494162  0.492817  0.351401  1
  Hg  Hg19  1  0.005838  0.492817  0.851401  1
  Se  Se20  1  0.750780  0.536877  0.136314  1
  Se  Se21  1  0.749220  0.536877  0.636314  1
  Se  Se22  1  0.249220  0.463123  0.863686  1
  Se  Se23  1  0.250780  0.463123  0.363686  1
  Se  Se24  1  0.738728  0.490099  0.349522  1
  Se  Se25  1  0.761272  0.490099  0.849522  1
  Se  Se26  1  0.261272  0.509901  0.650478  1
  Se  Se27  1  0.238728  0.509901  0.150478  1
  Cl  Cl28  1  0.499972  0.185539  0.826969  1
  Cl  Cl29  1  0.000028  0.185539  0.326969  1
  Cl  Cl30  1  0.500028  0.814461  0.173031  1
  Cl  Cl31  1  0.999972  0.814461  0.673031  1
  Cl  Cl32  1  0.500302  0.790910  0.696117  1
  Cl  Cl33  1  0.999698  0.790910  0.196117  1
  Cl  Cl34  1  0.499698  0.209090  0.303883  1
  Cl  Cl35  1  0.000302  0.209090  0.803883  1
  Cl  Cl36  1  0.538451  0.236688  0.591844  1
  Cl  Cl37  1  0.961549  0.236688  0.091844  1
  Cl  Cl38  1  0.461549  0.763312  0.408156  1
  Cl  Cl39  1  0.038451  0.763312  0.908156  1
  Cl  Cl40  1  0.972285  0.251785  0.567488  1
  Cl  Cl41  1  0.527715  0.251785  0.067488  1
  Cl  Cl42  1  0.027715  0.748215  0.432512  1
  Cl  Cl43  1  0.472285  0.748215  0.932512  1
  Cl  Cl44  1  0.751564  0.950656  0.785860  1
  Cl  Cl45  1  0.748436  0.950656  0.285860  1
  Cl  Cl46  1  0.248436  0.049344  0.214140  1
  Cl  Cl47  1  0.251564  0.049344  0.714140  1
