# generated using pymatgen
data_Zr4Ta3TiRe4
_symmetry_space_group_name_H-M   'P 1'
_cell_length_a   5.43199355
_cell_length_b   5.35740403
_cell_length_c   8.94918306
_cell_angle_alpha   90.00000267
_cell_angle_beta   89.72474406
_cell_angle_gamma   119.54679651
_symmetry_Int_Tables_number   1
_chemical_formula_structural   Zr4Ta3TiRe4
_chemical_formula_sum   'Zr4 Ta3 Ti1 Re4'
_cell_volume   226.56160598
_cell_formula_units_Z   1
loop_
 _symmetry_equiv_pos_site_id
 _symmetry_equiv_pos_as_xyz
  1  'x, y, z'
loop_
 _atom_site_type_symbol
 _atom_site_label
 _atom_site_symmetry_multiplicity
 _atom_site_fract_x
 _atom_site_fract_y
 _atom_site_fract_z
 _atom_site_occupancy
  Zr  Zr0  1  0.332311  0.666156  0.438310  1
  Zr  Zr1  1  0.668246  0.334122  0.937420  1
  Zr  Zr2  1  0.667689  0.333844  0.561690  1
  Zr  Zr3  1  0.331754  0.665878  0.062580  1
  Ta  Ta4  1  0.656090  0.828045  0.748298  1
  Ta  Ta5  1  0.343910  0.171955  0.251702  1
  Ta  Ta6  1  0.000000  0.000000  0.000000  1
  Ti  Ti7  1  0.000000  0.000000  0.500000  1
  Re  Re8  1  0.837018  0.173846  0.251522  1
  Re  Re9  1  0.162982  0.336829  0.748478  1
  Re  Re10  1  0.162982  0.826154  0.748478  1
  Re  Re11  1  0.837018  0.663171  0.251522  1
