# generated using pymatgen
data_FeCl30
_symmetry_space_group_name_H-M   'P 1'
_cell_length_a   13.40583301
_cell_length_b   13.40583381
_cell_length_c   15.75595008
_cell_angle_alpha   83.82279364
_cell_angle_beta   83.82279538
_cell_angle_gamma   125.03641352
_symmetry_Int_Tables_number   1
_chemical_formula_structural   FeCl30
_chemical_formula_sum   'Fe1 Cl30'
_cell_volume   2254.56902444
_cell_formula_units_Z   1
loop_
 _symmetry_equiv_pos_site_id
 _symmetry_equiv_pos_as_xyz
  1  'x, y, z'
loop_
 _atom_site_type_symbol
 _atom_site_label
 _atom_site_symmetry_multiplicity
 _atom_site_fract_x
 _atom_site_fract_y
 _atom_site_fract_z
 _atom_site_occupancy
  Fe  Fe0  1  0.000000  0.000000  0.000000  1
  Cl  Cl1  1  0.946150  0.946150  0.151207  1
  Cl  Cl2  1  0.053850  0.053850  0.848793  1
  Cl  Cl3  1  0.058652  0.188734  0.005170  1
  Cl  Cl4  1  0.941348  0.811266  0.994830  1
  Cl  Cl5  1  0.188734  0.058652  0.005170  1
  Cl  Cl6  1  0.811266  0.941348  0.994830  1
  Cl  Cl7  1  0.203171  0.742416  0.065061  1
  Cl  Cl8  1  0.796829  0.257584  0.934939  1
  Cl  Cl9  1  0.699766  0.077299  0.264061  1
  Cl  Cl10  1  0.257584  0.796829  0.934939  1
  Cl  Cl11  1  0.300234  0.922701  0.735939  1
  Cl  Cl12  1  0.742416  0.203171  0.065061  1
  Cl  Cl13  1  0.978102  0.196610  0.782715  1
  Cl  Cl14  1  0.922701  0.300234  0.735939  1
  Cl  Cl15  1  0.021898  0.803390  0.217285  1
  Cl  Cl16  1  0.077299  0.699766  0.264061  1
  Cl  Cl17  1  0.803390  0.021898  0.217285  1
  Cl  Cl18  1  0.196610  0.978102  0.782715  1
  Cl  Cl19  1  0.463965  0.547688  0.259137  1
  Cl  Cl20  1  0.536035  0.452312  0.740863  1
  Cl  Cl21  1  0.508458  0.205522  0.450157  1
  Cl  Cl22  1  0.452312  0.536035  0.740863  1
  Cl  Cl23  1  0.491542  0.794478  0.549843  1
  Cl  Cl24  1  0.547688  0.463965  0.259137  1
  Cl  Cl25  1  0.240062  0.428327  0.544782  1
  Cl  Cl26  1  0.794478  0.491542  0.549843  1
  Cl  Cl27  1  0.759938  0.571673  0.455218  1
  Cl  Cl28  1  0.205522  0.508458  0.450157  1
  Cl  Cl29  1  0.571673  0.759938  0.455218  1
  Cl  Cl30  1  0.428327  0.240062  0.544782  1
