# generated using pymatgen
data_Mg3Al3Pd10
_symmetry_space_group_name_H-M   'P 1'
_cell_length_a   4.13164100
_cell_length_b   5.50479042
_cell_length_c   10.69544978
_cell_angle_alpha   90.34728270
_cell_angle_beta   90.00000000
_cell_angle_gamma   90.00000000
_symmetry_Int_Tables_number   1
_chemical_formula_structural   Mg3Al3Pd10
_chemical_formula_sum   'Mg3 Al3 Pd10'
_cell_volume   243.25089274
_cell_formula_units_Z   1
loop_
 _symmetry_equiv_pos_site_id
 _symmetry_equiv_pos_as_xyz
  1  'x, y, z'
loop_
 _atom_site_type_symbol
 _atom_site_label
 _atom_site_symmetry_multiplicity
 _atom_site_fract_x
 _atom_site_fract_y
 _atom_site_fract_z
 _atom_site_occupancy
  Mg  Mg0  1  0.500000  0.171674  0.358928  1
  Mg  Mg1  1  0.500000  0.836012  0.639814  1
  Mg  Mg2  1  0.500000  0.668878  0.141108  1
  Al  Al3  1  0.000000  0.985791  0.002475  1
  Al  Al4  1  0.000000  0.499803  0.499465  1
  Al  Al5  1  0.500000  0.335067  0.856458  1
  Pd  Pd6  1  0.500000  0.181783  0.098982  1
  Pd  Pd7  1  0.500000  0.807986  0.893446  1
  Pd  Pd8  1  0.500000  0.682224  0.395374  1
  Pd  Pd9  1  0.500000  0.322051  0.611361  1
  Pd  Pd10  1  0.000000  0.003499  0.502717  1
  Pd  Pd11  1  0.000000  0.482084  0.992465  1
  Pd  Pd12  1  0.000000  0.921643  0.238946  1
  Pd  Pd13  1  0.000000  0.093068  0.771138  1
  Pd  Pd14  1  0.000000  0.420979  0.259544  1
  Pd  Pd15  1  0.000000  0.587459  0.737778  1
