# generated using pymatgen
data_Cs6YHS4
_symmetry_space_group_name_H-M   'P 1'
_cell_length_a   11.20865500
_cell_length_b   11.20865441
_cell_length_c   8.38048000
_cell_angle_alpha   90.00000000
_cell_angle_beta   90.00000000
_cell_angle_gamma   120.00000470
_symmetry_Int_Tables_number   1
_chemical_formula_structural   Cs6YHS4
_chemical_formula_sum   'Cs12 Y2 H2 S8'
_cell_volume   911.81448258
_cell_formula_units_Z   2
loop_
 _symmetry_equiv_pos_site_id
 _symmetry_equiv_pos_as_xyz
  1  'x, y, z'
loop_
 _atom_site_type_symbol
 _atom_site_label
 _atom_site_symmetry_multiplicity
 _atom_site_fract_x
 _atom_site_fract_y
 _atom_site_fract_z
 _atom_site_occupancy
  Cs  Cs0  1  0.123973  0.876027  0.508889  1
  Cs  Cs1  1  0.752055  0.876027  0.508889  1
  Cs  Cs2  1  0.935103  0.467551  0.315568  1
  Cs  Cs3  1  0.532449  0.467551  0.315568  1
  Cs  Cs4  1  0.876027  0.752055  0.008889  1
  Cs  Cs5  1  0.247945  0.123973  0.008889  1
  Cs  Cs6  1  0.532449  0.064897  0.315568  1
  Cs  Cs7  1  0.123973  0.247945  0.508889  1
  Cs  Cs8  1  0.876027  0.123973  0.008889  1
  Cs  Cs9  1  0.064897  0.532449  0.815568  1
  Cs  Cs10  1  0.467551  0.935103  0.815568  1
  Cs  Cs11  1  0.467551  0.532449  0.815568  1
  Y  Y12  1  0.666667  0.333333  0.720391  1
  Y  Y13  1  0.333333  0.666667  0.220391  1
  H  H14  1  0.000000  0.000000  0.275879  1
  H  H15  1  0.000000  0.000000  0.775879  1
  S  S16  1  0.413652  0.206826  0.612846  1
  S  S17  1  0.586348  0.793174  0.112846  1
  S  S18  1  0.666667  0.333333  0.032423  1
  S  S19  1  0.793174  0.586348  0.612846  1
  S  S20  1  0.206826  0.413652  0.112846  1
  S  S21  1  0.333333  0.666667  0.532423  1
  S  S22  1  0.206826  0.793174  0.112846  1
  S  S23  1  0.793174  0.206826  0.612846  1
