# generated using pymatgen
data_TbSm2V(Co4P3)2
_symmetry_space_group_name_H-M   'P 1'
_cell_length_a   3.72358200
_cell_length_b   10.61818900
_cell_length_c   12.31390200
_cell_angle_alpha   90.00000000
_cell_angle_beta   90.00000000
_cell_angle_gamma   90.00000000
_symmetry_Int_Tables_number   1
_chemical_formula_structural   TbSm2V(Co4P3)2
_chemical_formula_sum   'Tb2 Sm4 V2 Co16 P12'
_cell_volume   486.86333150
_cell_formula_units_Z   2
loop_
 _symmetry_equiv_pos_site_id
 _symmetry_equiv_pos_as_xyz
  1  'x, y, z'
loop_
 _atom_site_type_symbol
 _atom_site_label
 _atom_site_symmetry_multiplicity
 _atom_site_fract_x
 _atom_site_fract_y
 _atom_site_fract_z
 _atom_site_occupancy
  Tb  Tb0  1  0.500000  0.818468  0.204224  1
  Tb  Tb1  1  0.500000  0.181532  0.204224  1
  Sm  Sm2  1  0.000000  0.500000  0.522733  1
  Sm  Sm3  1  0.500000  0.000000  0.476585  1
  Sm  Sm4  1  0.000000  0.681735  0.795526  1
  Sm  Sm5  1  0.000000  0.318265  0.795526  1
  V  V6  1  0.500000  0.500000  0.153492  1
  V  V7  1  0.000000  0.000000  0.847082  1
  Co  Co8  1  0.500000  0.500000  0.702623  1
  Co  Co9  1  0.000000  0.000000  0.296419  1
  Co  Co10  1  0.000000  0.500000  0.988379  1
  Co  Co11  1  0.500000  0.000000  0.013893  1
  Co  Co12  1  0.500000  0.332144  0.994479  1
  Co  Co13  1  0.500000  0.667856  0.994479  1
  Co  Co14  1  0.000000  0.166983  0.007682  1
  Co  Co15  1  0.000000  0.833017  0.007682  1
  Co  Co16  1  0.500000  0.295364  0.429831  1
  Co  Co17  1  0.500000  0.704636  0.429831  1
  Co  Co18  1  0.000000  0.204070  0.568357  1
  Co  Co19  1  0.000000  0.795930  0.568357  1
  Co  Co20  1  0.500000  0.880056  0.708419  1
  Co  Co21  1  0.500000  0.119944  0.708419  1
  Co  Co22  1  0.000000  0.620735  0.290769  1
  Co  Co23  1  0.000000  0.379265  0.290769  1
  P  P24  1  0.500000  0.500000  0.885085  1
  P  P25  1  0.000000  0.000000  0.117233  1
  P  P26  1  0.500000  0.500000  0.343511  1
  P  P27  1  0.000000  0.000000  0.656148  1
  P  P28  1  0.500000  0.308387  0.614406  1
  P  P29  1  0.500000  0.691613  0.614406  1
  P  P30  1  0.000000  0.190877  0.383303  1
  P  P31  1  0.000000  0.809123  0.383303  1
  P  P32  1  0.500000  0.847483  0.893717  1
  P  P33  1  0.500000  0.152517  0.893717  1
  P  P34  1  0.000000  0.653912  0.107697  1
  P  P35  1  0.000000  0.346088  0.107697  1
