# generated using pymatgen
data_ErTm2Zr(Ga3Ir)6
_symmetry_space_group_name_H-M   'P 1'
_cell_length_a   7.55750752
_cell_length_b   7.54504762
_cell_length_c   9.44252600
_cell_angle_alpha   90.00000000
_cell_angle_beta   90.00000000
_cell_angle_gamma   119.89111542
_symmetry_Int_Tables_number   1
_chemical_formula_structural   ErTm2Zr(Ga3Ir)6
_chemical_formula_sum   'Er1 Tm2 Zr1 Ga18 Ir6'
_cell_volume   466.80430671
_cell_formula_units_Z   1
loop_
 _symmetry_equiv_pos_site_id
 _symmetry_equiv_pos_as_xyz
  1  'x, y, z'
loop_
 _atom_site_type_symbol
 _atom_site_label
 _atom_site_symmetry_multiplicity
 _atom_site_fract_x
 _atom_site_fract_y
 _atom_site_fract_z
 _atom_site_occupancy
  Er  Er0  1  0.004052  0.330329  0.750000  1
  Tm  Tm1  1  0.669757  0.997860  0.250000  1
  Tm  Tm2  1  0.330927  0.003633  0.750000  1
  Zr  Zr3  1  0.996570  0.668301  0.250000  1
  Ga  Ga4  1  0.124603  0.123889  0.250000  1
  Ga  Ga5  1  0.872378  0.871844  0.750000  1
  Ga  Ga6  1  0.998522  0.336640  0.083315  1
  Ga  Ga7  1  0.001505  0.665832  0.921802  1
  Ga  Ga8  1  0.001505  0.665832  0.578198  1
  Ga  Ga9  1  0.331933  0.996786  0.416603  1
  Ga  Ga10  1  0.998522  0.336640  0.416685  1
  Ga  Ga11  1  0.665352  0.000558  0.580222  1
  Ga  Ga12  1  0.665352  0.000558  0.919778  1
  Ga  Ga13  1  0.331933  0.996786  0.083397  1
  Ga  Ga14  1  0.332693  0.332255  0.565261  1
  Ga  Ga15  1  0.669881  0.668382  0.430223  1
  Ga  Ga16  1  0.669881  0.668382  0.069777  1
  Ga  Ga17  1  0.332693  0.332255  0.934739  1
  Ga  Ga18  1  0.337690  0.548428  0.250000  1
  Ga  Ga19  1  0.661270  0.453317  0.750000  1
  Ga  Ga20  1  0.550965  0.340517  0.250000  1
  Ga  Ga21  1  0.452148  0.660573  0.750000  1
  Ir  Ir22  1  0.672210  0.328622  0.000799  1
  Ir  Ir23  1  0.327960  0.672157  0.001442  1
  Ir  Ir24  1  0.327960  0.672157  0.498558  1
  Ir  Ir25  1  0.672210  0.328622  0.499201  1
  Ir  Ir26  1  0.999764  0.999421  0.000806  1
  Ir  Ir27  1  0.999764  0.999421  0.499194  1
