# generated using pymatgen
data_HfU2PaSb5
_symmetry_space_group_name_H-M   'P 1'
_cell_length_a   9.27339903
_cell_length_b   9.27208821
_cell_length_c   6.16248800
_cell_angle_alpha   90.00000000
_cell_angle_beta   90.00000000
_cell_angle_gamma   119.99532829
_symmetry_Int_Tables_number   1
_chemical_formula_structural   HfU2PaSb5
_chemical_formula_sum   'Hf2 U4 Pa2 Sb10'
_cell_volume   458.90592333
_cell_formula_units_Z   2
loop_
 _symmetry_equiv_pos_site_id
 _symmetry_equiv_pos_as_xyz
  1  'x, y, z'
loop_
 _atom_site_type_symbol
 _atom_site_label
 _atom_site_symmetry_multiplicity
 _atom_site_fract_x
 _atom_site_fract_y
 _atom_site_fract_z
 _atom_site_occupancy
  Hf  Hf0  1  0.998488  0.999244  0.500000  1
  Hf  Hf1  1  0.998488  0.999244  0.000000  1
  U  U2  1  0.000234  0.613721  0.250000  1
  U  U3  1  0.000234  0.386513  0.750000  1
  U  U4  1  0.614344  0.614190  0.750000  1
  U  U5  1  0.614344  0.000155  0.250000  1
  Pa  Pa6  1  0.387317  0.999541  0.750000  1
  Pa  Pa7  1  0.387317  0.387776  0.250000  1
  Sb  Sb8  1  0.333686  0.666843  0.500000  1
  Sb  Sb9  1  0.667133  0.333566  0.000000  1
  Sb  Sb10  1  0.667133  0.333566  0.500000  1
  Sb  Sb11  1  0.333686  0.666843  0.000000  1
  Sb  Sb12  1  0.729281  0.999613  0.750000  1
  Sb  Sb13  1  0.729281  0.729668  0.250000  1
  Sb  Sb14  1  0.999301  0.269865  0.250000  1
  Sb  Sb15  1  0.999301  0.729436  0.750000  1
  Sb  Sb16  1  0.270216  0.999662  0.250000  1
  Sb  Sb17  1  0.270216  0.270554  0.750000  1
