# generated using pymatgen
data_Ho2Zn2Ga7Pt3
_symmetry_space_group_name_H-M   'P 1'
_cell_length_a   7.59192100
_cell_length_b   7.63116533
_cell_length_c   9.53938400
_cell_angle_alpha   90.00000000
_cell_angle_beta   90.00000000
_cell_angle_gamma   119.49527623
_symmetry_Int_Tables_number   1
_chemical_formula_structural   Ho2Zn2Ga7Pt3
_chemical_formula_sum   'Ho4 Zn4 Ga14 Pt6'
_cell_volume   481.03857689
_cell_formula_units_Z   2
loop_
 _symmetry_equiv_pos_site_id
 _symmetry_equiv_pos_as_xyz
  1  'x, y, z'
loop_
 _atom_site_type_symbol
 _atom_site_label
 _atom_site_symmetry_multiplicity
 _atom_site_fract_x
 _atom_site_fract_y
 _atom_site_fract_z
 _atom_site_occupancy
  Ho  Ho0  1  0.996381  0.670363  0.250000  1
  Ho  Ho1  1  0.003619  0.329637  0.750000  1
  Ho  Ho2  1  0.673867  0.999152  0.250000  1
  Ho  Ho3  1  0.326133  0.000848  0.750000  1
  Zn  Zn4  1  0.138615  0.138200  0.250000  1
  Zn  Zn5  1  0.861385  0.861800  0.750000  1
  Zn  Zn6  1  0.342078  0.545423  0.250000  1
  Zn  Zn7  1  0.657922  0.454577  0.750000  1
  Ga  Ga8  1  0.007853  0.336858  0.086703  1
  Ga  Ga9  1  0.992147  0.663142  0.913297  1
  Ga  Ga10  1  0.992147  0.663142  0.586703  1
  Ga  Ga11  1  0.332723  0.999558  0.414647  1
  Ga  Ga12  1  0.007853  0.336858  0.413297  1
  Ga  Ga13  1  0.667277  0.000442  0.585353  1
  Ga  Ga14  1  0.667277  0.000442  0.914647  1
  Ga  Ga15  1  0.332723  0.999558  0.085353  1
  Ga  Ga16  1  0.335445  0.331692  0.567928  1
  Ga  Ga17  1  0.664555  0.668308  0.432072  1
  Ga  Ga18  1  0.664555  0.668308  0.067928  1
  Ga  Ga19  1  0.335445  0.331692  0.932072  1
  Ga  Ga20  1  0.536785  0.342288  0.250000  1
  Ga  Ga21  1  0.463215  0.657712  0.750000  1
  Pt  Pt22  1  0.674820  0.326105  0.004336  1
  Pt  Pt23  1  0.325180  0.673895  0.995664  1
  Pt  Pt24  1  0.325180  0.673895  0.504336  1
  Pt  Pt25  1  0.674820  0.326105  0.495664  1
  Pt  Pt26  1  0.000000  0.000000  0.000000  1
  Pt  Pt27  1  0.000000  0.000000  0.500000  1
