# generated using pymatgen
data_LaZn2NiPtRh
_symmetry_space_group_name_H-M   'P 1'
_cell_length_a   3.96453900
_cell_length_b   5.41710789
_cell_length_c   5.39675000
_cell_angle_alpha   63.25898975
_cell_angle_beta   90.00000000
_cell_angle_gamma   90.00000000
_symmetry_Int_Tables_number   1
_chemical_formula_structural   LaZn2NiPtRh
_chemical_formula_sum   'La1 Zn2 Ni1 Pt1 Rh1'
_cell_volume   103.50659869
_cell_formula_units_Z   1
loop_
 _symmetry_equiv_pos_site_id
 _symmetry_equiv_pos_as_xyz
  1  'x, y, z'
loop_
 _atom_site_type_symbol
 _atom_site_label
 _atom_site_symmetry_multiplicity
 _atom_site_fract_x
 _atom_site_fract_y
 _atom_site_fract_z
 _atom_site_occupancy
  La  La0  1  0.000000  0.999985  0.000014  1
  Zn  Zn1  1  0.000000  0.340481  0.347243  1
  Zn  Zn2  1  0.000000  0.659486  0.652793  1
  Ni  Ni3  1  0.500000  0.499982  0.500019  1
  Pt  Pt4  1  0.500000  0.499979  0.000020  1
  Rh  Rh5  1  0.500000  0.999986  0.500013  1
