# generated using pymatgen
data_TcIrRu5W
_symmetry_space_group_name_H-M   'P 1'
_cell_length_a   5.50093500
_cell_length_b   5.50493601
_cell_length_c   4.36287100
_cell_angle_alpha   90.00000000
_cell_angle_beta   90.00000000
_cell_angle_gamma   119.97597844
_symmetry_Int_Tables_number   1
_chemical_formula_structural   TcIrRu5W
_chemical_formula_sum   'Tc1 Ir1 Ru5 W1'
_cell_volume   114.44501106
_cell_formula_units_Z   1
loop_
 _symmetry_equiv_pos_site_id
 _symmetry_equiv_pos_as_xyz
  1  'x, y, z'
loop_
 _atom_site_type_symbol
 _atom_site_label
 _atom_site_symmetry_multiplicity
 _atom_site_fract_x
 _atom_site_fract_y
 _atom_site_fract_z
 _atom_site_occupancy
  Tc  Tc0  1  0.666043  0.332084  0.250000  1
  Ir  Ir1  1  0.164558  0.329117  0.250000  1
  Ru  Ru2  1  0.671223  0.837273  0.250000  1
  Ru  Ru3  1  0.166049  0.837273  0.250000  1
  Ru  Ru4  1  0.830948  0.661894  0.750000  1
  Ru  Ru5  1  0.337568  0.166553  0.750000  1
  Ru  Ru6  1  0.828986  0.166553  0.750000  1
  W  W7  1  0.334626  0.669253  0.750000  1
