# generated using pymatgen
data_DyHo5SbO12
_symmetry_space_group_name_H-M   'P 1'
_cell_length_a   6.47647202
_cell_length_b   6.47544842
_cell_length_c   6.47537711
_cell_angle_alpha   98.89916497
_cell_angle_beta   98.90283008
_cell_angle_gamma   98.87900003
_symmetry_Int_Tables_number   1
_chemical_formula_structural   DyHo5SbO12
_chemical_formula_sum   'Dy1 Ho5 Sb1 O12'
_cell_volume   260.60384325
_cell_formula_units_Z   1
loop_
 _symmetry_equiv_pos_site_id
 _symmetry_equiv_pos_as_xyz
  1  'x, y, z'
loop_
 _atom_site_type_symbol
 _atom_site_label
 _atom_site_symmetry_multiplicity
 _atom_site_fract_x
 _atom_site_fract_y
 _atom_site_fract_z
 _atom_site_occupancy
  Dy  Dy0  1  0.139951  0.609350  0.303646  1
  Ho  Ho1  1  0.696146  0.860196  0.390883  1
  Ho  Ho2  1  0.390892  0.696175  0.859866  1
  Ho  Ho3  1  0.860028  0.390698  0.696216  1
  Ho  Ho4  1  0.303905  0.140062  0.609399  1
  Ho  Ho5  1  0.609164  0.303538  0.139815  1
  Sb  Sb6  1  0.999867  0.999913  0.999790  1
  O  O7  1  0.436922  0.587136  0.177736  1
  O  O8  1  0.178169  0.435591  0.588037  1
  O  O9  1  0.587124  0.178298  0.435877  1
  O  O10  1  0.564180  0.412816  0.821804  1
  O  O11  1  0.820886  0.563869  0.413159  1
  O  O12  1  0.413508  0.822258  0.564629  1
  O  O13  1  0.928786  0.042653  0.695012  1
  O  O14  1  0.956709  0.304303  0.070649  1
  O  O15  1  0.304827  0.071238  0.957320  1
  O  O16  1  0.071096  0.958000  0.304923  1
  O  O17  1  0.042710  0.695193  0.928450  1
  O  O18  1  0.695130  0.928713  0.042789  1
