# generated using pymatgen
data_Y2Nb2Bi3SbRh4
_symmetry_space_group_name_H-M   'P 1'
_cell_length_a   4.57510900
_cell_length_b   6.47158392
_cell_length_c   9.13776284
_cell_angle_alpha   89.73812081
_cell_angle_beta   90.00000000
_cell_angle_gamma   90.00000000
_symmetry_Int_Tables_number   1
_chemical_formula_structural   Y2Nb2Bi3SbRh4
_chemical_formula_sum   'Y2 Nb2 Bi3 Sb1 Rh4'
_cell_volume   270.54990026
_cell_formula_units_Z   1
loop_
 _symmetry_equiv_pos_site_id
 _symmetry_equiv_pos_as_xyz
  1  'x, y, z'
loop_
 _atom_site_type_symbol
 _atom_site_label
 _atom_site_symmetry_multiplicity
 _atom_site_fract_x
 _atom_site_fract_y
 _atom_site_fract_z
 _atom_site_occupancy
  Y  Y0  1  0.000000  0.007996  0.375513  1
  Y  Y1  1  0.500001  0.507709  0.627891  1
  Nb  Nb2  1  0.500001  0.491499  0.118232  1
  Nb  Nb3  1  0.000000  0.993878  0.878169  1
  Bi  Bi4  1  0.500001  0.981476  0.124109  1
  Bi  Bi5  1  0.000000  0.513441  0.372698  1
  Bi  Bi6  1  0.500001  0.013215  0.627787  1
  Sb  Sb7  1  0.000000  0.482334  0.875909  1
  Rh  Rh8  1  0.000000  0.729250  0.104610  1
  Rh  Rh9  1  0.500001  0.270244  0.351135  1
  Rh  Rh10  1  0.000000  0.767265  0.653802  1
  Rh  Rh11  1  0.500001  0.241688  0.890151  1
