# generated using pymatgen
data_CaLaNi7
_symmetry_space_group_name_H-M   'P 1'
_cell_length_a   4.99829034
_cell_length_b   4.99828879
_cell_length_c   12.48059819
_cell_angle_alpha   78.44887104
_cell_angle_beta   78.44887418
_cell_angle_gamma   59.99999467
_symmetry_Int_Tables_number   1
_chemical_formula_structural   CaLaNi7
_chemical_formula_sum   'Ca2 La2 Ni14'
_cell_volume   262.71067377
_cell_formula_units_Z   2
loop_
 _symmetry_equiv_pos_site_id
 _symmetry_equiv_pos_as_xyz
  1  'x, y, z'
loop_
 _atom_site_type_symbol
 _atom_site_label
 _atom_site_symmetry_multiplicity
 _atom_site_fract_x
 _atom_site_fract_y
 _atom_site_fract_z
 _atom_site_occupancy
  Ca  Ca0  1  0.850756  0.850756  0.447733  1
  Ca  Ca1  1  0.149244  0.149244  0.552267  1
  La  La2  1  0.947328  0.947328  0.158015  1
  La  La3  1  0.052672  0.052672  0.841985  1
  Ni  Ni4  1  0.500000  0.500000  0.500000  1
  Ni  Ni5  1  0.721783  0.721783  0.834649  1
  Ni  Ni6  1  0.278217  0.278217  0.165351  1
  Ni  Ni7  1  0.611994  0.611994  0.164018  1
  Ni  Ni8  1  0.388006  0.388006  0.835982  1
  Ni  Ni9  1  0.000000  0.500000  0.000000  1
  Ni  Ni10  1  0.500000  0.000000  0.000000  1
  Ni  Ni11  1  0.500000  0.500000  0.000000  1
  Ni  Ni12  1  0.391282  0.391282  0.328485  1
  Ni  Ni13  1  0.888952  0.391282  0.328485  1
  Ni  Ni14  1  0.391282  0.888952  0.328485  1
  Ni  Ni15  1  0.608718  0.608718  0.671515  1
  Ni  Ni16  1  0.111048  0.608718  0.671515  1
  Ni  Ni17  1  0.608718  0.111048  0.671515  1
