# generated using pymatgen
data_TmTh6Fe2Co
_symmetry_space_group_name_H-M   'P 1'
_cell_length_a   9.73424725
_cell_length_b   9.74500466
_cell_length_c   6.12900328
_cell_angle_alpha   90.01521386
_cell_angle_beta   89.96953866
_cell_angle_gamma   119.96348693
_symmetry_Int_Tables_number   1
_chemical_formula_structural   TmTh6Fe2Co
_chemical_formula_sum   'Tm2 Th12 Fe4 Co2'
_cell_volume   503.69138308
_cell_formula_units_Z   2
loop_
 _symmetry_equiv_pos_site_id
 _symmetry_equiv_pos_as_xyz
  1  'x, y, z'
loop_
 _atom_site_type_symbol
 _atom_site_label
 _atom_site_symmetry_multiplicity
 _atom_site_fract_x
 _atom_site_fract_y
 _atom_site_fract_z
 _atom_site_occupancy
  Tm  Tm0  1  0.333351  0.666548  0.042408  1
  Tm  Tm1  1  0.666804  0.333452  0.542408  1
  Th  Th2  1  0.125191  0.870207  0.239977  1
  Th  Th3  1  0.254986  0.129793  0.739977  1
  Th  Th4  1  0.869617  0.744438  0.738833  1
  Th  Th5  1  0.125178  0.255562  0.238833  1
  Th  Th6  1  0.747701  0.874056  0.239481  1
  Th  Th7  1  0.873648  0.125944  0.739481  1
  Th  Th8  1  0.542728  0.460210  0.071239  1
  Th  Th9  1  0.082517  0.539790  0.571239  1
  Th  Th10  1  0.461417  0.917630  0.569770  1
  Th  Th11  1  0.543788  0.082370  0.069770  1
  Th  Th12  1  0.915787  0.457260  0.070613  1
  Th  Th13  1  0.458526  0.542740  0.570613  1
  Fe  Fe14  1  0.815788  0.181321  0.283000  1
  Fe  Fe15  1  0.634468  0.818679  0.783000  1
  Fe  Fe16  1  0.182114  0.364542  0.784274  1
  Fe  Fe17  1  0.817571  0.635458  0.284274  1
  Co  Co18  1  0.365373  0.181928  0.290405  1
  Co  Co19  1  0.183447  0.818072  0.790405  1
