# generated using pymatgen
data_Yb4Ga18Pd5Rh
_symmetry_space_group_name_H-M   'P 1'
_cell_length_a   7.65097719
_cell_length_b   7.65097827
_cell_length_c   9.57327100
_cell_angle_alpha   90.02571825
_cell_angle_beta   90.02571735
_cell_angle_gamma   119.72109249
_symmetry_Int_Tables_number   1
_chemical_formula_structural   Yb4Ga18Pd5Rh
_chemical_formula_sum   'Yb4 Ga18 Pd5 Rh1'
_cell_volume   486.67429131
_cell_formula_units_Z   1
loop_
 _symmetry_equiv_pos_site_id
 _symmetry_equiv_pos_as_xyz
  1  'x, y, z'
loop_
 _atom_site_type_symbol
 _atom_site_label
 _atom_site_symmetry_multiplicity
 _atom_site_fract_x
 _atom_site_fract_y
 _atom_site_fract_z
 _atom_site_occupancy
  Yb  Yb0  1  0.998155  0.668165  0.250557  1
  Yb  Yb1  1  0.001845  0.331835  0.749443  1
  Yb  Yb2  1  0.668165  0.998155  0.250557  1
  Yb  Yb3  1  0.331835  0.001845  0.749443  1
  Ga  Ga4  1  0.125192  0.125192  0.252102  1
  Ga  Ga5  1  0.874808  0.874808  0.747898  1
  Ga  Ga6  1  0.999321  0.333741  0.080464  1
  Ga  Ga7  1  0.000679  0.666259  0.919536  1
  Ga  Ga8  1  0.001235  0.669340  0.577900  1
  Ga  Ga9  1  0.330660  0.998765  0.422100  1
  Ga  Ga10  1  0.998765  0.330660  0.422100  1
  Ga  Ga11  1  0.669340  0.001235  0.577900  1
  Ga  Ga12  1  0.666259  0.000679  0.919536  1
  Ga  Ga13  1  0.333741  0.999321  0.080464  1
  Ga  Ga14  1  0.328160  0.328160  0.563537  1
  Ga  Ga15  1  0.671840  0.671840  0.436463  1
  Ga  Ga16  1  0.667523  0.667523  0.065075  1
  Ga  Ga17  1  0.332477  0.332477  0.934925  1
  Ga  Ga18  1  0.337662  0.544050  0.250474  1
  Ga  Ga19  1  0.662338  0.455950  0.749526  1
  Ga  Ga20  1  0.544050  0.337662  0.250474  1
  Ga  Ga21  1  0.455950  0.662338  0.749526  1
  Pd  Pd22  1  0.671072  0.328928  0.000000  1
  Pd  Pd23  1  0.328928  0.671072  0.000000  1
  Pd  Pd24  1  0.328956  0.671044  0.500000  1
  Pd  Pd25  1  0.671044  0.328956  0.500000  1
  Pd  Pd26  1  0.000000  0.000000  0.000000  1
  Rh  Rh27  1  0.000000  0.000000  0.500000  1
