# generated using pymatgen
data_Na2PtCl6
_symmetry_space_group_name_H-M   'P 1'
_cell_length_a   6.94252400
_cell_length_b   6.75298702
_cell_length_c   11.64819633
_cell_angle_alpha   54.62242184
_cell_angle_beta   90.00000000
_cell_angle_gamma   90.00000000
_symmetry_Int_Tables_number   1
_chemical_formula_structural   Na2PtCl6
_chemical_formula_sum   'Na4 Pt2 Cl12'
_cell_volume   445.26485764
_cell_formula_units_Z   2
loop_
 _symmetry_equiv_pos_site_id
 _symmetry_equiv_pos_as_xyz
  1  'x, y, z'
loop_
 _atom_site_type_symbol
 _atom_site_label
 _atom_site_symmetry_multiplicity
 _atom_site_fract_x
 _atom_site_fract_y
 _atom_site_fract_z
 _atom_site_occupancy
  Na  Na0  1  0.571320  0.735966  0.254642  1
  Na  Na1  1  0.428680  0.264034  0.745358  1
  Na  Na2  1  0.928680  0.735966  0.754642  1
  Na  Na3  1  0.071320  0.264034  0.245358  1
  Pt  Pt4  1  0.500000  0.000000  0.500000  1
  Pt  Pt5  1  0.000000  0.000000  0.000000  1
  Cl  Cl6  1  0.286265  0.776738  0.051075  1
  Cl  Cl7  1  0.820188  0.663668  0.049710  1
  Cl  Cl8  1  0.213735  0.776738  0.551075  1
  Cl  Cl9  1  0.786265  0.223262  0.448925  1
  Cl  Cl10  1  0.679812  0.663668  0.549710  1
  Cl  Cl11  1  0.320188  0.336332  0.450290  1
  Cl  Cl12  1  0.971099  0.860603  0.237015  1
  Cl  Cl13  1  0.179812  0.336332  0.950290  1
  Cl  Cl14  1  0.028901  0.139397  0.762985  1
  Cl  Cl15  1  0.713735  0.223262  0.948925  1
  Cl  Cl16  1  0.471099  0.139397  0.262985  1
  Cl  Cl17  1  0.528901  0.860603  0.737015  1
