# generated using pymatgen
data_Dy3Y2Sc(Si3Ru)8
_symmetry_space_group_name_H-M   'P 1'
_cell_length_a   10.08895867
_cell_length_b   10.08892216
_cell_length_c   8.12003335
_cell_angle_alpha   90.01091949
_cell_angle_beta   90.00196942
_cell_angle_gamma   132.54594331
_symmetry_Int_Tables_number   1
_chemical_formula_structural   Dy3Y2Sc(Si3Ru)8
_chemical_formula_sum   'Dy3 Y2 Sc1 Si24 Ru8'
_cell_volume   608.92026674
_cell_formula_units_Z   1
loop_
 _symmetry_equiv_pos_site_id
 _symmetry_equiv_pos_as_xyz
  1  'x, y, z'
loop_
 _atom_site_type_symbol
 _atom_site_label
 _atom_site_symmetry_multiplicity
 _atom_site_fract_x
 _atom_site_fract_y
 _atom_site_fract_z
 _atom_site_occupancy
  Dy  Dy0  1  0.002626  0.502360  0.249552  1
  Dy  Dy1  1  0.497642  0.997377  0.750445  1
  Dy  Dy2  1  0.997396  0.497657  0.750448  1
  Y  Y3  1  0.499996  0.500005  0.499983  1
  Y  Y4  1  0.502356  0.002613  0.249536  1
  Sc  Sc5  1  0.999995  0.999999  0.000008  1
  Si  Si6  1  0.294200  0.705613  0.999915  1
  Si  Si7  1  0.795144  0.205028  0.500079  1
  Si  Si8  1  0.705801  0.294375  0.999924  1
  Si  Si9  1  0.204847  0.794973  0.500086  1
  Si  Si10  1  0.833567  0.833582  0.330761  1
  Si  Si11  1  0.166418  0.166415  0.669251  1
  Si  Si12  1  0.669761  0.669770  0.834436  1
  Si  Si13  1  0.330234  0.330223  0.165550  1
  Si  Si14  1  0.621236  0.386615  0.227594  1
  Si  Si15  1  0.613526  0.378820  0.772404  1
  Si  Si16  1  0.110739  0.878764  0.730279  1
  Si  Si17  1  0.121098  0.889205  0.269708  1
  Si  Si18  1  0.378809  0.613523  0.772419  1
  Si  Si19  1  0.386420  0.621052  0.227590  1
  Si  Si20  1  0.889393  0.121281  0.269711  1
  Si  Si21  1  0.878780  0.110747  0.730291  1
  Si  Si22  1  0.845685  0.614010  0.004463  1
  Si  Si23  1  0.385937  0.154360  0.995472  1
  Si  Si24  1  0.888547  0.654994  0.505012  1
  Si  Si25  1  0.344965  0.111499  0.495086  1
  Si  Si26  1  0.154315  0.385989  0.995552  1
  Si  Si27  1  0.614057  0.845646  0.004359  1
  Si  Si28  1  0.111449  0.344999  0.494984  1
  Si  Si29  1  0.655044  0.888496  0.505088  1
  Ru  Ru30  1  0.167714  0.832084  0.999893  1
  Ru  Ru31  1  0.669328  0.330851  0.500122  1
  Ru  Ru32  1  0.832268  0.167896  0.999886  1
  Ru  Ru33  1  0.330663  0.669142  0.500115  1
  Ru  Ru34  1  0.626388  0.626419  0.126903  1
  Ru  Ru35  1  0.373613  0.373634  0.873094  1
  Ru  Ru36  1  0.873603  0.873580  0.627764  1
  Ru  Ru37  1  0.126441  0.126404  0.372238  1
