# generated using pymatgen
data_TbDy3Si4(NiRu)2
_symmetry_space_group_name_H-M   'P 1'
_cell_length_a   4.25049200
_cell_length_b   6.94456578
_cell_length_c   7.12414947
_cell_angle_alpha   91.46172295
_cell_angle_beta   90.00000000
_cell_angle_gamma   90.00000000
_symmetry_Int_Tables_number   1
_chemical_formula_structural   TbDy3Si4(NiRu)2
_chemical_formula_sum   'Tb1 Dy3 Si4 Ni2 Ru2'
_cell_volume   210.22094059
_cell_formula_units_Z   1
loop_
 _symmetry_equiv_pos_site_id
 _symmetry_equiv_pos_as_xyz
  1  'x, y, z'
loop_
 _atom_site_type_symbol
 _atom_site_label
 _atom_site_symmetry_multiplicity
 _atom_site_fract_x
 _atom_site_fract_y
 _atom_site_fract_z
 _atom_site_occupancy
  Tb  Tb0  1  0.250000  0.988187  0.800578  1
  Dy  Dy1  1  0.750000  0.011967  0.200165  1
  Dy  Dy2  1  0.250000  0.487080  0.680965  1
  Dy  Dy3  1  0.750000  0.513005  0.318956  1
  Si  Si4  1  0.250000  0.301585  0.099152  1
  Si  Si5  1  0.750000  0.698139  0.901555  1
  Si  Si6  1  0.250000  0.805070  0.396373  1
  Si  Si7  1  0.750000  0.195354  0.602830  1
  Ni  Ni8  1  0.750000  0.837666  0.574859  1
  Ni  Ni9  1  0.250000  0.162277  0.424001  1
  Ru  Ru10  1  0.750000  0.345698  0.930455  1
  Ru  Ru11  1  0.250000  0.653973  0.070112  1
