# generated using pymatgen
data_Lu8Re11Si16Ir
_symmetry_space_group_name_H-M   'P 1'
_cell_length_a   6.73435372
_cell_length_b   6.73435328
_cell_length_c   12.64570280
_cell_angle_alpha   90.05995680
_cell_angle_beta   89.94004520
_cell_angle_gamma   90.81764483
_symmetry_Int_Tables_number   1
_chemical_formula_structural   Lu8Re11Si16Ir
_chemical_formula_sum   'Lu8 Re11 Si16 Ir1'
_cell_volume   573.44279109
_cell_formula_units_Z   1
loop_
 _symmetry_equiv_pos_site_id
 _symmetry_equiv_pos_as_xyz
  1  'x, y, z'
loop_
 _atom_site_type_symbol
 _atom_site_label
 _atom_site_symmetry_multiplicity
 _atom_site_fract_x
 _atom_site_fract_y
 _atom_site_fract_z
 _atom_site_occupancy
  Lu  Lu0  1  0.004715  0.657402  0.029638  1
  Lu  Lu1  1  0.996340  0.338436  0.531098  1
  Lu  Lu2  1  0.338436  0.996340  0.468902  1
  Lu  Lu3  1  0.163148  0.488658  0.781630  1
  Lu  Lu4  1  0.836843  0.509047  0.279925  1
  Lu  Lu5  1  0.488658  0.163148  0.218370  1
  Lu  Lu6  1  0.509047  0.836843  0.720075  1
  Lu  Lu7  1  0.657402  0.004715  0.970362  1
  Re  Re8  1  0.162826  0.836540  0.249702  1
  Re  Re9  1  0.331802  0.331802  0.000000  1
  Re  Re10  1  0.031469  0.804796  0.632628  1
  Re  Re11  1  0.969913  0.195826  0.134725  1
  Re  Re12  1  0.804796  0.031469  0.367372  1
  Re  Re13  1  0.318036  0.486616  0.380618  1
  Re  Re14  1  0.683769  0.514651  0.879716  1
  Re  Re15  1  0.486616  0.318036  0.619382  1
  Re  Re16  1  0.514651  0.683769  0.120284  1
  Re  Re17  1  0.195826  0.969913  0.865275  1
  Re  Re18  1  0.836540  0.162826  0.750298  1
  Si  Si19  1  0.023764  0.733218  0.437829  1
  Si  Si20  1  0.612455  0.306511  0.434864  1
  Si  Si21  1  0.385168  0.691777  0.934807  1
  Si  Si22  1  0.197744  0.114581  0.681277  1
  Si  Si23  1  0.306511  0.612455  0.565136  1
  Si  Si24  1  0.691777  0.385168  0.065193  1
  Si  Si25  1  0.803025  0.885190  0.181907  1
  Si  Si26  1  0.114581  0.197744  0.318723  1
  Si  Si27  1  0.981073  0.262909  0.939021  1
  Si  Si28  1  0.733218  0.023764  0.562171  1
  Si  Si29  1  0.219337  0.478635  0.188484  1
  Si  Si30  1  0.781556  0.519340  0.690518  1
  Si  Si31  1  0.478635  0.219337  0.811516  1
  Si  Si32  1  0.519340  0.781556  0.309482  1
  Si  Si33  1  0.262909  0.981073  0.060979  1
  Si  Si34  1  0.885190  0.803025  0.818093  1
  Ir  Ir35  1  0.672887  0.672887  0.500000  1
