# generated using pymatgen
data_Nd2MnSi2RuC
_symmetry_space_group_name_H-M   'P 1'
_cell_length_a   5.92008674
_cell_length_b   5.92008671
_cell_length_c   7.09788748
_cell_angle_alpha   126.89838206
_cell_angle_beta   126.89838157
_cell_angle_gamma   40.50263105
_symmetry_Int_Tables_number   1
_chemical_formula_structural   Nd2MnSi2RuC
_chemical_formula_sum   'Nd2 Mn1 Si2 Ru1 C1'
_cell_volume   124.14982799
_cell_formula_units_Z   1
loop_
 _symmetry_equiv_pos_site_id
 _symmetry_equiv_pos_as_xyz
  1  'x, y, z'
loop_
 _atom_site_type_symbol
 _atom_site_label
 _atom_site_symmetry_multiplicity
 _atom_site_fract_x
 _atom_site_fract_y
 _atom_site_fract_z
 _atom_site_occupancy
  Nd  Nd0  1  0.561354  0.561354  0.297569  1
  Nd  Nd1  1  0.437766  0.437766  0.703001  1
  Mn  Mn2  1  0.199879  0.199879  0.092884  1
  Si  Si3  1  0.829081  0.829081  0.271464  1
  Si  Si4  1  0.163108  0.163108  0.725633  1
  Ru  Ru5  1  0.799790  0.799790  0.905836  1
  C  C6  1  0.009022  0.009022  0.003613  1
