# generated using pymatgen
data_Ti2BeCo(BIr2)2
_symmetry_space_group_name_H-M   'P 1'
_cell_length_a   8.96829600
_cell_length_b   8.96829600
_cell_length_c   2.92030700
_cell_angle_alpha   90.00000000
_cell_angle_beta   90.00000000
_cell_angle_gamma   90.00000000
_symmetry_Int_Tables_number   1
_chemical_formula_structural   Ti2BeCo(BIr2)2
_chemical_formula_sum   'Ti4 Be2 Co2 B4 Ir8'
_cell_volume   234.88126489
_cell_formula_units_Z   2
loop_
 _symmetry_equiv_pos_site_id
 _symmetry_equiv_pos_as_xyz
  1  'x, y, z'
loop_
 _atom_site_type_symbol
 _atom_site_label
 _atom_site_symmetry_multiplicity
 _atom_site_fract_x
 _atom_site_fract_y
 _atom_site_fract_z
 _atom_site_occupancy
  Ti  Ti0  1  0.325696  0.174304  0.000000  1
  Ti  Ti1  1  0.825696  0.325696  0.000000  1
  Ti  Ti2  1  0.174304  0.674304  0.000000  1
  Ti  Ti3  1  0.674304  0.825696  0.000000  1
  Be  Be4  1  0.000000  0.000000  0.000000  1
  Be  Be5  1  0.500000  0.500000  0.000000  1
  Co  Co6  1  0.500000  0.000000  0.499999  1
  Co  Co7  1  0.000000  0.500000  0.499999  1
  B  B8  1  0.615807  0.115807  0.000000  1
  B  B9  1  0.115807  0.384193  0.000000  1
  B  B10  1  0.884192  0.615807  0.000000  1
  B  B11  1  0.384193  0.884192  0.000000  1
  Ir  Ir12  1  0.786904  0.063652  0.499999  1
  Ir  Ir13  1  0.063652  0.213096  0.499999  1
  Ir  Ir14  1  0.563651  0.286904  0.499999  1
  Ir  Ir15  1  0.286904  0.436349  0.499999  1
  Ir  Ir16  1  0.713095  0.563651  0.499999  1
  Ir  Ir17  1  0.436349  0.713095  0.499999  1
  Ir  Ir18  1  0.936348  0.786904  0.499999  1
  Ir  Ir19  1  0.213096  0.936348  0.499999  1
