# generated using pymatgen
data_Cs10Fe5RuS14
_symmetry_space_group_name_H-M   'P 1'
_cell_length_a   10.67272139
_cell_length_b   10.67272085
_cell_length_c   9.07395100
_cell_angle_alpha   79.26340899
_cell_angle_beta   79.26340955
_cell_angle_gamma   74.20914050
_symmetry_Int_Tables_number   1
_chemical_formula_structural   Cs10Fe5RuS14
_chemical_formula_sum   'Cs10 Fe5 Ru1 S14'
_cell_volume   967.06604564
_cell_formula_units_Z   1
loop_
 _symmetry_equiv_pos_site_id
 _symmetry_equiv_pos_as_xyz
  1  'x, y, z'
loop_
 _atom_site_type_symbol
 _atom_site_label
 _atom_site_symmetry_multiplicity
 _atom_site_fract_x
 _atom_site_fract_y
 _atom_site_fract_z
 _atom_site_occupancy
  Cs  Cs0  1  0.037071  0.433120  0.729725  1
  Cs  Cs1  1  0.433163  0.037093  0.729606  1
  Cs  Cs2  1  0.957963  0.580857  0.271897  1
  Cs  Cs3  1  0.580989  0.957944  0.271752  1
  Cs  Cs4  1  0.295801  0.705603  0.998689  1
  Cs  Cs5  1  0.705651  0.295804  0.998623  1
  Cs  Cs6  1  0.845325  0.150127  0.503938  1
  Cs  Cs7  1  0.150125  0.845319  0.504040  1
  Cs  Cs8  1  0.431633  0.431604  0.691897  1
  Cs  Cs9  1  0.571193  0.571169  0.309442  1
  Fe  Fe10  1  0.794119  0.794267  0.817435  1
  Fe  Fe11  1  0.061488  0.061398  0.055057  1
  Fe  Fe12  1  0.930957  0.931008  0.936206  1
  Fe  Fe13  1  0.337777  0.337746  0.325785  1
  Fe  Fe14  1  0.667445  0.667455  0.677178  1
  Ru  Ru15  1  0.204527  0.204568  0.181902  1
  S  S16  1  0.000593  0.266643  0.117114  1
  S  S17  1  0.266768  0.000753  0.116793  1
  S  S18  1  0.995667  0.728571  0.881916  1
  S  S19  1  0.728582  0.995890  0.881607  1
  S  S20  1  0.203671  0.203553  0.428237  1
  S  S21  1  0.802403  0.802292  0.568111  1
  S  S22  1  0.057017  0.057492  0.812251  1
  S  S23  1  0.935049  0.934611  0.176136  1
  S  S24  1  0.338309  0.338285  0.076511  1
  S  S25  1  0.660749  0.660925  0.928712  1
  S  S26  1  0.252756  0.538586  0.391065  1
  S  S27  1  0.538632  0.252728  0.391021  1
  S  S28  1  0.749642  0.464928  0.613712  1
  S  S29  1  0.464939  0.749663  0.613641  1
