# generated using pymatgen
data_Ca20Ag2RuRh
_symmetry_space_group_name_H-M   'P 1'
_cell_length_a   6.89010776
_cell_length_b   7.71860172
_cell_length_c   16.14941000
_cell_angle_alpha   90.00000000
_cell_angle_beta   90.00000000
_cell_angle_gamma   89.13548100
_symmetry_Int_Tables_number   1
_chemical_formula_structural   Ca20Ag2RuRh
_chemical_formula_sum   'Ca20 Ag2 Ru1 Rh1'
_cell_volume   858.76011765
_cell_formula_units_Z   1
loop_
 _symmetry_equiv_pos_site_id
 _symmetry_equiv_pos_as_xyz
  1  'x, y, z'
loop_
 _atom_site_type_symbol
 _atom_site_label
 _atom_site_symmetry_multiplicity
 _atom_site_fract_x
 _atom_site_fract_y
 _atom_site_fract_z
 _atom_site_occupancy
  Ca  Ca0  1  0.352497  0.314819  0.059584  1
  Ca  Ca1  1  0.647338  0.685235  0.940517  1
  Ca  Ca2  1  0.850057  0.185863  0.934748  1
  Ca  Ca3  1  0.647338  0.685235  0.559483  1
  Ca  Ca4  1  0.153525  0.814092  0.061670  1
  Ca  Ca5  1  0.352497  0.314819  0.440416  1
  Ca  Ca6  1  0.153525  0.814092  0.438330  1
  Ca  Ca7  1  0.850057  0.185863  0.565252  1
  Ca  Ca8  1  0.132993  0.089750  0.250000  1
  Ca  Ca9  1  0.870655  0.911387  0.750000  1
  Ca  Ca10  1  0.662961  0.389984  0.750000  1
  Ca  Ca11  1  0.336445  0.609934  0.250000  1
  Ca  Ca12  1  0.322009  0.054799  0.641841  1
  Ca  Ca13  1  0.676018  0.947006  0.359849  1
  Ca  Ca14  1  0.837760  0.474177  0.359167  1
  Ca  Ca15  1  0.676018  0.947006  0.140151  1
  Ca  Ca16  1  0.161003  0.522858  0.642524  1
  Ca  Ca17  1  0.322009  0.054799  0.858159  1
  Ca  Ca18  1  0.161003  0.522858  0.857476  1
  Ca  Ca19  1  0.837760  0.474177  0.140833  1
  Ag  Ag20  1  0.544432  0.256560  0.250000  1
  Ag  Ag21  1  0.456170  0.743757  0.750000  1
  Ru  Ru22  1  0.039848  0.238521  0.750000  1
  Rh  Rh23  1  0.956083  0.762412  0.250000  1
