# generated using pymatgen
data_Y2Ho2B16OsRu3
_symmetry_space_group_name_H-M   'P 1'
_cell_length_a   3.55633300
_cell_length_b   5.95532938
_cell_length_c   11.52532820
_cell_angle_alpha   90.03102867
_cell_angle_beta   90.00000000
_cell_angle_gamma   90.00000000
_symmetry_Int_Tables_number   1
_chemical_formula_structural   Y2Ho2B16OsRu3
_chemical_formula_sum   'Y2 Ho2 B16 Os1 Ru3'
_cell_volume   244.09643904
_cell_formula_units_Z   1
loop_
 _symmetry_equiv_pos_site_id
 _symmetry_equiv_pos_as_xyz
  1  'x, y, z'
loop_
 _atom_site_type_symbol
 _atom_site_label
 _atom_site_symmetry_multiplicity
 _atom_site_fract_x
 _atom_site_fract_y
 _atom_site_fract_z
 _atom_site_occupancy
  Y  Y0  1  0.000000  0.628643  0.649561  1
  Y  Y1  1  0.000000  0.371323  0.350371  1
  Ho  Ho2  1  0.000000  0.128776  0.849746  1
  Ho  Ho3  1  0.000000  0.871108  0.150140  1
  B  B4  1  0.500000  0.977139  0.691917  1
  B  B5  1  0.500000  0.023341  0.307966  1
  B  B6  1  0.500000  0.475413  0.808369  1
  B  B7  1  0.500000  0.524213  0.191728  1
  B  B8  1  0.500000  0.789414  0.814233  1
  B  B9  1  0.500000  0.210654  0.185707  1
  B  B10  1  0.500000  0.288553  0.685763  1
  B  B11  1  0.500000  0.711306  0.314328  1
  B  B12  1  0.500000  0.863910  0.970288  1
  B  B13  1  0.500000  0.136043  0.029997  1
  B  B14  1  0.500000  0.363599  0.530182  1
  B  B15  1  0.500000  0.636308  0.469691  1
  B  B16  1  0.500000  0.888353  0.546525  1
  B  B17  1  0.500000  0.111782  0.453347  1
  B  B18  1  0.500000  0.387646  0.953136  1
  B  B19  1  0.500000  0.612315  0.046911  1
  Os  Os20  1  0.000000  0.641433  0.907370  1
  Ru  Ru21  1  0.000000  0.358570  0.092649  1
  Ru  Ru22  1  0.000000  0.140094  0.592962  1
  Ru  Ru23  1  0.000000  0.860064  0.407112  1
