# generated using pymatgen
data_YZr3(Al3Co)6
_symmetry_space_group_name_H-M   'P 1'
_cell_length_a   7.29111101
_cell_length_b   7.28099205
_cell_length_c   9.09345700
_cell_angle_alpha   90.00000000
_cell_angle_beta   90.00000000
_cell_angle_gamma   119.42093841
_symmetry_Int_Tables_number   1
_chemical_formula_structural   YZr3(Al3Co)6
_chemical_formula_sum   'Y1 Zr3 Al18 Co6'
_cell_volume   420.48312347
_cell_formula_units_Z   1
loop_
 _symmetry_equiv_pos_site_id
 _symmetry_equiv_pos_as_xyz
  1  'x, y, z'
loop_
 _atom_site_type_symbol
 _atom_site_label
 _atom_site_symmetry_multiplicity
 _atom_site_fract_x
 _atom_site_fract_y
 _atom_site_fract_z
 _atom_site_occupancy
  Y  Y0  1  0.328010  0.007942  0.750000  1
  Zr  Zr1  1  0.992736  0.672206  0.250000  1
  Zr  Zr2  1  0.006484  0.328222  0.750000  1
  Zr  Zr3  1  0.672862  0.993029  0.250000  1
  Al  Al4  1  0.117664  0.118528  0.250000  1
  Al  Al5  1  0.875286  0.879516  0.750000  1
  Al  Al6  1  0.330209  0.332436  0.543237  1
  Al  Al7  1  0.670000  0.669847  0.050129  1
  Al  Al8  1  0.330209  0.332436  0.956763  1
  Al  Al9  1  0.670000  0.669847  0.449871  1
  Al  Al10  1  0.338321  0.560173  0.250000  1
  Al  Al11  1  0.666813  0.445971  0.750000  1
  Al  Al12  1  0.561671  0.339715  0.250000  1
  Al  Al13  1  0.439695  0.654915  0.750000  1
  Al  Al14  1  0.994432  0.334892  0.073916  1
  Al  Al15  1  0.002797  0.662707  0.570043  1
  Al  Al16  1  0.335384  0.994971  0.423337  1
  Al  Al17  1  0.667553  0.004888  0.929830  1
  Al  Al18  1  0.002797  0.662707  0.929957  1
  Al  Al19  1  0.994432  0.334892  0.426084  1
  Al  Al20  1  0.667553  0.004888  0.570170  1
  Al  Al21  1  0.335384  0.994971  0.076663  1
  Co  Co22  1  0.998641  0.998940  0.001822  1
  Co  Co23  1  0.998641  0.998940  0.498178  1
  Co  Co24  1  0.672580  0.329135  0.001539  1
  Co  Co25  1  0.328634  0.672076  0.497957  1
  Co  Co26  1  0.328634  0.672076  0.002043  1
  Co  Co27  1  0.672580  0.329135  0.498461  1
