# generated using pymatgen
data_Ca6CdSi3Pd4
_symmetry_space_group_name_H-M   'P 1'
_cell_length_a   5.74267700
_cell_length_b   8.14314700
_cell_length_c   13.60743100
_cell_angle_alpha   90.00000000
_cell_angle_beta   90.00000000
_cell_angle_gamma   90.00000000
_symmetry_Int_Tables_number   1
_chemical_formula_structural   Ca6CdSi3Pd4
_chemical_formula_sum   'Ca12 Cd2 Si6 Pd8'
_cell_volume   636.33059588
_cell_formula_units_Z   2
loop_
 _symmetry_equiv_pos_site_id
 _symmetry_equiv_pos_as_xyz
  1  'x, y, z'
loop_
 _atom_site_type_symbol
 _atom_site_label
 _atom_site_symmetry_multiplicity
 _atom_site_fract_x
 _atom_site_fract_y
 _atom_site_fract_z
 _atom_site_occupancy
  Ca  Ca0  1  0.137425  0.614806  0.104533  1
  Ca  Ca1  1  0.137425  0.885194  0.895467  1
  Ca  Ca2  1  0.862575  0.114806  0.395467  1
  Ca  Ca3  1  0.862575  0.385194  0.604533  1
  Ca  Ca4  1  0.857761  0.397394  0.894623  1
  Ca  Ca5  1  0.857761  0.102606  0.105377  1
  Ca  Ca6  1  0.142239  0.897394  0.605377  1
  Ca  Ca7  1  0.142239  0.602606  0.394623  1
  Ca  Ca8  1  0.348298  0.254478  0.249725  1
  Ca  Ca9  1  0.348298  0.245522  0.750275  1
  Ca  Ca10  1  0.651702  0.754478  0.250275  1
  Ca  Ca11  1  0.651702  0.745522  0.749725  1
  Cd  Cd12  1  0.352941  0.250000  0.000000  1
  Cd  Cd13  1  0.647059  0.750000  0.500000  1
  Si  Si14  1  0.628945  0.750000  0.000000  1
  Si  Si15  1  0.371055  0.250000  0.500000  1
  Si  Si16  1  0.838506  0.404048  0.246581  1
  Si  Si17  1  0.838506  0.095952  0.753419  1
  Si  Si18  1  0.161494  0.904048  0.253419  1
  Si  Si19  1  0.161494  0.595952  0.746581  1
  Pd  Pd20  1  0.641093  0.486241  0.092270  1
  Pd  Pd21  1  0.641093  0.013759  0.907730  1
  Pd  Pd22  1  0.358907  0.986241  0.407730  1
  Pd  Pd23  1  0.358907  0.513759  0.592270  1
  Pd  Pd24  1  0.379531  0.553756  0.903522  1
  Pd  Pd25  1  0.379531  0.946244  0.096478  1
  Pd  Pd26  1  0.620469  0.053756  0.596478  1
  Pd  Pd27  1  0.620469  0.446244  0.403522  1
