# generated using pymatgen
data_Dy3Tm2InBi2
_symmetry_space_group_name_H-M   'P 1'
_cell_length_a   6.50822600
_cell_length_b   9.04248515
_cell_length_c   9.04089297
_cell_angle_alpha   120.00582789
_cell_angle_beta   89.99989301
_cell_angle_gamma   90.00020644
_symmetry_Int_Tables_number   1
_chemical_formula_structural   Dy3Tm2InBi2
_chemical_formula_sum   'Dy6 Tm4 In2 Bi4'
_cell_volume   460.75163186
_cell_formula_units_Z   2
loop_
 _symmetry_equiv_pos_site_id
 _symmetry_equiv_pos_as_xyz
  1  'x, y, z'
loop_
 _atom_site_type_symbol
 _atom_site_label
 _atom_site_symmetry_multiplicity
 _atom_site_fract_x
 _atom_site_fract_y
 _atom_site_fract_z
 _atom_site_occupancy
  Dy  Dy0  1  0.749998  0.238189  0.000000  1
  Dy  Dy1  1  0.750000  0.763274  0.761263  1
  Dy  Dy2  1  0.750000  0.002011  0.238737  1
  Dy  Dy3  1  0.250002  0.765044  0.000000  1
  Dy  Dy4  1  0.249998  0.234955  0.243955  1
  Dy  Dy5  1  0.249998  0.991000  0.756045  1
  Tm  Tm6  1  0.496931  0.331857  0.660202  1
  Tm  Tm7  1  0.496931  0.671655  0.339798  1
  Tm  Tm8  1  0.003072  0.671651  0.339798  1
  Tm  Tm9  1  0.003072  0.331851  0.660202  1
  In  In10  1  0.250000  0.603246  0.605203  1
  In  In11  1  0.250000  0.998042  0.394797  1
  Bi  Bi12  1  0.750001  0.605392  0.000000  1
  Bi  Bi13  1  0.749999  0.397282  0.393940  1
  Bi  Bi14  1  0.749999  0.003341  0.606060  1
  Bi  Bi15  1  0.249996  0.391210  0.000000  1
