# generated using pymatgen
data_Gd9Tm(Sn3P)2
_symmetry_space_group_name_H-M   'P 1'
_cell_length_a   9.09619200
_cell_length_b   9.09619255
_cell_length_c   6.72998600
_cell_angle_alpha   90.00000000
_cell_angle_beta   90.00000000
_cell_angle_gamma   119.96635734
_symmetry_Int_Tables_number   1
_chemical_formula_structural   Gd9Tm(Sn3P)2
_chemical_formula_sum   'Gd9 Tm1 Sn6 P2'
_cell_volume   482.40431623
_cell_formula_units_Z   1
loop_
 _symmetry_equiv_pos_site_id
 _symmetry_equiv_pos_as_xyz
  1  'x, y, z'
loop_
 _atom_site_type_symbol
 _atom_site_label
 _atom_site_symmetry_multiplicity
 _atom_site_fract_x
 _atom_site_fract_y
 _atom_site_fract_z
 _atom_site_occupancy
  Gd  Gd0  1  0.666805  0.333817  0.999805  1
  Gd  Gd1  1  0.333817  0.666805  0.999805  1
  Gd  Gd2  1  0.333817  0.666805  0.500195  1
  Gd  Gd3  1  0.666805  0.333817  0.500195  1
  Gd  Gd4  1  0.241759  0.000016  0.750000  1
  Gd  Gd5  1  0.000016  0.241759  0.750000  1
  Gd  Gd6  1  0.240778  0.240778  0.250000  1
  Gd  Gd7  1  0.758160  0.999486  0.250000  1
  Gd  Gd8  1  0.999486  0.758160  0.250000  1
  Tm  Tm9  1  0.761067  0.761067  0.750000  1
  Sn  Sn10  1  0.401495  0.401495  0.750000  1
  Sn  Sn11  1  0.601092  0.998301  0.750000  1
  Sn  Sn12  1  0.998301  0.601092  0.750000  1
  Sn  Sn13  1  0.600194  0.600194  0.250000  1
  Sn  Sn14  1  0.399655  0.999797  0.250000  1
  Sn  Sn15  1  0.999797  0.399655  0.250000  1
  P  P16  1  0.998477  0.998477  0.998568  1
  P  P17  1  0.998477  0.998477  0.501432  1
