# generated using pymatgen
data_Tb6Zr7Al9Os7
_symmetry_space_group_name_H-M   'P 1'
_cell_length_a   9.27067922
_cell_length_b   9.27067892
_cell_length_c   9.27067900
_cell_angle_alpha   59.53274711
_cell_angle_beta   59.53274103
_cell_angle_gamma   59.53274746
_symmetry_Int_Tables_number   1
_chemical_formula_structural   Tb6Zr7Al9Os7
_chemical_formula_sum   'Tb6 Zr7 Al9 Os7'
_cell_volume   557.41773959
_cell_formula_units_Z   1
loop_
 _symmetry_equiv_pos_site_id
 _symmetry_equiv_pos_as_xyz
  1  'x, y, z'
loop_
 _atom_site_type_symbol
 _atom_site_label
 _atom_site_symmetry_multiplicity
 _atom_site_fract_x
 _atom_site_fract_y
 _atom_site_fract_z
 _atom_site_occupancy
  Tb  Tb0  1  0.695408  0.695408  0.305865  1
  Tb  Tb1  1  0.302644  0.704352  0.302644  1
  Tb  Tb2  1  0.704352  0.302644  0.302644  1
  Tb  Tb3  1  0.302644  0.302644  0.704352  1
  Tb  Tb4  1  0.695408  0.305865  0.695408  1
  Tb  Tb5  1  0.305865  0.695408  0.695408  1
  Zr  Zr6  1  0.881520  0.881520  0.364513  1
  Zr  Zr7  1  0.881520  0.364513  0.881520  1
  Zr  Zr8  1  0.364513  0.881520  0.881520  1
  Zr  Zr9  1  0.875973  0.875973  0.875973  1
  Zr  Zr10  1  0.123747  0.123747  0.629227  1
  Zr  Zr11  1  0.123747  0.629227  0.123747  1
  Zr  Zr12  1  0.629227  0.123747  0.123747  1
  Al  Al13  1  0.118934  0.118934  0.118934  1
  Al  Al14  1  0.666132  0.666132  0.999661  1
  Al  Al15  1  0.666132  0.999661  0.666132  1
  Al  Al16  1  0.999661  0.666132  0.666132  1
  Al  Al17  1  0.668219  0.668219  0.668219  1
  Al  Al18  1  0.327461  0.327461  0.004752  1
  Al  Al19  1  0.327461  0.004752  0.327461  1
  Al  Al20  1  0.004752  0.327461  0.327461  1
  Al  Al21  1  0.335705  0.335705  0.335705  1
  Os  Os22  1  0.998862  0.998862  0.998862  1
  Os  Os23  1  0.000822  0.000822  0.499682  1
  Os  Os24  1  0.499706  0.999377  0.499706  1
  Os  Os25  1  0.999377  0.499706  0.499706  1
  Os  Os26  1  0.499706  0.499706  0.999377  1
  Os  Os27  1  0.000822  0.499682  0.000822  1
  Os  Os28  1  0.499682  0.000822  0.000822  1
