# generated using pymatgen
data_ErBeSi2Pd
_symmetry_space_group_name_H-M   'P 1'
_cell_length_a   3.92206574
_cell_length_b   3.92206711
_cell_length_c   5.82021842
_cell_angle_alpha   109.69021760
_cell_angle_beta   109.69022516
_cell_angle_gamma   90.00000294
_symmetry_Int_Tables_number   1
_chemical_formula_structural   ErBeSi2Pd
_chemical_formula_sum   'Er1 Be1 Si2 Pd1'
_cell_volume   78.71272040
_cell_formula_units_Z   1
loop_
 _symmetry_equiv_pos_site_id
 _symmetry_equiv_pos_as_xyz
  1  'x, y, z'
loop_
 _atom_site_type_symbol
 _atom_site_label
 _atom_site_symmetry_multiplicity
 _atom_site_fract_x
 _atom_site_fract_y
 _atom_site_fract_z
 _atom_site_occupancy
  Er  Er0  1  0.000000  0.000000  0.000000  1
  Be  Be1  1  0.750001  0.250000  0.500001  1
  Si  Si2  1  0.613961  0.613961  0.227921  1
  Si  Si3  1  0.386039  0.386039  0.772078  1
  Pd  Pd4  1  0.250000  0.750001  0.500001  1
