# generated using pymatgen
data_DyY8Ho11Pt16
_symmetry_space_group_name_H-M   'P 1'
_cell_length_a   7.47697409
_cell_length_b   7.55647510
_cell_length_c   14.75217905
_cell_angle_alpha   89.98904678
_cell_angle_beta   90.00157223
_cell_angle_gamma   89.99702082
_symmetry_Int_Tables_number   1
_chemical_formula_structural   DyY8Ho11Pt16
_chemical_formula_sum   'Dy1 Y8 Ho11 Pt16'
_cell_volume   833.49173450
_cell_formula_units_Z   1
loop_
 _symmetry_equiv_pos_site_id
 _symmetry_equiv_pos_as_xyz
  1  'x, y, z'
loop_
 _atom_site_type_symbol
 _atom_site_label
 _atom_site_symmetry_multiplicity
 _atom_site_fract_x
 _atom_site_fract_y
 _atom_site_fract_z
 _atom_site_occupancy
  Dy  Dy0  1  0.656242  0.832258  0.878027  1
  Y  Y1  1  0.998018  0.820031  0.406870  1
  Y  Y2  1  0.497853  0.679891  0.093288  1
  Y  Y3  1  0.501986  0.320093  0.592969  1
  Y  Y4  1  0.002140  0.180258  0.906987  1
  Y  Y5  1  0.001963  0.179863  0.593033  1
  Y  Y6  1  0.501926  0.320108  0.907009  1
  Y  Y7  1  0.497993  0.679917  0.406870  1
  Y  Y8  1  0.998008  0.819972  0.093098  1
  Ho  Ho9  1  0.681241  0.988342  0.250023  1
  Ho  Ho10  1  0.181249  0.511630  0.250020  1
  Ho  Ho11  1  0.818841  0.488194  0.749841  1
  Ho  Ho12  1  0.318665  0.011879  0.749868  1
  Ho  Ho13  1  0.656242  0.832348  0.622128  1
  Ho  Ho14  1  0.156354  0.667680  0.877803  1
  Ho  Ho15  1  0.843785  0.332340  0.377820  1
  Ho  Ho16  1  0.343708  0.167725  0.122212  1
  Ho  Ho17  1  0.343734  0.167678  0.377839  1
  Ho  Ho18  1  0.843850  0.332388  0.122342  1
  Ho  Ho19  1  0.156253  0.667686  0.622067  1
  Pt  Pt20  1  0.816177  0.641613  0.250008  1
  Pt  Pt21  1  0.316131  0.858386  0.250011  1
  Pt  Pt22  1  0.683875  0.142147  0.749611  1
  Pt  Pt23  1  0.183617  0.358239  0.749990  1
  Pt  Pt24  1  0.546768  0.385578  0.250030  1
  Pt  Pt25  1  0.046859  0.114461  0.250034  1
  Pt  Pt26  1  0.953890  0.885930  0.749545  1
  Pt  Pt27  1  0.452834  0.613630  0.749595  1
  Pt  Pt28  1  0.817532  0.532936  0.542152  1
  Pt  Pt29  1  0.316496  0.967423  0.958101  1
  Pt  Pt30  1  0.682463  0.032897  0.457805  1
  Pt  Pt31  1  0.182566  0.467057  0.042179  1
  Pt  Pt32  1  0.182459  0.467089  0.457787  1
  Pt  Pt33  1  0.682354  0.033535  0.042844  1
  Pt  Pt34  1  0.317548  0.967080  0.542134  1
  Pt  Pt35  1  0.818381  0.531722  0.958065  1
