# generated using pymatgen
data_Tb5Y(Ho2Si3)2
_symmetry_space_group_name_H-M   'P 1'
_cell_length_a   8.46128000
_cell_length_b   8.45771359
_cell_length_c   6.35998800
_cell_angle_alpha   90.00000000
_cell_angle_beta   90.00000000
_cell_angle_gamma   120.01394990
_symmetry_Int_Tables_number   1
_chemical_formula_structural   Tb5Y(Ho2Si3)2
_chemical_formula_sum   'Tb5 Y1 Ho4 Si6'
_cell_volume   394.10768504
_cell_formula_units_Z   1
loop_
 _symmetry_equiv_pos_site_id
 _symmetry_equiv_pos_as_xyz
  1  'x, y, z'
loop_
 _atom_site_type_symbol
 _atom_site_label
 _atom_site_symmetry_multiplicity
 _atom_site_fract_x
 _atom_site_fract_y
 _atom_site_fract_z
 _atom_site_occupancy
  Tb  Tb0  1  0.000018  0.756647  0.750000  1
  Tb  Tb1  1  0.999978  0.243440  0.250000  1
  Tb  Tb2  1  0.756538  0.756560  0.250000  1
  Tb  Tb3  1  0.756520  0.000000  0.750000  1
  Tb  Tb4  1  0.243370  0.243353  0.750000  1
  Y  Y5  1  0.243572  0.000000  0.250000  1
  Ho  Ho6  1  0.333334  0.666768  0.499970  1
  Ho  Ho7  1  0.666567  0.333232  0.000030  1
  Ho  Ho8  1  0.666567  0.333232  0.499970  1
  Ho  Ho9  1  0.333334  0.666768  0.000030  1
  Si  Si10  1  0.394902  0.000000  0.750000  1
  Si  Si11  1  0.394740  0.394559  0.250000  1
  Si  Si12  1  0.000181  0.605441  0.250000  1
  Si  Si13  1  0.000096  0.394873  0.750000  1
  Si  Si14  1  0.605223  0.605127  0.750000  1
  Si  Si15  1  0.605058  0.000000  0.250000  1
