# generated using pymatgen
data_NdEu(Al4Ni)2
_symmetry_space_group_name_H-M   'P 1'
_cell_length_a   4.12150959
_cell_length_b   6.60146200
_cell_length_c   8.17925653
_cell_angle_alpha   90.00000000
_cell_angle_beta   104.59286559
_cell_angle_gamma   90.00000000
_symmetry_Int_Tables_number   1
_chemical_formula_structural   NdEu(Al4Ni)2
_chemical_formula_sum   'Nd1 Eu1 Al8 Ni2'
_cell_volume   215.36206730
_cell_formula_units_Z   1
loop_
 _symmetry_equiv_pos_site_id
 _symmetry_equiv_pos_as_xyz
  1  'x, y, z'
loop_
 _atom_site_type_symbol
 _atom_site_label
 _atom_site_symmetry_multiplicity
 _atom_site_fract_x
 _atom_site_fract_y
 _atom_site_fract_z
 _atom_site_occupancy
  Nd  Nd0  1  0.115238  0.250000  0.230477  1
  Eu  Eu1  1  0.885180  0.750000  0.770361  1
  Al  Al2  1  0.499188  0.502112  0.998376  1
  Al  Al3  1  0.499188  0.997888  0.998376  1
  Al  Al4  1  0.077816  0.750000  0.155631  1
  Al  Al5  1  0.921124  0.250000  0.842249  1
  Al  Al6  1  0.692288  0.553382  0.384576  1
  Al  Al7  1  0.309462  0.448692  0.618924  1
  Al  Al8  1  0.692288  0.946618  0.384576  1
  Al  Al9  1  0.309462  0.051308  0.618924  1
  Ni  Ni10  1  0.223221  0.750000  0.446443  1
  Ni  Ni11  1  0.775545  0.250000  0.551089  1
