# generated using pymatgen
data_Ce2Lu3OsRu
_symmetry_space_group_name_H-M   'P 1'
_cell_length_a   6.32213165
_cell_length_b   7.04147817
_cell_length_c   8.64436237
_cell_angle_alpha   96.15537199
_cell_angle_beta   111.75960131
_cell_angle_gamma   89.84173586
_symmetry_Int_Tables_number   1
_chemical_formula_structural   Ce2Lu3OsRu
_chemical_formula_sum   'Ce4 Lu6 Os2 Ru2'
_cell_volume   355.05712401
_cell_formula_units_Z   2
loop_
 _symmetry_equiv_pos_site_id
 _symmetry_equiv_pos_as_xyz
  1  'x, y, z'
loop_
 _atom_site_type_symbol
 _atom_site_label
 _atom_site_symmetry_multiplicity
 _atom_site_fract_x
 _atom_site_fract_y
 _atom_site_fract_z
 _atom_site_occupancy
  Ce  Ce0  1  0.520682  0.088081  0.806496  1
  Ce  Ce1  1  0.479318  0.911919  0.193504  1
  Ce  Ce2  1  0.713860  0.403947  0.190565  1
  Ce  Ce3  1  0.286140  0.596053  0.809435  1
  Lu  Lu4  1  0.298370  0.317905  0.436860  1
  Lu  Lu5  1  0.701630  0.682095  0.563140  1
  Lu  Lu6  1  0.861640  0.186438  0.569288  1
  Lu  Lu7  1  0.138360  0.813562  0.430712  1
  Lu  Lu8  1  0.081026  0.253034  0.000480  1
  Lu  Lu9  1  0.918974  0.746966  0.999520  1
  Os  Os10  1  0.335622  0.587597  0.222394  1
  Os  Os11  1  0.664378  0.412403  0.777606  1
  Ru  Ru12  1  0.122210  0.908511  0.779565  1
  Ru  Ru13  1  0.877790  0.091489  0.220435  1
