# generated using pymatgen
data_Y4MnAl18Pd5
_symmetry_space_group_name_H-M   'P 1'
_cell_length_a   7.60859597
_cell_length_b   7.60859539
_cell_length_c   9.51151104
_cell_angle_alpha   89.99413959
_cell_angle_beta   89.99413980
_cell_angle_gamma   119.56932371
_symmetry_Int_Tables_number   1
_chemical_formula_structural   Y4MnAl18Pd5
_chemical_formula_sum   'Y4 Mn1 Al18 Pd5'
_cell_volume   478.91405535
_cell_formula_units_Z   1
loop_
 _symmetry_equiv_pos_site_id
 _symmetry_equiv_pos_as_xyz
  1  'x, y, z'
loop_
 _atom_site_type_symbol
 _atom_site_label
 _atom_site_symmetry_multiplicity
 _atom_site_fract_x
 _atom_site_fract_y
 _atom_site_fract_z
 _atom_site_occupancy
  Y  Y0  1  0.994981  0.670079  0.248301  1
  Y  Y1  1  0.005019  0.329921  0.751699  1
  Y  Y2  1  0.670079  0.994981  0.248301  1
  Y  Y3  1  0.329921  0.005019  0.751699  1
  Mn  Mn4  1  0.000000  0.000000  0.000000  1
  Al  Al5  1  0.124578  0.124578  0.241550  1
  Al  Al6  1  0.875422  0.875422  0.758450  1
  Al  Al7  1  0.999549  0.323854  0.071452  1
  Al  Al8  1  0.000451  0.676146  0.928548  1
  Al  Al9  1  0.998124  0.664685  0.577820  1
  Al  Al10  1  0.335315  0.001876  0.422180  1
  Al  Al11  1  0.001876  0.335315  0.422180  1
  Al  Al12  1  0.664685  0.998124  0.577820  1
  Al  Al13  1  0.676146  0.000451  0.928548  1
  Al  Al14  1  0.323854  0.999549  0.071452  1
  Al  Al15  1  0.334013  0.334013  0.557468  1
  Al  Al16  1  0.665987  0.665987  0.442532  1
  Al  Al17  1  0.676320  0.676320  0.052090  1
  Al  Al18  1  0.323680  0.323680  0.947910  1
  Al  Al19  1  0.339732  0.545699  0.248441  1
  Al  Al20  1  0.660268  0.454301  0.751559  1
  Al  Al21  1  0.545699  0.339732  0.248441  1
  Al  Al22  1  0.454301  0.660268  0.751559  1
  Pd  Pd23  1  0.672024  0.327976  0.000000  1
  Pd  Pd24  1  0.327976  0.672024  0.000000  1
  Pd  Pd25  1  0.327895  0.672105  0.500000  1
  Pd  Pd26  1  0.672105  0.327895  0.500000  1
  Pd  Pd27  1  0.000000  0.000000  0.500000  1
