# generated using pymatgen
data_Tb6Cr3RuC12
_symmetry_space_group_name_H-M   'P 1'
_cell_length_a   8.21716500
_cell_length_b   8.21716580
_cell_length_c   5.03025700
_cell_angle_alpha   90.00000000
_cell_angle_beta   90.00000000
_cell_angle_gamma   119.99999061
_symmetry_Int_Tables_number   1
_chemical_formula_structural   Tb6Cr3RuC12
_chemical_formula_sum   'Tb6 Cr3 Ru1 C12'
_cell_volume   294.14732571
_cell_formula_units_Z   1
loop_
 _symmetry_equiv_pos_site_id
 _symmetry_equiv_pos_as_xyz
  1  'x, y, z'
loop_
 _atom_site_type_symbol
 _atom_site_label
 _atom_site_symmetry_multiplicity
 _atom_site_fract_x
 _atom_site_fract_y
 _atom_site_fract_z
 _atom_site_occupancy
  Tb  Tb0  1  0.624605  0.686028  0.750000  1
  Tb  Tb1  1  0.933197  0.621506  0.250000  1
  Tb  Tb2  1  0.688308  0.066803  0.250000  1
  Tb  Tb3  1  0.313972  0.938576  0.750000  1
  Tb  Tb4  1  0.061424  0.375395  0.750000  1
  Tb  Tb5  1  0.378494  0.311692  0.250000  1
  Cr  Cr6  1  0.000000  0.000000  0.502687  1
  Cr  Cr7  1  0.000000  0.000000  0.997313  1
  Cr  Cr8  1  0.666667  0.333333  0.750000  1
  Ru  Ru9  1  0.333333  0.666667  0.250000  1
  C  C10  1  0.962317  0.774126  0.750000  1
  C  C11  1  0.186279  0.962667  0.250000  1
  C  C12  1  0.776389  0.813721  0.250000  1
  C  C13  1  0.225874  0.188192  0.750000  1
  C  C14  1  0.811808  0.037683  0.750000  1
  C  C15  1  0.037333  0.223611  0.250000  1
  C  C16  1  0.862338  0.579535  0.750000  1
  C  C17  1  0.291445  0.879085  0.250000  1
  C  C18  1  0.587639  0.708555  0.250000  1
  C  C19  1  0.420465  0.282803  0.750000  1
  C  C20  1  0.120915  0.412361  0.250000  1
  C  C21  1  0.717197  0.137662  0.750000  1
