# generated using pymatgen
data_Eu8Cu3Si12Au
_symmetry_space_group_name_H-M   'P 1'
_cell_length_a   8.18325700
_cell_length_b   8.18325823
_cell_length_c   8.69285700
_cell_angle_alpha   90.00000000
_cell_angle_beta   90.00000000
_cell_angle_gamma   120.00000716
_symmetry_Int_Tables_number   1
_chemical_formula_structural   Eu8Cu3Si12Au
_chemical_formula_sum   'Eu8 Cu3 Si12 Au1'
_cell_volume   504.13352871
_cell_formula_units_Z   1
loop_
 _symmetry_equiv_pos_site_id
 _symmetry_equiv_pos_as_xyz
  1  'x, y, z'
loop_
 _atom_site_type_symbol
 _atom_site_label
 _atom_site_symmetry_multiplicity
 _atom_site_fract_x
 _atom_site_fract_y
 _atom_site_fract_z
 _atom_site_occupancy
  Eu  Eu0  1  0.498864  0.501136  0.748155  1
  Eu  Eu1  1  0.498984  0.501016  0.251802  1
  Eu  Eu2  1  0.002272  0.501136  0.748155  1
  Eu  Eu3  1  0.002034  0.501016  0.251802  1
  Eu  Eu4  1  0.498864  0.997728  0.748155  1
  Eu  Eu5  1  0.498984  0.997966  0.251802  1
  Eu  Eu6  1  0.000000  0.000000  0.748047  1
  Eu  Eu7  1  0.000000  0.000000  0.252211  1
  Cu  Cu8  1  0.333333  0.666667  0.000487  1
  Cu  Cu9  1  0.333333  0.666667  0.499226  1
  Cu  Cu10  1  0.666667  0.333333  0.499395  1
  Si  Si11  1  0.838073  0.161927  0.999751  1
  Si  Si12  1  0.168556  0.831444  0.999726  1
  Si  Si13  1  0.323853  0.161927  0.999751  1
  Si  Si14  1  0.167400  0.832600  0.500159  1
  Si  Si15  1  0.662889  0.831444  0.999726  1
  Si  Si16  1  0.832136  0.167864  0.500635  1
  Si  Si17  1  0.838073  0.676147  0.999751  1
  Si  Si18  1  0.665201  0.832600  0.500159  1
  Si  Si19  1  0.168556  0.337111  0.999726  1
  Si  Si20  1  0.335728  0.167864  0.500635  1
  Si  Si21  1  0.167400  0.334799  0.500159  1
  Si  Si22  1  0.832136  0.664272  0.500635  1
  Au  Au23  1  0.666667  0.333333  0.999950  1
