# generated using pymatgen
data_YHo5(BCl3)2
_symmetry_space_group_name_H-M   'P 1'
_cell_length_a   9.41085548
_cell_length_b   9.41389046
_cell_length_c   9.41392262
_cell_angle_alpha   109.50144991
_cell_angle_beta   109.48757436
_cell_angle_gamma   109.43821589
_symmetry_Int_Tables_number   1
_chemical_formula_structural   YHo5(BCl3)2
_chemical_formula_sum   'Y2 Ho10 B4 Cl12'
_cell_volume   641.90989612
_cell_formula_units_Z   2
loop_
 _symmetry_equiv_pos_site_id
 _symmetry_equiv_pos_as_xyz
  1  'x, y, z'
loop_
 _atom_site_type_symbol
 _atom_site_label
 _atom_site_symmetry_multiplicity
 _atom_site_fract_x
 _atom_site_fract_y
 _atom_site_fract_z
 _atom_site_occupancy
  Y  Y0  1  0.264807  0.014801  0.029772  1
  Y  Y1  1  0.235192  0.264960  0.749991  1
  Ho  Ho2  1  0.468179  0.484250  0.234292  1
  Ho  Ho3  1  0.749941  0.234095  0.265915  1
  Ho  Ho4  1  0.750057  0.015966  0.484152  1
  Ho  Ho5  1  0.234089  0.468281  0.484160  1
  Ho  Ho6  1  0.265914  0.750070  0.234189  1
  Ho  Ho7  1  0.031827  0.266111  0.016071  1
  Ho  Ho8  1  0.015846  0.031923  0.265812  1
  Ho  Ho9  1  0.484149  0.749966  0.016079  1
  Ho  Ho10  1  0.484430  0.234432  0.468666  1
  Ho  Ho11  1  0.015568  0.484237  0.750003  1
  B  B12  1  0.250037  0.251100  0.251063  1
  B  B13  1  0.500999  0.999980  0.251059  1
  B  B14  1  0.998996  0.250054  0.498973  1
  B  B15  1  0.249962  0.501027  0.001066  1
  Cl  Cl16  1  0.250037  0.754377  0.743967  1
  Cl  Cl17  1  0.511778  0.506726  0.755079  1
  Cl  Cl18  1  0.988212  0.743296  0.994939  1
  Cl  Cl19  1  0.744789  0.250000  0.755213  1
  Cl  Cl20  1  0.992429  0.988232  0.744104  1
  Cl  Cl21  1  0.249968  0.993934  0.504336  1
  Cl  Cl22  1  0.755213  0.510430  0.505209  1
  Cl  Cl23  1  0.507574  0.251676  0.995812  1
  Cl  Cl24  1  0.755252  0.744791  0.250032  1
  Cl  Cl25  1  0.744751  0.994782  0.989540  1
  Cl  Cl26  1  0.994797  0.505248  0.250049  1
  Cl  Cl27  1  0.505208  0.755256  0.510456  1
