# generated using pymatgen
data_MgBi2F12
_symmetry_space_group_name_H-M   'P 1'
_cell_length_a   5.35085401
_cell_length_b   5.74130708
_cell_length_c   9.42569233
_cell_angle_alpha   104.88506228
_cell_angle_beta   90.44658828
_cell_angle_gamma   119.11380950
_symmetry_Int_Tables_number   1
_chemical_formula_structural   MgBi2F12
_chemical_formula_sum   'Mg1 Bi2 F12'
_cell_volume   241.44922058
_cell_formula_units_Z   1
loop_
 _symmetry_equiv_pos_site_id
 _symmetry_equiv_pos_as_xyz
  1  'x, y, z'
loop_
 _atom_site_type_symbol
 _atom_site_label
 _atom_site_symmetry_multiplicity
 _atom_site_fract_x
 _atom_site_fract_y
 _atom_site_fract_z
 _atom_site_occupancy
  Mg  Mg0  1  0.000000  0.000000  0.000000  1
  Bi  Bi1  1  0.778683  0.504848  0.258535  1
  Bi  Bi2  1  0.221317  0.495152  0.741465  1
  F  F3  1  0.787970  0.246362  0.709435  1
  F  F4  1  0.212030  0.753638  0.290565  1
  F  F5  1  0.182488  0.760415  0.930950  1
  F  F6  1  0.695630  0.732998  0.430599  1
  F  F7  1  0.304370  0.267002  0.569401  1
  F  F8  1  0.777732  0.246784  0.368575  1
  F  F9  1  0.222268  0.753216  0.631425  1
  F  F10  1  0.334137  0.249881  0.173670  1
  F  F11  1  0.665863  0.750119  0.826330  1
  F  F12  1  0.768268  0.736920  0.120074  1
  F  F13  1  0.231732  0.263080  0.879926  1
  F  F14  1  0.817512  0.239585  0.069050  1
