# generated using pymatgen
data_LiTm8Tc11Ge16
_symmetry_space_group_name_H-M   'P 1'
_cell_length_a   6.92917327
_cell_length_b   6.93139059
_cell_length_c   12.88718100
_cell_angle_alpha   90.28568692
_cell_angle_beta   89.88786706
_cell_angle_gamma   89.77771237
_symmetry_Int_Tables_number   1
_chemical_formula_structural   LiTm8Tc11Ge16
_chemical_formula_sum   'Li1 Tm8 Tc11 Ge16'
_cell_volume   618.94236022
_cell_formula_units_Z   1
loop_
 _symmetry_equiv_pos_site_id
 _symmetry_equiv_pos_as_xyz
  1  'x, y, z'
loop_
 _atom_site_type_symbol
 _atom_site_label
 _atom_site_symmetry_multiplicity
 _atom_site_fract_x
 _atom_site_fract_y
 _atom_site_fract_z
 _atom_site_occupancy
  Li  Li0  1  0.698216  0.493218  0.878447  1
  Tm  Tm1  1  0.010998  0.655985  0.030610  1
  Tm  Tm2  1  0.993636  0.342304  0.526726  1
  Tm  Tm3  1  0.654132  0.010427  0.972949  1
  Tm  Tm4  1  0.157283  0.493571  0.777584  1
  Tm  Tm5  1  0.836933  0.514663  0.279209  1
  Tm  Tm6  1  0.488765  0.160621  0.221700  1
  Tm  Tm7  1  0.512561  0.839732  0.718865  1
  Tm  Tm8  1  0.339228  0.996254  0.472394  1
  Tc  Tc9  1  0.319255  0.484785  0.378821  1
  Tc  Tc10  1  0.807772  0.027517  0.368511  1
  Tc  Tc11  1  0.978943  0.195068  0.132967  1
  Tc  Tc12  1  0.019594  0.810829  0.632233  1
  Tc  Tc13  1  0.476292  0.321755  0.620791  1
  Tc  Tc14  1  0.200788  0.966455  0.865554  1
  Tc  Tc15  1  0.664308  0.666802  0.499303  1
  Tc  Tc16  1  0.839848  0.161132  0.748154  1
  Tc  Tc17  1  0.157432  0.838563  0.251377  1
  Tc  Tc18  1  0.339742  0.332795  0.995178  1
  Tc  Tc19  1  0.512607  0.681271  0.126366  1
  Ge  Ge20  1  0.016791  0.732937  0.436377  1
  Ge  Ge21  1  0.991531  0.259363  0.934226  1
  Ge  Ge22  1  0.728689  0.020649  0.563373  1
  Ge  Ge23  1  0.219428  0.480592  0.186649  1
  Ge  Ge24  1  0.774195  0.515635  0.681811  1
  Ge  Ge25  1  0.478210  0.224353  0.813314  1
  Ge  Ge26  1  0.516263  0.781907  0.316953  1
  Ge  Ge27  1  0.265589  0.978878  0.063611  1
  Ge  Ge28  1  0.808453  0.888927  0.178765  1
  Ge  Ge29  1  0.307105  0.618725  0.568291  1
  Ge  Ge30  1  0.690052  0.388889  0.069651  1
  Ge  Ge31  1  0.615233  0.312883  0.431785  1
  Ge  Ge32  1  0.395436  0.684270  0.934825  1
  Ge  Ge33  1  0.112822  0.192120  0.320020  1
  Ge  Ge34  1  0.191173  0.113770  0.680070  1
  Ge  Ge35  1  0.880700  0.812359  0.822538  1
