# generated using pymatgen
data_Hf2(TaN2)3
_symmetry_space_group_name_H-M   'P 1'
_cell_length_a   5.30591600
_cell_length_b   5.30591683
_cell_length_c   10.57256000
_cell_angle_alpha   90.00000000
_cell_angle_beta   90.00000000
_cell_angle_gamma   119.99999485
_symmetry_Int_Tables_number   1
_chemical_formula_structural   Hf2(TaN2)3
_chemical_formula_sum   'Hf4 Ta6 N12'
_cell_volume   257.76955437
_cell_formula_units_Z   2
loop_
 _symmetry_equiv_pos_site_id
 _symmetry_equiv_pos_as_xyz
  1  'x, y, z'
loop_
 _atom_site_type_symbol
 _atom_site_label
 _atom_site_symmetry_multiplicity
 _atom_site_fract_x
 _atom_site_fract_y
 _atom_site_fract_z
 _atom_site_occupancy
  Hf  Hf0  1  0.666667  0.333333  0.000000  1
  Hf  Hf1  1  0.333333  0.666667  0.000000  1
  Hf  Hf2  1  0.333333  0.666667  0.500000  1
  Hf  Hf3  1  0.666667  0.333333  0.500000  1
  Ta  Ta4  1  0.681393  0.681393  0.750000  1
  Ta  Ta5  1  0.318607  0.000000  0.750000  1
  Ta  Ta6  1  0.000000  0.318607  0.750000  1
  Ta  Ta7  1  0.318607  0.318607  0.250000  1
  Ta  Ta8  1  0.681393  0.000000  0.250000  1
  Ta  Ta9  1  0.000000  0.681393  0.250000  1
  N  N10  1  0.655006  0.655006  0.373405  1
  N  N11  1  0.344994  0.000000  0.373405  1
  N  N12  1  0.000000  0.344994  0.373405  1
  N  N13  1  0.344994  0.344994  0.626595  1
  N  N14  1  0.655006  0.000000  0.626595  1
  N  N15  1  0.000000  0.655006  0.626595  1
  N  N16  1  0.344994  0.344994  0.873405  1
  N  N17  1  0.655006  0.000000  0.873405  1
  N  N18  1  0.000000  0.655006  0.873405  1
  N  N19  1  0.655006  0.655006  0.126595  1
  N  N20  1  0.344994  0.000000  0.126595  1
  N  N21  1  0.000000  0.344994  0.126595  1
