# generated using pymatgen
data_Y8Ho2GaSb5
_symmetry_space_group_name_H-M   'P 1'
_cell_length_a   6.37046371
_cell_length_b   8.90988451
_cell_length_c   8.90755200
_cell_angle_alpha   120.00866392
_cell_angle_beta   89.97287418
_cell_angle_gamma   90.05425922
_symmetry_Int_Tables_number   1
_chemical_formula_structural   Y8Ho2GaSb5
_chemical_formula_sum   'Y8 Ho2 Ga1 Sb5'
_cell_volume   437.81839289
_cell_formula_units_Z   1
loop_
 _symmetry_equiv_pos_site_id
 _symmetry_equiv_pos_as_xyz
  1  'x, y, z'
loop_
 _atom_site_type_symbol
 _atom_site_label
 _atom_site_symmetry_multiplicity
 _atom_site_fract_x
 _atom_site_fract_y
 _atom_site_fract_z
 _atom_site_occupancy
  Y  Y0  1  0.998709  0.664229  0.324520  1
  Y  Y1  1  0.998709  0.339709  0.675480  1
  Y  Y2  1  0.750380  0.247790  0.000000  1
  Y  Y3  1  0.750266  0.752764  0.764053  1
  Y  Y4  1  0.750266  0.988711  0.235947  1
  Y  Y5  1  0.251201  0.757745  0.000000  1
  Y  Y6  1  0.248997  0.246130  0.245561  1
  Y  Y7  1  0.248997  0.000569  0.754439  1
  Ho  Ho8  1  0.501554  0.339598  0.674453  1
  Ho  Ho9  1  0.501554  0.665145  0.325547  1
  Ga  Ga10  1  0.746264  0.604253  0.000000  1
  Sb  Sb11  1  0.748338  0.389235  0.391255  1
  Sb  Sb12  1  0.748338  0.997979  0.608745  1
  Sb  Sb13  1  0.253569  0.392109  0.000000  1
  Sb  Sb14  1  0.251431  0.610640  0.607246  1
  Sb  Sb15  1  0.251431  0.003396  0.392754  1
