# generated using pymatgen
data_NaY6NiCl12
_symmetry_space_group_name_H-M   'P 1'
_cell_length_a   8.79511658
_cell_length_b   8.85991177
_cell_length_c   8.82007177
_cell_angle_alpha   107.25024734
_cell_angle_beta   106.61082047
_cell_angle_gamma   106.83839587
_symmetry_Int_Tables_number   1
_chemical_formula_structural   NaY6NiCl12
_chemical_formula_sum   'Na1 Y6 Ni1 Cl12'
_cell_volume   573.92853597
_cell_formula_units_Z   1
loop_
 _symmetry_equiv_pos_site_id
 _symmetry_equiv_pos_as_xyz
  1  'x, y, z'
loop_
 _atom_site_type_symbol
 _atom_site_label
 _atom_site_symmetry_multiplicity
 _atom_site_fract_x
 _atom_site_fract_y
 _atom_site_fract_z
 _atom_site_occupancy
  Na  Na0  1  0.500000  0.500000  0.500000  1
  Y  Y1  1  0.117186  0.325699  0.029476  1
  Y  Y2  1  0.319286  0.027150  0.111962  1
  Y  Y3  1  0.025338  0.117329  0.323196  1
  Y  Y4  1  0.974663  0.882671  0.676805  1
  Y  Y5  1  0.680714  0.972851  0.888038  1
  Y  Y6  1  0.882814  0.674301  0.970524  1
  Ni  Ni7  1  0.000000  0.000000  0.000000  1
  Cl  Cl8  1  0.213069  0.680923  0.073272  1
  Cl  Cl9  1  0.451037  0.364331  0.150239  1
  Cl  Cl10  1  0.676990  0.072845  0.213986  1
  Cl  Cl11  1  0.928420  0.789128  0.319353  1
  Cl  Cl12  1  0.150833  0.451831  0.366786  1
  Cl  Cl13  1  0.361476  0.150063  0.447086  1
  Cl  Cl14  1  0.638524  0.849937  0.552915  1
  Cl  Cl15  1  0.849168  0.548169  0.633214  1
  Cl  Cl16  1  0.071581  0.210872  0.680648  1
  Cl  Cl17  1  0.323011  0.927156  0.786014  1
  Cl  Cl18  1  0.548963  0.635669  0.849762  1
  Cl  Cl19  1  0.786931  0.319077  0.926728  1
