# generated using pymatgen
data_Lu3Al3SiAu2
_symmetry_space_group_name_H-M   'P 1'
_cell_length_a   6.91748200
_cell_length_b   6.91748274
_cell_length_c   4.24849300
_cell_angle_alpha   90.00000000
_cell_angle_beta   90.00000000
_cell_angle_gamma   119.99999645
_symmetry_Int_Tables_number   1
_chemical_formula_structural   Lu3Al3SiAu2
_chemical_formula_sum   'Lu3 Al3 Si1 Au2'
_cell_volume   176.06039682
_cell_formula_units_Z   1
loop_
 _symmetry_equiv_pos_site_id
 _symmetry_equiv_pos_as_xyz
  1  'x, y, z'
loop_
 _atom_site_type_symbol
 _atom_site_label
 _atom_site_symmetry_multiplicity
 _atom_site_fract_x
 _atom_site_fract_y
 _atom_site_fract_z
 _atom_site_occupancy
  Lu  Lu0  1  0.423025  0.421528  0.500000  1
  Lu  Lu1  1  0.578472  0.001497  0.500000  1
  Lu  Lu2  1  0.998503  0.576975  0.500000  1
  Al  Al3  1  0.751364  0.755732  0.000000  1
  Al  Al4  1  0.244268  0.995633  0.000000  1
  Al  Al5  1  0.004367  0.248636  0.000000  1
  Si  Si6  1  0.666667  0.333333  0.000000  1
  Au  Au7  1  0.333333  0.666667  0.000000  1
  Au  Au8  1  0.000000  0.000000  0.500000  1
