# generated using pymatgen
data_Li2Dy15Y3(Cd3Ru)2
_symmetry_space_group_name_H-M   'P 1'
_cell_length_a   9.45761400
_cell_length_b   9.45761488
_cell_length_c   9.71374500
_cell_angle_alpha   90.00000000
_cell_angle_beta   90.00000000
_cell_angle_gamma   119.99999692
_symmetry_Int_Tables_number   1
_chemical_formula_structural   Li2Dy15Y3(Cd3Ru)2
_chemical_formula_sum   'Li2 Dy15 Y3 Cd6 Ru2'
_cell_volume   752.45503710
_cell_formula_units_Z   1
loop_
 _symmetry_equiv_pos_site_id
 _symmetry_equiv_pos_as_xyz
  1  'x, y, z'
loop_
 _atom_site_type_symbol
 _atom_site_label
 _atom_site_symmetry_multiplicity
 _atom_site_fract_x
 _atom_site_fract_y
 _atom_site_fract_z
 _atom_site_occupancy
  Li  Li0  1  0.000000  0.000000  0.500020  1
  Li  Li1  1  0.000000  0.000000  0.999980  1
  Dy  Dy2  1  0.208191  0.791809  0.441210  1
  Dy  Dy3  1  0.208191  0.416384  0.441210  1
  Dy  Dy4  1  0.583616  0.791809  0.441210  1
  Dy  Dy5  1  0.791777  0.208223  0.558734  1
  Dy  Dy6  1  0.791777  0.583552  0.558734  1
  Dy  Dy7  1  0.416448  0.208223  0.558734  1
  Dy  Dy8  1  0.791777  0.208223  0.941266  1
  Dy  Dy9  1  0.791777  0.583552  0.941266  1
  Dy  Dy10  1  0.416448  0.208223  0.941266  1
  Dy  Dy11  1  0.208191  0.791809  0.058790  1
  Dy  Dy12  1  0.208191  0.416384  0.058790  1
  Dy  Dy13  1  0.583616  0.791809  0.058790  1
  Dy  Dy14  1  0.542415  0.457585  0.250000  1
  Dy  Dy15  1  0.542415  0.084831  0.250000  1
  Dy  Dy16  1  0.915169  0.457585  0.250000  1
  Y  Y17  1  0.457659  0.542341  0.750000  1
  Y  Y18  1  0.457659  0.915317  0.750000  1
  Y  Y19  1  0.084683  0.542341  0.750000  1
  Cd  Cd20  1  0.891610  0.108390  0.250000  1
  Cd  Cd21  1  0.891610  0.783221  0.250000  1
  Cd  Cd22  1  0.216779  0.108390  0.250000  1
  Cd  Cd23  1  0.108365  0.891635  0.750000  1
  Cd  Cd24  1  0.108365  0.216728  0.750000  1
  Cd  Cd25  1  0.783272  0.891635  0.750000  1
  Ru  Ru26  1  0.333333  0.666667  0.250000  1
  Ru  Ru27  1  0.666667  0.333333  0.750000  1
