# generated using pymatgen
data_YHo5(SnIr)6
_symmetry_space_group_name_H-M   'P 1'
_cell_length_a   7.46454162
_cell_length_b   7.47385628
_cell_length_c   7.92086200
_cell_angle_alpha   90.00000000
_cell_angle_beta   90.00000000
_cell_angle_gamma   119.95954901
_symmetry_Int_Tables_number   1
_chemical_formula_structural   YHo5(SnIr)6
_chemical_formula_sum   'Y1 Ho5 Sn6 Ir6'
_cell_volume   382.84928770
_cell_formula_units_Z   1
loop_
 _symmetry_equiv_pos_site_id
 _symmetry_equiv_pos_as_xyz
  1  'x, y, z'
loop_
 _atom_site_type_symbol
 _atom_site_label
 _atom_site_symmetry_multiplicity
 _atom_site_fract_x
 _atom_site_fract_y
 _atom_site_fract_z
 _atom_site_occupancy
  Y  Y0  1  0.404279  0.999405  0.750000  1
  Ho  Ho1  1  0.405042  0.000505  0.250000  1
  Ho  Ho2  1  0.595025  0.594498  0.750000  1
  Ho  Ho3  1  0.595245  0.595648  0.250000  1
  Ho  Ho4  1  0.998939  0.404086  0.250000  1
  Ho  Ho5  1  0.001647  0.405921  0.750000  1
  Sn  Sn6  1  0.259343  0.259539  0.499296  1
  Sn  Sn7  1  0.259343  0.259539  0.000704  1
  Sn  Sn8  1  0.741179  0.000102  0.999405  1
  Sn  Sn9  1  0.999468  0.740341  0.499335  1
  Sn  Sn10  1  0.741179  0.000102  0.500595  1
  Sn  Sn11  1  0.999468  0.740341  0.000665  1
  Ir  Ir12  1  0.667150  0.333704  0.499668  1
  Ir  Ir13  1  0.667150  0.333704  0.000332  1
  Ir  Ir14  1  0.333277  0.666272  0.002020  1
  Ir  Ir15  1  0.333277  0.666272  0.497980  1
  Ir  Ir16  1  0.999659  0.000004  0.750000  1
  Ir  Ir17  1  0.999330  0.000013  0.250000  1
