# generated using pymatgen
data_SmDy3(TcB2)6
_symmetry_space_group_name_H-M   'P 1'
_cell_length_a   6.21404963
_cell_length_b   6.20251232
_cell_length_c   7.52029742
_cell_angle_alpha   89.15124293
_cell_angle_beta   89.52726596
_cell_angle_gamma   113.87924218
_symmetry_Int_Tables_number   1
_chemical_formula_structural   SmDy3(TcB2)6
_chemical_formula_sum   'Sm1 Dy3 Tc6 B12'
_cell_volume   264.98025966
_cell_formula_units_Z   1
loop_
 _symmetry_equiv_pos_site_id
 _symmetry_equiv_pos_as_xyz
  1  'x, y, z'
loop_
 _atom_site_type_symbol
 _atom_site_label
 _atom_site_symmetry_multiplicity
 _atom_site_fract_x
 _atom_site_fract_y
 _atom_site_fract_z
 _atom_site_occupancy
  Sm  Sm0  1  0.095389  0.439576  0.674916  1
  Dy  Dy1  1  0.441970  0.100213  0.177074  1
  Dy  Dy2  1  0.899835  0.559607  0.321820  1
  Dy  Dy3  1  0.558372  0.899578  0.822926  1
  Tc  Tc4  1  0.804804  0.989800  0.410402  1
  Tc  Tc5  1  0.010020  0.194893  0.089609  1
  Tc  Tc6  1  0.196655  0.009246  0.588335  1
  Tc  Tc7  1  0.989584  0.805805  0.911068  1
  Tc  Tc8  1  0.412092  0.588656  0.249932  1
  Tc  Tc9  1  0.586484  0.411480  0.751068  1
  B  B10  1  0.152897  0.243494  0.368135  1
  B  B11  1  0.753271  0.848455  0.129269  1
  B  B12  1  0.848085  0.755888  0.629887  1
  B  B13  1  0.247739  0.150751  0.871711  1
  B  B14  1  0.158658  0.585879  0.019995  1
  B  B15  1  0.416228  0.842270  0.480710  1
  B  B16  1  0.840376  0.415614  0.984123  1
  B  B17  1  0.586347  0.159153  0.518006  1
  B  B18  1  0.350401  0.442706  0.966624  1
  B  B19  1  0.557769  0.649597  0.534190  1
  B  B20  1  0.649154  0.556998  0.035127  1
  B  B21  1  0.443869  0.350341  0.465071  1
