# generated using pymatgen
data_Hf3CoSn3Rh2
_symmetry_space_group_name_H-M   'P 1'
_cell_length_a   7.33705000
_cell_length_b   7.33705114
_cell_length_c   7.12956200
_cell_angle_alpha   90.00000000
_cell_angle_beta   90.00000000
_cell_angle_gamma   119.99999488
_symmetry_Int_Tables_number   1
_chemical_formula_structural   Hf3CoSn3Rh2
_chemical_formula_sum   'Hf6 Co2 Sn6 Rh4'
_cell_volume   332.38125918
_cell_formula_units_Z   2
loop_
 _symmetry_equiv_pos_site_id
 _symmetry_equiv_pos_as_xyz
  1  'x, y, z'
loop_
 _atom_site_type_symbol
 _atom_site_label
 _atom_site_symmetry_multiplicity
 _atom_site_fract_x
 _atom_site_fract_y
 _atom_site_fract_z
 _atom_site_occupancy
  Hf  Hf0  1  0.014720  0.401125  0.750000  1
  Hf  Hf1  1  0.598875  0.613596  0.750000  1
  Hf  Hf2  1  0.386404  0.985280  0.750000  1
  Hf  Hf3  1  0.985280  0.386404  0.250000  1
  Hf  Hf4  1  0.613596  0.598875  0.250000  1
  Hf  Hf5  1  0.401125  0.014720  0.250000  1
  Co  Co6  1  0.000000  0.000000  0.750000  1
  Co  Co7  1  0.000000  0.000000  0.250000  1
  Sn  Sn8  1  0.261279  0.261279  0.500000  1
  Sn  Sn9  1  0.000000  0.738721  0.500000  1
  Sn  Sn10  1  0.000000  0.738721  0.000000  1
  Sn  Sn11  1  0.738721  0.000000  0.500000  1
  Sn  Sn12  1  0.738721  0.000000  0.000000  1
  Sn  Sn13  1  0.261279  0.261279  0.000000  1
  Rh  Rh14  1  0.333333  0.666667  0.467955  1
  Rh  Rh15  1  0.666667  0.333333  0.532045  1
  Rh  Rh16  1  0.333333  0.666667  0.032045  1
  Rh  Rh17  1  0.666667  0.333333  0.967955  1
