# generated using pymatgen
data_La2NdDy3Ta2O14
_symmetry_space_group_name_H-M   'P 1'
_cell_length_a   6.57781861
_cell_length_b   6.57011317
_cell_length_c   7.66427300
_cell_angle_alpha   90.00000000
_cell_angle_beta   90.00000000
_cell_angle_gamma   108.90824807
_symmetry_Int_Tables_number   1
_chemical_formula_structural   La2NdDy3Ta2O14
_chemical_formula_sum   'La2 Nd1 Dy3 Ta2 O14'
_cell_volume   313.35355116
_cell_formula_units_Z   1
loop_
 _symmetry_equiv_pos_site_id
 _symmetry_equiv_pos_as_xyz
  1  'x, y, z'
loop_
 _atom_site_type_symbol
 _atom_site_label
 _atom_site_symmetry_multiplicity
 _atom_site_fract_x
 _atom_site_fract_y
 _atom_site_fract_z
 _atom_site_occupancy
  La  La0  1  0.507184  0.507234  0.501754  1
  La  La1  1  0.507184  0.507234  0.998246  1
  Nd  Nd2  1  0.465591  0.002182  0.250000  1
  Dy  Dy3  1  0.002292  0.531745  0.250000  1
  Dy  Dy4  1  0.999906  0.466625  0.750000  1
  Dy  Dy5  1  0.533410  0.001056  0.750000  1
  Ta  Ta6  1  0.000891  0.000550  0.502070  1
  Ta  Ta7  1  0.000891  0.000550  0.997930  1
  O  O8  1  0.940037  0.066976  0.750000  1
  O  O9  1  0.057119  0.938479  0.250000  1
  O  O10  1  0.356276  0.634742  0.250000  1
  O  O11  1  0.646345  0.356171  0.750000  1
  O  O12  1  0.361906  0.636647  0.750000  1
  O  O13  1  0.643474  0.375390  0.250000  1
  O  O14  1  0.313921  0.066566  0.961940  1
  O  O15  1  0.678974  0.925086  0.477699  1
  O  O16  1  0.313921  0.066566  0.538060  1
  O  O17  1  0.678974  0.925086  0.022301  1
  O  O18  1  0.057256  0.312846  0.464861  1
  O  O19  1  0.938595  0.682711  0.966995  1
  O  O20  1  0.938595  0.682711  0.533005  1
  O  O21  1  0.057256  0.312846  0.035139  1
