# generated using pymatgen
data_Dy5IrPt2
_symmetry_space_group_name_H-M   'P 1'
_cell_length_a   11.06740100
_cell_length_b   11.06740100
_cell_length_c   6.34889900
_cell_angle_alpha   90.00000000
_cell_angle_beta   90.00000000
_cell_angle_gamma   90.00000000
_symmetry_Int_Tables_number   1
_chemical_formula_structural   Dy5IrPt2
_chemical_formula_sum   'Dy20 Ir4 Pt8'
_cell_volume   777.65990849
_cell_formula_units_Z   4
loop_
 _symmetry_equiv_pos_site_id
 _symmetry_equiv_pos_as_xyz
  1  'x, y, z'
loop_
 _atom_site_type_symbol
 _atom_site_label
 _atom_site_symmetry_multiplicity
 _atom_site_fract_x
 _atom_site_fract_y
 _atom_site_fract_z
 _atom_site_occupancy
  Dy  Dy0  1  0.294730  0.087586  0.376205  1
  Dy  Dy1  1  0.294730  0.912414  0.876205  1
  Dy  Dy2  1  0.705270  0.087586  0.876205  1
  Dy  Dy3  1  0.705270  0.912414  0.376205  1
  Dy  Dy4  1  0.587586  0.794730  0.876205  1
  Dy  Dy5  1  0.587586  0.205270  0.376205  1
  Dy  Dy6  1  0.412414  0.794730  0.376205  1
  Dy  Dy7  1  0.412414  0.205270  0.876205  1
  Dy  Dy8  1  0.205270  0.412414  0.623795  1
  Dy  Dy9  1  0.205270  0.587586  0.123795  1
  Dy  Dy10  1  0.794730  0.412414  0.123795  1
  Dy  Dy11  1  0.794730  0.587586  0.623795  1
  Dy  Dy12  1  0.912414  0.705270  0.123795  1
  Dy  Dy13  1  0.912414  0.294730  0.623795  1
  Dy  Dy14  1  0.087586  0.705270  0.623795  1
  Dy  Dy15  1  0.087586  0.294730  0.123795  1
  Dy  Dy16  1  0.000000  0.000000  0.500000  1
  Dy  Dy17  1  0.000000  0.000000  0.000000  1
  Dy  Dy18  1  0.500000  0.500000  0.000000  1
  Dy  Dy19  1  0.500000  0.500000  0.500000  1
  Ir  Ir20  1  0.500000  0.000000  0.122048  1
  Ir  Ir21  1  0.500000  0.000000  0.622048  1
  Ir  Ir22  1  0.000000  0.500000  0.877952  1
  Ir  Ir23  1  0.000000  0.500000  0.377952  1
  Pt  Pt24  1  0.846428  0.153572  0.250000  1
  Pt  Pt25  1  0.846428  0.846428  0.750000  1
  Pt  Pt26  1  0.153572  0.153572  0.750000  1
  Pt  Pt27  1  0.153572  0.846428  0.250000  1
  Pt  Pt28  1  0.653572  0.346428  0.750000  1
  Pt  Pt29  1  0.653572  0.653572  0.250000  1
  Pt  Pt30  1  0.346428  0.346428  0.250000  1
  Pt  Pt31  1  0.346428  0.653572  0.750000  1
