# generated using pymatgen
data_PrSc(Si7Ir3)2
_symmetry_space_group_name_H-M   'P 1'
_cell_length_a   8.05726552
_cell_length_b   8.05726541
_cell_length_c   8.05726619
_cell_angle_alpha   56.50224317
_cell_angle_beta   56.50224139
_cell_angle_gamma   56.50224219
_symmetry_Int_Tables_number   1
_chemical_formula_structural   PrSc(Si7Ir3)2
_chemical_formula_sum   'Pr1 Sc1 Si14 Ir6'
_cell_volume   339.96711360
_cell_formula_units_Z   1
loop_
 _symmetry_equiv_pos_site_id
 _symmetry_equiv_pos_as_xyz
  1  'x, y, z'
loop_
 _atom_site_type_symbol
 _atom_site_label
 _atom_site_symmetry_multiplicity
 _atom_site_fract_x
 _atom_site_fract_y
 _atom_site_fract_z
 _atom_site_occupancy
  Pr  Pr0  1  0.500000  0.500000  0.500000  1
  Sc  Sc1  1  0.000000  0.000000  0.000000  1
  Si  Si2  1  0.749466  0.749466  0.749466  1
  Si  Si3  1  0.250534  0.250534  0.250534  1
  Si  Si4  1  0.852461  0.061571  0.674550  1
  Si  Si5  1  0.674550  0.852461  0.061571  1
  Si  Si6  1  0.061571  0.674550  0.852461  1
  Si  Si7  1  0.651856  0.828600  0.433605  1
  Si  Si8  1  0.433605  0.651856  0.828600  1
  Si  Si9  1  0.828600  0.433605  0.651856  1
  Si  Si10  1  0.171400  0.566395  0.348144  1
  Si  Si11  1  0.566395  0.348144  0.171400  1
  Si  Si12  1  0.348144  0.171400  0.566395  1
  Si  Si13  1  0.938429  0.325450  0.147539  1
  Si  Si14  1  0.325450  0.147539  0.938429  1
  Si  Si15  1  0.147539  0.938429  0.325450  1
  Ir  Ir16  1  0.067126  0.426143  0.754294  1
  Ir  Ir17  1  0.245706  0.932874  0.573857  1
  Ir  Ir18  1  0.573857  0.245706  0.932874  1
  Ir  Ir19  1  0.932874  0.573857  0.245706  1
  Ir  Ir20  1  0.426143  0.754294  0.067126  1
  Ir  Ir21  1  0.754294  0.067126  0.426143  1
