# generated using pymatgen
data_Hf5(Re5Tc3)3
_symmetry_space_group_name_H-M   'P 1'
_cell_length_a   8.46280802
_cell_length_b   8.46280787
_cell_length_c   8.46280666
_cell_angle_alpha   109.52411783
_cell_angle_beta   109.52412552
_cell_angle_gamma   109.52410714
_symmetry_Int_Tables_number   1
_chemical_formula_structural   Hf5(Re5Tc3)3
_chemical_formula_sum   'Hf5 Re15 Tc9'
_cell_volume   465.65904024
_cell_formula_units_Z   1
loop_
 _symmetry_equiv_pos_site_id
 _symmetry_equiv_pos_as_xyz
  1  'x, y, z'
loop_
 _atom_site_type_symbol
 _atom_site_label
 _atom_site_symmetry_multiplicity
 _atom_site_fract_x
 _atom_site_fract_y
 _atom_site_fract_z
 _atom_site_occupancy
  Hf  Hf0  1  0.999075  0.999075  0.999075  1
  Hf  Hf1  1  0.625609  0.999690  0.999690  1
  Hf  Hf2  1  0.999690  0.625609  0.999690  1
  Hf  Hf3  1  0.999690  0.999690  0.625609  1
  Hf  Hf4  1  0.372485  0.372485  0.372485  1
  Re  Re5  1  0.604333  0.604333  0.279127  1
  Re  Re6  1  0.279127  0.604333  0.604333  1
  Re  Re7  1  0.604333  0.279127  0.604333  1
  Re  Re8  1  0.376139  0.194897  0.000908  1
  Re  Re9  1  0.180237  0.806077  0.806077  1
  Re  Re10  1  0.376139  0.000908  0.194897  1
  Re  Re11  1  0.194897  0.376139  0.000908  1
  Re  Re12  1  0.000908  0.376139  0.194897  1
  Re  Re13  1  0.806077  0.180237  0.806077  1
  Re  Re14  1  0.806077  0.806077  0.180237  1
  Re  Re15  1  0.000908  0.194897  0.376139  1
  Re  Re16  1  0.194897  0.000908  0.376139  1
  Re  Re17  1  0.623074  0.623074  0.816519  1
  Re  Re18  1  0.816519  0.623074  0.623074  1
  Re  Re19  1  0.623074  0.816519  0.623074  1
  Tc  Tc20  1  0.396410  0.677512  0.001072  1
  Tc  Tc21  1  0.720596  0.323063  0.323063  1
  Tc  Tc22  1  0.396410  0.001072  0.677512  1
  Tc  Tc23  1  0.677512  0.396410  0.001072  1
  Tc  Tc24  1  0.001072  0.396410  0.677512  1
  Tc  Tc25  1  0.323063  0.720596  0.323063  1
  Tc  Tc26  1  0.323063  0.323063  0.720596  1
  Tc  Tc27  1  0.001072  0.677512  0.396410  1
  Tc  Tc28  1  0.677512  0.001072  0.396410  1
