# generated using pymatgen
data_CeY9Ir5Ru
_symmetry_space_group_name_H-M   'P 1'
_cell_length_a   10.91445574
_cell_length_b   10.96381200
_cell_length_c   6.39585428
_cell_angle_alpha   90.00000000
_cell_angle_beta   89.54477728
_cell_angle_gamma   90.00000000
_symmetry_Int_Tables_number   1
_chemical_formula_structural   CeY9Ir5Ru
_chemical_formula_sum   'Ce2 Y18 Ir10 Ru2'
_cell_volume   765.32961164
_cell_formula_units_Z   2
loop_
 _symmetry_equiv_pos_site_id
 _symmetry_equiv_pos_as_xyz
  1  'x, y, z'
loop_
 _atom_site_type_symbol
 _atom_site_label
 _atom_site_symmetry_multiplicity
 _atom_site_fract_x
 _atom_site_fract_y
 _atom_site_fract_z
 _atom_site_occupancy
  Ce  Ce0  1  0.298061  0.087548  0.385042  1
  Ce  Ce1  1  0.298061  0.912452  0.885042  1
  Y  Y2  1  0.704677  0.086857  0.882994  1
  Y  Y3  1  0.704677  0.913143  0.382994  1
  Y  Y4  1  0.590898  0.791599  0.881314  1
  Y  Y5  1  0.590898  0.208401  0.381314  1
  Y  Y6  1  0.413523  0.786258  0.380332  1
  Y  Y7  1  0.413523  0.213742  0.880332  1
  Y  Y8  1  0.208194  0.412812  0.620598  1
  Y  Y9  1  0.208194  0.587188  0.120598  1
  Y  Y10  1  0.792436  0.411962  0.120361  1
  Y  Y11  1  0.792436  0.588038  0.620361  1
  Y  Y12  1  0.911273  0.710293  0.119315  1
  Y  Y13  1  0.911273  0.289707  0.619315  1
  Y  Y14  1  0.089222  0.709661  0.618589  1
  Y  Y15  1  0.089222  0.290339  0.118589  1
  Y  Y16  1  0.998800  0.998624  0.492987  1
  Y  Y17  1  0.998800  0.001376  0.992987  1
  Y  Y18  1  0.501776  0.500654  0.003275  1
  Y  Y19  1  0.501776  0.499346  0.503275  1
  Ir  Ir20  1  0.845874  0.153248  0.247072  1
  Ir  Ir21  1  0.845874  0.846752  0.747072  1
  Ir  Ir22  1  0.156619  0.152623  0.737990  1
  Ir  Ir23  1  0.156619  0.847377  0.237990  1
  Ir  Ir24  1  0.654763  0.346735  0.749909  1
  Ir  Ir25  1  0.654763  0.653265  0.249909  1
  Ir  Ir26  1  0.347637  0.345925  0.254284  1
  Ir  Ir27  1  0.347637  0.654075  0.754284  1
  Ir  Ir28  1  0.000117  0.499622  0.874189  1
  Ir  Ir29  1  0.000117  0.500378  0.374189  1
  Ru  Ru30  1  0.486129  0.002390  0.131752  1
  Ru  Ru31  1  0.486129  0.997610  0.631752  1
