# generated using pymatgen
data_Y4Er6(SnSb)3
_symmetry_space_group_name_H-M   'P 1'
_cell_length_a   6.38386600
_cell_length_b   8.94832175
_cell_length_c   8.93959200
_cell_angle_alpha   119.96763580
_cell_angle_beta   90.00021410
_cell_angle_gamma   89.99953357
_symmetry_Int_Tables_number   1
_chemical_formula_structural   Y4Er6(SnSb)3
_chemical_formula_sum   'Y4 Er6 Sn3 Sb3'
_cell_volume   442.40010839
_cell_formula_units_Z   1
loop_
 _symmetry_equiv_pos_site_id
 _symmetry_equiv_pos_as_xyz
  1  'x, y, z'
loop_
 _atom_site_type_symbol
 _atom_site_label
 _atom_site_symmetry_multiplicity
 _atom_site_fract_x
 _atom_site_fract_y
 _atom_site_fract_z
 _atom_site_occupancy
  Y  Y0  1  0.750007  0.000006  0.241175  1
  Y  Y1  1  0.249999  0.757024  0.999710  1
  Y  Y2  1  0.249989  0.242949  0.242661  1
  Y  Y3  1  0.249998  0.000000  0.757507  1
  Er  Er4  1  0.501113  0.333290  0.666718  1
  Er  Er5  1  0.501100  0.666707  0.333419  1
  Er  Er6  1  0.998910  0.666712  0.333418  1
  Er  Er7  1  0.998881  0.333295  0.666717  1
  Er  Er8  1  0.749994  0.241495  0.999926  1
  Er  Er9  1  0.750013  0.758533  0.758447  1
  Sn  Sn10  1  0.750001  0.606236  0.999412  1
  Sn  Sn11  1  0.750005  0.393772  0.393181  1
  Sn  Sn12  1  0.749999  0.000001  0.607594  1
  Sb  Sb13  1  0.249994  0.391719  0.000028  1
  Sb  Sb14  1  0.249998  0.608268  0.608306  1
  Sb  Sb15  1  0.250001  0.999992  0.391781  1
