# generated using pymatgen
data_HoTmV2F14
_symmetry_space_group_name_H-M   'P 1'
_cell_length_a   5.44782400
_cell_length_b   8.73075358
_cell_length_c   11.72248164
_cell_angle_alpha   63.42112487
_cell_angle_beta   90.00000000
_cell_angle_gamma   90.00000000
_symmetry_Int_Tables_number   1
_chemical_formula_structural   HoTmV2F14
_chemical_formula_sum   'Ho2 Tm2 V4 F28'
_cell_volume   498.63980767
_cell_formula_units_Z   2
loop_
 _symmetry_equiv_pos_site_id
 _symmetry_equiv_pos_as_xyz
  1  'x, y, z'
loop_
 _atom_site_type_symbol
 _atom_site_label
 _atom_site_symmetry_multiplicity
 _atom_site_fract_x
 _atom_site_fract_y
 _atom_site_fract_z
 _atom_site_occupancy
  Ho  Ho0  1  0.241525  0.191745  0.230672  1
  Ho  Ho1  1  0.741525  0.808255  0.269328  1
  Tm  Tm2  1  0.758348  0.809805  0.769015  1
  Tm  Tm3  1  0.258348  0.190195  0.730985  1
  V  V4  1  0.756065  0.274136  0.954031  1
  V  V5  1  0.256065  0.725864  0.545969  1
  V  V6  1  0.244360  0.727492  0.043184  1
  V  V7  1  0.744360  0.272508  0.456816  1
  F  F8  1  0.444472  0.706295  0.919223  1
  F  F9  1  0.944472  0.293705  0.580777  1
  F  F10  1  0.557946  0.294829  0.078689  1
  F  F11  1  0.057946  0.705171  0.421311  1
  F  F12  1  0.451279  0.278078  0.546093  1
  F  F13  1  0.951279  0.721922  0.953907  1
  F  F14  1  0.547874  0.720277  0.456689  1
  F  F15  1  0.047874  0.279723  0.043311  1
  F  F16  1  0.773074  0.509195  0.862810  1
  F  F17  1  0.273074  0.490805  0.637190  1
  F  F18  1  0.226005  0.492624  0.135460  1
  F  F19  1  0.726005  0.507376  0.364540  1
  F  F20  1  0.756727  0.041231  0.045198  1
  F  F21  1  0.256727  0.958769  0.454802  1
  F  F22  1  0.243139  0.960283  0.952961  1
  F  F23  1  0.743139  0.039717  0.547039  1
  F  F24  1  0.973803  0.729984  0.640226  1
  F  F25  1  0.473803  0.270016  0.859774  1
  F  F26  1  0.025927  0.271043  0.362032  1
  F  F27  1  0.525927  0.728957  0.137968  1
  F  F28  1  0.047075  0.747116  0.171000  1
  F  F29  1  0.547075  0.252884  0.329000  1
  F  F30  1  0.955995  0.252379  0.827413  1
  F  F31  1  0.455995  0.747621  0.672587  1
  F  F32  1  0.416530  0.971303  0.229905  1
  F  F33  1  0.916530  0.028697  0.270095  1
  F  F34  1  0.579857  0.027081  0.769224  1
  F  F35  1  0.079857  0.972919  0.730776  1
