# generated using pymatgen
data_Ho4TmBiAu2
_symmetry_space_group_name_H-M   'P 1'
_cell_length_a   8.67602662
_cell_length_b   8.67602670
_cell_length_c   8.67602632
_cell_angle_alpha   124.20438367
_cell_angle_beta   124.20438367
_cell_angle_gamma   82.86004909
_symmetry_Int_Tables_number   1
_chemical_formula_structural   Ho4TmBiAu2
_chemical_formula_sum   'Ho8 Tm2 Bi2 Au4'
_cell_volume   428.79144399
_cell_formula_units_Z   2
loop_
 _symmetry_equiv_pos_site_id
 _symmetry_equiv_pos_as_xyz
  1  'x, y, z'
loop_
 _atom_site_type_symbol
 _atom_site_label
 _atom_site_symmetry_multiplicity
 _atom_site_fract_x
 _atom_site_fract_y
 _atom_site_fract_z
 _atom_site_occupancy
  Ho  Ho0  1  0.014819  0.514819  0.809798  1
  Ho  Ho1  1  0.705021  0.205021  0.190202  1
  Ho  Ho2  1  0.514819  0.705021  0.500000  1
  Ho  Ho3  1  0.205021  0.014819  0.500000  1
  Ho  Ho4  1  0.985181  0.485181  0.190202  1
  Ho  Ho5  1  0.294979  0.794979  0.809798  1
  Ho  Ho6  1  0.485181  0.294979  0.500000  1
  Ho  Ho7  1  0.794979  0.985181  0.500000  1
  Tm  Tm8  1  0.000000  0.000000  0.000000  1
  Tm  Tm9  1  0.500000  0.500000  0.000000  1
  Bi  Bi10  1  0.750000  0.750000  0.000000  1
  Bi  Bi11  1  0.250000  0.250000  0.000000  1
  Au  Au12  1  0.638223  0.138223  0.776444  1
  Au  Au13  1  0.361777  0.861777  0.223556  1
  Au  Au14  1  0.138223  0.361777  0.500000  1
  Au  Au15  1  0.861777  0.638223  0.500000  1
