# generated using pymatgen
data_Hf6Al8Zn(Si4Ru3)2
_symmetry_space_group_name_H-M   'P 1'
_cell_length_a   8.59066241
_cell_length_b   8.59066120
_cell_length_c   8.59066000
_cell_angle_alpha   59.99999693
_cell_angle_beta   60.00000158
_cell_angle_gamma   59.99999418
_symmetry_Int_Tables_number   1
_chemical_formula_structural   Hf6Al8Zn(Si4Ru3)2
_chemical_formula_sum   'Hf6 Al8 Zn1 Si8 Ru6'
_cell_volume   448.29588613
_cell_formula_units_Z   1
loop_
 _symmetry_equiv_pos_site_id
 _symmetry_equiv_pos_as_xyz
  1  'x, y, z'
loop_
 _atom_site_type_symbol
 _atom_site_label
 _atom_site_symmetry_multiplicity
 _atom_site_fract_x
 _atom_site_fract_y
 _atom_site_fract_z
 _atom_site_occupancy
  Hf  Hf0  1  0.689543  0.310456  0.310456  1
  Hf  Hf1  1  0.310456  0.689543  0.689543  1
  Hf  Hf2  1  0.310456  0.689543  0.310456  1
  Hf  Hf3  1  0.310456  0.310456  0.689543  1
  Hf  Hf4  1  0.689543  0.310456  0.689543  1
  Hf  Hf5  1  0.689543  0.689543  0.310456  1
  Al  Al6  1  0.124411  0.124411  0.124411  1
  Al  Al7  1  0.124411  0.124411  0.626767  1
  Al  Al8  1  0.626767  0.124411  0.124411  1
  Al  Al9  1  0.124411  0.626767  0.124411  1
  Al  Al10  1  0.875588  0.875588  0.875588  1
  Al  Al11  1  0.875588  0.875588  0.373236  1
  Al  Al12  1  0.875588  0.373236  0.875588  1
  Al  Al13  1  0.373236  0.875588  0.875588  1
  Zn  Zn14  1  0.000000  0.000000  0.000000  1
  Si  Si15  1  0.344708  0.344708  0.344708  1
  Si  Si16  1  0.344708  0.344708  0.965875  1
  Si  Si17  1  0.965875  0.344708  0.344708  1
  Si  Si18  1  0.344708  0.965875  0.344708  1
  Si  Si19  1  0.655292  0.655292  0.655292  1
  Si  Si20  1  0.655292  0.655292  0.034125  1
  Si  Si21  1  0.655292  0.034125  0.655292  1
  Si  Si22  1  0.034125  0.655292  0.655292  1
  Ru  Ru23  1  0.500000  0.000000  0.000000  1
  Ru  Ru24  1  0.000000  0.500000  0.500000  1
  Ru  Ru25  1  0.000000  0.500000  0.000000  1
  Ru  Ru26  1  0.000000  0.000000  0.500000  1
  Ru  Ru27  1  0.500000  0.000000  0.500000  1
  Ru  Ru28  1  0.500000  0.500000  0.000000  1
