# generated using pymatgen
data_Sc22TcIr2Os5
_symmetry_space_group_name_H-M   'P 1'
_cell_length_a   9.47510755
_cell_length_b   9.46967116
_cell_length_c   9.47514154
_cell_angle_alpha   60.01975140
_cell_angle_beta   59.96241995
_cell_angle_gamma   60.01953881
_symmetry_Int_Tables_number   1
_chemical_formula_structural   Sc22TcIr2Os5
_chemical_formula_sum   'Sc22 Tc1 Ir2 Os5'
_cell_volume   601.16692569
_cell_formula_units_Z   1
loop_
 _symmetry_equiv_pos_site_id
 _symmetry_equiv_pos_as_xyz
  1  'x, y, z'
loop_
 _atom_site_type_symbol
 _atom_site_label
 _atom_site_symmetry_multiplicity
 _atom_site_fract_x
 _atom_site_fract_y
 _atom_site_fract_z
 _atom_site_occupancy
  Sc  Sc0  1  0.802470  0.802471  0.197538  1
  Sc  Sc1  1  0.197730  0.802264  0.197730  1
  Sc  Sc2  1  0.802464  0.197527  0.197531  1
  Sc  Sc3  1  0.197530  0.197529  0.802462  1
  Sc  Sc4  1  0.802270  0.197736  0.802270  1
  Sc  Sc5  1  0.197536  0.802473  0.802469  1
  Sc  Sc6  1  0.614979  0.617746  0.149517  1
  Sc  Sc7  1  0.617750  0.149515  0.617746  1
  Sc  Sc8  1  0.149516  0.617750  0.614978  1
  Sc  Sc9  1  0.617752  0.614984  0.617755  1
  Sc  Sc10  1  0.385021  0.382254  0.850483  1
  Sc  Sc11  1  0.382250  0.850485  0.382254  1
  Sc  Sc12  1  0.850484  0.382250  0.385022  1
  Sc  Sc13  1  0.382248  0.385016  0.382245  1
  Sc  Sc14  1  0.844485  0.843263  0.468979  1
  Sc  Sc15  1  0.843259  0.468979  0.843262  1
  Sc  Sc16  1  0.468975  0.843263  0.844483  1
  Sc  Sc17  1  0.843267  0.844489  0.843260  1
  Sc  Sc18  1  0.155515  0.156737  0.531021  1
  Sc  Sc19  1  0.156741  0.531021  0.156738  1
  Sc  Sc20  1  0.531025  0.156737  0.155517  1
  Sc  Sc21  1  0.156733  0.155511  0.156740  1
  Tc  Tc22  1  0.000000  0.000000  0.000000  1
  Ir  Ir23  1  0.500000  0.000000  0.500000  1
  Ir  Ir24  1  0.000000  0.500000  0.000000  1
  Os  Os25  1  0.500000  0.500000  0.500000  1
  Os  Os26  1  0.000000  0.000000  0.500000  1
  Os  Os27  1  0.000000  0.500000  0.500000  1
  Os  Os28  1  0.500000  0.500000  0.000000  1
  Os  Os29  1  0.500000  0.000000  0.000000  1
