# generated using pymatgen
data_Hf3Zr(MnAs)4
_symmetry_space_group_name_H-M   'P 1'
_cell_length_a   6.60262128
_cell_length_b   3.72821100
_cell_length_c   7.72110233
_cell_angle_alpha   90.00000000
_cell_angle_beta   89.96657407
_cell_angle_gamma   90.00000000
_symmetry_Int_Tables_number   1
_chemical_formula_structural   Hf3Zr(MnAs)4
_chemical_formula_sum   'Hf3 Zr1 Mn4 As4'
_cell_volume   190.06235456
_cell_formula_units_Z   1
loop_
 _symmetry_equiv_pos_site_id
 _symmetry_equiv_pos_as_xyz
  1  'x, y, z'
loop_
 _atom_site_type_symbol
 _atom_site_label
 _atom_site_symmetry_multiplicity
 _atom_site_fract_x
 _atom_site_fract_y
 _atom_site_fract_z
 _atom_site_occupancy
  Hf  Hf0  1  0.036473  0.250000  0.176626  1
  Hf  Hf1  1  0.535647  0.250000  0.324060  1
  Hf  Hf2  1  0.463800  0.750001  0.675380  1
  Zr  Zr3  1  0.964081  0.750001  0.824225  1
  Mn  Mn4  1  0.366558  0.750001  0.060867  1
  Mn  Mn5  1  0.865428  0.750001  0.438757  1
  Mn  Mn6  1  0.134184  0.250000  0.559311  1
  Mn  Mn7  1  0.633099  0.250000  0.940557  1
  As  As8  1  0.739297  0.750001  0.130695  1
  As  As9  1  0.239221  0.750001  0.370290  1
  As  As10  1  0.759461  0.250000  0.628457  1
  As  As11  1  0.262748  0.250000  0.870778  1
