# generated using pymatgen
data_Ba4La7SmS16
_symmetry_space_group_name_H-M   'P 1'
_cell_length_a   4.19417200
_cell_length_b   12.42288469
_cell_length_c   14.96110600
_cell_angle_alpha   89.89049447
_cell_angle_beta   90.00000000
_cell_angle_gamma   90.00000000
_symmetry_Int_Tables_number   1
_chemical_formula_structural   Ba4La7SmS16
_chemical_formula_sum   'Ba4 La7 Sm1 S16'
_cell_volume   779.52778121
_cell_formula_units_Z   1
loop_
 _symmetry_equiv_pos_site_id
 _symmetry_equiv_pos_as_xyz
  1  'x, y, z'
loop_
 _atom_site_type_symbol
 _atom_site_label
 _atom_site_symmetry_multiplicity
 _atom_site_fract_x
 _atom_site_fract_y
 _atom_site_fract_z
 _atom_site_occupancy
  Ba  Ba0  1  0.250000  0.754685  0.341927  1
  Ba  Ba1  1  0.250000  0.254520  0.160800  1
  Ba  Ba2  1  0.750000  0.243497  0.656279  1
  Ba  Ba3  1  0.750000  0.745526  0.840885  1
  La  La4  1  0.250000  0.421372  0.392823  1
  La  La5  1  0.250000  0.925939  0.110227  1
  La  La6  1  0.750000  0.575417  0.609104  1
  La  La7  1  0.750000  0.075852  0.891287  1
  La  La8  1  0.250000  0.419314  0.896052  1
  La  La9  1  0.250000  0.922697  0.601609  1
  La  La10  1  0.750000  0.579740  0.104801  1
  Sm  Sm11  1  0.750000  0.078896  0.394651  1
  S  S12  1  0.250000  0.208679  0.819130  1
  S  S13  1  0.250000  0.710726  0.677900  1
  S  S14  1  0.750000  0.791404  0.180532  1
  S  S15  1  0.750000  0.286442  0.323200  1
  S  S16  1  0.250000  0.133851  0.517631  1
  S  S17  1  0.250000  0.632597  0.976990  1
  S  S18  1  0.750000  0.871289  0.473733  1
  S  S19  1  0.750000  0.366576  0.023919  1
  S  S20  1  0.250000  0.517455  0.218372  1
  S  S21  1  0.250000  0.021621  0.285493  1
  S  S22  1  0.750000  0.481248  0.783042  1
  S  S23  1  0.750000  0.981596  0.716272  1
  S  S24  1  0.250000  0.419384  0.581846  1
  S  S25  1  0.250000  0.920078  0.920477  1
  S  S26  1  0.750000  0.578777  0.419845  1
  S  S27  1  0.750000  0.080825  0.081171  1
