# generated using pymatgen
data_NbTcSe3S
_symmetry_space_group_name_H-M   'P 1'
_cell_length_a   3.32862600
_cell_length_b   5.74727633
_cell_length_c   7.40396128
_cell_angle_alpha   74.42725844
_cell_angle_beta   90.00000000
_cell_angle_gamma   90.00000000
_symmetry_Int_Tables_number   1
_chemical_formula_structural   NbTcSe3S
_chemical_formula_sum   'Nb1 Tc1 Se3 S1'
_cell_volume   136.44211706
_cell_formula_units_Z   1
loop_
 _symmetry_equiv_pos_site_id
 _symmetry_equiv_pos_as_xyz
  1  'x, y, z'
loop_
 _atom_site_type_symbol
 _atom_site_label
 _atom_site_symmetry_multiplicity
 _atom_site_fract_x
 _atom_site_fract_y
 _atom_site_fract_z
 _atom_site_occupancy
  Nb  Nb0  1  0.500000  0.493313  0.005910  1
  Tc  Tc1  1  0.000000  0.005801  0.004001  1
  Se  Se2  1  0.000000  0.408528  0.760596  1
  Se  Se3  1  0.500000  0.917170  0.773523  1
  Se  Se4  1  0.500000  0.759572  0.237132  1
  S  S5  1  0.000000  0.247612  0.222839  1
