# generated using pymatgen
data_Ac2MoO6
_symmetry_space_group_name_H-M   'P 1'
_cell_length_a   10.62359766
_cell_length_b   10.62359707
_cell_length_c   5.83013741
_cell_angle_alpha   75.39837673
_cell_angle_beta   75.39837946
_cell_angle_gamma   69.25041978
_symmetry_Int_Tables_number   1
_chemical_formula_structural   Ac2MoO6
_chemical_formula_sum   'Ac8 Mo4 O24'
_cell_volume   585.72883001
_cell_formula_units_Z   4
loop_
 _symmetry_equiv_pos_site_id
 _symmetry_equiv_pos_as_xyz
  1  'x, y, z'
loop_
 _atom_site_type_symbol
 _atom_site_label
 _atom_site_symmetry_multiplicity
 _atom_site_fract_x
 _atom_site_fract_y
 _atom_site_fract_z
 _atom_site_occupancy
  Ac  Ac0  1  0.628907  0.371093  0.750000  1
  Ac  Ac1  1  0.371093  0.628907  0.250000  1
  Ac  Ac2  1  0.113021  0.886979  0.750000  1
  Ac  Ac3  1  0.886979  0.113021  0.250000  1
  Ac  Ac4  1  0.708292  0.940019  0.885629  1
  Ac  Ac5  1  0.291708  0.059981  0.114371  1
  Ac  Ac6  1  0.059981  0.291708  0.614371  1
  Ac  Ac7  1  0.940019  0.708292  0.385629  1
  Mo  Mo8  1  0.505176  0.798490  0.557254  1
  Mo  Mo9  1  0.494824  0.201510  0.442746  1
  Mo  Mo10  1  0.201510  0.494824  0.942746  1
  Mo  Mo11  1  0.798490  0.505176  0.057254  1
  O  O12  1  0.678698  0.165724  0.583456  1
  O  O13  1  0.321302  0.834276  0.416544  1
  O  O14  1  0.834276  0.321302  0.916544  1
  O  O15  1  0.165724  0.678698  0.083456  1
  O  O16  1  0.389104  0.827481  0.848584  1
  O  O17  1  0.610896  0.172519  0.151416  1
  O  O18  1  0.172519  0.610896  0.651416  1
  O  O19  1  0.827481  0.389104  0.348584  1
  O  O20  1  0.667776  0.786409  0.632838  1
  O  O21  1  0.332224  0.213591  0.367162  1
  O  O22  1  0.213591  0.332224  0.867162  1
  O  O23  1  0.786409  0.667776  0.132838  1
  O  O24  1  0.473642  0.073925  0.721546  1
  O  O25  1  0.526358  0.926075  0.278454  1
  O  O26  1  0.926075  0.526358  0.778454  1
  O  O27  1  0.073925  0.473642  0.221546  1
  O  O28  1  0.543134  0.622171  0.520460  1
  O  O29  1  0.456866  0.377829  0.479540  1
  O  O30  1  0.377829  0.456866  0.979540  1
  O  O31  1  0.622171  0.543134  0.020460  1
  O  O32  1  0.893576  0.919242  0.077544  1
  O  O33  1  0.106424  0.080758  0.922456  1
  O  O34  1  0.080758  0.106424  0.422456  1
  O  O35  1  0.919242  0.893576  0.577544  1
