# generated using pymatgen
data_SrEr(PPd)2
_symmetry_space_group_name_H-M   'P 1'
_cell_length_a   4.12688000
_cell_length_b   8.18043517
_cell_length_c   7.29445628
_cell_angle_alpha   90.12062621
_cell_angle_beta   90.00000000
_cell_angle_gamma   90.00000000
_symmetry_Int_Tables_number   1
_chemical_formula_structural   SrEr(PPd)2
_chemical_formula_sum   'Sr2 Er2 P4 Pd4'
_cell_volume   246.25792248
_cell_formula_units_Z   2
loop_
 _symmetry_equiv_pos_site_id
 _symmetry_equiv_pos_as_xyz
  1  'x, y, z'
loop_
 _atom_site_type_symbol
 _atom_site_label
 _atom_site_symmetry_multiplicity
 _atom_site_fract_x
 _atom_site_fract_y
 _atom_site_fract_z
 _atom_site_occupancy
  Sr  Sr0  1  0.250000  0.500018  0.250108  1
  Sr  Sr1  1  0.750000  0.499982  0.749892  1
  Er  Er2  1  0.750000  0.000009  0.750105  1
  Er  Er3  1  0.250000  0.999991  0.249895  1
  P  P4  1  0.250000  0.776192  0.913835  1
  P  P5  1  0.750000  0.223808  0.086165  1
  P  P6  1  0.750000  0.776398  0.413750  1
  P  P7  1  0.250000  0.223602  0.586250  1
  Pd  Pd8  1  0.250000  0.771696  0.583608  1
  Pd  Pd9  1  0.750000  0.228304  0.416392  1
  Pd  Pd10  1  0.750000  0.771496  0.083751  1
  Pd  Pd11  1  0.250000  0.228503  0.916249  1
