# generated using pymatgen
data_TmHfAgS4
_symmetry_space_group_name_H-M   'P 1'
_cell_length_a   7.73809389
_cell_length_b   7.73809359
_cell_length_c   7.73809441
_cell_angle_alpha   118.86832959
_cell_angle_beta   121.19014111
_cell_angle_gamma   89.96114314
_symmetry_Int_Tables_number   1
_chemical_formula_structural   TmHfAgS4
_chemical_formula_sum   'Tm2 Hf2 Ag2 S8'
_cell_volume   327.31943896
_cell_formula_units_Z   2
loop_
 _symmetry_equiv_pos_site_id
 _symmetry_equiv_pos_as_xyz
  1  'x, y, z'
loop_
 _atom_site_type_symbol
 _atom_site_label
 _atom_site_symmetry_multiplicity
 _atom_site_fract_x
 _atom_site_fract_y
 _atom_site_fract_z
 _atom_site_occupancy
  Tm  Tm0  1  0.000000  0.000000  0.500000  1
  Tm  Tm1  1  0.000000  0.500000  0.000000  1
  Hf  Hf2  1  0.000000  0.000000  0.000000  1
  Hf  Hf3  1  0.500000  0.000000  0.500000  1
  Ag  Ag4  1  0.375234  0.625234  0.750000  1
  Ag  Ag5  1  0.624766  0.374766  0.250000  1
  S  S6  1  0.248220  0.775342  0.027121  1
  S  S7  1  0.751780  0.778901  0.527121  1
  S  S8  1  0.220517  0.231983  0.988534  1
  S  S9  1  0.743448  0.231983  0.511466  1
  S  S10  1  0.779483  0.768017  0.011466  1
  S  S11  1  0.256552  0.768017  0.488534  1
  S  S12  1  0.751780  0.224658  0.972879  1
  S  S13  1  0.248220  0.221099  0.472879  1
