# generated using pymatgen
data_Nb2Hg3F12
_symmetry_space_group_name_H-M   'P 1'
_cell_length_a   8.97760700
_cell_length_b   6.26220024
_cell_length_c   12.10072037
_cell_angle_alpha   86.01024119
_cell_angle_beta   90.00000000
_cell_angle_gamma   90.00000000
_symmetry_Int_Tables_number   1
_chemical_formula_structural   Nb2Hg3F12
_chemical_formula_sum   'Nb4 Hg6 F24'
_cell_volume   678.64863067
_cell_formula_units_Z   2
loop_
 _symmetry_equiv_pos_site_id
 _symmetry_equiv_pos_as_xyz
  1  'x, y, z'
loop_
 _atom_site_type_symbol
 _atom_site_label
 _atom_site_symmetry_multiplicity
 _atom_site_fract_x
 _atom_site_fract_y
 _atom_site_fract_z
 _atom_site_occupancy
  Nb  Nb0  1  0.142693  0.703750  0.673269  1
  Nb  Nb1  1  0.642693  0.296250  0.826731  1
  Nb  Nb2  1  0.857307  0.296250  0.326731  1
  Nb  Nb3  1  0.357307  0.703750  0.173269  1
  Hg  Hg4  1  0.728649  0.761222  0.566915  1
  Hg  Hg5  1  0.228649  0.238778  0.933085  1
  Hg  Hg6  1  0.271351  0.238778  0.433085  1
  Hg  Hg7  1  0.771351  0.761222  0.066915  1
  Hg  Hg8  1  0.500000  0.000000  0.500000  1
  Hg  Hg9  1  0.000000  0.000000  0.000000  1
  F  F10  1  0.949288  0.588845  0.618095  1
  F  F11  1  0.449288  0.411155  0.881905  1
  F  F12  1  0.050712  0.411155  0.381905  1
  F  F13  1  0.550712  0.588845  0.118095  1
  F  F14  1  0.202523  0.409261  0.709199  1
  F  F15  1  0.702523  0.590739  0.790801  1
  F  F16  1  0.797477  0.590739  0.290801  1
  F  F17  1  0.297477  0.409261  0.209199  1
  F  F18  1  0.062798  0.701669  0.821971  1
  F  F19  1  0.562798  0.298331  0.678029  1
  F  F20  1  0.178261  0.838985  0.217964  1
  F  F21  1  0.678261  0.161015  0.282036  1
  F  F22  1  0.821739  0.161015  0.782036  1
  F  F23  1  0.321739  0.838985  0.717964  1
  F  F24  1  0.267376  0.677507  0.028742  1
  F  F25  1  0.767376  0.322493  0.471258  1
  F  F26  1  0.732624  0.322493  0.971258  1
  F  F27  1  0.232624  0.677507  0.528742  1
  F  F28  1  0.445076  0.975816  0.128074  1
  F  F29  1  0.945076  0.024184  0.371926  1
  F  F30  1  0.554924  0.024184  0.871926  1
  F  F31  1  0.054924  0.975816  0.628074  1
  F  F32  1  0.437202  0.701669  0.321971  1
  F  F33  1  0.937202  0.298331  0.178029  1
