# generated using pymatgen
data_TbYb12Ho7Ge16
_symmetry_space_group_name_H-M   'P 1'
_cell_length_a   7.43192413
_cell_length_b   7.85831307
_cell_length_c   15.14126814
_cell_angle_alpha   89.99679050
_cell_angle_beta   90.01521162
_cell_angle_gamma   90.01516173
_symmetry_Int_Tables_number   1
_chemical_formula_structural   TbYb12Ho7Ge16
_chemical_formula_sum   'Tb1 Yb12 Ho7 Ge16'
_cell_volume   884.28613113
_cell_formula_units_Z   1
loop_
 _symmetry_equiv_pos_site_id
 _symmetry_equiv_pos_as_xyz
  1  'x, y, z'
loop_
 _atom_site_type_symbol
 _atom_site_label
 _atom_site_symmetry_multiplicity
 _atom_site_fract_x
 _atom_site_fract_y
 _atom_site_fract_z
 _atom_site_occupancy
  Tb  Tb0  1  0.318537  0.172845  0.121281  1
  Yb  Yb1  1  0.979033  0.814270  0.404543  1
  Yb  Yb2  1  0.479129  0.685664  0.095478  1
  Yb  Yb3  1  0.520939  0.314299  0.595477  1
  Yb  Yb4  1  0.020891  0.185727  0.904493  1
  Yb  Yb5  1  0.020954  0.185704  0.595478  1
  Yb  Yb6  1  0.521007  0.314319  0.904476  1
  Yb  Yb7  1  0.479054  0.685702  0.404539  1
  Yb  Yb8  1  0.978967  0.814237  0.095465  1
  Yb  Yb9  1  0.346891  0.018221  0.749992  1
  Yb  Yb10  1  0.846877  0.481763  0.750009  1
  Yb  Yb11  1  0.153074  0.518320  0.250052  1
  Yb  Yb12  1  0.653195  0.981714  0.250037  1
  Ho  Ho13  1  0.818584  0.327354  0.378720  1
  Ho  Ho14  1  0.181448  0.672674  0.878664  1
  Ho  Ho15  1  0.681442  0.827329  0.621312  1
  Ho  Ho16  1  0.318529  0.172629  0.378763  1
  Ho  Ho17  1  0.818544  0.327441  0.121276  1
  Ho  Ho18  1  0.181448  0.672665  0.621310  1
  Ho  Ho19  1  0.681495  0.827310  0.878646  1
  Ge  Ge20  1  0.846293  0.533466  0.540242  1
  Ge  Ge21  1  0.346415  0.966294  0.959556  1
  Ge  Ge22  1  0.653685  0.033447  0.459754  1
  Ge  Ge23  1  0.153345  0.466787  0.040121  1
  Ge  Ge24  1  0.153719  0.466521  0.459761  1
  Ge  Ge25  1  0.654064  0.033307  0.040142  1
  Ge  Ge26  1  0.346291  0.966536  0.540246  1
  Ge  Ge27  1  0.846252  0.533520  0.959747  1
  Ge  Ge28  1  0.977492  0.882568  0.749999  1
  Ge  Ge29  1  0.477487  0.617413  0.749994  1
  Ge  Ge30  1  0.522752  0.382863  0.250083  1
  Ge  Ge31  1  0.022274  0.117305  0.250173  1
  Ge  Ge32  1  0.235064  0.384122  0.749996  1
  Ge  Ge33  1  0.735074  0.115857  0.749997  1
  Ge  Ge34  1  0.264791  0.883925  0.250147  1
  Ge  Ge35  1  0.764964  0.615883  0.250030  1
