# generated using pymatgen
data_CeHf(NbS2)8
_symmetry_space_group_name_H-M   'P 1'
_cell_length_a   6.60758600
_cell_length_b   6.60758521
_cell_length_c   13.56116600
_cell_angle_alpha   90.00000000
_cell_angle_beta   90.00000000
_cell_angle_gamma   119.99999394
_symmetry_Int_Tables_number   1
_chemical_formula_structural   CeHf(NbS2)8
_chemical_formula_sum   'Ce1 Hf1 Nb8 S16'
_cell_volume   512.75899442
_cell_formula_units_Z   1
loop_
 _symmetry_equiv_pos_site_id
 _symmetry_equiv_pos_as_xyz
  1  'x, y, z'
loop_
 _atom_site_type_symbol
 _atom_site_label
 _atom_site_symmetry_multiplicity
 _atom_site_fract_x
 _atom_site_fract_y
 _atom_site_fract_z
 _atom_site_occupancy
  Ce  Ce0  1  0.000000  0.000000  0.000000  1
  Hf  Hf1  1  0.000000  0.000000  0.500000  1
  Nb  Nb2  1  0.990251  0.495125  0.263968  1
  Nb  Nb3  1  0.009749  0.504875  0.736032  1
  Nb  Nb4  1  0.495125  0.504875  0.736032  1
  Nb  Nb5  1  0.504875  0.009749  0.263968  1
  Nb  Nb6  1  0.000000  0.000000  0.737064  1
  Nb  Nb7  1  0.000000  0.000000  0.262936  1
  Nb  Nb8  1  0.504875  0.495125  0.263968  1
  Nb  Nb9  1  0.495125  0.990251  0.736032  1
  S  S10  1  0.333333  0.666667  0.616952  1
  S  S11  1  0.666667  0.333333  0.143646  1
  S  S12  1  0.666667  0.333333  0.383048  1
  S  S13  1  0.333333  0.666667  0.856354  1
  S  S14  1  0.168763  0.337527  0.381432  1
  S  S15  1  0.830580  0.169420  0.852534  1
  S  S16  1  0.338840  0.169420  0.852534  1
  S  S17  1  0.662473  0.831237  0.381432  1
  S  S18  1  0.168763  0.831237  0.381432  1
  S  S19  1  0.830580  0.661160  0.852534  1
  S  S20  1  0.169420  0.338840  0.147466  1
  S  S21  1  0.831237  0.168763  0.618568  1
  S  S22  1  0.337527  0.168763  0.618568  1
  S  S23  1  0.661160  0.830580  0.147466  1
  S  S24  1  0.169420  0.830580  0.147466  1
  S  S25  1  0.831237  0.662473  0.618568  1
