# generated using pymatgen
data_Nd2Sc3Si4(GePt3)3
_symmetry_space_group_name_H-M   'P 1'
_cell_length_a   10.16925400
_cell_length_b   10.16925460
_cell_length_c   4.06184500
_cell_angle_alpha   90.00000000
_cell_angle_beta   90.00000000
_cell_angle_gamma   119.99999803
_symmetry_Int_Tables_number   1
_chemical_formula_structural   Nd2Sc3Si4(GePt3)3
_chemical_formula_sum   'Nd2 Sc3 Si4 Ge3 Pt9'
_cell_volume   363.77445836
_cell_formula_units_Z   1
loop_
 _symmetry_equiv_pos_site_id
 _symmetry_equiv_pos_as_xyz
  1  'x, y, z'
loop_
 _atom_site_type_symbol
 _atom_site_label
 _atom_site_symmetry_multiplicity
 _atom_site_fract_x
 _atom_site_fract_y
 _atom_site_fract_z
 _atom_site_occupancy
  Nd  Nd0  1  0.000000  0.000000  0.000000  1
  Nd  Nd1  1  0.333333  0.666667  0.500000  1
  Sc  Sc2  1  0.892881  0.453161  0.500000  1
  Sc  Sc3  1  0.560280  0.107119  0.500000  1
  Sc  Sc4  1  0.546839  0.439720  0.500000  1
  Si  Si5  1  0.558130  0.646846  0.000000  1
  Si  Si6  1  0.353154  0.911283  0.000000  1
  Si  Si7  1  0.088717  0.441870  0.000000  1
  Si  Si8  1  0.666667  0.333333  0.000000  1
  Ge  Ge9  1  0.247557  0.199360  0.500000  1
  Ge  Ge10  1  0.800640  0.048197  0.500000  1
  Ge  Ge11  1  0.951803  0.752443  0.500000  1
  Pt  Pt12  1  0.231554  0.935935  0.500000  1
  Pt  Pt13  1  0.064065  0.295618  0.500000  1
  Pt  Pt14  1  0.704382  0.768446  0.500000  1
  Pt  Pt15  1  0.315782  0.414446  0.000000  1
  Pt  Pt16  1  0.585554  0.901336  0.000000  1
  Pt  Pt17  1  0.098664  0.684218  0.000000  1
  Pt  Pt18  1  0.391435  0.172038  0.000000  1
  Pt  Pt19  1  0.827962  0.219398  0.000000  1
  Pt  Pt20  1  0.780602  0.608565  0.000000  1
