# generated using pymatgen
data_Mn4ReTc
_symmetry_space_group_name_H-M   'P 1'
_cell_length_a   4.66258700
_cell_length_b   4.66258743
_cell_length_c   7.64715300
_cell_angle_alpha   90.00000000
_cell_angle_beta   90.00000000
_cell_angle_gamma   120.00000403
_symmetry_Int_Tables_number   1
_chemical_formula_structural   Mn4ReTc
_chemical_formula_sum   'Mn8 Re2 Tc2'
_cell_volume   143.97408618
_cell_formula_units_Z   2
loop_
 _symmetry_equiv_pos_site_id
 _symmetry_equiv_pos_as_xyz
  1  'x, y, z'
loop_
 _atom_site_type_symbol
 _atom_site_label
 _atom_site_symmetry_multiplicity
 _atom_site_fract_x
 _atom_site_fract_y
 _atom_site_fract_z
 _atom_site_occupancy
  Mn  Mn0  1  0.653156  0.826578  0.749701  1
  Mn  Mn1  1  0.346844  0.173422  0.249701  1
  Mn  Mn2  1  0.826578  0.173422  0.249701  1
  Mn  Mn3  1  0.173422  0.346844  0.749701  1
  Mn  Mn4  1  0.173422  0.826578  0.749701  1
  Mn  Mn5  1  0.826578  0.653156  0.249701  1
  Mn  Mn6  1  0.000000  0.000000  0.499752  1
  Mn  Mn7  1  0.000000  0.000000  0.999752  1
  Re  Re8  1  0.333333  0.666667  0.432984  1
  Re  Re9  1  0.666667  0.333333  0.932984  1
  Tc  Tc10  1  0.666667  0.333333  0.568161  1
  Tc  Tc11  1  0.333333  0.666667  0.068161  1
