# generated using pymatgen
data_Li2GdP2Pd
_symmetry_space_group_name_H-M   'P 1'
_cell_length_a   4.09781900
_cell_length_b   4.09781981
_cell_length_c   6.66388000
_cell_angle_alpha   90.00000000
_cell_angle_beta   90.00000000
_cell_angle_gamma   120.00000154
_symmetry_Int_Tables_number   1
_chemical_formula_structural   Li2GdP2Pd
_chemical_formula_sum   'Li2 Gd1 P2 Pd1'
_cell_volume   96.90884604
_cell_formula_units_Z   1
loop_
 _symmetry_equiv_pos_site_id
 _symmetry_equiv_pos_as_xyz
  1  'x, y, z'
loop_
 _atom_site_type_symbol
 _atom_site_label
 _atom_site_symmetry_multiplicity
 _atom_site_fract_x
 _atom_site_fract_y
 _atom_site_fract_z
 _atom_site_occupancy
  Li  Li0  1  0.000000  0.000000  0.488943  1
  Li  Li1  1  0.333333  0.666667  0.357105  1
  Gd  Gd2  1  0.000000  0.000000  0.997091  1
  P  P3  1  0.666667  0.333333  0.259273  1
  P  P4  1  0.333333  0.666667  0.747192  1
  Pd  Pd5  1  0.666667  0.333333  0.650395  1
