# generated using pymatgen
data_Eu6Fe(MoC4)3
_symmetry_space_group_name_H-M   'P 1'
_cell_length_a   8.48871400
_cell_length_b   8.48871339
_cell_length_c   5.29033400
_cell_angle_alpha   90.00000000
_cell_angle_beta   90.00000000
_cell_angle_gamma   119.99997899
_symmetry_Int_Tables_number   1
_chemical_formula_structural   Eu6Fe(MoC4)3
_chemical_formula_sum   'Eu6 Fe1 Mo3 C12'
_cell_volume   330.13957477
_cell_formula_units_Z   1
loop_
 _symmetry_equiv_pos_site_id
 _symmetry_equiv_pos_as_xyz
  1  'x, y, z'
loop_
 _atom_site_type_symbol
 _atom_site_label
 _atom_site_symmetry_multiplicity
 _atom_site_fract_x
 _atom_site_fract_y
 _atom_site_fract_z
 _atom_site_occupancy
  Eu  Eu0  1  0.612667  0.692949  0.750000  1
  Eu  Eu1  1  0.924208  0.608736  0.250000  1
  Eu  Eu2  1  0.684529  0.075792  0.250000  1
  Eu  Eu3  1  0.307051  0.919718  0.750000  1
  Eu  Eu4  1  0.080282  0.387333  0.750000  1
  Eu  Eu5  1  0.391264  0.315471  0.250000  1
  Fe  Fe6  1  0.333333  0.666667  0.250000  1
  Mo  Mo7  1  0.000000  0.000000  0.498607  1
  Mo  Mo8  1  0.000000  0.000000  0.001393  1
  Mo  Mo9  1  0.666667  0.333333  0.750000  1
  C  C10  1  0.952417  0.773792  0.750000  1
  C  C11  1  0.192409  0.946512  0.250000  1
  C  C12  1  0.754104  0.807591  0.250000  1
  C  C13  1  0.226208  0.178625  0.750000  1
  C  C14  1  0.821375  0.047583  0.750000  1
  C  C15  1  0.053488  0.245896  0.250000  1
  C  C16  1  0.865204  0.588115  0.750000  1
  C  C17  1  0.277608  0.848263  0.250000  1
  C  C18  1  0.570652  0.722392  0.250000  1
  C  C19  1  0.411885  0.277087  0.750000  1
  C  C20  1  0.151737  0.429348  0.250000  1
  C  C21  1  0.722913  0.134796  0.750000  1
