# generated using pymatgen
data_Ta3Nb10Co8Mo3N4
_symmetry_space_group_name_H-M   'P 1'
_cell_length_a   8.15210981
_cell_length_b   8.14498022
_cell_length_c   8.14497938
_cell_angle_alpha   60.25637778
_cell_angle_beta   60.26322333
_cell_angle_gamma   60.26323033
_symmetry_Int_Tables_number   1
_chemical_formula_structural   Ta3Nb10Co8Mo3N4
_chemical_formula_sum   'Ta3 Nb10 Co8 Mo3 N4'
_cell_volume   384.67381965
_cell_formula_units_Z   1
loop_
 _symmetry_equiv_pos_site_id
 _symmetry_equiv_pos_as_xyz
  1  'x, y, z'
loop_
 _atom_site_type_symbol
 _atom_site_label
 _atom_site_symmetry_multiplicity
 _atom_site_fract_x
 _atom_site_fract_y
 _atom_site_fract_z
 _atom_site_occupancy
  Ta  Ta0  1  0.691204  0.308736  0.691079  1
  Ta  Ta1  1  0.558796  0.558921  0.941264  1
  Ta  Ta2  1  0.125000  0.125328  0.124672  1
  Nb  Nb3  1  0.559363  0.940594  0.559384  1
  Nb  Nb4  1  0.938634  0.937834  0.562982  1
  Nb  Nb5  1  0.941347  0.559065  0.558923  1
  Nb  Nb6  1  0.938029  0.563480  0.937718  1
  Nb  Nb7  1  0.687044  0.311521  0.311958  1
  Nb  Nb8  1  0.311366  0.687018  0.312166  1
  Nb  Nb9  1  0.311971  0.312282  0.686520  1
  Nb  Nb10  1  0.308653  0.691077  0.690935  1
  Nb  Nb11  1  0.690637  0.690616  0.309406  1
  Nb  Nb12  1  0.562956  0.938042  0.938479  1
  Co  Co13  1  0.233656  0.919666  0.920669  1
  Co  Co14  1  0.919146  0.233802  0.920253  1
  Co  Co15  1  0.922995  0.924210  0.922794  1
  Co  Co16  1  0.920610  0.920735  0.232566  1
  Co  Co17  1  0.016344  0.329331  0.330334  1
  Co  Co18  1  0.330854  0.329747  0.016198  1
  Co  Co19  1  0.329390  0.017434  0.329265  1
  Co  Co20  1  0.327005  0.327206  0.325790  1
  Mo  Mo21  1  0.625000  0.125522  0.124478  1
  Mo  Mo22  1  0.124833  0.125369  0.624795  1
  Mo  Mo23  1  0.125167  0.625205  0.124631  1
  N  N24  1  0.625000  0.621789  0.628211  1
  N  N25  1  0.125000  0.624792  0.625208  1
  N  N26  1  0.625494  0.126364  0.625685  1
  N  N27  1  0.624506  0.624315  0.123636  1
