# generated using pymatgen
data_Tm4VB16Mo3
_symmetry_space_group_name_H-M   'P 1'
_cell_length_a   3.55442700
_cell_length_b   5.99081111
_cell_length_c   11.58445371
_cell_angle_alpha   89.97278988
_cell_angle_beta   90.00000000
_cell_angle_gamma   90.00000000
_symmetry_Int_Tables_number   1
_chemical_formula_structural   Tm4VB16Mo3
_chemical_formula_sum   'Tm4 V1 B16 Mo3'
_cell_volume   246.67817974
_cell_formula_units_Z   1
loop_
 _symmetry_equiv_pos_site_id
 _symmetry_equiv_pos_as_xyz
  1  'x, y, z'
loop_
 _atom_site_type_symbol
 _atom_site_label
 _atom_site_symmetry_multiplicity
 _atom_site_fract_x
 _atom_site_fract_y
 _atom_site_fract_z
 _atom_site_occupancy
  Tm  Tm0  1  0.000000  0.626274  0.351180  1
  Tm  Tm1  1  0.000000  0.375733  0.648725  1
  Tm  Tm2  1  0.000000  0.127381  0.150695  1
  Tm  Tm3  1  0.000000  0.872847  0.847650  1
  V  V4  1  0.000000  0.871274  0.583205  1
  B  B5  1  0.500000  0.788229  0.187044  1
  B  B6  1  0.500000  0.210676  0.812347  1
  B  B7  1  0.500000  0.288810  0.313957  1
  B  B8  1  0.500000  0.713878  0.685276  1
  B  B9  1  0.500000  0.868006  0.031806  1
  B  B10  1  0.500000  0.132115  0.967430  1
  B  B11  1  0.500000  0.367583  0.469589  1
  B  B12  1  0.500000  0.635208  0.533441  1
  B  B13  1  0.500000  0.882779  0.453697  1
  B  B14  1  0.500000  0.113282  0.549848  1
  B  B15  1  0.500000  0.384747  0.047632  1
  B  B16  1  0.500000  0.615548  0.951509  1
  B  B17  1  0.500000  0.975317  0.306755  1
  B  B18  1  0.500000  0.020702  0.693082  1
  B  B19  1  0.500000  0.476442  0.194341  1
  B  B20  1  0.500000  0.524106  0.804694  1
  Mo  Mo21  1  0.000000  0.630618  0.084190  1
  Mo  Mo22  1  0.000000  0.369628  0.915305  1
  Mo  Mo23  1  0.000000  0.128821  0.416602  1
