# generated using pymatgen
data_Hf5BeP3
_symmetry_space_group_name_H-M   'P 1'
_cell_length_a   3.54497300
_cell_length_b   10.05351600
_cell_length_c   16.99001800
_cell_angle_alpha   90.00000000
_cell_angle_beta   90.00000000
_cell_angle_gamma   90.00000000
_symmetry_Int_Tables_number   1
_chemical_formula_structural   Hf5BeP3
_chemical_formula_sum   'Hf20 Be4 P12'
_cell_volume   605.51477426
_cell_formula_units_Z   4
loop_
 _symmetry_equiv_pos_site_id
 _symmetry_equiv_pos_as_xyz
  1  'x, y, z'
loop_
 _atom_site_type_symbol
 _atom_site_label
 _atom_site_symmetry_multiplicity
 _atom_site_fract_x
 _atom_site_fract_y
 _atom_site_fract_z
 _atom_site_occupancy
  Hf  Hf0  1  0.250000  0.122181  0.476714  1
  Hf  Hf1  1  0.750000  0.877819  0.523286  1
  Hf  Hf2  1  0.750000  0.622181  0.023286  1
  Hf  Hf3  1  0.250000  0.377819  0.976714  1
  Hf  Hf4  1  0.250000  0.062333  0.077695  1
  Hf  Hf5  1  0.750000  0.937667  0.922305  1
  Hf  Hf6  1  0.750000  0.562333  0.422305  1
  Hf  Hf7  1  0.250000  0.437667  0.577695  1
  Hf  Hf8  1  0.250000  0.484680  0.271152  1
  Hf  Hf9  1  0.750000  0.515320  0.728848  1
  Hf  Hf10  1  0.750000  0.984680  0.228848  1
  Hf  Hf11  1  0.250000  0.015320  0.771152  1
  Hf  Hf12  1  0.250000  0.813847  0.369935  1
  Hf  Hf13  1  0.750000  0.186153  0.630065  1
  Hf  Hf14  1  0.750000  0.313847  0.130065  1
  Hf  Hf15  1  0.250000  0.686153  0.869935  1
  Hf  Hf16  1  0.250000  0.751471  0.169480  1
  Hf  Hf17  1  0.750000  0.248529  0.830520  1
  Hf  Hf18  1  0.750000  0.251471  0.330520  1
  Hf  Hf19  1  0.250000  0.748529  0.669480  1
  Be  Be20  1  0.250000  0.369960  0.417126  1
  Be  Be21  1  0.750000  0.630040  0.582874  1
  Be  Be22  1  0.750000  0.869960  0.082874  1
  Be  Be23  1  0.250000  0.130040  0.917126  1
  P  P24  1  0.250000  0.815584  0.012149  1
  P  P25  1  0.750000  0.184416  0.987851  1
  P  P26  1  0.750000  0.315584  0.487851  1
  P  P27  1  0.250000  0.684416  0.512149  1
  P  P28  1  0.250000  0.506752  0.115518  1
  P  P29  1  0.750000  0.493248  0.884482  1
  P  P30  1  0.750000  0.006752  0.384482  1
  P  P31  1  0.250000  0.993248  0.615518  1
  P  P32  1  0.250000  0.189523  0.219624  1
  P  P33  1  0.750000  0.810477  0.780376  1
  P  P34  1  0.750000  0.689523  0.280376  1
  P  P35  1  0.250000  0.310477  0.719624  1
