# generated using pymatgen
data_Cs4CdBi2
_symmetry_space_group_name_H-M   'P 1'
_cell_length_a   11.44223850
_cell_length_b   11.44223880
_cell_length_c   11.44223883
_cell_angle_alpha   34.17536896
_cell_angle_beta   34.17536706
_cell_angle_gamma   34.17536795
_symmetry_Int_Tables_number   1
_chemical_formula_structural   Cs4CdBi2
_chemical_formula_sum   'Cs4 Cd1 Bi2'
_cell_volume   421.47598053
_cell_formula_units_Z   1
loop_
 _symmetry_equiv_pos_site_id
 _symmetry_equiv_pos_as_xyz
  1  'x, y, z'
loop_
 _atom_site_type_symbol
 _atom_site_label
 _atom_site_symmetry_multiplicity
 _atom_site_fract_x
 _atom_site_fract_y
 _atom_site_fract_z
 _atom_site_occupancy
  Cs  Cs0  1  0.207588  0.207588  0.207588  1
  Cs  Cs1  1  0.379994  0.379994  0.379994  1
  Cs  Cs2  1  0.620006  0.620006  0.620006  1
  Cs  Cs3  1  0.792412  0.792412  0.792412  1
  Cd  Cd4  1  0.000000  0.000000  0.000000  1
  Bi  Bi5  1  0.086395  0.086395  0.086395  1
  Bi  Bi6  1  0.913605  0.913605  0.913605  1
