# generated using pymatgen
data_Gd3Al3Si2Au
_symmetry_space_group_name_H-M   'P 1'
_cell_length_a   7.02841300
_cell_length_b   7.02841257
_cell_length_c   4.28213800
_cell_angle_alpha   90.00000000
_cell_angle_beta   90.00000000
_cell_angle_gamma   119.99999731
_symmetry_Int_Tables_number   1
_chemical_formula_structural   Gd3Al3Si2Au
_chemical_formula_sum   'Gd3 Al3 Si2 Au1'
_cell_volume   183.19171264
_cell_formula_units_Z   1
loop_
 _symmetry_equiv_pos_site_id
 _symmetry_equiv_pos_as_xyz
  1  'x, y, z'
loop_
 _atom_site_type_symbol
 _atom_site_label
 _atom_site_symmetry_multiplicity
 _atom_site_fract_x
 _atom_site_fract_y
 _atom_site_fract_z
 _atom_site_occupancy
  Gd  Gd0  1  0.420625  0.000000  0.000000  1
  Gd  Gd1  1  0.000000  0.420624  0.000000  1
  Gd  Gd2  1  0.579375  0.579375  0.000000  1
  Al  Al3  1  0.757616  0.000000  0.500001  1
  Al  Al4  1  0.242383  0.242384  0.500001  1
  Al  Al5  1  0.000000  0.757616  0.500001  1
  Si  Si6  1  0.666666  0.333333  0.500001  1
  Si  Si7  1  0.333334  0.666667  0.500001  1
  Au  Au8  1  0.000000  0.000000  0.000000  1
