# generated using pymatgen
data_Li4DyUS6
_symmetry_space_group_name_H-M   'P 1'
_cell_length_a   6.66474553
_cell_length_b   6.66474191
_cell_length_c   6.50328775
_cell_angle_alpha   99.94211516
_cell_angle_beta   99.94220970
_cell_angle_gamma   119.89190524
_symmetry_Int_Tables_number   1
_chemical_formula_structural   Li4DyUS6
_chemical_formula_sum   'Li4 Dy1 U1 S6'
_cell_volume   235.08650498
_cell_formula_units_Z   1
loop_
 _symmetry_equiv_pos_site_id
 _symmetry_equiv_pos_as_xyz
  1  'x, y, z'
loop_
 _atom_site_type_symbol
 _atom_site_label
 _atom_site_symmetry_multiplicity
 _atom_site_fract_x
 _atom_site_fract_y
 _atom_site_fract_z
 _atom_site_occupancy
  Li  Li0  1  0.499928  0.500076  0.000000  1
  Li  Li1  1  0.004245  0.995756  0.499999  1
  Li  Li2  1  0.663321  0.336680  0.500001  1
  Li  Li3  1  0.336104  0.663898  0.500000  1
  Dy  Dy4  1  0.833035  0.166967  0.000001  1
  U  U5  1  0.166735  0.833265  0.000000  1
  S  S6  1  0.926918  0.592615  0.244096  1
  S  S7  1  0.570689  0.918373  0.248876  1
  S  S8  1  0.246000  0.235980  0.250940  1
  S  S9  1  0.764022  0.754002  0.749061  1
  S  S10  1  0.081628  0.429313  0.751125  1
  S  S11  1  0.407387  0.073083  0.755903  1
