# generated using pymatgen
data_Li4Nd2TmSn4
_symmetry_space_group_name_H-M   'P 1'
_cell_length_a   8.75120698
_cell_length_b   8.75120645
_cell_length_c   8.75120605
_cell_angle_alpha   148.61587360
_cell_angle_beta   133.06638657
_cell_angle_gamma   57.55156117
_symmetry_Int_Tables_number   1
_chemical_formula_structural   Li4Nd2TmSn4
_chemical_formula_sum   'Li4 Nd2 Tm1 Sn4'
_cell_volume   253.07881282
_cell_formula_units_Z   1
loop_
 _symmetry_equiv_pos_site_id
 _symmetry_equiv_pos_as_xyz
  1  'x, y, z'
loop_
 _atom_site_type_symbol
 _atom_site_label
 _atom_site_symmetry_multiplicity
 _atom_site_fract_x
 _atom_site_fract_y
 _atom_site_fract_z
 _atom_site_occupancy
  Li  Li0  1  0.481434  0.672165  0.809270  1
  Li  Li1  1  0.862896  0.672165  0.190730  1
  Li  Li2  1  0.137104  0.327835  0.809270  1
  Li  Li3  1  0.518566  0.327835  0.190730  1
  Nd  Nd4  1  0.870273  0.870273  0.000000  1
  Nd  Nd5  1  0.129727  0.129727  0.000000  1
  Tm  Tm6  1  0.500000  0.000000  0.500000  1
  Sn  Sn7  1  0.290269  0.790269  0.500000  1
  Sn  Sn8  1  0.709731  0.209731  0.500000  1
  Sn  Sn9  1  0.794029  0.500000  0.294029  1
  Sn  Sn10  1  0.205971  0.500000  0.705971  1
