# generated using pymatgen
data_Ho2Al20IrRu3
_symmetry_space_group_name_H-M   'P 1'
_cell_length_a   6.84390328
_cell_length_b   6.84835545
_cell_length_c   9.14081426
_cell_angle_alpha   90.07641021
_cell_angle_beta   90.08677893
_cell_angle_gamma   96.68430551
_symmetry_Int_Tables_number   1
_chemical_formula_structural   Ho2Al20IrRu3
_chemical_formula_sum   'Ho2 Al20 Ir1 Ru3'
_cell_volume   425.51206249
_cell_formula_units_Z   1
loop_
 _symmetry_equiv_pos_site_id
 _symmetry_equiv_pos_as_xyz
  1  'x, y, z'
loop_
 _atom_site_type_symbol
 _atom_site_label
 _atom_site_symmetry_multiplicity
 _atom_site_fract_x
 _atom_site_fract_y
 _atom_site_fract_z
 _atom_site_occupancy
  Ho  Ho0  1  0.871296  0.127383  0.750356  1
  Ho  Ho1  1  0.128704  0.872617  0.249644  1
  Al  Al2  1  0.620906  0.375870  0.550947  1
  Al  Al3  1  0.379094  0.624130  0.449053  1
  Al  Al4  1  0.376991  0.623521  0.050201  1
  Al  Al5  1  0.623009  0.376479  0.949799  1
  Al  Al6  1  0.226897  0.224040  0.498967  1
  Al  Al7  1  0.773103  0.775960  0.501033  1
  Al  Al8  1  0.774137  0.774671  0.000441  1
  Al  Al9  1  0.225863  0.225329  0.999559  1
  Al  Al10  1  0.844370  0.156252  0.099930  1
  Al  Al11  1  0.155630  0.843748  0.900070  1
  Al  Al12  1  0.157074  0.845753  0.601311  1
  Al  Al13  1  0.842926  0.154247  0.398689  1
  Al  Al14  1  0.857669  0.587029  0.751518  1
  Al  Al15  1  0.142331  0.412971  0.248482  1
  Al  Al16  1  0.414009  0.141474  0.750415  1
  Al  Al17  1  0.585991  0.858526  0.249585  1
  Al  Al18  1  0.222303  0.480637  0.752124  1
  Al  Al19  1  0.777697  0.519363  0.247876  1
  Al  Al20  1  0.519277  0.778734  0.749783  1
  Al  Al21  1  0.480723  0.221266  0.250217  1
  Ir  Ir22  1  0.000000  0.500000  0.500000  1
  Ru  Ru23  1  0.000000  0.500000  0.000000  1
  Ru  Ru24  1  0.500000  0.000000  0.000000  1
  Ru  Ru25  1  0.500000  0.000000  0.500000  1
