# generated using pymatgen
data_Ta12Si5Os7N4
_symmetry_space_group_name_H-M   'P 1'
_cell_length_a   8.21142563
_cell_length_b   8.21142593
_cell_length_c   8.21142547
_cell_angle_alpha   60.04692366
_cell_angle_beta   60.04692136
_cell_angle_gamma   60.04692582
_symmetry_Int_Tables_number   1
_chemical_formula_structural   Ta12Si5Os7N4
_chemical_formula_sum   'Ta12 Si5 Os7 N4'
_cell_volume   391.92444728
_cell_formula_units_Z   1
loop_
 _symmetry_equiv_pos_site_id
 _symmetry_equiv_pos_as_xyz
  1  'x, y, z'
loop_
 _atom_site_type_symbol
 _atom_site_label
 _atom_site_symmetry_multiplicity
 _atom_site_fract_x
 _atom_site_fract_y
 _atom_site_fract_z
 _atom_site_occupancy
  Ta  Ta0  1  0.806937  0.806937  0.184760  1
  Ta  Ta1  1  0.195258  0.195258  0.806646  1
  Ta  Ta2  1  0.806937  0.184760  0.806937  1
  Ta  Ta3  1  0.195258  0.806646  0.195258  1
  Ta  Ta4  1  0.184760  0.806937  0.806937  1
  Ta  Ta5  1  0.806646  0.195258  0.195258  1
  Ta  Ta6  1  0.444963  0.444963  0.052745  1
  Ta  Ta7  1  0.054052  0.054052  0.448594  1
  Ta  Ta8  1  0.444963  0.052745  0.444963  1
  Ta  Ta9  1  0.054052  0.448594  0.054052  1
  Ta  Ta10  1  0.052745  0.444963  0.444963  1
  Ta  Ta11  1  0.448594  0.054052  0.054052  1
  Si  Si12  1  0.125795  0.625069  0.625069  1
  Si  Si13  1  0.625069  0.125795  0.625069  1
  Si  Si14  1  0.625069  0.625069  0.125795  1
  Si  Si15  1  0.626145  0.626145  0.626145  1
  Si  Si16  1  0.832644  0.832644  0.832644  1
  Os  Os17  1  0.751979  0.416662  0.416662  1
  Os  Os18  1  0.416662  0.751979  0.416662  1
  Os  Os19  1  0.416662  0.416662  0.751979  1
  Os  Os20  1  0.415637  0.415637  0.415637  1
  Os  Os21  1  0.495936  0.835838  0.835838  1
  Os  Os22  1  0.835838  0.495936  0.835838  1
  Os  Os23  1  0.835838  0.835838  0.495936  1
  N  N24  1  0.626186  0.125632  0.125632  1
  N  N25  1  0.125632  0.626186  0.125632  1
  N  N26  1  0.125632  0.125632  0.626186  1
  N  N27  1  0.124109  0.124109  0.124109  1
