# generated using pymatgen
data_Hf18GaRe6SiW2
_symmetry_space_group_name_H-M   'P 1'
_cell_length_a   8.63986600
_cell_length_b   8.63986562
_cell_length_c   8.63366900
_cell_angle_alpha   90.00000000
_cell_angle_beta   90.00000000
_cell_angle_gamma   120.00000146
_symmetry_Int_Tables_number   1
_chemical_formula_structural   Hf18GaRe6SiW2
_chemical_formula_sum   'Hf18 Ga1 Re6 Si1 W2'
_cell_volume   558.13597264
_cell_formula_units_Z   1
loop_
 _symmetry_equiv_pos_site_id
 _symmetry_equiv_pos_as_xyz
  1  'x, y, z'
loop_
 _atom_site_type_symbol
 _atom_site_label
 _atom_site_symmetry_multiplicity
 _atom_site_fract_x
 _atom_site_fract_y
 _atom_site_fract_z
 _atom_site_occupancy
  Hf  Hf0  1  0.194892  0.805108  0.453246  1
  Hf  Hf1  1  0.194892  0.389783  0.453246  1
  Hf  Hf2  1  0.610217  0.805108  0.453246  1
  Hf  Hf3  1  0.804172  0.195828  0.547465  1
  Hf  Hf4  1  0.804172  0.608346  0.547465  1
  Hf  Hf5  1  0.391654  0.195828  0.547465  1
  Hf  Hf6  1  0.804172  0.195828  0.952535  1
  Hf  Hf7  1  0.804172  0.608346  0.952535  1
  Hf  Hf8  1  0.391654  0.195828  0.952535  1
  Hf  Hf9  1  0.194892  0.805108  0.046754  1
  Hf  Hf10  1  0.194892  0.389783  0.046754  1
  Hf  Hf11  1  0.610217  0.805108  0.046754  1
  Hf  Hf12  1  0.540119  0.459881  0.250000  1
  Hf  Hf13  1  0.540119  0.080237  0.250000  1
  Hf  Hf14  1  0.919763  0.459881  0.250000  1
  Hf  Hf15  1  0.460900  0.539100  0.750000  1
  Hf  Hf16  1  0.460900  0.921801  0.750000  1
  Hf  Hf17  1  0.078199  0.539100  0.750000  1
  Ga  Ga18  1  0.333333  0.666667  0.250000  1
  Re  Re19  1  0.889332  0.110668  0.250000  1
  Re  Re20  1  0.889332  0.778663  0.250000  1
  Re  Re21  1  0.221337  0.110668  0.250000  1
  Re  Re22  1  0.110314  0.889686  0.750000  1
  Re  Re23  1  0.110314  0.220628  0.750000  1
  Re  Re24  1  0.779372  0.889686  0.750000  1
  Si  Si25  1  0.666667  0.333333  0.750000  1
  W  W26  1  0.000000  0.000000  0.499833  1
  W  W27  1  0.000000  0.000000  0.000167  1
