# generated using pymatgen
data_SrAl4Si2Pd
_symmetry_space_group_name_H-M   'P 1'
_cell_length_a   4.31418900
_cell_length_b   4.31418900
_cell_length_c   8.15868600
_cell_angle_alpha   90.00000000
_cell_angle_beta   90.00000000
_cell_angle_gamma   90.00000000
_symmetry_Int_Tables_number   1
_chemical_formula_structural   SrAl4Si2Pd
_chemical_formula_sum   'Sr1 Al4 Si2 Pd1'
_cell_volume   151.85131363
_cell_formula_units_Z   1
loop_
 _symmetry_equiv_pos_site_id
 _symmetry_equiv_pos_as_xyz
  1  'x, y, z'
loop_
 _atom_site_type_symbol
 _atom_site_label
 _atom_site_symmetry_multiplicity
 _atom_site_fract_x
 _atom_site_fract_y
 _atom_site_fract_z
 _atom_site_occupancy
  Sr  Sr0  1  0.000000  0.000000  0.500000  1
  Al  Al1  1  0.000000  0.500000  0.171311  1
  Al  Al2  1  0.000000  0.500000  0.828689  1
  Al  Al3  1  0.500000  0.000000  0.171311  1
  Al  Al4  1  0.500000  0.000000  0.828689  1
  Si  Si5  1  0.500000  0.500000  0.351766  1
  Si  Si6  1  0.500000  0.500000  0.648234  1
  Pd  Pd7  1  0.000000  0.000000  0.000000  1
