# generated using pymatgen
data_CeHoLu2(ZnGe)4
_symmetry_space_group_name_H-M   'P 1'
_cell_length_a   4.25665700
_cell_length_b   4.25665580
_cell_length_c   15.40592100
_cell_angle_alpha   90.00000000
_cell_angle_beta   90.00000000
_cell_angle_gamma   120.00000156
_symmetry_Int_Tables_number   1
_chemical_formula_structural   CeHoLu2(ZnGe)4
_chemical_formula_sum   'Ce1 Ho1 Lu2 Zn4 Ge4'
_cell_volume   241.74387624
_cell_formula_units_Z   1
loop_
 _symmetry_equiv_pos_site_id
 _symmetry_equiv_pos_as_xyz
  1  'x, y, z'
loop_
 _atom_site_type_symbol
 _atom_site_label
 _atom_site_symmetry_multiplicity
 _atom_site_fract_x
 _atom_site_fract_y
 _atom_site_fract_z
 _atom_site_occupancy
  Ce  Ce0  1  0.000000  0.000000  0.000000  1
  Ho  Ho1  1  0.000000  0.000000  0.500000  1
  Lu  Lu2  1  0.000000  0.000000  0.744971  1
  Lu  Lu3  1  0.000000  0.000000  0.255029  1
  Zn  Zn4  1  0.666667  0.333333  0.841855  1
  Zn  Zn5  1  0.666667  0.333333  0.650341  1
  Zn  Zn6  1  0.333333  0.666667  0.158145  1
  Zn  Zn7  1  0.333333  0.666667  0.349659  1
  Ge  Ge8  1  0.666667  0.333333  0.119266  1
  Ge  Ge9  1  0.666667  0.333333  0.388052  1
  Ge  Ge10  1  0.333333  0.666667  0.880734  1
  Ge  Ge11  1  0.333333  0.666667  0.611948  1
