# generated using pymatgen
data_CeY3(CuSi3)2
_symmetry_space_group_name_H-M   'P 1'
_cell_length_a   8.06331201
_cell_length_b   8.02527787
_cell_length_c   5.72306309
_cell_angle_alpha   69.51859376
_cell_angle_beta   68.80685629
_cell_angle_gamma   41.67454687
_symmetry_Int_Tables_number   1
_chemical_formula_structural   CeY3(CuSi3)2
_chemical_formula_sum   'Ce1 Y3 Cu2 Si6'
_cell_volume   227.67171583
_cell_formula_units_Z   1
loop_
 _symmetry_equiv_pos_site_id
 _symmetry_equiv_pos_as_xyz
  1  'x, y, z'
loop_
 _atom_site_type_symbol
 _atom_site_label
 _atom_site_symmetry_multiplicity
 _atom_site_fract_x
 _atom_site_fract_y
 _atom_site_fract_z
 _atom_site_occupancy
  Ce  Ce0  1  0.242973  0.757026  0.242975  1
  Y  Y1  1  0.249893  0.250107  0.249892  1
  Y  Y2  1  0.749892  0.750108  0.749892  1
  Y  Y3  1  0.756550  0.243450  0.756551  1
  Cu  Cu4  1  0.667369  0.666764  0.333237  1
  Cu  Cu5  1  0.333236  0.332630  0.667371  1
  Si  Si6  1  0.831102  0.831138  0.168863  1
  Si  Si7  1  0.829027  0.339757  0.171031  1
  Si  Si8  1  0.660243  0.170973  0.339815  1
  Si  Si9  1  0.339813  0.828970  0.660244  1
  Si  Si10  1  0.171029  0.660187  0.829028  1
  Si  Si11  1  0.168862  0.168897  0.831104  1
