# generated using pymatgen
data_YHo3(WO6)2
_symmetry_space_group_name_H-M   'P 1'
_cell_length_a   5.38695500
_cell_length_b   7.69631193
_cell_length_c   11.46015622
_cell_angle_alpha   75.41003219
_cell_angle_beta   90.00000000
_cell_angle_gamma   90.00000000
_symmetry_Int_Tables_number   1
_chemical_formula_structural   YHo3(WO6)2
_chemical_formula_sum   'Y2 Ho6 W4 O24'
_cell_volume   459.81295536
_cell_formula_units_Z   2
loop_
 _symmetry_equiv_pos_site_id
 _symmetry_equiv_pos_as_xyz
  1  'x, y, z'
loop_
 _atom_site_type_symbol
 _atom_site_label
 _atom_site_symmetry_multiplicity
 _atom_site_fract_x
 _atom_site_fract_y
 _atom_site_fract_z
 _atom_site_occupancy
  Y  Y0  1  0.684083  0.500000  0.750000  1
  Y  Y1  1  0.315917  0.500000  0.250000  1
  Ho  Ho2  1  0.739506  0.000000  0.750000  1
  Ho  Ho3  1  0.260494  0.000000  0.250000  1
  Ho  Ho4  1  0.185777  0.795541  0.577857  1
  Ho  Ho5  1  0.814223  0.795541  0.077857  1
  Ho  Ho6  1  0.185777  0.204459  0.922143  1
  Ho  Ho7  1  0.814223  0.204459  0.422143  1
  W  W8  1  0.254727  0.723748  0.885440  1
  W  W9  1  0.745273  0.723748  0.385440  1
  W  W10  1  0.254727  0.276252  0.614560  1
  W  W11  1  0.745273  0.276252  0.114560  1
  O  O12  1  0.041815  0.939905  0.895582  1
  O  O13  1  0.532092  0.848443  0.930725  1
  O  O14  1  0.958185  0.939905  0.395582  1
  O  O15  1  0.458983  0.790901  0.727336  1
  O  O16  1  0.467908  0.848443  0.430725  1
  O  O17  1  0.981714  0.711713  0.770897  1
  O  O18  1  0.541017  0.790901  0.227336  1
  O  O19  1  0.851100  0.635394  0.548254  1
  O  O20  1  0.360142  0.489702  0.886391  1
  O  O21  1  0.018286  0.711713  0.270897  1
  O  O22  1  0.360142  0.510298  0.613609  1
  O  O23  1  0.851100  0.364606  0.951746  1
  O  O24  1  0.148900  0.635394  0.048254  1
  O  O25  1  0.639858  0.489702  0.386391  1
  O  O26  1  0.981714  0.288287  0.729103  1
  O  O27  1  0.639858  0.510298  0.113609  1
  O  O28  1  0.148900  0.364606  0.451746  1
  O  O29  1  0.458983  0.209099  0.772664  1
  O  O30  1  0.018286  0.288287  0.229103  1
  O  O31  1  0.532092  0.151557  0.569275  1
  O  O32  1  0.541017  0.209099  0.272664  1
  O  O33  1  0.041815  0.060095  0.604418  1
  O  O34  1  0.467908  0.151557  0.069275  1
  O  O35  1  0.958185  0.060095  0.104418  1
