# generated using pymatgen
data_KU6(PO11)2
_symmetry_space_group_name_H-M   'P 1'
_cell_length_a   5.83426600
_cell_length_b   7.28051985
_cell_length_c   13.04607785
_cell_angle_alpha   86.84002077
_cell_angle_beta   90.00000000
_cell_angle_gamma   90.00000000
_symmetry_Int_Tables_number   1
_chemical_formula_structural   KU6(PO11)2
_chemical_formula_sum   'K1 U6 P2 O22'
_cell_volume   553.30900703
_cell_formula_units_Z   1
loop_
 _symmetry_equiv_pos_site_id
 _symmetry_equiv_pos_as_xyz
  1  'x, y, z'
loop_
 _atom_site_type_symbol
 _atom_site_label
 _atom_site_symmetry_multiplicity
 _atom_site_fract_x
 _atom_site_fract_y
 _atom_site_fract_z
 _atom_site_occupancy
  K  K0  1  0.000000  0.129595  0.507024  1
  U  U1  1  0.000000  0.631368  0.322958  1
  U  U2  1  0.500000  0.373370  0.677235  1
  U  U3  1  0.000000  0.016834  0.801713  1
  U  U4  1  0.500000  0.984681  0.198884  1
  U  U5  1  0.000000  0.326275  0.063245  1
  U  U6  1  0.500000  0.675595  0.937470  1
  P  P7  1  0.000000  0.672600  0.596057  1
  P  P8  1  0.500000  0.327151  0.403490  1
  O  O9  1  0.217121  0.553870  0.617159  1
  O  O10  1  0.721934  0.440493  0.383488  1
  O  O11  1  0.278066  0.440493  0.383488  1
  O  O12  1  0.782879  0.553870  0.617159  1
  O  O13  1  0.000000  0.745121  0.481033  1
  O  O14  1  0.500000  0.256200  0.519036  1
  O  O15  1  0.750622  0.819732  0.271406  1
  O  O16  1  0.245954  0.181394  0.723683  1
  O  O17  1  0.754046  0.181394  0.723683  1
  O  O18  1  0.249378  0.819732  0.271406  1
  O  O19  1  0.000000  0.843318  0.660861  1
  O  O20  1  0.500000  0.157280  0.338494  1
  O  O21  1  0.000000  0.181598  0.933854  1
  O  O22  1  0.500000  0.821115  0.065750  1
  O  O23  1  0.747777  0.153188  0.132958  1
  O  O24  1  0.247670  0.849362  0.867746  1
  O  O25  1  0.752330  0.849362  0.867746  1
  O  O26  1  0.252223  0.153188  0.132958  1
  O  O27  1  0.000000  0.490763  0.190193  1
  O  O28  1  0.500000  0.509268  0.811445  1
  O  O29  1  0.250045  0.500842  0.000440  1
  O  O30  1  0.749955  0.500842  0.000440  1
