# generated using pymatgen
data_Dy4Ho4Si12PtRh3
_symmetry_space_group_name_H-M   'P 1'
_cell_length_a   8.15781302
_cell_length_b   8.15881793
_cell_length_c   7.89252800
_cell_angle_alpha   89.99999868
_cell_angle_beta   90.00192042
_cell_angle_gamma   120.00408196
_symmetry_Int_Tables_number   1
_chemical_formula_structural   Dy4Ho4Si12PtRh3
_chemical_formula_sum   'Dy4 Ho4 Si12 Pt1 Rh3'
_cell_volume   454.91461182
_cell_formula_units_Z   1
loop_
 _symmetry_equiv_pos_site_id
 _symmetry_equiv_pos_as_xyz
  1  'x, y, z'
loop_
 _atom_site_type_symbol
 _atom_site_label
 _atom_site_symmetry_multiplicity
 _atom_site_fract_x
 _atom_site_fract_y
 _atom_site_fract_z
 _atom_site_occupancy
  Dy  Dy0  1  0.999992  0.999996  0.249479  1
  Dy  Dy1  1  0.000016  0.000008  0.751166  1
  Dy  Dy2  1  0.510358  0.489764  0.247595  1
  Dy  Dy3  1  0.510358  0.020593  0.247595  1
  Ho  Ho4  1  0.979657  0.489829  0.247501  1
  Ho  Ho5  1  0.491395  0.508586  0.752068  1
  Ho  Ho6  1  0.491395  0.982808  0.752068  1
  Ho  Ho7  1  0.017173  0.508586  0.752087  1
  Si  Si8  1  0.164433  0.835440  0.500392  1
  Si  Si9  1  0.164433  0.328992  0.500392  1
  Si  Si10  1  0.670962  0.835480  0.500413  1
  Si  Si11  1  0.832139  0.168145  0.499777  1
  Si  Si12  1  0.832139  0.663996  0.499777  1
  Si  Si13  1  0.335935  0.167969  0.499993  1
  Si  Si14  1  0.833243  0.167030  0.999161  1
  Si  Si15  1  0.833243  0.666214  0.999161  1
  Si  Si16  1  0.333695  0.166848  0.998962  1
  Si  Si17  1  0.166900  0.832929  0.000414  1
  Si  Si18  1  0.166900  0.333970  0.000414  1
  Si  Si19  1  0.666039  0.833019  0.000342  1
  Pt  Pt20  1  0.332899  0.666450  0.466907  1
  Rh  Rh21  1  0.666910  0.333454  0.538111  1
  Rh  Rh22  1  0.666904  0.333452  0.962174  1
  Rh  Rh23  1  0.332882  0.666441  0.034052  1
