# generated using pymatgen
data_CdHgAsI
_symmetry_space_group_name_H-M   'P 1'
_cell_length_a   4.80549500
_cell_length_b   10.63052100
_cell_length_c   11.29625900
_cell_angle_alpha   90.00000000
_cell_angle_beta   90.00000000
_cell_angle_gamma   90.00000000
_symmetry_Int_Tables_number   1
_chemical_formula_structural   CdHgAsI
_chemical_formula_sum   'Cd4 Hg4 As4 I4'
_cell_volume   577.06843663
_cell_formula_units_Z   4
loop_
 _symmetry_equiv_pos_site_id
 _symmetry_equiv_pos_as_xyz
  1  'x, y, z'
loop_
 _atom_site_type_symbol
 _atom_site_label
 _atom_site_symmetry_multiplicity
 _atom_site_fract_x
 _atom_site_fract_y
 _atom_site_fract_z
 _atom_site_occupancy
  Cd  Cd0  1  0.000000  0.280125  0.069693  1
  Cd  Cd1  1  0.000000  0.280125  0.430307  1
  Cd  Cd2  1  0.000000  0.719875  0.930307  1
  Cd  Cd3  1  0.000000  0.719875  0.569693  1
  Hg  Hg4  1  0.500000  0.252481  0.750000  1
  Hg  Hg5  1  0.500000  0.747519  0.250000  1
  Hg  Hg6  1  0.500000  0.000000  0.500000  1
  Hg  Hg7  1  0.500000  0.000000  0.000000  1
  As  As8  1  0.500000  0.240962  0.975763  1
  As  As9  1  0.500000  0.759038  0.024237  1
  As  As10  1  0.500000  0.240962  0.524237  1
  As  As11  1  0.500000  0.759038  0.475763  1
  I  I12  1  0.000000  0.521675  0.750000  1
  I  I13  1  0.000000  0.478325  0.250000  1
  I  I14  1  0.000000  0.067326  0.250000  1
  I  I15  1  0.000000  0.932674  0.750000  1
