# generated using pymatgen
data_Er2Ni2P7Ru10
_symmetry_space_group_name_H-M   'P 1'
_cell_length_a   9.40164124
_cell_length_b   9.43738158
_cell_length_c   3.85994100
_cell_angle_alpha   90.00000000
_cell_angle_beta   90.00000000
_cell_angle_gamma   120.21416338
_symmetry_Int_Tables_number   1
_chemical_formula_structural   Er2Ni2P7Ru10
_chemical_formula_sum   'Er2 Ni2 P7 Ru10'
_cell_volume   295.95467660
_cell_formula_units_Z   1
loop_
 _symmetry_equiv_pos_site_id
 _symmetry_equiv_pos_as_xyz
  1  'x, y, z'
loop_
 _atom_site_type_symbol
 _atom_site_label
 _atom_site_symmetry_multiplicity
 _atom_site_fract_x
 _atom_site_fract_y
 _atom_site_fract_z
 _atom_site_occupancy
  Er  Er0  1  0.335509  0.669256  0.000000  1
  Er  Er1  1  0.668272  0.332423  0.499999  1
  Ni  Ni2  1  0.929864  0.369669  0.000000  1
  Ni  Ni3  1  0.634816  0.562352  0.000000  1
  P  P4  1  0.130259  0.410728  0.499999  1
  P  P5  1  0.595397  0.718024  0.499999  1
  P  P6  1  0.283464  0.882047  0.499999  1
  P  P7  1  0.004987  0.003219  0.000000  1
  P  P8  1  0.415017  0.303408  0.000000  1
  P  P9  1  0.704649  0.113881  0.000000  1
  P  P10  1  0.884093  0.583212  0.000000  1
  Ru  Ru11  1  0.156478  0.279045  0.000000  1
  Ru  Ru12  1  0.731331  0.882085  0.000000  1
  Ru  Ru13  1  0.113302  0.839059  0.000000  1
  Ru  Ru14  1  0.400119  0.441933  0.499999  1
  Ru  Ru15  1  0.556684  0.948549  0.499999  1
  Ru  Ru16  1  0.049508  0.601967  0.499999  1
  Ru  Ru17  1  0.438190  0.074003  0.000000  1
  Ru  Ru18  1  0.209943  0.088209  0.499999  1
  Ru  Ru19  1  0.898967  0.146892  0.499999  1
  Ru  Ru20  1  0.859143  0.750040  0.499999  1
