# generated using pymatgen
data_Lu3Al3Zn2Pt
_symmetry_space_group_name_H-M   'P 1'
_cell_length_a   6.86509200
_cell_length_b   6.86509194
_cell_length_c   4.26437300
_cell_angle_alpha   90.00000000
_cell_angle_beta   90.00000000
_cell_angle_gamma   120.00000030
_symmetry_Int_Tables_number   1
_chemical_formula_structural   Lu3Al3Zn2Pt
_chemical_formula_sum   'Lu3 Al3 Zn2 Pt1'
_cell_volume   174.05180630
_cell_formula_units_Z   1
loop_
 _symmetry_equiv_pos_site_id
 _symmetry_equiv_pos_as_xyz
  1  'x, y, z'
loop_
 _atom_site_type_symbol
 _atom_site_label
 _atom_site_symmetry_multiplicity
 _atom_site_fract_x
 _atom_site_fract_y
 _atom_site_fract_z
 _atom_site_occupancy
  Lu  Lu0  1  0.417538  0.000000  0.000000  1
  Lu  Lu1  1  0.000000  0.417537  0.000000  1
  Lu  Lu2  1  0.582463  0.582463  0.000000  1
  Al  Al3  1  0.764643  0.000000  0.499999  1
  Al  Al4  1  0.235357  0.235357  0.499999  1
  Al  Al5  1  0.000000  0.764643  0.499999  1
  Zn  Zn6  1  0.666666  0.333333  0.499999  1
  Zn  Zn7  1  0.333334  0.666667  0.499999  1
  Pt  Pt8  1  0.000000  0.000000  0.000000  1
