# generated using pymatgen
data_Tb3Nd2(Sn5Rh2)2
_symmetry_space_group_name_H-M   'P 1'
_cell_length_a   14.15973100
_cell_length_b   14.15973100
_cell_length_c   4.56918400
_cell_angle_alpha   90.00000000
_cell_angle_beta   90.00000000
_cell_angle_gamma   90.00000000
_symmetry_Int_Tables_number   1
_chemical_formula_structural   Tb3Nd2(Sn5Rh2)2
_chemical_formula_sum   'Tb6 Nd4 Sn20 Rh8'
_cell_volume   916.11217135
_cell_formula_units_Z   2
loop_
 _symmetry_equiv_pos_site_id
 _symmetry_equiv_pos_as_xyz
  1  'x, y, z'
loop_
 _atom_site_type_symbol
 _atom_site_label
 _atom_site_symmetry_multiplicity
 _atom_site_fract_x
 _atom_site_fract_y
 _atom_site_fract_z
 _atom_site_occupancy
  Tb  Tb0  1  0.500000  0.500000  0.000000  1
  Tb  Tb1  1  0.000000  0.000000  0.000000  1
  Tb  Tb2  1  0.677429  0.177429  0.500000  1
  Tb  Tb3  1  0.322571  0.822571  0.500000  1
  Tb  Tb4  1  0.177429  0.322571  0.500000  1
  Tb  Tb5  1  0.822571  0.677429  0.500000  1
  Nd  Nd6  1  0.888312  0.388312  0.500000  1
  Nd  Nd7  1  0.111688  0.611688  0.500000  1
  Nd  Nd8  1  0.388312  0.111688  0.500000  1
  Nd  Nd9  1  0.611688  0.888312  0.500000  1
  Sn  Sn10  1  0.570158  0.070158  0.000000  1
  Sn  Sn11  1  0.429842  0.929842  0.000000  1
  Sn  Sn12  1  0.070158  0.429842  0.000000  1
  Sn  Sn13  1  0.929842  0.570158  0.000000  1
  Sn  Sn14  1  0.654287  0.698196  0.000000  1
  Sn  Sn15  1  0.345713  0.301804  0.000000  1
  Sn  Sn16  1  0.154287  0.801804  0.000000  1
  Sn  Sn17  1  0.845713  0.198196  0.000000  1
  Sn  Sn18  1  0.301804  0.654287  0.000000  1
  Sn  Sn19  1  0.698196  0.345713  0.000000  1
  Sn  Sn20  1  0.198196  0.154287  0.000000  1
  Sn  Sn21  1  0.801804  0.845713  0.000000  1
  Sn  Sn22  1  0.661813  0.505527  0.500000  1
  Sn  Sn23  1  0.338187  0.494473  0.500000  1
  Sn  Sn24  1  0.161813  0.994473  0.500000  1
  Sn  Sn25  1  0.838187  0.005527  0.500000  1
  Sn  Sn26  1  0.494473  0.661813  0.500000  1
  Sn  Sn27  1  0.505527  0.338187  0.500000  1
  Sn  Sn28  1  0.005527  0.161813  0.500000  1
  Sn  Sn29  1  0.994473  0.838187  0.500000  1
  Rh  Rh30  1  0.746394  0.529005  0.000000  1
  Rh  Rh31  1  0.253606  0.470995  0.000000  1
  Rh  Rh32  1  0.246394  0.970995  0.000000  1
  Rh  Rh33  1  0.753606  0.029005  0.000000  1
  Rh  Rh34  1  0.470995  0.746394  0.000000  1
  Rh  Rh35  1  0.529005  0.253606  0.000000  1
  Rh  Rh36  1  0.029005  0.246394  0.000000  1
  Rh  Rh37  1  0.970995  0.753606  0.000000  1
