# generated using pymatgen
data_Be5IrRu
_symmetry_space_group_name_H-M   'P 1'
_cell_length_a   5.71696392
_cell_length_b   5.71696330
_cell_length_c   5.86410536
_cell_angle_alpha   95.84521810
_cell_angle_beta   95.84521784
_cell_angle_gamma   44.78967173
_symmetry_Int_Tables_number   1
_chemical_formula_structural   Be5IrRu
_chemical_formula_sum   'Be10 Ir2 Ru2'
_cell_volume   134.20440987
_cell_formula_units_Z   2
loop_
 _symmetry_equiv_pos_site_id
 _symmetry_equiv_pos_as_xyz
  1  'x, y, z'
loop_
 _atom_site_type_symbol
 _atom_site_label
 _atom_site_symmetry_multiplicity
 _atom_site_fract_x
 _atom_site_fract_y
 _atom_site_fract_z
 _atom_site_occupancy
  Be  Be0  1  0.066705  0.774989  0.901308  1
  Be  Be1  1  0.225011  0.933295  0.598692  1
  Be  Be2  1  0.947861  0.227436  0.085200  1
  Be  Be3  1  0.772564  0.052139  0.414800  1
  Be  Be4  1  0.073789  0.362295  0.811107  1
  Be  Be5  1  0.637705  0.926211  0.688893  1
  Be  Be6  1  0.937408  0.634020  0.183253  1
  Be  Be7  1  0.365980  0.062592  0.316747  1
  Be  Be8  1  0.730832  0.269168  0.750000  1
  Be  Be9  1  0.231145  0.768855  0.250000  1
  Ir  Ir10  1  0.235245  0.506452  0.539999  1
  Ir  Ir11  1  0.493548  0.764755  0.960001  1
  Ru  Ru12  1  0.758062  0.475854  0.447398  1
  Ru  Ru13  1  0.524146  0.241938  0.052602  1
