# generated using pymatgen
data_Zr4Co4SiP3
_symmetry_space_group_name_H-M   'P 1'
_cell_length_a   3.72536500
_cell_length_b   6.38900107
_cell_length_c   7.19561220
_cell_angle_alpha   90.09088251
_cell_angle_beta   90.00000000
_cell_angle_gamma   90.00000000
_symmetry_Int_Tables_number   1
_chemical_formula_structural   Zr4Co4SiP3
_chemical_formula_sum   'Zr4 Co4 Si1 P3'
_cell_volume   171.26514782
_cell_formula_units_Z   1
loop_
 _symmetry_equiv_pos_site_id
 _symmetry_equiv_pos_as_xyz
  1  'x, y, z'
loop_
 _atom_site_type_symbol
 _atom_site_label
 _atom_site_symmetry_multiplicity
 _atom_site_fract_x
 _atom_site_fract_y
 _atom_site_fract_z
 _atom_site_occupancy
  Zr  Zr0  1  0.250000  0.015772  0.318129  1
  Zr  Zr1  1  0.250000  0.521149  0.184810  1
  Zr  Zr2  1  0.750000  0.983730  0.684726  1
  Zr  Zr3  1  0.750000  0.484489  0.813452  1
  Co  Co4  1  0.250000  0.136178  0.935454  1
  Co  Co5  1  0.250000  0.639396  0.561240  1
  Co  Co6  1  0.750000  0.857545  0.059628  1
  Co  Co7  1  0.750000  0.361761  0.441783  1
  Si  Si8  1  0.750000  0.222303  0.110584  1
  P  P9  1  0.250000  0.276404  0.611982  1
  P  P10  1  0.250000  0.778400  0.888838  1
  P  P11  1  0.750000  0.722874  0.389375  1
