# generated using pymatgen
data_TbY12Th3(MgRh)4
_symmetry_space_group_name_H-M   'P 1'
_cell_length_a   9.79848753
_cell_length_b   9.80664229
_cell_length_c   9.80664200
_cell_angle_alpha   59.99999423
_cell_angle_beta   59.97245990
_cell_angle_gamma   59.97245237
_symmetry_Int_Tables_number   1
_chemical_formula_structural   TbY12Th3(MgRh)4
_chemical_formula_sum   'Tb1 Y12 Th3 Mg4 Rh4'
_cell_volume   666.04527167
_cell_formula_units_Z   1
loop_
 _symmetry_equiv_pos_site_id
 _symmetry_equiv_pos_as_xyz
  1  'x, y, z'
loop_
 _atom_site_type_symbol
 _atom_site_label
 _atom_site_symmetry_multiplicity
 _atom_site_fract_x
 _atom_site_fract_y
 _atom_site_fract_z
 _atom_site_occupancy
  Tb  Tb0  1  0.201704  0.599432  0.599432  1
  Y  Y1  1  0.062461  0.437924  0.437924  1
  Y  Y2  1  0.437390  0.062983  0.062983  1
  Y  Y3  1  0.437390  0.062983  0.436643  1
  Y  Y4  1  0.062461  0.437924  0.061689  1
  Y  Y5  1  0.437390  0.436643  0.062983  1
  Y  Y6  1  0.062461  0.061689  0.437924  1
  Y  Y7  1  0.185472  0.814871  0.814871  1
  Y  Y8  1  0.815217  0.184576  0.184576  1
  Y  Y9  1  0.815217  0.184576  0.815631  1
  Y  Y10  1  0.185472  0.814871  0.184786  1
  Y  Y11  1  0.815217  0.815631  0.184576  1
  Y  Y12  1  0.185472  0.184786  0.814871  1
  Th  Th13  1  0.595835  0.598299  0.598299  1
  Th  Th14  1  0.595835  0.598299  0.207568  1
  Th  Th15  1  0.595835  0.207568  0.598299  1
  Mg  Mg16  1  0.830463  0.830049  0.830049  1
  Mg  Mg17  1  0.830463  0.830049  0.509438  1
  Mg  Mg18  1  0.830463  0.509438  0.830049  1
  Mg  Mg19  1  0.507895  0.830702  0.830702  1
  Rh  Rh20  1  0.397875  0.392100  0.392100  1
  Rh  Rh21  1  0.397875  0.392100  0.817926  1
  Rh  Rh22  1  0.397875  0.817926  0.392100  1
  Rh  Rh23  1  0.816262  0.394579  0.394579  1
