# generated using pymatgen
data_CaTbHo(Al3Ni2)3
_symmetry_space_group_name_H-M   'P 1'
_cell_length_a   9.13497300
_cell_length_b   9.13497353
_cell_length_c   4.01678800
_cell_angle_alpha   90.00000000
_cell_angle_beta   90.00000000
_cell_angle_gamma   120.00000172
_symmetry_Int_Tables_number   1
_chemical_formula_structural   CaTbHo(Al3Ni2)3
_chemical_formula_sum   'Ca1 Tb1 Ho1 Al9 Ni6'
_cell_volume   290.28466667
_cell_formula_units_Z   1
loop_
 _symmetry_equiv_pos_site_id
 _symmetry_equiv_pos_as_xyz
  1  'x, y, z'
loop_
 _atom_site_type_symbol
 _atom_site_label
 _atom_site_symmetry_multiplicity
 _atom_site_fract_x
 _atom_site_fract_y
 _atom_site_fract_z
 _atom_site_occupancy
  Ca  Ca0  1  0.000000  0.000000  0.000000  1
  Tb  Tb1  1  0.666667  0.333333  0.500000  1
  Ho  Ho2  1  0.333333  0.666667  0.500000  1
  Al  Al3  1  0.499862  0.999723  0.000000  1
  Al  Al4  1  0.000277  0.500138  0.000000  1
  Al  Al5  1  0.499862  0.500138  0.000000  1
  Al  Al6  1  0.298762  0.999627  0.500000  1
  Al  Al7  1  0.700865  0.999627  0.500000  1
  Al  Al8  1  0.000373  0.299135  0.500000  1
  Al  Al9  1  0.000373  0.701238  0.500000  1
  Al  Al10  1  0.700865  0.701238  0.500000  1
  Al  Al11  1  0.298762  0.299135  0.500000  1
  Ni  Ni12  1  0.182954  0.365909  0.000000  1
  Ni  Ni13  1  0.817538  0.635075  0.000000  1
  Ni  Ni14  1  0.634091  0.817046  0.000000  1
  Ni  Ni15  1  0.364925  0.182462  0.000000  1
  Ni  Ni16  1  0.182954  0.817046  0.000000  1
  Ni  Ni17  1  0.817538  0.182462  0.000000  1
