# generated using pymatgen
data_Tm16MgCd(InRh2)2
_symmetry_space_group_name_H-M   'P 1'
_cell_length_a   9.56145988
_cell_length_b   9.52382784
_cell_length_c   9.52382727
_cell_angle_alpha   59.81545000
_cell_angle_beta   60.02528535
_cell_angle_gamma   60.02529716
_symmetry_Int_Tables_number   1
_chemical_formula_structural   Tm16MgCd(InRh2)2
_chemical_formula_sum   'Tm16 Mg1 Cd1 In2 Rh4'
_cell_volume   612.61597926
_cell_formula_units_Z   1
loop_
 _symmetry_equiv_pos_site_id
 _symmetry_equiv_pos_as_xyz
  1  'x, y, z'
loop_
 _atom_site_type_symbol
 _atom_site_label
 _atom_site_symmetry_multiplicity
 _atom_site_fract_x
 _atom_site_fract_y
 _atom_site_fract_z
 _atom_site_occupancy
  Tm  Tm0  1  0.061505  0.062648  0.437411  1
  Tm  Tm1  1  0.434540  0.066001  0.435936  1
  Tm  Tm2  1  0.061505  0.437411  0.062648  1
  Tm  Tm3  1  0.052921  0.648094  0.648094  1
  Tm  Tm4  1  0.434540  0.435936  0.066001  1
  Tm  Tm5  1  0.648651  0.046414  0.651155  1
  Tm  Tm6  1  0.190411  0.810558  0.189897  1
  Tm  Tm7  1  0.190411  0.189897  0.810558  1
  Tm  Tm8  1  0.811164  0.811460  0.189658  1
  Tm  Tm9  1  0.437602  0.062578  0.062578  1
  Tm  Tm10  1  0.815728  0.186737  0.186737  1
  Tm  Tm11  1  0.063734  0.435482  0.435482  1
  Tm  Tm12  1  0.811164  0.189658  0.811460  1
  Tm  Tm13  1  0.191998  0.808656  0.808656  1
  Tm  Tm14  1  0.648651  0.651155  0.046414  1
  Tm  Tm15  1  0.651799  0.653113  0.653113  1
  Mg  Mg16  1  0.730764  0.423638  0.423638  1
  Cd  Cd17  1  0.419156  0.417067  0.417067  1
  In  In18  1  0.419292  0.748131  0.417005  1
  In  In19  1  0.419292  0.417005  0.748131  1
  Rh  Rh20  1  0.860464  0.856840  0.426737  1
  Rh  Rh21  1  0.859531  0.856209  0.856209  1
  Rh  Rh22  1  0.424713  0.858575  0.858575  1
  Rh  Rh23  1  0.860464  0.426737  0.856840  1
