# generated using pymatgen
data_YZnGa3Ni
_symmetry_space_group_name_H-M   'P 1'
_cell_length_a   7.93979406
_cell_length_b   7.93979494
_cell_length_c   6.50764100
_cell_angle_alpha   90.00000000
_cell_angle_beta   90.00000000
_cell_angle_gamma   150.02617658
_symmetry_Int_Tables_number   1
_chemical_formula_structural   YZnGa3Ni
_chemical_formula_sum   'Y2 Zn2 Ga6 Ni2'
_cell_volume   204.95960175
_cell_formula_units_Z   2
loop_
 _symmetry_equiv_pos_site_id
 _symmetry_equiv_pos_as_xyz
  1  'x, y, z'
loop_
 _atom_site_type_symbol
 _atom_site_label
 _atom_site_symmetry_multiplicity
 _atom_site_fract_x
 _atom_site_fract_y
 _atom_site_fract_z
 _atom_site_occupancy
  Y  Y0  1  0.376539  0.623461  0.750000  1
  Y  Y1  1  0.623461  0.376539  0.250000  1
  Zn  Zn2  1  0.000000  0.000000  0.000000  1
  Zn  Zn3  1  0.000000  0.000000  0.500000  1
  Ga  Ga4  1  0.568617  0.431383  0.750000  1
  Ga  Ga5  1  0.431383  0.568617  0.250000  1
  Ga  Ga6  1  0.183504  0.816496  0.949139  1
  Ga  Ga7  1  0.816496  0.183504  0.050861  1
  Ga  Ga8  1  0.183504  0.816496  0.550861  1
  Ga  Ga9  1  0.816496  0.183504  0.449139  1
  Ni  Ni10  1  0.722733  0.277267  0.750000  1
  Ni  Ni11  1  0.277267  0.722733  0.250000  1
