# generated using pymatgen
data_Cs8Li4In3GaAs8
_symmetry_space_group_name_H-M   'P 1'
_cell_length_a   10.96861001
_cell_length_b   10.96851219
_cell_length_c   6.60263799
_cell_angle_alpha   89.94322862
_cell_angle_beta   90.05720705
_cell_angle_gamma   105.96273503
_symmetry_Int_Tables_number   1
_chemical_formula_structural   Cs8Li4In3GaAs8
_chemical_formula_sum   'Cs8 Li4 In3 Ga1 As8'
_cell_volume   763.72850463
_cell_formula_units_Z   1
loop_
 _symmetry_equiv_pos_site_id
 _symmetry_equiv_pos_as_xyz
  1  'x, y, z'
loop_
 _atom_site_type_symbol
 _atom_site_label
 _atom_site_symmetry_multiplicity
 _atom_site_fract_x
 _atom_site_fract_y
 _atom_site_fract_z
 _atom_site_occupancy
  Cs  Cs0  1  0.078047  0.421640  0.747947  1
  Cs  Cs1  1  0.669573  0.327659  0.777653  1
  Cs  Cs2  1  0.327661  0.669575  0.222345  1
  Cs  Cs3  1  0.576760  0.924453  0.750920  1
  Cs  Cs4  1  0.421644  0.078048  0.252053  1
  Cs  Cs5  1  0.924453  0.576757  0.249080  1
  Cs  Cs6  1  0.828949  0.171930  0.279419  1
  Cs  Cs7  1  0.171932  0.828946  0.720582  1
  Li  Li8  1  0.120649  0.120644  0.500002  1
  Li  Li9  1  0.880111  0.880108  0.500000  1
  Li  Li10  1  0.376902  0.376903  0.999995  1
  Li  Li11  1  0.620982  0.620977  0.000002  1
  In  In12  1  0.870002  0.870029  0.000004  1
  In  In13  1  0.365937  0.365942  0.499995  1
  In  In14  1  0.631862  0.631842  0.500013  1
  Ga  Ga15  1  0.130075  0.130072  0.999999  1
  As  As16  1  0.838835  0.662622  0.749902  1
  As  As17  1  0.089652  0.924260  0.217809  1
  As  As18  1  0.414371  0.585601  0.726371  1
  As  As19  1  0.585595  0.414368  0.273623  1
  As  As20  1  0.662621  0.838832  0.250097  1
  As  As21  1  0.161199  0.327929  0.238107  1
  As  As22  1  0.327927  0.161205  0.761890  1
  As  As23  1  0.924261  0.089657  0.782191  1
