# generated using pymatgen
data_Y2ThBC3
_symmetry_space_group_name_H-M   'P 1'
_cell_length_a   3.73060504
_cell_length_b   3.73060520
_cell_length_c   16.18121400
_cell_angle_alpha   90.00000000
_cell_angle_beta   90.00000000
_cell_angle_gamma   90.43407576
_symmetry_Int_Tables_number   1
_chemical_formula_structural   Y2ThBC3
_chemical_formula_sum   'Y4 Th2 B2 C6'
_cell_volume   225.19420040
_cell_formula_units_Z   2
loop_
 _symmetry_equiv_pos_site_id
 _symmetry_equiv_pos_as_xyz
  1  'x, y, z'
loop_
 _atom_site_type_symbol
 _atom_site_label
 _atom_site_symmetry_multiplicity
 _atom_site_fract_x
 _atom_site_fract_y
 _atom_site_fract_z
 _atom_site_occupancy
  Y  Y0  1  0.587578  0.412424  0.099674  1
  Y  Y1  1  0.587578  0.412424  0.400326  1
  Y  Y2  1  0.412424  0.587578  0.599674  1
  Y  Y3  1  0.412424  0.587578  0.900326  1
  Th  Th4  1  0.092332  0.907669  0.250000  1
  Th  Th5  1  0.907669  0.092332  0.750000  1
  B  B6  1  0.000000  0.000000  0.000000  1
  B  B7  1  0.000000  0.000000  0.500000  1
  C  C8  1  0.082162  0.917839  0.087157  1
  C  C9  1  0.597007  0.402994  0.250000  1
  C  C10  1  0.082162  0.917839  0.412843  1
  C  C11  1  0.917839  0.082162  0.587157  1
  C  C12  1  0.402994  0.597007  0.750000  1
  C  C13  1  0.917839  0.082162  0.912843  1
