# generated using pymatgen
data_LiTmSiNi3
_symmetry_space_group_name_H-M   'P 1'
_cell_length_a   5.02430322
_cell_length_b   5.02430408
_cell_length_c   4.76691396
_cell_angle_alpha   58.19717779
_cell_angle_beta   58.19716807
_cell_angle_gamma   59.99999460
_symmetry_Int_Tables_number   1
_chemical_formula_structural   LiTmSiNi3
_chemical_formula_sum   'Li1 Tm1 Si1 Ni3'
_cell_volume   82.69624548
_cell_formula_units_Z   1
loop_
 _symmetry_equiv_pos_site_id
 _symmetry_equiv_pos_as_xyz
  1  'x, y, z'
loop_
 _atom_site_type_symbol
 _atom_site_label
 _atom_site_symmetry_multiplicity
 _atom_site_fract_x
 _atom_site_fract_y
 _atom_site_fract_z
 _atom_site_occupancy
  Li  Li0  1  0.493579  0.493579  0.519264  1
  Tm  Tm1  1  0.745783  0.745783  0.762650  1
  Si  Si2  1  0.129615  0.129615  0.611156  1
  Ni  Ni3  1  0.128103  0.624818  0.118977  1
  Ni  Ni4  1  0.624818  0.128103  0.118977  1
  Ni  Ni5  1  0.128103  0.128103  0.118977  1
