# generated using pymatgen
data_Er12Co4AgRh
_symmetry_space_group_name_H-M   'P 1'
_cell_length_a   8.18536901
_cell_length_b   8.18522346
_cell_length_c   8.18537062
_cell_angle_alpha   110.93385529
_cell_angle_beta   110.45256975
_cell_angle_gamma   107.05500415
_symmetry_Int_Tables_number   1
_chemical_formula_structural   Er12Co4AgRh
_chemical_formula_sum   'Er12 Co4 Ag1 Rh1'
_cell_volume   421.59632974
_cell_formula_units_Z   1
loop_
 _symmetry_equiv_pos_site_id
 _symmetry_equiv_pos_as_xyz
  1  'x, y, z'
loop_
 _atom_site_type_symbol
 _atom_site_label
 _atom_site_symmetry_multiplicity
 _atom_site_fract_x
 _atom_site_fract_y
 _atom_site_fract_z
 _atom_site_occupancy
  Er  Er0  1  0.185461  0.289349  0.474803  1
  Er  Er1  1  0.814539  0.710651  0.525197  1
  Er  Er2  1  0.185454  0.710651  0.896112  1
  Er  Er3  1  0.814546  0.289349  0.103888  1
  Er  Er4  1  0.314393  0.619295  0.304902  1
  Er  Er5  1  0.685607  0.380705  0.695098  1
  Er  Er6  1  0.314409  0.009519  0.695110  1
  Er  Er7  1  0.685591  0.990481  0.304890  1
  Er  Er8  1  0.410941  0.215323  0.195608  1
  Er  Er9  1  0.589059  0.784677  0.804392  1
  Er  Er10  1  0.019715  0.215323  0.804382  1
  Er  Er11  1  0.980285  0.784677  0.195618  1
  Co  Co12  1  0.113200  0.613202  0.500002  1
  Co  Co13  1  0.886800  0.386798  0.499998  1
  Co  Co14  1  0.376641  0.000000  0.376641  1
  Co  Co15  1  0.623359  0.000000  0.623359  1
  Ag  Ag16  1  0.500000  0.500000  0.000000  1
  Rh  Rh17  1  0.000000  0.000000  0.000000  1
