# generated using pymatgen
data_Lu6Rh3Au17
_symmetry_space_group_name_H-M   'P 1'
_cell_length_a   10.75296600
_cell_length_b   10.75296401
_cell_length_c   4.89220400
_cell_angle_alpha   90.00000000
_cell_angle_beta   90.00000000
_cell_angle_gamma   119.99999997
_symmetry_Int_Tables_number   1
_chemical_formula_structural   Lu6Rh3Au17
_chemical_formula_sum   'Lu6 Rh3 Au17'
_cell_volume   489.88219486
_cell_formula_units_Z   1
loop_
 _symmetry_equiv_pos_site_id
 _symmetry_equiv_pos_as_xyz
  1  'x, y, z'
loop_
 _atom_site_type_symbol
 _atom_site_label
 _atom_site_symmetry_multiplicity
 _atom_site_fract_x
 _atom_site_fract_y
 _atom_site_fract_z
 _atom_site_occupancy
  Lu  Lu0  1  0.657342  0.755858  0.250000  1
  Lu  Lu1  1  0.244142  0.901484  0.250000  1
  Lu  Lu2  1  0.098516  0.342658  0.250000  1
  Lu  Lu3  1  0.352453  0.250739  0.750000  1
  Lu  Lu4  1  0.749261  0.101714  0.750000  1
  Lu  Lu5  1  0.898286  0.647547  0.750000  1
  Rh  Rh6  1  0.879509  0.050647  0.250000  1
  Rh  Rh7  1  0.949353  0.828863  0.250000  1
  Rh  Rh8  1  0.171137  0.120491  0.250000  1
  Au  Au9  1  0.122361  0.949284  0.750000  1
  Au  Au10  1  0.050716  0.173077  0.750000  1
  Au  Au11  1  0.826923  0.877639  0.750000  1
  Au  Au12  1  0.567791  0.977406  0.250000  1
  Au  Au13  1  0.022594  0.590385  0.250000  1
  Au  Au14  1  0.409615  0.432209  0.250000  1
  Au  Au15  1  0.435270  0.022766  0.750000  1
  Au  Au16  1  0.977234  0.412504  0.750000  1
  Au  Au17  1  0.587496  0.564730  0.750000  1
  Au  Au18  1  0.795503  0.278352  0.250000  1
  Au  Au19  1  0.721648  0.517151  0.250000  1
  Au  Au20  1  0.482849  0.204497  0.250000  1
  Au  Au21  1  0.206438  0.719742  0.750000  1
  Au  Au22  1  0.280258  0.486696  0.750000  1
  Au  Au23  1  0.513304  0.793562  0.750000  1
  Au  Au24  1  0.666667  0.333333  0.750000  1
  Au  Au25  1  0.333333  0.666667  0.250000  1
