# generated using pymatgen
data_ZnCu3Sn6IrS16
_symmetry_space_group_name_H-M   'P 1'
_cell_length_a   7.43795700
_cell_length_b   7.39874491
_cell_length_c   10.40629736
_cell_angle_alpha   89.53923848
_cell_angle_beta   90.00000000
_cell_angle_gamma   90.00000000
_symmetry_Int_Tables_number   1
_chemical_formula_structural   ZnCu3Sn6IrS16
_chemical_formula_sum   'Zn1 Cu3 Sn6 Ir1 S16'
_cell_volume   572.65611961
_cell_formula_units_Z   1
loop_
 _symmetry_equiv_pos_site_id
 _symmetry_equiv_pos_as_xyz
  1  'x, y, z'
loop_
 _atom_site_type_symbol
 _atom_site_label
 _atom_site_symmetry_multiplicity
 _atom_site_fract_x
 _atom_site_fract_y
 _atom_site_fract_z
 _atom_site_occupancy
  Zn  Zn0  1  0.000000  0.756897  0.747315  1
  Cu  Cu1  1  0.000000  0.996750  0.131989  1
  Cu  Cu2  1  0.500000  0.485206  0.625810  1
  Cu  Cu3  1  0.500000  0.015233  0.871845  1
  Sn  Sn4  1  0.000000  0.254757  0.745564  1
  Sn  Sn5  1  0.500000  0.740667  0.252178  1
  Sn  Sn6  1  0.757173  0.999796  0.504270  1
  Sn  Sn7  1  0.250334  0.502589  0.998391  1
  Sn  Sn8  1  0.242827  0.999796  0.504270  1
  Sn  Sn9  1  0.749666  0.502589  0.998391  1
  Ir  Ir10  1  0.500000  0.247021  0.246024  1
  S  S11  1  0.000000  0.252844  0.499727  1
  S  S12  1  0.500000  0.753546  0.997535  1
  S  S13  1  0.000000  0.761358  0.505714  1
  S  S14  1  0.500000  0.253392  0.017869  1
  S  S15  1  0.241661  0.003012  0.750034  1
  S  S16  1  0.723253  0.473856  0.244861  1
  S  S17  1  0.758339  0.003012  0.750034  1
  S  S18  1  0.276747  0.473856  0.244861  1
  S  S19  1  0.500000  0.751269  0.503799  1
  S  S20  1  0.000000  0.250598  0.997621  1
  S  S21  1  0.500000  0.242345  0.477900  1
  S  S22  1  0.000000  0.743414  0.998592  1
  S  S23  1  0.272069  0.012230  0.252924  1
  S  S24  1  0.758723  0.505869  0.752279  1
  S  S25  1  0.727931  0.012230  0.252924  1
  S  S26  1  0.241277  0.505869  0.752279  1
