# generated using pymatgen
data_YbCe2Y(Zn4Ru)2
_symmetry_space_group_name_H-M   'P 1'
_cell_length_a   7.15653200
_cell_length_b   7.15653200
_cell_length_c   5.15271100
_cell_angle_alpha   90.00000000
_cell_angle_beta   90.00000000
_cell_angle_gamma   90.00000000
_symmetry_Int_Tables_number   1
_chemical_formula_structural   YbCe2Y(Zn4Ru)2
_chemical_formula_sum   'Yb1 Ce2 Y1 Zn8 Ru2'
_cell_volume   263.90099032
_cell_formula_units_Z   1
loop_
 _symmetry_equiv_pos_site_id
 _symmetry_equiv_pos_as_xyz
  1  'x, y, z'
loop_
 _atom_site_type_symbol
 _atom_site_label
 _atom_site_symmetry_multiplicity
 _atom_site_fract_x
 _atom_site_fract_y
 _atom_site_fract_z
 _atom_site_occupancy
  Yb  Yb0  1  0.000000  0.500000  0.769116  1
  Ce  Ce1  1  0.000000  0.000000  0.997366  1
  Ce  Ce2  1  0.500000  0.500000  0.997366  1
  Y  Y3  1  0.500000  0.000000  0.223381  1
  Zn  Zn4  1  0.186043  0.686043  0.290905  1
  Zn  Zn5  1  0.813957  0.686043  0.290905  1
  Zn  Zn6  1  0.813957  0.313957  0.290905  1
  Zn  Zn7  1  0.314748  0.185252  0.711962  1
  Zn  Zn8  1  0.186043  0.313957  0.290905  1
  Zn  Zn9  1  0.685252  0.185252  0.711962  1
  Zn  Zn10  1  0.685252  0.814748  0.711962  1
  Zn  Zn11  1  0.314748  0.814748  0.711962  1
  Ru  Ru12  1  0.500000  0.500000  0.500652  1
  Ru  Ru13  1  0.000000  0.000000  0.500652  1
