# generated using pymatgen
data_Er12Ru7
_symmetry_space_group_name_H-M   'P 1'
_cell_length_a   11.22330600
_cell_length_b   8.33103589
_cell_length_c   11.16046620
_cell_angle_alpha   56.32349237
_cell_angle_beta   90.00000000
_cell_angle_gamma   90.00000000
_symmetry_Int_Tables_number   1
_chemical_formula_structural   Er12Ru7
_chemical_formula_sum   'Er24 Ru14'
_cell_volume   868.40082729
_cell_formula_units_Z   2
loop_
 _symmetry_equiv_pos_site_id
 _symmetry_equiv_pos_as_xyz
  1  'x, y, z'
loop_
 _atom_site_type_symbol
 _atom_site_label
 _atom_site_symmetry_multiplicity
 _atom_site_fract_x
 _atom_site_fract_y
 _atom_site_fract_z
 _atom_site_occupancy
  Er  Er0  1  0.706629  0.237180  0.533921  1
  Er  Er1  1  0.206629  0.762820  0.966079  1
  Er  Er2  1  0.843328  0.504907  0.656609  1
  Er  Er3  1  0.343328  0.495093  0.843391  1
  Er  Er4  1  0.156672  0.495093  0.343391  1
  Er  Er5  1  0.656672  0.504907  0.156609  1
  Er  Er6  1  0.005276  0.850968  0.360708  1
  Er  Er7  1  0.505276  0.149032  0.139292  1
  Er  Er8  1  0.994724  0.149032  0.639292  1
  Er  Er9  1  0.494724  0.850968  0.860708  1
  Er  Er10  1  0.793371  0.237180  0.033921  1
  Er  Er11  1  0.293371  0.762820  0.466079  1
  Er  Er12  1  0.931044  0.774777  0.090091  1
  Er  Er13  1  0.431044  0.225223  0.409909  1
  Er  Er14  1  0.068956  0.225223  0.909909  1
  Er  Er15  1  0.568956  0.774777  0.590091  1
  Er  Er16  1  0.301292  0.245978  0.673600  1
  Er  Er17  1  0.801292  0.754022  0.826400  1
  Er  Er18  1  0.698708  0.754022  0.326400  1
  Er  Er19  1  0.198708  0.245978  0.173600  1
  Er  Er20  1  0.927031  0.276393  0.295804  1
  Er  Er21  1  0.427031  0.723607  0.204196  1
  Er  Er22  1  0.072969  0.723607  0.704196  1
  Er  Er23  1  0.572969  0.276393  0.795804  1
  Ru  Ru24  1  0.500000  0.500000  0.500000  1
  Ru  Ru25  1  0.000000  0.500000  0.000000  1
  Ru  Ru26  1  0.652548  0.919489  0.032443  1
  Ru  Ru27  1  0.152548  0.080511  0.467557  1
  Ru  Ru28  1  0.347452  0.080511  0.967557  1
  Ru  Ru29  1  0.847452  0.919489  0.532443  1
  Ru  Ru30  1  0.398895  0.488725  0.101898  1
  Ru  Ru31  1  0.898895  0.511275  0.398102  1
  Ru  Ru32  1  0.601105  0.511275  0.898102  1
  Ru  Ru33  1  0.101105  0.488725  0.601898  1
  Ru  Ru34  1  0.821286  0.098566  0.845206  1
  Ru  Ru35  1  0.321286  0.901434  0.654794  1
  Ru  Ru36  1  0.178714  0.901434  0.154794  1
  Ru  Ru37  1  0.678714  0.098566  0.345206  1
