# generated using pymatgen
data_MnVBrO3
_symmetry_space_group_name_H-M   'P 1'
_cell_length_a   3.66993100
_cell_length_b   6.90769000
_cell_length_c   16.04581000
_cell_angle_alpha   90.00000000
_cell_angle_beta   90.00000000
_cell_angle_gamma   90.00000000
_symmetry_Int_Tables_number   1
_chemical_formula_structural   MnVBrO3
_chemical_formula_sum   'Mn4 V4 Br4 O12'
_cell_volume   406.77324837
_cell_formula_units_Z   4
loop_
 _symmetry_equiv_pos_site_id
 _symmetry_equiv_pos_as_xyz
  1  'x, y, z'
loop_
 _atom_site_type_symbol
 _atom_site_label
 _atom_site_symmetry_multiplicity
 _atom_site_fract_x
 _atom_site_fract_y
 _atom_site_fract_z
 _atom_site_occupancy
  Mn  Mn0  1  0.250000  0.073970  0.159329  1
  Mn  Mn1  1  0.750000  0.573970  0.340671  1
  Mn  Mn2  1  0.250000  0.426030  0.659329  1
  Mn  Mn3  1  0.750000  0.926030  0.840671  1
  V  V4  1  0.750000  0.314488  0.003647  1
  V  V5  1  0.250000  0.814488  0.496353  1
  V  V6  1  0.750000  0.185512  0.503647  1
  V  V7  1  0.250000  0.685512  0.996353  1
  Br  Br8  1  0.750000  0.941021  0.268141  1
  Br  Br9  1  0.750000  0.558979  0.768141  1
  Br  Br10  1  0.250000  0.441021  0.231859  1
  Br  Br11  1  0.250000  0.058979  0.731859  1
  O  O12  1  0.250000  0.676594  0.406441  1
  O  O13  1  0.750000  0.323406  0.593559  1
  O  O14  1  0.750000  0.332211  0.421463  1
  O  O15  1  0.250000  0.394197  0.008189  1
  O  O16  1  0.750000  0.605803  0.991811  1
  O  O17  1  0.750000  0.894197  0.491811  1
  O  O18  1  0.750000  0.176594  0.093559  1
  O  O19  1  0.250000  0.823406  0.906441  1
  O  O20  1  0.250000  0.105803  0.508189  1
  O  O21  1  0.250000  0.832211  0.078537  1
  O  O22  1  0.750000  0.167789  0.921463  1
  O  O23  1  0.250000  0.667789  0.578537  1
