# generated using pymatgen
data_Hf2Sc2Co20As5P7
_symmetry_space_group_name_H-M   'P 1'
_cell_length_a   3.63117700
_cell_length_b   10.34310215
_cell_length_c   11.79219699
_cell_angle_alpha   90.18274457
_cell_angle_beta   90.00000000
_cell_angle_gamma   90.00000000
_symmetry_Int_Tables_number   1
_chemical_formula_structural   Hf2Sc2Co20As5P7
_chemical_formula_sum   'Hf2 Sc2 Co20 As5 P7'
_cell_volume   442.88477368
_cell_formula_units_Z   1
loop_
 _symmetry_equiv_pos_site_id
 _symmetry_equiv_pos_as_xyz
  1  'x, y, z'
loop_
 _atom_site_type_symbol
 _atom_site_label
 _atom_site_symmetry_multiplicity
 _atom_site_fract_x
 _atom_site_fract_y
 _atom_site_fract_z
 _atom_site_occupancy
  Hf  Hf0  1  0.250000  0.583766  0.702907  1
  Hf  Hf1  1  0.250000  0.917466  0.200660  1
  Sc  Sc2  1  0.750000  0.421042  0.297955  1
  Sc  Sc3  1  0.750000  0.071252  0.802506  1
  Co  Co4  1  0.250000  0.721239  0.991876  1
  Co  Co5  1  0.250000  0.783642  0.498402  1
  Co  Co6  1  0.750000  0.275959  0.010868  1
  Co  Co7  1  0.750000  0.222216  0.511495  1
  Co  Co8  1  0.250000  0.412920  0.493979  1
  Co  Co9  1  0.250000  0.081509  0.990162  1
  Co  Co10  1  0.750000  0.594469  0.523484  1
  Co  Co11  1  0.750000  0.905534  0.016067  1
  Co  Co12  1  0.250000  0.210254  0.174832  1
  Co  Co13  1  0.250000  0.288867  0.676363  1
  Co  Co14  1  0.750000  0.776863  0.823402  1
  Co  Co15  1  0.750000  0.728746  0.318358  1
  Co  Co16  1  0.250000  0.877477  0.701955  1
  Co  Co17  1  0.250000  0.626586  0.193546  1
  Co  Co18  1  0.750000  0.105579  0.295235  1
  Co  Co19  1  0.750000  0.394455  0.796255  1
  Co  Co20  1  0.250000  0.477450  0.924601  1
  Co  Co21  1  0.250000  0.023107  0.425559  1
  Co  Co22  1  0.750000  0.542102  0.063523  1
  Co  Co23  1  0.750000  0.958032  0.565916  1
  As  As24  1  0.250000  0.415681  0.113423  1
  As  As25  1  0.250000  0.084152  0.615330  1
  As  As26  1  0.250000  0.263692  0.871407  1
  As  As27  1  0.250000  0.234748  0.371198  1
  As  As28  1  0.250000  0.600055  0.387674  1
  P  P29  1  0.750000  0.584178  0.883020  1
  P  P30  1  0.750000  0.917738  0.383606  1
  P  P31  1  0.750000  0.736020  0.129985  1
  P  P32  1  0.750000  0.766320  0.634661  1
  P  P33  1  0.250000  0.898619  0.889501  1
  P  P34  1  0.750000  0.403472  0.611138  1
  P  P35  1  0.750000  0.094792  0.109152  1
