# generated using pymatgen
data_DyHoSi5NiRh2
_symmetry_space_group_name_H-M   'P 1'
_cell_length_a   8.05423040
_cell_length_b   8.02198731
_cell_length_c   8.02198701
_cell_angle_alpha   138.29847841
_cell_angle_beta   104.59821550
_cell_angle_gamma   90.01867399
_symmetry_Int_Tables_number   1
_chemical_formula_structural   DyHoSi5NiRh2
_chemical_formula_sum   'Dy2 Ho2 Si10 Ni2 Rh4'
_cell_volume   319.04852047
_cell_formula_units_Z   2
loop_
 _symmetry_equiv_pos_site_id
 _symmetry_equiv_pos_as_xyz
  1  'x, y, z'
loop_
 _atom_site_type_symbol
 _atom_site_label
 _atom_site_symmetry_multiplicity
 _atom_site_fract_x
 _atom_site_fract_y
 _atom_site_fract_z
 _atom_site_occupancy
  Dy  Dy0  1  0.635447  0.867903  0.767545  1
  Dy  Dy1  1  0.364553  0.132097  0.232455  1
  Ho  Ho2  1  0.102391  0.368250  0.734141  1
  Ho  Ho3  1  0.897609  0.631750  0.265859  1
  Si  Si4  1  0.276155  0.013372  0.744785  1
  Si  Si5  1  0.723845  0.986628  0.255215  1
  Si  Si6  1  0.723845  0.468629  0.737217  1
  Si  Si7  1  0.276155  0.531371  0.262783  1
  Si  Si8  1  0.447187  0.607328  0.839859  1
  Si  Si9  1  0.552813  0.392672  0.160141  1
  Si  Si10  1  0.764479  0.106100  0.658378  1
  Si  Si11  1  0.235521  0.893900  0.341622  1
  Si  Si12  1  0.000000  0.726926  0.726926  1
  Si  Si13  1  0.000000  0.273074  0.273074  1
  Ni  Ni14  1  0.252969  0.639315  0.613652  1
  Ni  Ni15  1  0.747031  0.360685  0.386348  1
  Rh  Rh16  1  0.029780  0.135912  0.893868  1
  Rh  Rh17  1  0.970220  0.864088  0.106132  1
  Rh  Rh18  1  0.500000  0.751038  0.251038  1
  Rh  Rh19  1  0.500000  0.248962  0.748962  1
