# generated using pymatgen
data_TbY3B16Os3Ru
_symmetry_space_group_name_H-M   'P 1'
_cell_length_a   3.57353800
_cell_length_b   5.97676112
_cell_length_c   11.56146903
_cell_angle_alpha   89.98422053
_cell_angle_beta   90.00000000
_cell_angle_gamma   90.00000000
_symmetry_Int_Tables_number   1
_chemical_formula_structural   TbY3B16Os3Ru
_chemical_formula_sum   'Tb1 Y3 B16 Os3 Ru1'
_cell_volume   246.93196169
_cell_formula_units_Z   1
loop_
 _symmetry_equiv_pos_site_id
 _symmetry_equiv_pos_as_xyz
  1  'x, y, z'
loop_
 _atom_site_type_symbol
 _atom_site_label
 _atom_site_symmetry_multiplicity
 _atom_site_fract_x
 _atom_site_fract_y
 _atom_site_fract_z
 _atom_site_occupancy
  Tb  Tb0  1  0.000000  0.628829  0.350149  1
  Y  Y1  1  0.000000  0.371181  0.649778  1
  Y  Y2  1  0.000000  0.128960  0.150377  1
  Y  Y3  1  0.000000  0.870946  0.849600  1
  B  B4  1  0.500000  0.789522  0.185846  1
  B  B5  1  0.500000  0.210393  0.814188  1
  B  B6  1  0.500000  0.289430  0.314477  1
  B  B7  1  0.500000  0.710523  0.685444  1
  B  B8  1  0.500000  0.863545  0.029911  1
  B  B9  1  0.500000  0.136439  0.969983  1
  B  B10  1  0.500000  0.363677  0.469894  1
  B  B11  1  0.500000  0.636285  0.530418  1
  B  B12  1  0.500000  0.888307  0.453424  1
  B  B13  1  0.500000  0.111870  0.546622  1
  B  B14  1  0.500000  0.388024  0.046728  1
  B  B15  1  0.500000  0.612018  0.953165  1
  B  B16  1  0.500000  0.976605  0.308485  1
  B  B17  1  0.500000  0.023068  0.691621  1
  B  B18  1  0.500000  0.476372  0.191484  1
  B  B19  1  0.500000  0.524000  0.808350  1
  Os  Os20  1  0.000000  0.641713  0.092938  1
  Os  Os21  1  0.000000  0.358352  0.907064  1
  Os  Os22  1  0.000000  0.140698  0.407109  1
  Ru  Ru23  1  0.000000  0.859244  0.592945  1
