# generated using pymatgen
data_NdSm4(TcB3)2
_symmetry_space_group_name_H-M   'P 1'
_cell_length_a   8.71247871
_cell_length_b   8.71247851
_cell_length_c   8.71247754
_cell_angle_alpha   37.38893039
_cell_angle_beta   37.38893147
_cell_angle_gamma   37.38892273
_symmetry_Int_Tables_number   1
_chemical_formula_structural   NdSm4(TcB3)2
_chemical_formula_sum   'Nd1 Sm4 Tc2 B6'
_cell_volume   218.64560769
_cell_formula_units_Z   1
loop_
 _symmetry_equiv_pos_site_id
 _symmetry_equiv_pos_as_xyz
  1  'x, y, z'
loop_
 _atom_site_type_symbol
 _atom_site_label
 _atom_site_symmetry_multiplicity
 _atom_site_fract_x
 _atom_site_fract_y
 _atom_site_fract_z
 _atom_site_occupancy
  Nd  Nd0  1  0.000000  0.000000  0.000000  1
  Sm  Sm1  1  0.581462  0.581462  0.581462  1
  Sm  Sm2  1  0.418538  0.418538  0.418538  1
  Sm  Sm3  1  0.751540  0.751540  0.751540  1
  Sm  Sm4  1  0.248460  0.248460  0.248460  1
  Tc  Tc5  1  0.886704  0.886704  0.886704  1
  Tc  Tc6  1  0.113296  0.113296  0.113296  1
  B  B7  1  0.500000  0.830730  0.169270  1
  B  B8  1  0.169270  0.500000  0.830730  1
  B  B9  1  0.830730  0.169270  0.500000  1
  B  B10  1  0.500000  0.169270  0.830730  1
  B  B11  1  0.830730  0.500000  0.169270  1
  B  B12  1  0.169270  0.830730  0.500000  1
