# generated using pymatgen
data_Ta8Al6Mo2P
_symmetry_space_group_name_H-M   'P 1'
_cell_length_a   7.83242400
_cell_length_b   7.83242300
_cell_length_c   5.31852100
_cell_angle_alpha   90.00000000
_cell_angle_beta   90.00000000
_cell_angle_gamma   120.00000423
_symmetry_Int_Tables_number   1
_chemical_formula_structural   Ta8Al6Mo2P
_chemical_formula_sum   'Ta8 Al6 Mo2 P1'
_cell_volume   282.56203846
_cell_formula_units_Z   1
loop_
 _symmetry_equiv_pos_site_id
 _symmetry_equiv_pos_as_xyz
  1  'x, y, z'
loop_
 _atom_site_type_symbol
 _atom_site_label
 _atom_site_symmetry_multiplicity
 _atom_site_fract_x
 _atom_site_fract_y
 _atom_site_fract_z
 _atom_site_occupancy
  Ta  Ta0  1  0.666667  0.333333  0.000000  1
  Ta  Ta1  1  0.333333  0.666667  0.000000  1
  Ta  Ta2  1  0.000000  0.751703  0.214869  1
  Ta  Ta3  1  0.248297  0.248297  0.214869  1
  Ta  Ta4  1  0.751703  0.000000  0.214869  1
  Ta  Ta5  1  0.000000  0.248297  0.785131  1
  Ta  Ta6  1  0.751703  0.751703  0.785131  1
  Ta  Ta7  1  0.248297  0.000000  0.785131  1
  Al  Al8  1  0.000000  0.402186  0.272675  1
  Al  Al9  1  0.597814  0.597814  0.272675  1
  Al  Al10  1  0.402186  0.000000  0.272675  1
  Al  Al11  1  0.000000  0.597814  0.727325  1
  Al  Al12  1  0.402186  0.402186  0.727325  1
  Al  Al13  1  0.597814  0.000000  0.727325  1
  Mo  Mo14  1  0.333333  0.666667  0.500000  1
  Mo  Mo15  1  0.666667  0.333333  0.500000  1
  P  P16  1  0.000000  0.000000  0.500000  1
