# generated using pymatgen
data_Dy5ZnGaBi
_symmetry_space_group_name_H-M   'P 1'
_cell_length_a   8.57533515
_cell_length_b   8.57533485
_cell_length_c   8.72297897
_cell_angle_alpha   123.34320882
_cell_angle_beta   123.34322254
_cell_angle_gamma   83.20984279
_symmetry_Int_Tables_number   1
_chemical_formula_structural   Dy5ZnGaBi
_chemical_formula_sum   'Dy10 Zn2 Ga2 Bi2'
_cell_volume   431.84099855
_cell_formula_units_Z   2
loop_
 _symmetry_equiv_pos_site_id
 _symmetry_equiv_pos_as_xyz
  1  'x, y, z'
loop_
 _atom_site_type_symbol
 _atom_site_label
 _atom_site_symmetry_multiplicity
 _atom_site_fract_x
 _atom_site_fract_y
 _atom_site_fract_z
 _atom_site_occupancy
  Dy  Dy0  1  0.000000  0.000000  0.000000  1
  Dy  Dy1  1  0.500000  0.500000  0.000000  1
  Dy  Dy2  1  0.795490  0.295490  0.800085  1
  Dy  Dy3  1  0.204510  0.704510  0.199915  1
  Dy  Dy4  1  0.495405  0.995405  0.199915  1
  Dy  Dy5  1  0.291910  0.483375  0.500000  1
  Dy  Dy6  1  0.016625  0.208090  0.500000  1
  Dy  Dy7  1  0.504595  0.004595  0.800085  1
  Dy  Dy8  1  0.708090  0.516625  0.500000  1
  Dy  Dy9  1  0.983375  0.791910  0.500000  1
  Zn  Zn10  1  0.636993  0.863007  0.500000  1
  Zn  Zn11  1  0.363007  0.136993  0.500000  1
  Ga  Ga12  1  0.152135  0.652135  0.804269  1
  Ga  Ga13  1  0.847865  0.347865  0.195731  1
  Bi  Bi14  1  0.250000  0.250000  0.000000  1
  Bi  Bi15  1  0.750000  0.750000  0.000000  1
