# generated using pymatgen
data_Sr7CaTaNb3O18
_symmetry_space_group_name_H-M   'P 1'
_cell_length_a   5.93090125
_cell_length_b   5.93109941
_cell_length_c   15.48512827
_cell_angle_alpha   89.98765345
_cell_angle_beta   89.99114119
_cell_angle_gamma   60.01052061
_symmetry_Int_Tables_number   1
_chemical_formula_structural   Sr7CaTaNb3O18
_chemical_formula_sum   'Sr7 Ca1 Ta1 Nb3 O18'
_cell_volume   471.78850519
_cell_formula_units_Z   1
loop_
 _symmetry_equiv_pos_site_id
 _symmetry_equiv_pos_as_xyz
  1  'x, y, z'
loop_
 _atom_site_type_symbol
 _atom_site_label
 _atom_site_symmetry_multiplicity
 _atom_site_fract_x
 _atom_site_fract_y
 _atom_site_fract_z
 _atom_site_occupancy
  Sr  Sr0  1  0.000021  0.999845  0.241213  1
  Sr  Sr1  1  0.000005  0.000006  0.500442  1
  Sr  Sr2  1  0.666621  0.667366  0.352371  1
  Sr  Sr3  1  0.667214  0.664664  0.119901  1
  Sr  Sr4  1  0.332755  0.335324  0.878239  1
  Sr  Sr5  1  0.333396  0.332637  0.647176  1
  Sr  Sr6  1  0.999994  0.000136  0.757625  1
  Ca  Ca7  1  0.999988  0.999912  0.000955  1
  Ta  Ta8  1  0.334246  0.331719  0.147670  1
  Nb  Nb9  1  0.665662  0.668353  0.854097  1
  Nb  Nb10  1  0.667117  0.665981  0.658024  1
  Nb  Nb11  1  0.332926  0.334028  0.342837  1
  O  O12  1  0.590268  0.964724  0.756887  1
  O  O13  1  0.921689  0.727222  0.604866  1
  O  O14  1  0.913555  0.742295  0.907374  1
  O  O15  1  0.349839  0.920326  0.605412  1
  O  O16  1  0.345388  0.916654  0.907910  1
  O  O17  1  0.964004  0.445482  0.757456  1
  O  O18  1  0.445104  0.590358  0.757735  1
  O  O19  1  0.262172  0.648227  0.091125  1
  O  O20  1  0.270843  0.652132  0.393961  1
  O  O21  1  0.729240  0.348254  0.605939  1
  O  O22  1  0.738156  0.349881  0.909362  1
  O  O23  1  0.553373  0.409165  0.241747  1
  O  O24  1  0.038097  0.552892  0.242006  1
  O  O25  1  0.652586  0.084921  0.092555  1
  O  O26  1  0.650547  0.079212  0.394493  1
  O  O27  1  0.088022  0.258132  0.093021  1
  O  O28  1  0.077872  0.272840  0.395013  1
  O  O29  1  0.409301  0.037313  0.242590  1
