# generated using pymatgen
data_Ca2Ce(RhPb)3
_symmetry_space_group_name_H-M   'P 1'
_cell_length_a   7.71718213
_cell_length_b   8.08953887
_cell_length_c   3.92069400
_cell_angle_alpha   90.00000000
_cell_angle_beta   90.00000000
_cell_angle_gamma   121.60935138
_symmetry_Int_Tables_number   1
_chemical_formula_structural   Ca2Ce(RhPb)3
_chemical_formula_sum   'Ca2 Ce1 Rh3 Pb3'
_cell_volume   208.45015887
_cell_formula_units_Z   1
loop_
 _symmetry_equiv_pos_site_id
 _symmetry_equiv_pos_as_xyz
  1  'x, y, z'
loop_
 _atom_site_type_symbol
 _atom_site_label
 _atom_site_symmetry_multiplicity
 _atom_site_fract_x
 _atom_site_fract_y
 _atom_site_fract_z
 _atom_site_occupancy
  Ca  Ca0  1  0.402793  0.400624  0.500000  1
  Ca  Ca1  1  0.597207  0.997831  0.500000  1
  Ce  Ce2  1  0.000000  0.587955  0.500000  1
  Rh  Rh3  1  0.000000  0.984633  0.500000  1
  Rh  Rh4  1  0.715846  0.374717  0.000000  1
  Rh  Rh5  1  0.284154  0.658873  0.000000  1
  Pb  Pb6  1  0.722572  0.735803  0.000000  1
  Pb  Pb7  1  0.277428  0.013231  0.000000  1
  Pb  Pb8  1  0.000000  0.246334  0.000000  1
