# generated using pymatgen
data_Dy2Er3Tl2Ir
_symmetry_space_group_name_H-M   'P 1'
_cell_length_a   7.95156700
_cell_length_b   8.98397900
_cell_length_c   12.50627600
_cell_angle_alpha   90.00000000
_cell_angle_beta   90.00000000
_cell_angle_gamma   90.00000000
_symmetry_Int_Tables_number   1
_chemical_formula_structural   Dy2Er3Tl2Ir
_chemical_formula_sum   'Dy8 Er12 Tl8 Ir4'
_cell_volume   893.40722361
_cell_formula_units_Z   4
loop_
 _symmetry_equiv_pos_site_id
 _symmetry_equiv_pos_as_xyz
  1  'x, y, z'
loop_
 _atom_site_type_symbol
 _atom_site_label
 _atom_site_symmetry_multiplicity
 _atom_site_fract_x
 _atom_site_fract_y
 _atom_site_fract_z
 _atom_site_occupancy
  Dy  Dy0  1  0.658644  0.750000  0.715221  1
  Dy  Dy1  1  0.341356  0.250000  0.284779  1
  Dy  Dy2  1  0.158644  0.250000  0.784779  1
  Dy  Dy3  1  0.841356  0.750000  0.215221  1
  Dy  Dy4  1  0.123634  0.750000  0.808252  1
  Dy  Dy5  1  0.876366  0.250000  0.191748  1
  Dy  Dy6  1  0.623634  0.250000  0.691748  1
  Dy  Dy7  1  0.376366  0.750000  0.308252  1
  Er  Er8  1  0.549404  0.750000  0.996953  1
  Er  Er9  1  0.450596  0.250000  0.003047  1
  Er  Er10  1  0.049404  0.250000  0.503047  1
  Er  Er11  1  0.950596  0.750000  0.496953  1
  Er  Er12  1  0.826440  0.461866  0.927176  1
  Er  Er13  1  0.173560  0.538134  0.072824  1
  Er  Er14  1  0.326440  0.538134  0.572824  1
  Er  Er15  1  0.173560  0.961866  0.072824  1
  Er  Er16  1  0.673560  0.461866  0.427176  1
  Er  Er17  1  0.826440  0.038134  0.927176  1
  Er  Er18  1  0.673560  0.038134  0.427176  1
  Er  Er19  1  0.326440  0.961866  0.572824  1
  Tl  Tl20  1  0.930621  0.006131  0.668966  1
  Tl  Tl21  1  0.069379  0.993869  0.331034  1
  Tl  Tl22  1  0.430621  0.993869  0.831034  1
  Tl  Tl23  1  0.069379  0.506131  0.331034  1
  Tl  Tl24  1  0.569379  0.006131  0.168966  1
  Tl  Tl25  1  0.930621  0.493869  0.668966  1
  Tl  Tl26  1  0.569379  0.493869  0.168966  1
  Tl  Tl27  1  0.430621  0.506131  0.831034  1
  Ir  Ir28  1  0.926775  0.750000  0.995357  1
  Ir  Ir29  1  0.073225  0.250000  0.004643  1
  Ir  Ir30  1  0.426775  0.250000  0.504643  1
  Ir  Ir31  1  0.573225  0.750000  0.495357  1
