# generated using pymatgen
data_YbSmDy2(B6Ru)2
_symmetry_space_group_name_H-M   'P 1'
_cell_length_a   3.67985700
_cell_length_b   9.18460724
_cell_length_c   11.58834129
_cell_angle_alpha   89.81951883
_cell_angle_beta   90.00000000
_cell_angle_gamma   90.00000000
_symmetry_Int_Tables_number   1
_chemical_formula_structural   YbSmDy2(B6Ru)2
_chemical_formula_sum   'Yb2 Sm2 Dy4 B24 Ru4'
_cell_volume   391.66129359
_cell_formula_units_Z   2
loop_
 _symmetry_equiv_pos_site_id
 _symmetry_equiv_pos_as_xyz
  1  'x, y, z'
loop_
 _atom_site_type_symbol
 _atom_site_label
 _atom_site_symmetry_multiplicity
 _atom_site_fract_x
 _atom_site_fract_y
 _atom_site_fract_z
 _atom_site_occupancy
  Yb  Yb0  1  0.000000  0.325479  0.415180  1
  Yb  Yb1  1  0.000000  0.674521  0.584820  1
  Sm  Sm2  1  0.000000  0.822639  0.086347  1
  Sm  Sm3  1  0.000000  0.177361  0.913653  1
  Dy  Dy4  1  0.000000  0.941520  0.370217  1
  Dy  Dy5  1  0.000000  0.058480  0.629783  1
  Dy  Dy6  1  0.000000  0.442602  0.132262  1
  Dy  Dy7  1  0.000000  0.557398  0.867738  1
  B  B8  1  0.500000  0.554063  0.432779  1
  B  B9  1  0.500000  0.445937  0.567221  1
  B  B10  1  0.500000  0.054956  0.068596  1
  B  B11  1  0.500000  0.945044  0.931404  1
  B  B12  1  0.500000  0.747221  0.418393  1
  B  B13  1  0.500000  0.252779  0.581607  1
  B  B14  1  0.500000  0.248565  0.083093  1
  B  B15  1  0.500000  0.751435  0.916907  1
  B  B16  1  0.500000  0.789566  0.266423  1
  B  B17  1  0.500000  0.210434  0.733577  1
  B  B18  1  0.500000  0.290043  0.235461  1
  B  B19  1  0.500000  0.709957  0.764539  1
  B  B20  1  0.500000  0.630485  0.186815  1
  B  B21  1  0.500000  0.369515  0.813185  1
  B  B22  1  0.500000  0.131242  0.314746  1
  B  B23  1  0.500000  0.868758  0.685254  1
  B  B24  1  0.500000  0.984933  0.212740  1
  B  B25  1  0.500000  0.015067  0.787260  1
  B  B26  1  0.500000  0.484148  0.289279  1
  B  B27  1  0.500000  0.515852  0.710721  1
  B  B28  1  0.500000  0.601411  0.027943  1
  B  B29  1  0.500000  0.398589  0.972057  1
  B  B30  1  0.500000  0.099912  0.472327  1
  B  B31  1  0.500000  0.900088  0.527673  1
  Ru  Ru32  1  0.000000  0.638928  0.319969  1
  Ru  Ru33  1  0.000000  0.361072  0.680031  1
  Ru  Ru34  1  0.000000  0.138193  0.179633  1
  Ru  Ru35  1  0.000000  0.861807  0.820367  1
