# generated using pymatgen
data_SmY5Cd23As
_symmetry_space_group_name_H-M   'P 1'
_cell_length_a   9.97325235
_cell_length_b   9.96205537
_cell_length_c   9.96205530
_cell_angle_alpha   60.07437205
_cell_angle_beta   59.96281506
_cell_angle_gamma   59.96281371
_symmetry_Int_Tables_number   1
_chemical_formula_structural   SmY5Cd23As
_chemical_formula_sum   'Sm1 Y5 Cd23 As1'
_cell_volume   699.87199184
_cell_formula_units_Z   1
loop_
 _symmetry_equiv_pos_site_id
 _symmetry_equiv_pos_as_xyz
  1  'x, y, z'
loop_
 _atom_site_type_symbol
 _atom_site_label
 _atom_site_symmetry_multiplicity
 _atom_site_fract_x
 _atom_site_fract_y
 _atom_site_fract_z
 _atom_site_occupancy
  Sm  Sm0  1  0.205506  0.794494  0.794494  1
  Y  Y1  1  0.796155  0.796412  0.203845  1
  Y  Y2  1  0.203588  0.796412  0.203845  1
  Y  Y3  1  0.795612  0.204388  0.204388  1
  Y  Y4  1  0.203588  0.203845  0.796412  1
  Y  Y5  1  0.796155  0.203845  0.796412  1
  Cd  Cd6  1  0.835540  0.835760  0.493163  1
  Cd  Cd7  1  0.835540  0.493163  0.835760  1
  Cd  Cd8  1  0.494222  0.835455  0.835455  1
  Cd  Cd9  1  0.834870  0.835455  0.835455  1
  Cd  Cd10  1  0.164545  0.165130  0.505778  1
  Cd  Cd11  1  0.164545  0.505778  0.165130  1
  Cd  Cd12  1  0.506837  0.164460  0.164460  1
  Cd  Cd13  1  0.164240  0.164460  0.164460  1
  Cd  Cd14  1  0.621437  0.621499  0.135629  1
  Cd  Cd15  1  0.621437  0.135629  0.621499  1
  Cd  Cd16  1  0.135089  0.621130  0.621130  1
  Cd  Cd17  1  0.622653  0.621130  0.621130  1
  Cd  Cd18  1  0.378870  0.377347  0.864911  1
  Cd  Cd19  1  0.378870  0.864911  0.377347  1
  Cd  Cd20  1  0.864371  0.378563  0.378563  1
  Cd  Cd21  1  0.378501  0.378563  0.378563  1
  Cd  Cd22  1  0.999798  0.000202  0.499847  1
  Cd  Cd23  1  0.500153  0.000202  0.499847  1
  Cd  Cd24  1  0.999771  0.500229  0.500229  1
  Cd  Cd25  1  0.500153  0.499847  0.000202  1
  Cd  Cd26  1  0.999798  0.499847  0.000202  1
  Cd  Cd27  1  0.499771  0.000229  0.000229  1
  Cd  Cd28  1  0.499840  0.500160  0.500160  1
  As  As29  1  0.998544  0.001456  0.001456  1
