# generated using pymatgen
data_ErTmCd4(Ni7B2)2
_symmetry_space_group_name_H-M   'P 1'
_cell_length_a   4.96817581
_cell_length_b   4.96797084
_cell_length_c   14.03347800
_cell_angle_alpha   90.00000000
_cell_angle_beta   90.00000000
_cell_angle_gamma   120.00542990
_symmetry_Int_Tables_number   1
_chemical_formula_structural   ErTmCd4(Ni7B2)2
_chemical_formula_sum   'Er1 Tm1 Cd4 Ni14 B4'
_cell_volume   299.94952556
_cell_formula_units_Z   1
loop_
 _symmetry_equiv_pos_site_id
 _symmetry_equiv_pos_as_xyz
  1  'x, y, z'
loop_
 _atom_site_type_symbol
 _atom_site_label
 _atom_site_symmetry_multiplicity
 _atom_site_fract_x
 _atom_site_fract_y
 _atom_site_fract_z
 _atom_site_occupancy
  Er  Er0  1  0.333374  0.666559  0.250000  1
  Tm  Tm1  1  0.666608  0.333376  0.750000  1
  Cd  Cd2  1  0.333399  0.666605  0.470403  1
  Cd  Cd3  1  0.666597  0.333389  0.970159  1
  Cd  Cd4  1  0.666597  0.333389  0.529841  1
  Cd  Cd5  1  0.333399  0.666605  0.029597  1
  Ni  Ni6  1  0.833893  0.166089  0.352885  1
  Ni  Ni7  1  0.833886  0.667856  0.352884  1
  Ni  Ni8  1  0.000017  0.000032  0.999975  1
  Ni  Ni9  1  0.000017  0.000032  0.500025  1
  Ni  Ni10  1  0.833886  0.667856  0.147116  1
  Ni  Ni11  1  0.166085  0.833941  0.647340  1
  Ni  Ni12  1  0.667924  0.833936  0.647380  1
  Ni  Ni13  1  0.332134  0.166100  0.147115  1
  Ni  Ni14  1  0.833893  0.166089  0.147115  1
  Ni  Ni15  1  0.166076  0.332085  0.852633  1
  Ni  Ni16  1  0.166085  0.833941  0.852660  1
  Ni  Ni17  1  0.166076  0.332085  0.647367  1
  Ni  Ni18  1  0.667924  0.833936  0.852620  1
  Ni  Ni19  1  0.332134  0.166100  0.352885  1
  B  B20  1  0.666633  0.333297  0.250000  1
  B  B21  1  0.333337  0.666676  0.750000  1
  B  B22  1  0.999836  0.000129  0.750000  1
  B  B23  1  0.000190  0.999895  0.250000  1
