# generated using pymatgen
data_PrTh2Sn3IrRh2
_symmetry_space_group_name_H-M   'P 1'
_cell_length_a   7.63657321
_cell_length_b   7.62731289
_cell_length_c   4.10359400
_cell_angle_alpha   90.00000000
_cell_angle_beta   90.00000000
_cell_angle_gamma   120.38374520
_symmetry_Int_Tables_number   1
_chemical_formula_structural   PrTh2Sn3IrRh2
_chemical_formula_sum   'Pr1 Th2 Sn3 Ir1 Rh2'
_cell_volume   206.19243019
_cell_formula_units_Z   1
loop_
 _symmetry_equiv_pos_site_id
 _symmetry_equiv_pos_as_xyz
  1  'x, y, z'
loop_
 _atom_site_type_symbol
 _atom_site_label
 _atom_site_symmetry_multiplicity
 _atom_site_fract_x
 _atom_site_fract_y
 _atom_site_fract_z
 _atom_site_occupancy
  Pr  Pr0  1  0.411523  0.410731  0.500000  1
  Th  Th1  1  0.587528  0.003139  0.500000  1
  Th  Th2  1  0.998614  0.585379  0.500000  1
  Sn  Sn3  1  0.742055  0.743383  0.000000  1
  Sn  Sn4  1  0.249275  0.005322  0.000000  1
  Sn  Sn5  1  0.008422  0.250346  0.000000  1
  Ir  Ir6  1  0.682471  0.330613  0.000000  1
  Rh  Rh7  1  0.331087  0.681769  0.000000  1
  Rh  Rh8  1  0.989026  0.989320  0.500000  1
