# generated using pymatgen
data_Dy9Sc(AlTe)4
_symmetry_space_group_name_H-M   'P 1'
_cell_length_a   8.63314612
_cell_length_b   8.63314757
_cell_length_c   7.89352700
_cell_angle_alpha   90.00957015
_cell_angle_beta   90.00956351
_cell_angle_gamma   125.78329883
_symmetry_Int_Tables_number   1
_chemical_formula_structural   Dy9Sc(AlTe)4
_chemical_formula_sum   'Dy9 Sc1 Al4 Te4'
_cell_volume   477.26064895
_cell_formula_units_Z   1
loop_
 _symmetry_equiv_pos_site_id
 _symmetry_equiv_pos_as_xyz
  1  'x, y, z'
loop_
 _atom_site_type_symbol
 _atom_site_label
 _atom_site_symmetry_multiplicity
 _atom_site_fract_x
 _atom_site_fract_y
 _atom_site_fract_z
 _atom_site_occupancy
  Dy  Dy0  1  0.000000  0.000000  0.000000  1
  Dy  Dy1  1  0.797540  0.538508  0.168945  1
  Dy  Dy2  1  0.461492  0.202460  0.831055  1
  Dy  Dy3  1  0.961982  0.700421  0.666852  1
  Dy  Dy4  1  0.299579  0.038018  0.333148  1
  Dy  Dy5  1  0.202460  0.461492  0.831055  1
  Dy  Dy6  1  0.538508  0.797540  0.168945  1
  Dy  Dy7  1  0.038018  0.299579  0.333148  1
  Dy  Dy8  1  0.700421  0.961982  0.666852  1
  Sc  Sc9  1  0.500000  0.500000  0.500000  1
  Al  Al10  1  0.873128  0.873128  0.378846  1
  Al  Al11  1  0.126872  0.126872  0.621154  1
  Al  Al12  1  0.623577  0.623577  0.872578  1
  Al  Al13  1  0.376423  0.376423  0.127422  1
  Te  Te14  1  0.204857  0.795143  0.000000  1
  Te  Te15  1  0.701490  0.298510  0.500000  1
  Te  Te16  1  0.795143  0.204857  0.000000  1
  Te  Te17  1  0.298510  0.701490  0.500000  1
