# generated using pymatgen
data_ZrNb3(SiOs)4
_symmetry_space_group_name_H-M   'P 1'
_cell_length_a   3.95076000
_cell_length_b   6.38312106
_cell_length_c   7.36179752
_cell_angle_alpha   89.80661054
_cell_angle_beta   90.00000000
_cell_angle_gamma   90.00000000
_symmetry_Int_Tables_number   1
_chemical_formula_structural   ZrNb3(SiOs)4
_chemical_formula_sum   'Zr1 Nb3 Si4 Os4'
_cell_volume   185.65007270
_cell_formula_units_Z   1
loop_
 _symmetry_equiv_pos_site_id
 _symmetry_equiv_pos_as_xyz
  1  'x, y, z'
loop_
 _atom_site_type_symbol
 _atom_site_label
 _atom_site_symmetry_multiplicity
 _atom_site_fract_x
 _atom_site_fract_y
 _atom_site_fract_z
 _atom_site_occupancy
  Zr  Zr0  1  0.750000  0.482157  0.316854  1
  Nb  Nb1  1  0.250000  0.017930  0.822502  1
  Nb  Nb2  1  0.250000  0.516174  0.683883  1
  Nb  Nb3  1  0.750000  0.981350  0.176255  1
  Si  Si4  1  0.250000  0.785117  0.375690  1
  Si  Si5  1  0.250000  0.273282  0.121469  1
  Si  Si6  1  0.750000  0.218099  0.627921  1
  Si  Si7  1  0.750000  0.722895  0.875671  1
  Os  Os8  1  0.250000  0.158470  0.444000  1
  Os  Os9  1  0.250000  0.655581  0.060117  1
  Os  Os10  1  0.750000  0.844523  0.559908  1
  Os  Os11  1  0.750000  0.344421  0.935730  1
