# generated using pymatgen
data_K2(TiSe2)5
_symmetry_space_group_name_H-M   'P 1'
_cell_length_a   6.19439883
_cell_length_b   11.02764847
_cell_length_c   9.06922585
_cell_angle_alpha   55.59140156
_cell_angle_beta   70.08490838
_cell_angle_gamma   90.01694403
_symmetry_Int_Tables_number   1
_chemical_formula_structural   K2(TiSe2)5
_chemical_formula_sum   'K2 Ti5 Se10'
_cell_volume   465.47503944
_cell_formula_units_Z   1
loop_
 _symmetry_equiv_pos_site_id
 _symmetry_equiv_pos_as_xyz
  1  'x, y, z'
loop_
 _atom_site_type_symbol
 _atom_site_label
 _atom_site_symmetry_multiplicity
 _atom_site_fract_x
 _atom_site_fract_y
 _atom_site_fract_z
 _atom_site_occupancy
  K  K0  1  0.785479  0.072119  0.427832  1
  K  K1  1  0.014521  0.527881  0.972168  1
  Ti  Ti2  1  0.400000  0.800000  0.200000  1
  Ti  Ti3  1  0.802920  0.599424  0.398823  1
  Ti  Ti4  1  0.198833  0.400406  0.598423  1
  Ti  Ti5  1  0.601167  0.199594  0.801577  1
  Ti  Ti6  1  0.997080  0.000576  0.001177  1
  Se  Se7  1  0.992840  0.833678  0.350102  1
  Se  Se8  1  0.588589  0.037180  0.149276  1
  Se  Se9  1  0.191356  0.238012  0.948313  1
  Se  Se10  1  0.790337  0.436975  0.747868  1
  Se  Se11  1  0.397067  0.637912  0.544199  1
  Se  Se12  1  0.402933  0.962088  0.855801  1
  Se  Se13  1  0.009663  0.163025  0.652132  1
  Se  Se14  1  0.608644  0.361988  0.451687  1
  Se  Se15  1  0.211411  0.562820  0.250724  1
  Se  Se16  1  0.807160  0.766322  0.049898  1
