# generated using pymatgen
data_Ho7Er(Sc3Si4)4
_symmetry_space_group_name_H-M   'P 1'
_cell_length_a   7.08700903
_cell_length_b   7.37397405
_cell_length_c   13.97777607
_cell_angle_alpha   89.98919710
_cell_angle_beta   90.00487283
_cell_angle_gamma   90.00880385
_symmetry_Int_Tables_number   1
_chemical_formula_structural   Ho7Er(Sc3Si4)4
_chemical_formula_sum   'Ho7 Er1 Sc12 Si16'
_cell_volume   730.47045598
_cell_formula_units_Z   1
loop_
 _symmetry_equiv_pos_site_id
 _symmetry_equiv_pos_as_xyz
  1  'x, y, z'
loop_
 _atom_site_type_symbol
 _atom_site_label
 _atom_site_symmetry_multiplicity
 _atom_site_fract_x
 _atom_site_fract_y
 _atom_site_fract_z
 _atom_site_occupancy
  Ho  Ho0  1  0.012004  0.175498  0.096829  1
  Ho  Ho1  1  0.987979  0.824489  0.903052  1
  Ho  Ho2  1  0.487965  0.675505  0.903209  1
  Ho  Ho3  1  0.987923  0.824377  0.596863  1
  Ho  Ho4  1  0.512026  0.324549  0.096819  1
  Ho  Ho5  1  0.012086  0.175500  0.403252  1
  Ho  Ho6  1  0.511965  0.324557  0.403281  1
  Er  Er7  1  0.487929  0.675525  0.596964  1
  Sc  Sc8  1  0.160711  0.502947  0.749949  1
  Sc  Sc9  1  0.839334  0.497106  0.250001  1
  Sc  Sc10  1  0.339303  0.002932  0.250018  1
  Sc  Sc11  1  0.660616  0.997062  0.749925  1
  Sc  Sc12  1  0.330742  0.176935  0.625147  1
  Sc  Sc13  1  0.669258  0.823054  0.374908  1
  Sc  Sc14  1  0.169409  0.676828  0.374923  1
  Sc  Sc15  1  0.669330  0.823180  0.125123  1
  Sc  Sc16  1  0.830609  0.323265  0.625132  1
  Sc  Sc17  1  0.330685  0.176871  0.874796  1
  Sc  Sc18  1  0.830655  0.323156  0.874798  1
  Sc  Sc19  1  0.169361  0.676833  0.125114  1
  Si  Si20  1  0.033102  0.116557  0.749975  1
  Si  Si21  1  0.966782  0.883517  0.250033  1
  Si  Si22  1  0.466797  0.616443  0.250019  1
  Si  Si23  1  0.533056  0.383747  0.749903  1
  Si  Si24  1  0.285531  0.872694  0.749828  1
  Si  Si25  1  0.714786  0.126989  0.250009  1
  Si  Si26  1  0.214755  0.373016  0.250009  1
  Si  Si27  1  0.785048  0.627160  0.749817  1
  Si  Si28  1  0.158674  0.465152  0.539532  1
  Si  Si29  1  0.841667  0.535108  0.460644  1
  Si  Si30  1  0.341925  0.964660  0.460716  1
  Si  Si31  1  0.841815  0.535078  0.039394  1
  Si  Si32  1  0.658023  0.034743  0.539564  1
  Si  Si33  1  0.158125  0.464907  0.960522  1
  Si  Si34  1  0.658219  0.035097  0.960543  1
  Si  Si35  1  0.341807  0.964963  0.039389  1
