# generated using pymatgen
data_Ho3Si6N11
_symmetry_space_group_name_H-M   'P 1'
_cell_length_a   9.86541000
_cell_length_b   9.86541000
_cell_length_c   4.85272900
_cell_angle_alpha   90.00000000
_cell_angle_beta   90.00000000
_cell_angle_gamma   90.00000000
_symmetry_Int_Tables_number   1
_chemical_formula_structural   Ho3Si6N11
_chemical_formula_sum   'Ho6 Si12 N22'
_cell_volume   472.29822868
_cell_formula_units_Z   2
loop_
 _symmetry_equiv_pos_site_id
 _symmetry_equiv_pos_as_xyz
  1  'x, y, z'
loop_
 _atom_site_type_symbol
 _atom_site_label
 _atom_site_symmetry_multiplicity
 _atom_site_fract_x
 _atom_site_fract_y
 _atom_site_fract_z
 _atom_site_occupancy
  Ho  Ho0  1  0.317896  0.817896  0.987138  1
  Ho  Ho1  1  0.682104  0.182104  0.987138  1
  Ho  Ho2  1  0.182104  0.317896  0.987138  1
  Ho  Ho3  1  0.817896  0.682104  0.987138  1
  Ho  Ho4  1  0.500000  0.500000  0.973327  1
  Ho  Ho5  1  0.000000  0.000000  0.973327  1
  Si  Si6  1  0.419724  0.292061  0.531972  1
  Si  Si7  1  0.580276  0.707939  0.531972  1
  Si  Si8  1  0.080276  0.792061  0.531972  1
  Si  Si9  1  0.919724  0.207939  0.531972  1
  Si  Si10  1  0.292061  0.580276  0.531972  1
  Si  Si11  1  0.707939  0.419724  0.531972  1
  Si  Si12  1  0.792061  0.919724  0.531972  1
  Si  Si13  1  0.207939  0.080276  0.531972  1
  Si  Si14  1  0.880312  0.380312  0.044701  1
  Si  Si15  1  0.119688  0.619688  0.044701  1
  Si  Si16  1  0.619688  0.880312  0.044701  1
  Si  Si17  1  0.380312  0.119688  0.044701  1
  N  N18  1  0.317443  0.420627  0.657180  1
  N  N19  1  0.682557  0.579373  0.657180  1
  N  N20  1  0.182557  0.920627  0.657180  1
  N  N21  1  0.817443  0.079373  0.657180  1
  N  N22  1  0.420627  0.682557  0.657180  1
  N  N23  1  0.579373  0.317443  0.657180  1
  N  N24  1  0.920627  0.817443  0.657180  1
  N  N25  1  0.079373  0.182557  0.657180  1
  N  N26  1  0.419732  0.279022  0.176114  1
  N  N27  1  0.580268  0.720978  0.176114  1
  N  N28  1  0.080268  0.779022  0.176114  1
  N  N29  1  0.919732  0.220978  0.176114  1
  N  N30  1  0.279022  0.580268  0.176114  1
  N  N31  1  0.720978  0.419732  0.176114  1
  N  N32  1  0.779022  0.919732  0.176114  1
  N  N33  1  0.220978  0.080268  0.176114  1
  N  N34  1  0.848583  0.348583  0.695101  1
  N  N35  1  0.151417  0.651417  0.695101  1
  N  N36  1  0.651417  0.848583  0.695101  1
  N  N37  1  0.348583  0.151417  0.695101  1
  N  N38  1  0.500000  0.000000  0.080265  1
  N  N39  1  0.000000  0.500000  0.080265  1
