# generated using pymatgen
data_Tb3Dy2In4IrPt
_symmetry_space_group_name_H-M   'P 1'
_cell_length_a   3.64794100
_cell_length_b   8.14673982
_cell_length_c   18.33411553
_cell_angle_alpha   89.92085768
_cell_angle_beta   90.00000000
_cell_angle_gamma   90.00000000
_symmetry_Int_Tables_number   1
_chemical_formula_structural   Tb3Dy2In4IrPt
_chemical_formula_sum   'Tb6 Dy4 In8 Ir2 Pt2'
_cell_volume   544.86787313
_cell_formula_units_Z   2
loop_
 _symmetry_equiv_pos_site_id
 _symmetry_equiv_pos_as_xyz
  1  'x, y, z'
loop_
 _atom_site_type_symbol
 _atom_site_label
 _atom_site_symmetry_multiplicity
 _atom_site_fract_x
 _atom_site_fract_y
 _atom_site_fract_z
 _atom_site_occupancy
  Tb  Tb0  1  0.000000  0.115232  0.411852  1
  Tb  Tb1  1  0.000000  0.884768  0.588148  1
  Tb  Tb2  1  0.000000  0.383146  0.913443  1
  Tb  Tb3  1  0.000000  0.616854  0.086557  1
  Tb  Tb4  1  0.000000  0.000000  0.000000  1
  Tb  Tb5  1  0.000000  0.500000  0.500000  1
  Dy  Dy6  1  0.000000  0.237342  0.221786  1
  Dy  Dy7  1  0.000000  0.762658  0.778214  1
  Dy  Dy8  1  0.000000  0.248116  0.720321  1
  Dy  Dy9  1  0.000000  0.751884  0.279679  1
  In  In10  1  0.500000  0.424689  0.351071  1
  In  In11  1  0.500000  0.575311  0.648929  1
  In  In12  1  0.500000  0.072322  0.850607  1
  In  In13  1  0.500000  0.927678  0.149393  1
  In  In14  1  0.500000  0.292088  0.067171  1
  In  In15  1  0.500000  0.707912  0.932829  1
  In  In16  1  0.500000  0.206620  0.568265  1
  In  In17  1  0.500000  0.793380  0.431735  1
  Ir  Ir18  1  0.500000  0.020919  0.303448  1
  Ir  Ir19  1  0.500000  0.979081  0.696552  1
  Pt  Pt20  1  0.500000  0.477823  0.802622  1
  Pt  Pt21  1  0.500000  0.522177  0.197378  1
