# generated using pymatgen
data_Ho3(ThTc)2
_symmetry_space_group_name_H-M   'P 1'
_cell_length_a   6.41901856
_cell_length_b   7.37143179
_cell_length_c   8.73280059
_cell_angle_alpha   96.41267714
_cell_angle_beta   111.56296414
_cell_angle_gamma   90.00000011
_symmetry_Int_Tables_number   1
_chemical_formula_structural   Ho3(ThTc)2
_chemical_formula_sum   'Ho6 Th4 Tc4'
_cell_volume   381.51271841
_cell_formula_units_Z   2
loop_
 _symmetry_equiv_pos_site_id
 _symmetry_equiv_pos_as_xyz
  1  'x, y, z'
loop_
 _atom_site_type_symbol
 _atom_site_label
 _atom_site_symmetry_multiplicity
 _atom_site_fract_x
 _atom_site_fract_y
 _atom_site_fract_z
 _atom_site_occupancy
  Ho  Ho0  1  0.637440  0.814130  0.428144  1
  Ho  Ho1  1  0.209295  0.685870  0.571856  1
  Ho  Ho2  1  0.362560  0.185870  0.571856  1
  Ho  Ho3  1  0.790705  0.314130  0.428144  1
  Ho  Ho4  1  0.422851  0.750000  0.000000  1
  Ho  Ho5  1  0.577149  0.250000  0.000000  1
  Th  Th6  1  0.985436  0.910246  0.193565  1
  Th  Th7  1  0.791871  0.589754  0.806435  1
  Th  Th8  1  0.014564  0.089754  0.806435  1
  Th  Th9  1  0.208129  0.410246  0.193565  1
  Tc  Tc10  1  0.848542  0.585434  0.216033  1
  Tc  Tc11  1  0.632509  0.914566  0.783967  1
  Tc  Tc12  1  0.151458  0.414566  0.783967  1
  Tc  Tc13  1  0.367491  0.085434  0.216033  1
