# generated using pymatgen
data_Ca3La7Si8O3
_symmetry_space_group_name_H-M   'P 1'
_cell_length_a   10.77876700
_cell_length_b   10.77876721
_cell_length_c   4.60166000
_cell_angle_alpha   90.00000000
_cell_angle_beta   90.00000000
_cell_angle_gamma   120.00000242
_symmetry_Int_Tables_number   1
_chemical_formula_structural   Ca3La7Si8O3
_chemical_formula_sum   'Ca3 La7 Si8 O3'
_cell_volume   463.00248813
_cell_formula_units_Z   1
loop_
 _symmetry_equiv_pos_site_id
 _symmetry_equiv_pos_as_xyz
  1  'x, y, z'
loop_
 _atom_site_type_symbol
 _atom_site_label
 _atom_site_symmetry_multiplicity
 _atom_site_fract_x
 _atom_site_fract_y
 _atom_site_fract_z
 _atom_site_occupancy
  Ca  Ca0  1  0.000000  0.500000  0.500000  1
  Ca  Ca1  1  0.500000  0.500000  0.500000  1
  Ca  Ca2  1  0.500000  0.000000  0.500000  1
  La  La3  1  0.213534  0.786466  0.000000  1
  La  La4  1  0.572932  0.786466  0.000000  1
  La  La5  1  0.786466  0.572932  0.000000  1
  La  La6  1  0.000000  0.000000  0.000000  1
  La  La7  1  0.213534  0.427068  0.000000  1
  La  La8  1  0.427068  0.213534  0.000000  1
  La  La9  1  0.786466  0.213534  0.000000  1
  Si  Si10  1  0.000000  0.781587  0.500000  1
  Si  Si11  1  0.000000  0.218413  0.500000  1
  Si  Si12  1  0.218413  0.218413  0.500000  1
  Si  Si13  1  0.781587  0.000000  0.500000  1
  Si  Si14  1  0.333333  0.666667  0.500000  1
  Si  Si15  1  0.218413  0.000000  0.500000  1
  Si  Si16  1  0.666667  0.333333  0.500000  1
  Si  Si17  1  0.781587  0.781587  0.500000  1
  O  O18  1  0.000000  0.500000  0.000000  1
  O  O19  1  0.500000  0.500000  0.000000  1
  O  O20  1  0.500000  0.000000  0.000000  1
