# generated using pymatgen
data_Sc4GaFe2Os5
_symmetry_space_group_name_H-M   'P 1'
_cell_length_a   5.09216295
_cell_length_b   5.14348920
_cell_length_c   8.53043300
_cell_angle_alpha   90.00000000
_cell_angle_beta   90.00000000
_cell_angle_gamma   119.85565605
_symmetry_Int_Tables_number   1
_chemical_formula_structural   Sc4GaFe2Os5
_chemical_formula_sum   'Sc4 Ga1 Fe2 Os5'
_cell_volume   193.77229414
_cell_formula_units_Z   1
loop_
 _symmetry_equiv_pos_site_id
 _symmetry_equiv_pos_as_xyz
  1  'x, y, z'
loop_
 _atom_site_type_symbol
 _atom_site_label
 _atom_site_symmetry_multiplicity
 _atom_site_fract_x
 _atom_site_fract_y
 _atom_site_fract_z
 _atom_site_occupancy
  Sc  Sc0  1  0.331967  0.666691  0.433462  1
  Sc  Sc1  1  0.657328  0.324643  0.559212  1
  Sc  Sc2  1  0.657328  0.324643  0.940788  1
  Sc  Sc3  1  0.331967  0.666691  0.066538  1
  Ga  Ga4  1  0.178041  0.354145  0.750000  1
  Fe  Fe5  1  0.177798  0.839223  0.750000  1
  Fe  Fe6  1  0.342191  0.173770  0.250000  1
  Os  Os7  1  0.834833  0.662627  0.250000  1
  Os  Os8  1  0.666529  0.838124  0.750000  1
  Os  Os9  1  0.995012  0.986494  0.997770  1
  Os  Os10  1  0.831995  0.176453  0.250000  1
  Os  Os11  1  0.995012  0.986494  0.502230  1
