# generated using pymatgen
data_Eu4NbAl2CrO12
_symmetry_space_group_name_H-M   'P 1'
_cell_length_a   5.48627048
_cell_length_b   5.47056561
_cell_length_c   7.82728569
_cell_angle_alpha   89.91333600
_cell_angle_beta   90.08438684
_cell_angle_gamma   89.91097235
_symmetry_Int_Tables_number   1
_chemical_formula_structural   Eu4NbAl2CrO12
_chemical_formula_sum   'Eu4 Nb1 Al2 Cr1 O12'
_cell_volume   234.91953811
_cell_formula_units_Z   1
loop_
 _symmetry_equiv_pos_site_id
 _symmetry_equiv_pos_as_xyz
  1  'x, y, z'
loop_
 _atom_site_type_symbol
 _atom_site_label
 _atom_site_symmetry_multiplicity
 _atom_site_fract_x
 _atom_site_fract_y
 _atom_site_fract_z
 _atom_site_occupancy
  Eu  Eu0  1  0.532413  0.505916  0.764521  1
  Eu  Eu1  1  0.021530  0.998809  0.764748  1
  Eu  Eu2  1  0.467587  0.494084  0.235479  1
  Eu  Eu3  1  0.978470  0.001191  0.235252  1
  Nb  Nb4  1  0.500000  0.000000  0.500000  1
  Al  Al5  1  0.000000  0.500000  0.000000  1
  Al  Al6  1  0.000000  0.500000  0.500000  1
  Cr  Cr7  1  0.500000  0.000000  0.000000  1
  O  O8  1  0.986863  0.438942  0.747163  1
  O  O9  1  0.786343  0.775004  0.970207  1
  O  O10  1  0.789437  0.778986  0.532901  1
  O  O11  1  0.724513  0.286363  0.030038  1
  O  O12  1  0.508599  0.938005  0.249424  1
  O  O13  1  0.013137  0.561058  0.252837  1
  O  O14  1  0.491401  0.061995  0.750576  1
  O  O15  1  0.210563  0.221014  0.467099  1
  O  O16  1  0.720401  0.289024  0.467386  1
  O  O17  1  0.213657  0.224996  0.029793  1
  O  O18  1  0.279599  0.710976  0.532614  1
  O  O19  1  0.275487  0.713637  0.969962  1
