# generated using pymatgen
data_Er2Tm2TcB12Ru
_symmetry_space_group_name_H-M   'P 1'
_cell_length_a   3.63793900
_cell_length_b   9.09576942
_cell_length_c   11.47711701
_cell_angle_alpha   89.85920743
_cell_angle_beta   90.00000000
_cell_angle_gamma   90.00000000
_symmetry_Int_Tables_number   1
_chemical_formula_structural   Er2Tm2TcB12Ru
_chemical_formula_sum   'Er4 Tm4 Tc2 B24 Ru2'
_cell_volume   379.77498322
_cell_formula_units_Z   2
loop_
 _symmetry_equiv_pos_site_id
 _symmetry_equiv_pos_as_xyz
  1  'x, y, z'
loop_
 _atom_site_type_symbol
 _atom_site_label
 _atom_site_symmetry_multiplicity
 _atom_site_fract_x
 _atom_site_fract_y
 _atom_site_fract_z
 _atom_site_occupancy
  Er  Er0  1  0.000000  0.324460  0.415627  1
  Er  Er1  1  0.000000  0.675540  0.584373  1
  Er  Er2  1  0.000000  0.820655  0.087400  1
  Er  Er3  1  0.000000  0.179345  0.912600  1
  Tm  Tm4  1  0.000000  0.942261  0.370783  1
  Tm  Tm5  1  0.000000  0.057739  0.629217  1
  Tm  Tm6  1  0.000000  0.443208  0.129852  1
  Tm  Tm7  1  0.000000  0.556792  0.870148  1
  Tc  Tc8  1  0.000000  0.638521  0.319997  1
  Tc  Tc9  1  0.000000  0.361479  0.680003  1
  B  B10  1  0.500000  0.553138  0.433205  1
  B  B11  1  0.500000  0.446862  0.566795  1
  B  B12  1  0.500000  0.053855  0.066702  1
  B  B13  1  0.500000  0.946145  0.933298  1
  B  B14  1  0.500000  0.749144  0.419153  1
  B  B15  1  0.500000  0.250856  0.580847  1
  B  B16  1  0.500000  0.249148  0.080887  1
  B  B17  1  0.500000  0.750852  0.919113  1
  B  B18  1  0.500000  0.792046  0.264925  1
  B  B19  1  0.500000  0.207954  0.735075  1
  B  B20  1  0.500000  0.291059  0.234568  1
  B  B21  1  0.500000  0.708941  0.765432  1
  B  B22  1  0.500000  0.630910  0.184671  1
  B  B23  1  0.500000  0.369090  0.815329  1
  B  B24  1  0.500000  0.130606  0.314560  1
  B  B25  1  0.500000  0.869394  0.685440  1
  B  B26  1  0.500000  0.982474  0.212005  1
  B  B27  1  0.500000  0.017526  0.787995  1
  B  B28  1  0.500000  0.481845  0.287492  1
  B  B29  1  0.500000  0.518155  0.712508  1
  B  B30  1  0.500000  0.602723  0.028205  1
  B  B31  1  0.500000  0.397277  0.971795  1
  B  B32  1  0.500000  0.102852  0.471353  1
  B  B33  1  0.500000  0.897148  0.528647  1
  Ru  Ru34  1  0.000000  0.137825  0.178705  1
  Ru  Ru35  1  0.000000  0.862175  0.821295  1
