# generated using pymatgen
data_TbNd3Sc6(Si5Ir2)4
_symmetry_space_group_name_H-M   'P 1'
_cell_length_a   12.53135054
_cell_length_b   12.53135029
_cell_length_c   4.19145400
_cell_angle_alpha   90.00000000
_cell_angle_beta   90.00000000
_cell_angle_gamma   90.09455318
_symmetry_Int_Tables_number   1
_chemical_formula_structural   TbNd3Sc6(Si5Ir2)4
_chemical_formula_sum   'Tb1 Nd3 Sc6 Si20 Ir8'
_cell_volume   658.20300618
_cell_formula_units_Z   1
loop_
 _symmetry_equiv_pos_site_id
 _symmetry_equiv_pos_as_xyz
  1  'x, y, z'
loop_
 _atom_site_type_symbol
 _atom_site_label
 _atom_site_symmetry_multiplicity
 _atom_site_fract_x
 _atom_site_fract_y
 _atom_site_fract_z
 _atom_site_occupancy
  Tb  Tb0  1  0.384668  0.115332  0.500000  1
  Nd  Nd1  1  0.115458  0.615676  0.500000  1
  Nd  Nd2  1  0.884324  0.384542  0.500000  1
  Nd  Nd3  1  0.615311  0.884689  0.500000  1
  Sc  Sc4  1  0.673691  0.174669  0.500000  1
  Sc  Sc5  1  0.325331  0.826309  0.500000  1
  Sc  Sc6  1  0.175448  0.324552  0.500000  1
  Sc  Sc7  1  0.825629  0.674371  0.500000  1
  Sc  Sc8  1  0.000777  0.999966  0.000000  1
  Sc  Sc9  1  0.500034  0.499223  0.000000  1
  Si  Si10  1  0.568114  0.068714  0.000000  1
  Si  Si11  1  0.431286  0.931886  0.000000  1
  Si  Si12  1  0.069555  0.430445  0.000000  1
  Si  Si13  1  0.930697  0.569303  0.000000  1
  Si  Si14  1  0.200760  0.165067  0.000000  1
  Si  Si15  1  0.800330  0.835248  0.000000  1
  Si  Si16  1  0.165434  0.801658  0.000000  1
  Si  Si17  1  0.698342  0.334566  0.000000  1
  Si  Si18  1  0.834773  0.199847  0.000000  1
  Si  Si19  1  0.300153  0.665227  0.000000  1
  Si  Si20  1  0.664752  0.699670  0.000000  1
  Si  Si21  1  0.334933  0.299240  0.000000  1
  Si  Si22  1  0.009180  0.149853  0.500000  1
  Si  Si23  1  0.991940  0.850401  0.500000  1
  Si  Si24  1  0.152022  0.992981  0.500000  1
  Si  Si25  1  0.507019  0.347978  0.500000  1
  Si  Si26  1  0.849955  0.009980  0.500000  1
  Si  Si27  1  0.490020  0.650045  0.500000  1
  Si  Si28  1  0.649599  0.508060  0.500000  1
  Si  Si29  1  0.350147  0.490820  0.500000  1
  Ir  Ir30  1  0.022725  0.241212  0.000000  1
  Ir  Ir31  1  0.977962  0.758904  0.000000  1
  Ir  Ir32  1  0.244299  0.979713  0.000000  1
  Ir  Ir33  1  0.520287  0.255701  0.000000  1
  Ir  Ir34  1  0.757563  0.022406  0.000000  1
  Ir  Ir35  1  0.477594  0.742437  0.000000  1
  Ir  Ir36  1  0.741096  0.522038  0.000000  1
  Ir  Ir37  1  0.258788  0.477275  0.000000  1
