# generated using pymatgen
data_LiDy5Ho11In3Ir4
_symmetry_space_group_name_H-M   'P 1'
_cell_length_a   9.63154004
_cell_length_b   9.62852695
_cell_length_c   9.62852745
_cell_angle_alpha   59.90240436
_cell_angle_beta   59.88801069
_cell_angle_gamma   59.88800434
_symmetry_Int_Tables_number   1
_chemical_formula_structural   LiDy5Ho11In3Ir4
_chemical_formula_sum   'Li1 Dy5 Ho11 In3 Ir4'
_cell_volume   629.85844963
_cell_formula_units_Z   1
loop_
 _symmetry_equiv_pos_site_id
 _symmetry_equiv_pos_as_xyz
  1  'x, y, z'
loop_
 _atom_site_type_symbol
 _atom_site_label
 _atom_site_symmetry_multiplicity
 _atom_site_fract_x
 _atom_site_fract_y
 _atom_site_fract_z
 _atom_site_occupancy
  Li  Li0  1  0.821234  0.821114  0.821114  1
  Dy  Dy1  1  0.809575  0.190435  0.190435  1
  Dy  Dy2  1  0.810931  0.189442  0.810602  1
  Dy  Dy3  1  0.190299  0.809633  0.190117  1
  Dy  Dy4  1  0.810931  0.810602  0.189442  1
  Dy  Dy5  1  0.190299  0.190117  0.809633  1
  Ho  Ho6  1  0.599464  0.599502  0.599502  1
  Ho  Ho7  1  0.598614  0.598840  0.204984  1
  Ho  Ho8  1  0.598614  0.204984  0.598840  1
  Ho  Ho9  1  0.204722  0.598874  0.598874  1
  Ho  Ho10  1  0.058127  0.442081  0.442081  1
  Ho  Ho11  1  0.436355  0.061898  0.061898  1
  Ho  Ho12  1  0.441921  0.058072  0.442235  1
  Ho  Ho13  1  0.061883  0.436694  0.061682  1
  Ho  Ho14  1  0.441921  0.442235  0.058072  1
  Ho  Ho15  1  0.061883  0.061682  0.436694  1
  Ho  Ho16  1  0.190188  0.810419  0.810419  1
  In  In17  1  0.833050  0.833136  0.504285  1
  In  In18  1  0.833050  0.504285  0.833136  1
  In  In19  1  0.504374  0.833079  0.833079  1
  Ir  Ir20  1  0.392040  0.392075  0.392075  1
  Ir  Ir21  1  0.392035  0.392351  0.826361  1
  Ir  Ir22  1  0.392035  0.826361  0.392351  1
  Ir  Ir23  1  0.826457  0.392091  0.392091  1
