# generated using pymatgen
data_Er4Al17GaRh5Au
_symmetry_space_group_name_H-M   'P 1'
_cell_length_a   7.57006550
_cell_length_b   7.57083381
_cell_length_c   9.45565911
_cell_angle_alpha   89.98152387
_cell_angle_beta   89.97147191
_cell_angle_gamma   119.53811971
_symmetry_Int_Tables_number   1
_chemical_formula_structural   Er4Al17GaRh5Au
_chemical_formula_sum   'Er4 Al17 Ga1 Rh5 Au1'
_cell_volume   471.48532917
_cell_formula_units_Z   1
loop_
 _symmetry_equiv_pos_site_id
 _symmetry_equiv_pos_as_xyz
  1  'x, y, z'
loop_
 _atom_site_type_symbol
 _atom_site_label
 _atom_site_symmetry_multiplicity
 _atom_site_fract_x
 _atom_site_fract_y
 _atom_site_fract_z
 _atom_site_occupancy
  Er  Er0  1  0.991826  0.669114  0.750832  1
  Er  Er1  1  0.001796  0.327739  0.249657  1
  Er  Er2  1  0.673930  0.998096  0.750324  1
  Er  Er3  1  0.332353  0.008130  0.249200  1
  Al  Al4  1  0.875656  0.873575  0.248797  1
  Al  Al5  1  0.011440  0.335523  0.579047  1
  Al  Al6  1  0.008694  0.674188  0.421287  1
  Al  Al7  1  0.002627  0.665622  0.074633  1
  Al  Al8  1  0.334716  0.997387  0.925613  1
  Al  Al9  1  0.000526  0.335113  0.924691  1
  Al  Al10  1  0.665193  0.999539  0.075379  1
  Al  Al11  1  0.664359  0.988623  0.421094  1
  Al  Al12  1  0.325909  0.991375  0.578569  1
  Al  Al13  1  0.330945  0.331461  0.051229  1
  Al  Al14  1  0.668159  0.668643  0.950016  1
  Al  Al15  1  0.665838  0.672902  0.558578  1
  Al  Al16  1  0.326643  0.333796  0.440159  1
  Al  Al17  1  0.340500  0.553880  0.751615  1
  Al  Al18  1  0.660354  0.457862  0.241617  1
  Al  Al19  1  0.542273  0.339005  0.758343  1
  Al  Al20  1  0.447018  0.659205  0.248422  1
  Ga  Ga21  1  0.128616  0.126198  0.751060  1
  Rh  Rh22  1  0.328166  0.670864  0.500185  1
  Rh  Rh23  1  0.327956  0.671138  0.999813  1
  Rh  Rh24  1  0.672281  0.326826  0.999804  1
  Rh  Rh25  1  0.999330  0.999287  0.498044  1
  Rh  Rh26  1  0.999577  0.998947  0.001887  1
  Au  Au27  1  0.673318  0.325963  0.500104  1
