# generated using pymatgen
data_Ac7Lu(AgSn)8
_symmetry_space_group_name_H-M   'P 1'
_cell_length_a   9.80090600
_cell_length_b   9.80090550
_cell_length_c   8.17165900
_cell_angle_alpha   90.00000000
_cell_angle_beta   90.00000000
_cell_angle_gamma   120.00000168
_symmetry_Int_Tables_number   1
_chemical_formula_structural   Ac7Lu(AgSn)8
_chemical_formula_sum   'Ac7 Lu1 Ag8 Sn8'
_cell_volume   679.78767373
_cell_formula_units_Z   1
loop_
 _symmetry_equiv_pos_site_id
 _symmetry_equiv_pos_as_xyz
  1  'x, y, z'
loop_
 _atom_site_type_symbol
 _atom_site_label
 _atom_site_symmetry_multiplicity
 _atom_site_fract_x
 _atom_site_fract_y
 _atom_site_fract_z
 _atom_site_occupancy
  Ac  Ac0  1  0.513820  0.027640  0.496065  1
  Ac  Ac1  1  0.513820  0.486180  0.496065  1
  Ac  Ac2  1  0.972360  0.486180  0.496065  1
  Ac  Ac3  1  0.485277  0.970554  0.995738  1
  Ac  Ac4  1  0.485277  0.514723  0.995738  1
  Ac  Ac5  1  0.029446  0.514723  0.995738  1
  Ac  Ac6  1  0.000000  0.000000  0.492126  1
  Lu  Lu7  1  0.000000  0.000000  0.991454  1
  Ag  Ag8  1  0.166044  0.332090  0.279425  1
  Ag  Ag9  1  0.166044  0.833956  0.279425  1
  Ag  Ag10  1  0.667910  0.833956  0.279425  1
  Ag  Ag11  1  0.838418  0.676836  0.812434  1
  Ag  Ag12  1  0.838418  0.161582  0.812434  1
  Ag  Ag13  1  0.323164  0.161582  0.812434  1
  Ag  Ag14  1  0.333333  0.666667  0.698092  1
  Ag  Ag15  1  0.666667  0.333333  0.195475  1
  Sn  Sn16  1  0.163705  0.327410  0.717908  1
  Sn  Sn17  1  0.163705  0.836295  0.717908  1
  Sn  Sn18  1  0.672590  0.836295  0.717908  1
  Sn  Sn19  1  0.839051  0.678102  0.201285  1
  Sn  Sn20  1  0.839051  0.160949  0.201285  1
  Sn  Sn21  1  0.321898  0.160949  0.201285  1
  Sn  Sn22  1  0.333333  0.666667  0.283799  1
  Sn  Sn23  1  0.666667  0.333333  0.772486  1
