# generated using pymatgen
data_Tb19HoCo3Bi8Ru
_symmetry_space_group_name_H-M   'P 1'
_cell_length_a   8.04524233
_cell_length_b   8.91877687
_cell_length_c   12.46774661
_cell_angle_alpha   89.98015621
_cell_angle_beta   90.17813884
_cell_angle_gamma   89.95335586
_symmetry_Int_Tables_number   1
_chemical_formula_structural   Tb19HoCo3Bi8Ru
_chemical_formula_sum   'Tb19 Ho1 Co3 Bi8 Ru1'
_cell_volume   894.60253942
_cell_formula_units_Z   1
loop_
 _symmetry_equiv_pos_site_id
 _symmetry_equiv_pos_as_xyz
  1  'x, y, z'
loop_
 _atom_site_type_symbol
 _atom_site_label
 _atom_site_symmetry_multiplicity
 _atom_site_fract_x
 _atom_site_fract_y
 _atom_site_fract_z
 _atom_site_occupancy
  Tb  Tb0  1  0.847686  0.750042  0.800209  1
  Tb  Tb1  1  0.151342  0.250101  0.198427  1
  Tb  Tb2  1  0.348953  0.249439  0.698524  1
  Tb  Tb3  1  0.652557  0.750328  0.296724  1
  Tb  Tb4  1  0.379913  0.750578  0.693542  1
  Tb  Tb5  1  0.618629  0.249193  0.310000  1
  Tb  Tb6  1  0.881270  0.249983  0.810022  1
  Tb  Tb7  1  0.117726  0.749945  0.188207  1
  Tb  Tb8  1  0.950093  0.750485  0.503994  1
  Tb  Tb9  1  0.047866  0.249773  0.496686  1
  Tb  Tb10  1  0.452927  0.250011  0.997405  1
  Tb  Tb11  1  0.547306  0.749941  0.002417  1
  Tb  Tb12  1  0.322712  0.965821  0.436964  1
  Tb  Tb13  1  0.176488  0.966027  0.936873  1
  Tb  Tb14  1  0.322671  0.532663  0.436769  1
  Tb  Tb15  1  0.822549  0.035504  0.062839  1
  Tb  Tb16  1  0.678005  0.459292  0.564413  1
  Tb  Tb17  1  0.822480  0.464546  0.062772  1
  Tb  Tb18  1  0.176448  0.533934  0.937068  1
  Ho  Ho19  1  0.676295  0.042319  0.564080  1
  Co  Co20  1  0.437082  0.249732  0.491184  1
  Co  Co21  1  0.059998  0.249960  0.991771  1
  Co  Co22  1  0.938100  0.749988  0.007387  1
  Bi  Bi23  1  0.572202  0.491643  0.826675  1
  Bi  Bi24  1  0.427224  0.507777  0.173775  1
  Bi  Bi25  1  0.073123  0.507592  0.674453  1
  Bi  Bi26  1  0.426694  0.992045  0.173540  1
  Bi  Bi27  1  0.928737  0.492292  0.325856  1
  Bi  Bi28  1  0.572829  0.008454  0.826757  1
  Bi  Bi29  1  0.929332  0.007869  0.325661  1
  Bi  Bi30  1  0.071998  0.992399  0.674490  1
  Ru  Ru31  1  0.568766  0.750324  0.510519  1
