# generated using pymatgen
data_La7Nd(SI6)2
_symmetry_space_group_name_H-M   'P 1'
_cell_length_a   4.32644400
_cell_length_b   14.29903417
_cell_length_c   15.08112400
_cell_angle_alpha   90.16202599
_cell_angle_beta   90.00000000
_cell_angle_gamma   90.00000000
_symmetry_Int_Tables_number   1
_chemical_formula_structural   La7Nd(SI6)2
_chemical_formula_sum   'La7 Nd1 S2 I12'
_cell_volume   932.97448140
_cell_formula_units_Z   1
loop_
 _symmetry_equiv_pos_site_id
 _symmetry_equiv_pos_as_xyz
  1  'x, y, z'
loop_
 _atom_site_type_symbol
 _atom_site_label
 _atom_site_symmetry_multiplicity
 _atom_site_fract_x
 _atom_site_fract_y
 _atom_site_fract_z
 _atom_site_occupancy
  La  La0  1  0.500000  0.114683  0.347457  1
  La  La1  1  0.500000  0.886213  0.653108  1
  La  La2  1  0.500000  0.613817  0.152574  1
  La  La3  1  0.000000  0.111199  0.574877  1
  La  La4  1  0.000000  0.891135  0.427127  1
  La  La5  1  0.000000  0.608812  0.925127  1
  La  La6  1  0.000000  0.388997  0.072065  1
  Nd  Nd7  1  0.500000  0.387962  0.849581  1
  S  S8  1  0.500000  0.001205  0.500758  1
  S  S9  1  0.500000  0.499705  0.999684  1
  I  I10  1  0.500000  0.242166  0.160901  1
  I  I11  1  0.500000  0.756015  0.837194  1
  I  I12  1  0.500000  0.743328  0.338089  1
  I  I13  1  0.500000  0.257159  0.664622  1
  I  I14  1  0.000000  0.265028  0.416475  1
  I  I15  1  0.000000  0.735890  0.584174  1
  I  I16  1  0.000000  0.763682  0.083595  1
  I  I17  1  0.000000  0.239128  0.911073  1
  I  I18  1  0.000000  0.995672  0.235753  1
  I  I19  1  0.000000  0.004422  0.765473  1
  I  I20  1  0.000000  0.494843  0.263752  1
  I  I21  1  0.000000  0.498939  0.736543  1
