# generated using pymatgen
data_Y16In6OsPd
_symmetry_space_group_name_H-M   'P 1'
_cell_length_a   10.45147400
_cell_length_b   10.45147401
_cell_length_c   7.13556200
_cell_angle_alpha   90.00000000
_cell_angle_beta   90.00000000
_cell_angle_gamma   119.99999998
_symmetry_Int_Tables_number   1
_chemical_formula_structural   Y16In6OsPd
_chemical_formula_sum   'Y16 In6 Os1 Pd1'
_cell_volume   675.01574831
_cell_formula_units_Z   1
loop_
 _symmetry_equiv_pos_site_id
 _symmetry_equiv_pos_as_xyz
  1  'x, y, z'
loop_
 _atom_site_type_symbol
 _atom_site_label
 _atom_site_symmetry_multiplicity
 _atom_site_fract_x
 _atom_site_fract_y
 _atom_site_fract_z
 _atom_site_occupancy
  Y  Y0  1  0.465137  0.534863  0.480594  1
  Y  Y1  1  0.069725  0.534863  0.480594  1
  Y  Y2  1  0.465137  0.930275  0.480594  1
  Y  Y3  1  0.530514  0.469486  0.976957  1
  Y  Y4  1  0.938971  0.469486  0.976957  1
  Y  Y5  1  0.530514  0.061029  0.976957  1
  Y  Y6  1  0.825501  0.174499  0.276069  1
  Y  Y7  1  0.348999  0.174499  0.276069  1
  Y  Y8  1  0.825501  0.651001  0.276069  1
  Y  Y9  1  0.176130  0.823870  0.774468  1
  Y  Y10  1  0.647740  0.823870  0.774468  1
  Y  Y11  1  0.176130  0.352260  0.774468  1
  Y  Y12  1  0.333333  0.666667  0.102117  1
  Y  Y13  1  0.666667  0.333333  0.604289  1
  Y  Y14  1  0.000000  0.000000  0.496242  1
  Y  Y15  1  0.000000  0.000000  0.998753  1
  In  In16  1  0.162910  0.837090  0.233341  1
  In  In17  1  0.674182  0.837090  0.233341  1
  In  In18  1  0.162910  0.325818  0.233341  1
  In  In19  1  0.836516  0.163484  0.733309  1
  In  In20  1  0.326966  0.163484  0.733309  1
  In  In21  1  0.836516  0.673034  0.733309  1
  Os  Os22  1  0.333333  0.666667  0.708640  1
  Pd  Pd23  1  0.666667  0.333333  0.210299  1
