# generated using pymatgen
data_Ga2Ge(O2F)2
_symmetry_space_group_name_H-M   'P 1'
_cell_length_a   4.91863800
_cell_length_b   8.91276200
_cell_length_c   9.35149300
_cell_angle_alpha   90.00000000
_cell_angle_beta   90.00000000
_cell_angle_gamma   90.00000000
_symmetry_Int_Tables_number   1
_chemical_formula_structural   Ga2Ge(O2F)2
_chemical_formula_sum   'Ga8 Ge4 O16 F8'
_cell_volume   409.95682728
_cell_formula_units_Z   4
loop_
 _symmetry_equiv_pos_site_id
 _symmetry_equiv_pos_as_xyz
  1  'x, y, z'
loop_
 _atom_site_type_symbol
 _atom_site_label
 _atom_site_symmetry_multiplicity
 _atom_site_fract_x
 _atom_site_fract_y
 _atom_site_fract_z
 _atom_site_occupancy
  Ga  Ga0  1  0.402583  0.916294  0.129201  1
  Ga  Ga1  1  0.597417  0.083706  0.870799  1
  Ga  Ga2  1  0.902583  0.416294  0.370799  1
  Ga  Ga3  1  0.097417  0.583706  0.629201  1
  Ga  Ga4  1  0.402583  0.583706  0.129201  1
  Ga  Ga5  1  0.902583  0.083706  0.370799  1
  Ga  Ga6  1  0.097417  0.916294  0.629201  1
  Ga  Ga7  1  0.597417  0.416294  0.870799  1
  Ge  Ge8  1  0.603493  0.750000  0.438034  1
  Ge  Ge9  1  0.896507  0.750000  0.938034  1
  Ge  Ge10  1  0.103493  0.250000  0.061966  1
  Ge  Ge11  1  0.396507  0.250000  0.561966  1
  O  O12  1  0.712365  0.913374  0.991170  1
  O  O13  1  0.787635  0.913374  0.491170  1
  O  O14  1  0.787635  0.586626  0.491170  1
  O  O15  1  0.215509  0.750000  0.029124  1
  O  O16  1  0.287635  0.086626  0.008830  1
  O  O17  1  0.287635  0.413374  0.008830  1
  O  O18  1  0.952775  0.750000  0.748749  1
  O  O19  1  0.284491  0.750000  0.529124  1
  O  O20  1  0.212365  0.086626  0.508830  1
  O  O21  1  0.547225  0.750000  0.248749  1
  O  O22  1  0.784491  0.250000  0.970876  1
  O  O23  1  0.212365  0.413374  0.508830  1
  O  O24  1  0.712365  0.586626  0.991170  1
  O  O25  1  0.715509  0.250000  0.470876  1
  O  O26  1  0.047225  0.250000  0.251251  1
  O  O27  1  0.452775  0.250000  0.751251  1
  F  F28  1  0.088132  0.937817  0.251391  1
  F  F29  1  0.088132  0.562183  0.251391  1
  F  F30  1  0.911868  0.437817  0.748609  1
  F  F31  1  0.411868  0.937817  0.751391  1
  F  F32  1  0.588132  0.062183  0.248609  1
  F  F33  1  0.588132  0.437817  0.248609  1
  F  F34  1  0.411868  0.562183  0.751391  1
  F  F35  1  0.911868  0.062183  0.748609  1
