# generated using pymatgen
data_Nd4Cu2Ru5W
_symmetry_space_group_name_H-M   'P 1'
_cell_length_a   5.31309115
_cell_length_b   5.19592828
_cell_length_c   9.07732900
_cell_angle_alpha   90.00000000
_cell_angle_beta   90.00000000
_cell_angle_gamma   115.17193334
_symmetry_Int_Tables_number   1
_chemical_formula_structural   Nd4Cu2Ru5W
_chemical_formula_sum   'Nd4 Cu2 Ru5 W1'
_cell_volume   226.79533240
_cell_formula_units_Z   1
loop_
 _symmetry_equiv_pos_site_id
 _symmetry_equiv_pos_as_xyz
  1  'x, y, z'
loop_
 _atom_site_type_symbol
 _atom_site_label
 _atom_site_symmetry_multiplicity
 _atom_site_fract_x
 _atom_site_fract_y
 _atom_site_fract_z
 _atom_site_occupancy
  Nd  Nd0  1  0.321316  0.669099  0.440018  1
  Nd  Nd1  1  0.661749  0.334871  0.567067  1
  Nd  Nd2  1  0.661749  0.334871  0.932933  1
  Nd  Nd3  1  0.321316  0.669099  0.059982  1
  Cu  Cu4  1  0.186445  0.841656  0.750000  1
  Cu  Cu5  1  0.172761  0.335779  0.750000  1
  Ru  Ru6  1  0.979233  0.003563  0.502023  1
  Ru  Ru7  1  0.979233  0.003563  0.997977  1
  Ru  Ru8  1  0.827545  0.642392  0.250000  1
  Ru  Ru9  1  0.350807  0.164300  0.250000  1
  Ru  Ru10  1  0.694166  0.848481  0.750000  1
  W  W11  1  0.843680  0.152326  0.250000  1
