# generated using pymatgen
data_ScTi(AlRh2)2
_symmetry_space_group_name_H-M   'P 1'
_cell_length_a   7.53410710
_cell_length_b   7.53410784
_cell_length_c   7.53410837
_cell_angle_alpha   131.29122455
_cell_angle_beta   131.29123088
_cell_angle_gamma   71.35078676
_symmetry_Int_Tables_number   1
_chemical_formula_structural   ScTi(AlRh2)2
_chemical_formula_sum   'Sc2 Ti2 Al4 Rh8'
_cell_volume   236.31094620
_cell_formula_units_Z   2
loop_
 _symmetry_equiv_pos_site_id
 _symmetry_equiv_pos_as_xyz
  1  'x, y, z'
loop_
 _atom_site_type_symbol
 _atom_site_label
 _atom_site_symmetry_multiplicity
 _atom_site_fract_x
 _atom_site_fract_y
 _atom_site_fract_z
 _atom_site_occupancy
  Sc  Sc0  1  0.750000  0.750000  0.000000  1
  Sc  Sc1  1  0.000000  0.499999  0.499999  1
  Ti  Ti2  1  0.250000  0.250000  0.000000  1
  Ti  Ti3  1  0.499999  0.000000  0.499999  1
  Al  Al4  1  0.500445  0.500445  0.000000  1
  Al  Al5  1  0.999555  0.999555  0.000000  1
  Al  Al6  1  0.750445  0.250446  0.499999  1
  Al  Al7  1  0.249556  0.749555  0.499999  1
  Rh  Rh8  1  0.375000  0.883847  0.008846  1
  Rh  Rh9  1  0.133847  0.625000  0.008848  1
  Rh  Rh10  1  0.375000  0.366153  0.491153  1
  Rh  Rh11  1  0.616152  0.625000  0.491153  1
  Rh  Rh12  1  0.133847  0.125000  0.508847  1
  Rh  Rh13  1  0.875001  0.883847  0.508847  1
  Rh  Rh14  1  0.875001  0.366153  0.991154  1
  Rh  Rh15  1  0.616155  0.125000  0.991155  1
