# generated using pymatgen
data_Lu4As5Rh8
_symmetry_space_group_name_H-M   'P 1'
_cell_length_a   7.22540969
_cell_length_b   7.22540975
_cell_length_c   7.22541000
_cell_angle_alpha   110.51298022
_cell_angle_beta   107.40721958
_cell_angle_gamma   110.51297704
_symmetry_Int_Tables_number   1
_chemical_formula_structural   Lu4As5Rh8
_chemical_formula_sum   'Lu4 As5 Rh8'
_cell_volume   290.09785708
_cell_formula_units_Z   1
loop_
 _symmetry_equiv_pos_site_id
 _symmetry_equiv_pos_as_xyz
  1  'x, y, z'
loop_
 _atom_site_type_symbol
 _atom_site_label
 _atom_site_symmetry_multiplicity
 _atom_site_fract_x
 _atom_site_fract_y
 _atom_site_fract_z
 _atom_site_occupancy
  Lu  Lu0  1  0.499728  0.516586  0.499728  1
  Lu  Lu1  1  0.983141  0.483414  0.983141  1
  Lu  Lu2  1  0.499728  0.000000  0.983141  1
  Lu  Lu3  1  0.983141  0.000000  0.499728  1
  As  As4  1  0.684276  0.686249  0.998028  1
  As  As5  1  0.311780  0.313751  0.998028  1
  As  As6  1  0.998028  0.686249  0.684276  1
  As  As7  1  0.998028  0.313751  0.311780  1
  As  As8  1  0.332210  0.000000  0.332210  1
  Rh  Rh9  1  0.715594  0.000000  0.715594  1
  Rh  Rh10  1  0.745847  0.500000  0.245847  1
  Rh  Rh11  1  0.491516  0.251707  0.743223  1
  Rh  Rh12  1  0.743223  0.251707  0.491516  1
  Rh  Rh13  1  0.239810  0.748293  0.491516  1
  Rh  Rh14  1  0.245847  0.500000  0.745847  1
  Rh  Rh15  1  0.491516  0.748293  0.239810  1
  Rh  Rh16  1  0.036588  0.000000  0.036588  1
