# generated using pymatgen
data_La3Pr(Pd2O7)2
_symmetry_space_group_name_H-M   'P 1'
_cell_length_a   7.49266678
_cell_length_b   7.49266686
_cell_length_c   7.49808098
_cell_angle_alpha   60.02388668
_cell_angle_beta   60.02388424
_cell_angle_gamma   60.00000010
_symmetry_Int_Tables_number   1
_chemical_formula_structural   La3Pr(Pd2O7)2
_chemical_formula_sum   'La3 Pr1 Pd4 O14'
_cell_volume   297.75884380
_cell_formula_units_Z   1
loop_
 _symmetry_equiv_pos_site_id
 _symmetry_equiv_pos_as_xyz
  1  'x, y, z'
loop_
 _atom_site_type_symbol
 _atom_site_label
 _atom_site_symmetry_multiplicity
 _atom_site_fract_x
 _atom_site_fract_y
 _atom_site_fract_z
 _atom_site_occupancy
  La  La0  1  0.125000  0.125000  0.125000  1
  La  La1  1  0.625000  0.125000  0.125000  1
  La  La2  1  0.125000  0.625000  0.125000  1
  Pr  Pr3  1  0.125000  0.125000  0.625000  1
  Pd  Pd4  1  0.625000  0.625000  0.625000  1
  Pd  Pd5  1  0.125000  0.625000  0.625000  1
  Pd  Pd6  1  0.625000  0.625000  0.125000  1
  Pd  Pd7  1  0.625000  0.125000  0.625000  1
  O  O8  1  0.000126  0.000126  0.999622  1
  O  O9  1  0.249874  0.249874  0.250378  1
  O  O10  1  0.291926  0.291926  0.707080  1
  O  O11  1  0.542440  0.542440  0.957473  1
  O  O12  1  0.709067  0.291926  0.707080  1
  O  O13  1  0.707560  0.292353  0.292527  1
  O  O14  1  0.291926  0.709067  0.707080  1
  O  O15  1  0.292353  0.707560  0.292527  1
  O  O16  1  0.707560  0.707560  0.292527  1
  O  O17  1  0.958074  0.540933  0.542920  1
  O  O18  1  0.542440  0.957647  0.957473  1
  O  O19  1  0.958074  0.958074  0.542920  1
  O  O20  1  0.957647  0.542440  0.957473  1
  O  O21  1  0.540933  0.958074  0.542920  1
