# generated using pymatgen
data_Li2Ho2Si2Sn
_symmetry_space_group_name_H-M   'P 1'
_cell_length_a   9.52877018
_cell_length_b   9.52876889
_cell_length_c   6.74381400
_cell_angle_alpha   90.00000000
_cell_angle_beta   90.00000000
_cell_angle_gamma   153.53101111
_symmetry_Int_Tables_number   1
_chemical_formula_structural   Li2Ho2Si2Sn
_chemical_formula_sum   'Li4 Ho4 Si4 Sn2'
_cell_volume   272.91970316
_cell_formula_units_Z   2
loop_
 _symmetry_equiv_pos_site_id
 _symmetry_equiv_pos_as_xyz
  1  'x, y, z'
loop_
 _atom_site_type_symbol
 _atom_site_label
 _atom_site_symmetry_multiplicity
 _atom_site_fract_x
 _atom_site_fract_y
 _atom_site_fract_z
 _atom_site_occupancy
  Li  Li0  1  0.815612  0.184388  0.553940  1
  Li  Li1  1  0.184388  0.815612  0.446060  1
  Li  Li2  1  0.184388  0.815612  0.053940  1
  Li  Li3  1  0.815612  0.184388  0.946060  1
  Ho  Ho4  1  0.547817  0.452183  0.250000  1
  Ho  Ho5  1  0.452183  0.547817  0.750000  1
  Ho  Ho6  1  0.351319  0.648681  0.250000  1
  Ho  Ho7  1  0.648681  0.351319  0.750000  1
  Si  Si8  1  0.942004  0.057996  0.072251  1
  Si  Si9  1  0.057996  0.942004  0.927749  1
  Si  Si10  1  0.057996  0.942004  0.572251  1
  Si  Si11  1  0.942004  0.057996  0.427749  1
  Sn  Sn12  1  0.718858  0.281142  0.250000  1
  Sn  Sn13  1  0.281142  0.718858  0.750000  1
