# generated using pymatgen
data_Na(Sr3Ga2)7
_symmetry_space_group_name_H-M   'P 1'
_cell_length_a   12.10699728
_cell_length_b   12.10699753
_cell_length_c   12.10699700
_cell_angle_alpha   59.99999873
_cell_angle_beta   59.99999803
_cell_angle_gamma   59.99999938
_symmetry_Int_Tables_number   1
_chemical_formula_structural   Na(Sr3Ga2)7
_chemical_formula_sum   'Na1 Sr21 Ga14'
_cell_volume   1254.85724693
_cell_formula_units_Z   1
loop_
 _symmetry_equiv_pos_site_id
 _symmetry_equiv_pos_as_xyz
  1  'x, y, z'
loop_
 _atom_site_type_symbol
 _atom_site_label
 _atom_site_symmetry_multiplicity
 _atom_site_fract_x
 _atom_site_fract_y
 _atom_site_fract_z
 _atom_site_occupancy
  Na  Na0  1  0.500000  0.500000  0.500000  1
  Sr  Sr1  1  0.000000  0.000000  0.000000  1
  Sr  Sr2  1  0.130497  0.130497  0.130497  1
  Sr  Sr3  1  0.391490  0.869503  0.869503  1
  Sr  Sr4  1  0.869503  0.391490  0.869503  1
  Sr  Sr5  1  0.869503  0.869503  0.391490  1
  Sr  Sr6  1  0.130497  0.608510  0.130497  1
  Sr  Sr7  1  0.130497  0.130497  0.608510  1
  Sr  Sr8  1  0.608510  0.130497  0.130497  1
  Sr  Sr9  1  0.869503  0.869503  0.869503  1
  Sr  Sr10  1  0.500000  0.832034  0.500000  1
  Sr  Sr11  1  0.832034  0.500000  0.500000  1
  Sr  Sr12  1  0.500000  0.832034  0.167966  1
  Sr  Sr13  1  0.167966  0.500000  0.832034  1
  Sr  Sr14  1  0.832034  0.500000  0.167966  1
  Sr  Sr15  1  0.500000  0.500000  0.832034  1
  Sr  Sr16  1  0.167966  0.832034  0.500000  1
  Sr  Sr17  1  0.500000  0.167966  0.832034  1
  Sr  Sr18  1  0.500000  0.500000  0.167966  1
  Sr  Sr19  1  0.832034  0.167966  0.500000  1
  Sr  Sr20  1  0.167966  0.500000  0.500000  1
  Sr  Sr21  1  0.500000  0.167966  0.500000  1
  Ga  Ga22  1  0.217867  0.782133  0.217867  1
  Ga  Ga23  1  0.217867  0.782133  0.782133  1
  Ga  Ga24  1  0.782133  0.217867  0.217867  1
  Ga  Ga25  1  0.782133  0.782133  0.217867  1
  Ga  Ga26  1  0.217867  0.217867  0.782133  1
  Ga  Ga27  1  0.782133  0.217867  0.782133  1
  Ga  Ga28  1  0.306749  0.306748  0.306748  1
  Ga  Ga29  1  0.920244  0.693252  0.693252  1
  Ga  Ga30  1  0.693252  0.920244  0.693252  1
  Ga  Ga31  1  0.693252  0.693252  0.920244  1
  Ga  Ga32  1  0.306748  0.079756  0.306748  1
  Ga  Ga33  1  0.306748  0.306748  0.079756  1
  Ga  Ga34  1  0.079756  0.306748  0.306748  1
  Ga  Ga35  1  0.693252  0.693252  0.693251  1
