# generated using pymatgen
data_LiNd2Co5(P3Rh2)2
_symmetry_space_group_name_H-M   'P 1'
_cell_length_a   3.78782600
_cell_length_b   10.64207200
_cell_length_c   12.33508400
_cell_angle_alpha   90.00000000
_cell_angle_beta   90.00000000
_cell_angle_gamma   90.00000000
_symmetry_Int_Tables_number   1
_chemical_formula_structural   LiNd2Co5(P3Rh2)2
_chemical_formula_sum   'Li2 Nd4 Co10 P12 Rh8'
_cell_volume   497.23114645
_cell_formula_units_Z   2
loop_
 _symmetry_equiv_pos_site_id
 _symmetry_equiv_pos_as_xyz
  1  'x, y, z'
loop_
 _atom_site_type_symbol
 _atom_site_label
 _atom_site_symmetry_multiplicity
 _atom_site_fract_x
 _atom_site_fract_y
 _atom_site_fract_z
 _atom_site_occupancy
  Li  Li0  1  0.750000  0.296324  0.011344  1
  Li  Li1  1  0.750000  0.203676  0.511344  1
  Nd  Nd2  1  0.250000  0.581809  0.708512  1
  Nd  Nd3  1  0.250000  0.918191  0.208512  1
  Nd  Nd4  1  0.750000  0.420627  0.292232  1
  Nd  Nd5  1  0.750000  0.079373  0.792232  1
  Co  Co6  1  0.750000  0.774960  0.823401  1
  Co  Co7  1  0.750000  0.725040  0.323401  1
  Co  Co8  1  0.250000  0.877812  0.696284  1
  Co  Co9  1  0.250000  0.622188  0.196284  1
  Co  Co10  1  0.750000  0.117259  0.308299  1
  Co  Co11  1  0.750000  0.382741  0.808299  1
  Co  Co12  1  0.250000  0.463834  0.935461  1
  Co  Co13  1  0.250000  0.036166  0.435461  1
  Co  Co14  1  0.750000  0.539052  0.065337  1
  Co  Co15  1  0.750000  0.960948  0.565337  1
  P  P16  1  0.250000  0.432320  0.110934  1
  P  P17  1  0.250000  0.067680  0.610934  1
  P  P18  1  0.750000  0.573921  0.890334  1
  P  P19  1  0.750000  0.926079  0.390334  1
  P  P20  1  0.250000  0.276195  0.865923  1
  P  P21  1  0.250000  0.223805  0.365923  1
  P  P22  1  0.750000  0.723425  0.140059  1
  P  P23  1  0.750000  0.776575  0.640059  1
  P  P24  1  0.250000  0.610852  0.381212  1
  P  P25  1  0.250000  0.889148  0.881212  1
  P  P26  1  0.750000  0.398101  0.613436  1
  P  P27  1  0.750000  0.101899  0.113436  1
  Rh  Rh28  1  0.250000  0.704193  0.983614  1
  Rh  Rh29  1  0.250000  0.795807  0.483614  1
  Rh  Rh30  1  0.250000  0.410286  0.481481  1
  Rh  Rh31  1  0.250000  0.089714  0.981481  1
  Rh  Rh32  1  0.750000  0.602466  0.515666  1
  Rh  Rh33  1  0.750000  0.897534  0.015666  1
  Rh  Rh34  1  0.250000  0.222396  0.176471  1
  Rh  Rh35  1  0.250000  0.277604  0.676471  1
