# generated using pymatgen
data_Tm3Co8P6Os
_symmetry_space_group_name_H-M   'P 1'
_cell_length_a   3.69290600
_cell_length_b   10.46977400
_cell_length_c   12.18625600
_cell_angle_alpha   90.00000000
_cell_angle_beta   90.00000000
_cell_angle_gamma   90.00000000
_symmetry_Int_Tables_number   1
_chemical_formula_structural   Tm3Co8P6Os
_chemical_formula_sum   'Tm6 Co16 P12 Os2'
_cell_volume   471.16807640
_cell_formula_units_Z   2
loop_
 _symmetry_equiv_pos_site_id
 _symmetry_equiv_pos_as_xyz
  1  'x, y, z'
loop_
 _atom_site_type_symbol
 _atom_site_label
 _atom_site_symmetry_multiplicity
 _atom_site_fract_x
 _atom_site_fract_y
 _atom_site_fract_z
 _atom_site_occupancy
  Tm  Tm0  1  0.000000  0.500000  0.524856  1
  Tm  Tm1  1  0.500000  0.000000  0.475144  1
  Tm  Tm2  1  0.500000  0.817917  0.207234  1
  Tm  Tm3  1  0.500000  0.182083  0.207234  1
  Tm  Tm4  1  0.000000  0.682083  0.792766  1
  Tm  Tm5  1  0.000000  0.317917  0.792766  1
  Co  Co6  1  0.500000  0.500000  0.703383  1
  Co  Co7  1  0.000000  0.000000  0.296617  1
  Co  Co8  1  0.000000  0.500000  0.986831  1
  Co  Co9  1  0.500000  0.000000  0.013169  1
  Co  Co10  1  0.500000  0.332596  0.989661  1
  Co  Co11  1  0.500000  0.667404  0.989661  1
  Co  Co12  1  0.000000  0.167404  0.010339  1
  Co  Co13  1  0.000000  0.832596  0.010339  1
  Co  Co14  1  0.500000  0.297606  0.431181  1
  Co  Co15  1  0.500000  0.702394  0.431181  1
  Co  Co16  1  0.000000  0.202394  0.568819  1
  Co  Co17  1  0.000000  0.797606  0.568819  1
  Co  Co18  1  0.500000  0.878455  0.708440  1
  Co  Co19  1  0.500000  0.121545  0.708440  1
  Co  Co20  1  0.000000  0.621545  0.291560  1
  Co  Co21  1  0.000000  0.378455  0.291560  1
  P  P22  1  0.500000  0.500000  0.879966  1
  P  P23  1  0.000000  0.000000  0.120034  1
  P  P24  1  0.500000  0.500000  0.351940  1
  P  P25  1  0.000000  0.000000  0.648060  1
  P  P26  1  0.500000  0.312972  0.616491  1
  P  P27  1  0.500000  0.687028  0.616491  1
  P  P28  1  0.000000  0.187028  0.383509  1
  P  P29  1  0.000000  0.812972  0.383509  1
  P  P30  1  0.500000  0.845717  0.892258  1
  P  P31  1  0.500000  0.154283  0.892258  1
  P  P32  1  0.000000  0.654283  0.107742  1
  P  P33  1  0.000000  0.345717  0.107742  1
  Os  Os34  1  0.500000  0.500000  0.159311  1
  Os  Os35  1  0.000000  0.000000  0.840689  1
