# generated using pymatgen
data_TbHo2Al3Cu2Pd
_symmetry_space_group_name_H-M   'P 1'
_cell_length_a   7.10045602
_cell_length_b   7.10029578
_cell_length_c   4.00412900
_cell_angle_alpha   90.00000000
_cell_angle_beta   90.00000000
_cell_angle_gamma   120.01034466
_symmetry_Int_Tables_number   1
_chemical_formula_structural   TbHo2Al3Cu2Pd
_chemical_formula_sum   'Tb1 Ho2 Al3 Cu2 Pd1'
_cell_volume   174.80590300
_cell_formula_units_Z   1
loop_
 _symmetry_equiv_pos_site_id
 _symmetry_equiv_pos_as_xyz
  1  'x, y, z'
loop_
 _atom_site_type_symbol
 _atom_site_label
 _atom_site_symmetry_multiplicity
 _atom_site_fract_x
 _atom_site_fract_y
 _atom_site_fract_z
 _atom_site_occupancy
  Tb  Tb0  1  0.413407  0.414140  0.500000  1
  Ho  Ho1  1  0.586480  0.999853  0.500000  1
  Ho  Ho2  1  0.000798  0.587062  0.500000  1
  Al  Al3  1  0.766655  0.765633  0.000000  1
  Al  Al4  1  0.234003  0.000303  0.000000  1
  Al  Al5  1  0.998056  0.232932  0.000000  1
  Cu  Cu6  1  0.998788  0.998651  0.500000  1
  Cu  Cu7  1  0.333393  0.668696  0.000000  1
  Pd  Pd8  1  0.668420  0.332731  0.000000  1
