# generated using pymatgen
data_Ce5MnB6Ru
_symmetry_space_group_name_H-M   'P 1'
_cell_length_a   5.41229647
_cell_length_b   5.41229830
_cell_length_c   8.29968214
_cell_angle_alpha   70.97560968
_cell_angle_beta   70.97561636
_cell_angle_gamma   60.00853192
_symmetry_Int_Tables_number   1
_chemical_formula_structural   Ce5MnB6Ru
_chemical_formula_sum   'Ce5 Mn1 B6 Ru1'
_cell_volume   195.08116274
_cell_formula_units_Z   1
loop_
 _symmetry_equiv_pos_site_id
 _symmetry_equiv_pos_as_xyz
  1  'x, y, z'
loop_
 _atom_site_type_symbol
 _atom_site_label
 _atom_site_symmetry_multiplicity
 _atom_site_fract_x
 _atom_site_fract_y
 _atom_site_fract_z
 _atom_site_occupancy
  Ce  Ce0  1  0.009839  0.009839  0.970478  1
  Ce  Ce1  1  0.744369  0.744369  0.766607  1
  Ce  Ce2  1  0.255516  0.255516  0.233565  1
  Ce  Ce3  1  0.587973  0.587973  0.236039  1
  Ce  Ce4  1  0.411294  0.411294  0.766328  1
  Mn  Mn5  1  0.109781  0.109781  0.670756  1
  B  B6  1  0.495599  0.168158  0.505284  1
  B  B7  1  0.831018  0.495533  0.505307  1
  B  B8  1  0.168195  0.830950  0.505304  1
  B  B9  1  0.168158  0.495599  0.505284  1
  B  B10  1  0.830950  0.168195  0.505304  1
  B  B11  1  0.495533  0.831018  0.505307  1
  Ru  Ru12  1  0.891775  0.891775  0.324441  1
