# generated using pymatgen
data_NdDy7(Nb3Si4)4
_symmetry_space_group_name_H-M   'P 1'
_cell_length_a   7.09414908
_cell_length_b   7.09534618
_cell_length_c   13.09805352
_cell_angle_alpha   89.92917322
_cell_angle_beta   89.98904850
_cell_angle_gamma   90.00026390
_symmetry_Int_Tables_number   1
_chemical_formula_structural   NdDy7(Nb3Si4)4
_chemical_formula_sum   'Nd1 Dy7 Nb12 Si16'
_cell_volume   659.29581740
_cell_formula_units_Z   1
loop_
 _symmetry_equiv_pos_site_id
 _symmetry_equiv_pos_as_xyz
  1  'x, y, z'
loop_
 _atom_site_type_symbol
 _atom_site_label
 _atom_site_symmetry_multiplicity
 _atom_site_fract_x
 _atom_site_fract_y
 _atom_site_fract_z
 _atom_site_occupancy
  Nd  Nd0  1  0.995773  0.339587  0.217784  1
  Dy  Dy1  1  0.001158  0.658393  0.717857  1
  Dy  Dy2  1  0.159086  0.499363  0.468183  1
  Dy  Dy3  1  0.500687  0.840984  0.031435  1
  Dy  Dy4  1  0.841247  0.501077  0.967252  1
  Dy  Dy5  1  0.498757  0.158602  0.532850  1
  Dy  Dy6  1  0.341463  0.998947  0.782040  1
  Dy  Dy7  1  0.658521  0.001261  0.282671  1
  Nb  Nb8  1  0.171280  0.169894  0.999281  1
  Nb  Nb9  1  0.829140  0.829217  0.500700  1
  Nb  Nb10  1  0.329459  0.671473  0.250092  1
  Nb  Nb11  1  0.670920  0.329172  0.749954  1
  Nb  Nb12  1  0.155368  0.992857  0.377259  1
  Nb  Nb13  1  0.846140  0.007152  0.875303  1
  Nb  Nb14  1  0.507549  0.654090  0.626555  1
  Nb  Nb15  1  0.346246  0.492520  0.873137  1
  Nb  Nb16  1  0.492448  0.345499  0.125450  1
  Nb  Nb17  1  0.653747  0.509401  0.374879  1
  Nb  Nb18  1  0.992529  0.153781  0.624459  1
  Nb  Nb19  1  0.008093  0.845219  0.123079  1
  Si  Si20  1  0.295234  0.043223  0.186541  1
  Si  Si21  1  0.706437  0.954414  0.686653  1
  Si  Si22  1  0.454501  0.793603  0.437108  1
  Si  Si23  1  0.208462  0.546505  0.061877  1
  Si  Si24  1  0.544697  0.206564  0.936055  1
  Si  Si25  1  0.793213  0.454701  0.563809  1
  Si  Si26  1  0.045543  0.293412  0.813442  1
  Si  Si27  1  0.954354  0.710440  0.314175  1
  Si  Si28  1  0.370856  0.295329  0.318691  1
  Si  Si29  1  0.632427  0.704599  0.818172  1
  Si  Si30  1  0.204575  0.867789  0.568503  1
  Si  Si31  1  0.132216  0.795709  0.931385  1
  Si  Si32  1  0.793234  0.128900  0.065402  1
  Si  Si33  1  0.867725  0.203839  0.434179  1
  Si  Si34  1  0.295255  0.367731  0.681685  1
  Si  Si35  1  0.701663  0.634749  0.182101  1
