# generated using pymatgen
data_Ca3Pr3(Nd7Ga6)2
_symmetry_space_group_name_H-M   'P 1'
_cell_length_a   7.90003802
_cell_length_b   7.90018601
_cell_length_c   14.58506602
_cell_angle_alpha   90.00108589
_cell_angle_beta   90.00641118
_cell_angle_gamma   90.00571496
_symmetry_Int_Tables_number   1
_chemical_formula_structural   Ca3Pr3(Nd7Ga6)2
_chemical_formula_sum   'Ca3 Pr3 Nd14 Ga12'
_cell_volume   910.27977370
_cell_formula_units_Z   1
loop_
 _symmetry_equiv_pos_site_id
 _symmetry_equiv_pos_as_xyz
  1  'x, y, z'
loop_
 _atom_site_type_symbol
 _atom_site_label
 _atom_site_symmetry_multiplicity
 _atom_site_fract_x
 _atom_site_fract_y
 _atom_site_fract_z
 _atom_site_occupancy
  Ca  Ca0  1  0.999836  0.500037  0.735169  1
  Ca  Ca1  1  0.999888  0.500057  0.238797  1
  Ca  Ca2  1  0.500066  0.999932  0.257936  1
  Pr  Pr3  1  0.321196  0.660820  0.897855  1
  Pr  Pr4  1  0.333360  0.322733  0.101066  1
  Pr  Pr5  1  0.160343  0.178842  0.897944  1
  Nd  Nd6  1  0.818608  0.834287  0.602826  1
  Nd  Nd7  1  0.176853  0.833389  0.101593  1
  Nd  Nd8  1  0.166797  0.821780  0.396813  1
  Nd  Nd9  1  0.833144  0.178168  0.396835  1
  Nd  Nd10  1  0.678209  0.666924  0.396899  1
  Nd  Nd11  1  0.665752  0.318638  0.602815  1
  Nd  Nd12  1  0.334336  0.681397  0.602834  1
  Nd  Nd13  1  0.666756  0.677239  0.101565  1
  Nd  Nd14  1  0.679196  0.339849  0.897458  1
  Nd  Nd15  1  0.839652  0.821100  0.897483  1
  Nd  Nd16  1  0.321881  0.333133  0.396868  1
  Nd  Nd17  1  0.181264  0.165602  0.602822  1
  Nd  Nd18  1  0.822879  0.166280  0.101585  1
  Nd  Nd19  1  0.500171  0.000079  0.783584  1
  Ga  Ga20  1  0.617998  0.382814  0.249721  1
  Ga  Ga21  1  0.119567  0.882612  0.747978  1
  Ga  Ga22  1  0.382997  0.380046  0.747969  1
  Ga  Ga23  1  0.382406  0.617567  0.249664  1
  Ga  Ga24  1  0.882638  0.882201  0.249516  1
  Ga  Ga25  1  0.617635  0.619801  0.748096  1
  Ga  Ga26  1  0.000011  0.499975  0.503484  1
  Ga  Ga27  1  0.879752  0.117235  0.748074  1
  Ga  Ga28  1  0.500008  0.000002  0.491989  1
  Ga  Ga29  1  0.500737  0.999642  0.999145  1
  Ga  Ga30  1  0.117141  0.117537  0.249622  1
  Ga  Ga31  1  0.998925  0.500284  0.004000  1
