# generated using pymatgen
data_Ce2PdRhPb
_symmetry_space_group_name_H-M   'P 1'
_cell_length_a   7.87002303
_cell_length_b   7.90480103
_cell_length_c   3.73044600
_cell_angle_alpha   90.00000000
_cell_angle_beta   90.00000000
_cell_angle_gamma   90.01007545
_symmetry_Int_Tables_number   1
_chemical_formula_structural   Ce2PdRhPb
_chemical_formula_sum   'Ce4 Pd2 Rh2 Pb2'
_cell_volume   232.07464628
_cell_formula_units_Z   2
loop_
 _symmetry_equiv_pos_site_id
 _symmetry_equiv_pos_as_xyz
  1  'x, y, z'
loop_
 _atom_site_type_symbol
 _atom_site_label
 _atom_site_symmetry_multiplicity
 _atom_site_fract_x
 _atom_site_fract_y
 _atom_site_fract_z
 _atom_site_occupancy
  Ce  Ce0  1  0.663605  0.173078  0.500000  1
  Ce  Ce1  1  0.182923  0.323761  0.500000  1
  Ce  Ce2  1  0.836376  0.673069  0.500000  1
  Ce  Ce3  1  0.317109  0.823763  0.500000  1
  Pd  Pd4  1  0.626568  0.871043  0.000000  1
  Pd  Pd5  1  0.873415  0.371037  0.000000  1
  Rh  Rh6  1  0.370408  0.131553  0.000000  1
  Rh  Rh7  1  0.129587  0.631572  0.000000  1
  Pb  Pb8  1  0.999929  0.000541  0.000000  1
  Pb  Pb9  1  0.500081  0.500583  0.000000  1
