# generated using pymatgen
data_LiY3Tm2(P2Ru3)6
_symmetry_space_group_name_H-M   'P 1'
_cell_length_a   12.61712875
_cell_length_b   12.41545549
_cell_length_c   3.96837300
_cell_angle_alpha   90.00000000
_cell_angle_beta   90.00000000
_cell_angle_gamma   119.47264254
_symmetry_Int_Tables_number   1
_chemical_formula_structural   LiY3Tm2(P2Ru3)6
_chemical_formula_sum   'Li1 Y3 Tm2 P12 Ru18'
_cell_volume   541.18993436
_cell_formula_units_Z   1
loop_
 _symmetry_equiv_pos_site_id
 _symmetry_equiv_pos_as_xyz
  1  'x, y, z'
loop_
 _atom_site_type_symbol
 _atom_site_label
 _atom_site_symmetry_multiplicity
 _atom_site_fract_x
 _atom_site_fract_y
 _atom_site_fract_z
 _atom_site_occupancy
  Li  Li0  1  0.000000  0.561721  0.000000  1
  Y  Y1  1  0.000000  0.181768  0.500000  1
  Y  Y2  1  0.817148  0.815868  0.500000  1
  Y  Y3  1  0.182852  0.998721  0.500000  1
  Tm  Tm4  1  0.658406  0.328575  0.000000  1
  Tm  Tm5  1  0.341594  0.670171  0.000000  1
  P  P6  1  0.000000  0.807334  0.000000  1
  P  P7  1  0.181682  0.183529  0.000000  1
  P  P8  1  0.818318  0.001846  0.000000  1
  P  P9  1  0.691937  0.173884  0.500000  1
  P  P10  1  0.818672  0.517799  0.500000  1
  P  P11  1  0.473614  0.306530  0.500000  1
  P  P12  1  0.181328  0.699127  0.500000  1
  P  P13  1  0.526386  0.832915  0.500000  1
  P  P14  1  0.308063  0.481946  0.500000  1
  P  P15  1  0.000000  0.368083  0.000000  1
  P  P16  1  0.626000  0.625120  0.000000  1
  P  P17  1  0.374000  0.999120  0.000000  1
  Ru  Ru18  1  0.443949  0.444808  0.000000  1
  Ru  Ru19  1  0.556051  0.000859  0.000000  1
  Ru  Ru20  1  0.000000  0.710567  0.500000  1
  Ru  Ru21  1  0.280426  0.283509  0.500000  1
  Ru  Ru22  1  0.719574  0.003081  0.500000  1
  Ru  Ru23  1  0.805694  0.187261  0.000000  1
  Ru  Ru24  1  0.812517  0.617608  0.000000  1
  Ru  Ru25  1  0.372731  0.189106  0.000000  1
  Ru  Ru26  1  0.187483  0.805090  0.000000  1
  Ru  Ru27  1  0.627269  0.816373  0.000000  1
  Ru  Ru28  1  0.194306  0.381566  0.000000  1
  Ru  Ru29  1  0.875757  0.367731  0.500000  1
  Ru  Ru30  1  0.630399  0.507880  0.500000  1
  Ru  Ru31  1  0.492803  0.129057  0.500000  1
  Ru  Ru32  1  0.369601  0.877483  0.500000  1
  Ru  Ru33  1  0.507197  0.636254  0.500000  1
  Ru  Ru34  1  0.124243  0.491974  0.500000  1
  Ru  Ru35  1  0.000000  0.995734  0.000000  1
