# generated using pymatgen
data_Li2Pr8Ho9ScSi16
_symmetry_space_group_name_H-M   'P 1'
_cell_length_a   7.34363464
_cell_length_b   7.76202169
_cell_length_c   14.79259700
_cell_angle_alpha   90.00000000
_cell_angle_beta   90.00000000
_cell_angle_gamma   89.95196574
_symmetry_Int_Tables_number   1
_chemical_formula_structural   Li2Pr8Ho9ScSi16
_chemical_formula_sum   'Li2 Pr8 Ho9 Sc1 Si16'
_cell_volume   843.19920178
_cell_formula_units_Z   1
loop_
 _symmetry_equiv_pos_site_id
 _symmetry_equiv_pos_as_xyz
  1  'x, y, z'
loop_
 _atom_site_type_symbol
 _atom_site_label
 _atom_site_symmetry_multiplicity
 _atom_site_fract_x
 _atom_site_fract_y
 _atom_site_fract_z
 _atom_site_occupancy
  Li  Li0  1  0.655687  0.991495  0.750000  1
  Li  Li1  1  0.845025  0.492705  0.250000  1
  Pr  Pr2  1  0.014393  0.187812  0.399678  1
  Pr  Pr3  1  0.525375  0.324919  0.398402  1
  Pr  Pr4  1  0.485192  0.686696  0.897884  1
  Pr  Pr5  1  0.485192  0.686696  0.602116  1
  Pr  Pr6  1  0.975872  0.823823  0.602852  1
  Pr  Pr7  1  0.975872  0.823823  0.897148  1
  Pr  Pr8  1  0.525375  0.324919  0.101598  1
  Pr  Pr9  1  0.014393  0.187812  0.100322  1
  Ho  Ho10  1  0.331877  0.174499  0.625119  1
  Ho  Ho11  1  0.678765  0.811068  0.374689  1
  Ho  Ho12  1  0.167460  0.673347  0.376434  1
  Ho  Ho13  1  0.821852  0.311663  0.873207  1
  Ho  Ho14  1  0.821852  0.311663  0.626793  1
  Ho  Ho15  1  0.343660  0.007354  0.250000  1
  Ho  Ho16  1  0.331877  0.174499  0.874881  1
  Ho  Ho17  1  0.167460  0.673347  0.123566  1
  Ho  Ho18  1  0.678765  0.811068  0.125311  1
  Sc  Sc19  1  0.155239  0.506402  0.750000  1
  Si  Si20  1  0.271437  0.876487  0.750000  1
  Si  Si21  1  0.465043  0.607909  0.250000  1
  Si  Si22  1  0.035598  0.107443  0.750000  1
  Si  Si23  1  0.522434  0.402176  0.750000  1
  Si  Si24  1  0.148828  0.469769  0.543758  1
  Si  Si25  1  0.971442  0.897035  0.250000  1
  Si  Si26  1  0.722400  0.111044  0.250000  1
  Si  Si27  1  0.849185  0.536483  0.028201  1
  Si  Si28  1  0.350977  0.968617  0.040257  1
  Si  Si29  1  0.148828  0.469769  0.956242  1
  Si  Si30  1  0.650976  0.036277  0.530086  1
  Si  Si31  1  0.350977  0.968617  0.459743  1
  Si  Si32  1  0.849185  0.536483  0.471799  1
  Si  Si33  1  0.784538  0.608605  0.750000  1
  Si  Si34  1  0.225993  0.381394  0.250000  1
  Si  Si35  1  0.650976  0.036277  0.969914  1
