# generated using pymatgen
data_Yb3Dy(Ga8Pt3)3
_symmetry_space_group_name_H-M   'P 1'
_cell_length_a   7.48834061
_cell_length_b   7.58354907
_cell_length_c   13.43245132
_cell_angle_alpha   84.59437828
_cell_angle_beta   79.39551470
_cell_angle_gamma   60.47147157
_symmetry_Int_Tables_number   1
_chemical_formula_structural   Yb3Dy(Ga8Pt3)3
_chemical_formula_sum   'Yb3 Dy1 Ga24 Pt9'
_cell_volume   652.38304848
_cell_formula_units_Z   1
loop_
 _symmetry_equiv_pos_site_id
 _symmetry_equiv_pos_as_xyz
  1  'x, y, z'
loop_
 _atom_site_type_symbol
 _atom_site_label
 _atom_site_symmetry_multiplicity
 _atom_site_fract_x
 _atom_site_fract_y
 _atom_site_fract_z
 _atom_site_occupancy
  Yb  Yb0  1  0.396963  0.168002  0.808366  1
  Yb  Yb1  1  0.602350  0.832204  0.191775  1
  Yb  Yb2  1  0.733095  0.499415  0.809035  1
  Dy  Dy3  1  0.266869  0.502441  0.189285  1
  Ga  Ga4  1  0.687558  0.832857  0.939697  1
  Ga  Ga5  1  0.314447  0.164313  0.059984  1
  Ga  Ga6  1  0.146628  0.831726  0.558920  1
  Ga  Ga7  1  0.853861  0.167826  0.440830  1
  Ga  Ga8  1  0.478965  0.166821  0.555540  1
  Ga  Ga9  1  0.521978  0.832869  0.443977  1
  Ga  Ga10  1  0.221451  0.163886  0.322348  1
  Ga  Ga11  1  0.778962  0.835954  0.677196  1
  Ga  Ga12  1  0.436017  0.505197  0.676223  1
  Ga  Ga13  1  0.563632  0.496043  0.324324  1
  Ga  Ga14  1  0.107435  0.161345  0.674313  1
  Ga  Ga15  1  0.892244  0.839076  0.324077  1
  Ga  Ga16  1  0.360205  0.495487  0.938982  1
  Ga  Ga17  1  0.642395  0.503104  0.059019  1
  Ga  Ga18  1  0.019915  0.168738  0.946084  1
  Ga  Ga19  1  0.977928  0.830655  0.055692  1
  Ga  Ga20  1  0.186829  0.498121  0.444131  1
  Ga  Ga21  1  0.812846  0.502321  0.555590  1
  Ga  Ga22  1  0.731611  0.168061  0.181971  1
  Ga  Ga23  1  0.266577  0.836015  0.818897  1
  Ga  Ga24  1  0.061586  0.629083  0.817862  1
  Ga  Ga25  1  0.940023  0.369314  0.182927  1
  Ga  Ga26  1  0.855011  0.042526  0.816828  1
  Ga  Ga27  1  0.142409  0.958407  0.183864  1
  Pt  Pt28  1  0.116402  0.494236  0.639783  1
  Pt  Pt29  1  0.883773  0.506032  0.360073  1
  Pt  Pt30  1  0.661039  0.168273  0.000164  1
  Pt  Pt31  1  0.338625  0.829782  0.002113  1
  Pt  Pt32  1  0.540216  0.166593  0.360287  1
  Pt  Pt33  1  0.459675  0.833548  0.639250  1
  Pt  Pt34  1  0.777809  0.175384  0.636285  1
  Pt  Pt35  1  0.221932  0.825419  0.363332  1
  Pt  Pt36  1  0.000737  0.498928  0.000978  1
