# generated using pymatgen
data_LaNd2Sm3Co16(TcP6)2
_symmetry_space_group_name_H-M   'P 1'
_cell_length_a   3.77313100
_cell_length_b   10.66047981
_cell_length_c   12.39546930
_cell_angle_alpha   89.90904680
_cell_angle_beta   90.00000000
_cell_angle_gamma   90.00000000
_symmetry_Int_Tables_number   1
_chemical_formula_structural   LaNd2Sm3Co16(TcP6)2
_chemical_formula_sum   'La1 Nd2 Sm3 Co16 Tc2 P12'
_cell_volume   498.58712836
_cell_formula_units_Z   1
loop_
 _symmetry_equiv_pos_site_id
 _symmetry_equiv_pos_as_xyz
  1  'x, y, z'
loop_
 _atom_site_type_symbol
 _atom_site_label
 _atom_site_symmetry_multiplicity
 _atom_site_fract_x
 _atom_site_fract_y
 _atom_site_fract_z
 _atom_site_occupancy
  La  La0  1  0.500000  0.999707  0.474989  1
  Nd  Nd1  1  0.000000  0.500396  0.522491  1
  Nd  Nd2  1  0.000000  0.317754  0.794198  1
  Sm  Sm3  1  0.500000  0.816573  0.205275  1
  Sm  Sm4  1  0.500000  0.182792  0.204862  1
  Sm  Sm5  1  0.000000  0.683428  0.794821  1
  Co  Co6  1  0.500000  0.501303  0.705273  1
  Co  Co7  1  0.000000  0.999722  0.295179  1
  Co  Co8  1  0.000000  0.500966  0.988291  1
  Co  Co9  1  0.500000  0.999143  0.013044  1
  Co  Co10  1  0.500000  0.332493  0.992189  1
  Co  Co11  1  0.500000  0.668412  0.991687  1
  Co  Co12  1  0.000000  0.167408  0.009388  1
  Co  Co13  1  0.000000  0.831727  0.009423  1
  Co  Co14  1  0.500000  0.298360  0.428626  1
  Co  Co15  1  0.500000  0.701890  0.429485  1
  Co  Co16  1  0.000000  0.204195  0.569001  1
  Co  Co17  1  0.000000  0.795542  0.570265  1
  Co  Co18  1  0.500000  0.880736  0.711124  1
  Co  Co19  1  0.500000  0.118467  0.710534  1
  Co  Co20  1  0.000000  0.618457  0.289250  1
  Co  Co21  1  0.000000  0.381026  0.288476  1
  Tc  Tc22  1  0.500000  0.500114  0.154287  1
  Tc  Tc23  1  0.000000  0.999696  0.846650  1
  P  P24  1  0.500000  0.501225  0.885105  1
  P  P25  1  0.000000  0.999572  0.116056  1
  P  P26  1  0.500000  0.499741  0.343687  1
  P  P27  1  0.000000  0.000198  0.657781  1
  P  P28  1  0.500000  0.307656  0.613831  1
  P  P29  1  0.500000  0.692493  0.615628  1
  P  P30  1  0.000000  0.195112  0.383257  1
  P  P31  1  0.000000  0.804306  0.384024  1
  P  P32  1  0.500000  0.847255  0.895236  1
  P  P33  1  0.500000  0.152303  0.896321  1
  P  P34  1  0.000000  0.652698  0.105633  1
  P  P35  1  0.000000  0.347134  0.104632  1
