# generated using pymatgen
data_TbAg3Ir3RuO14
_symmetry_space_group_name_H-M   'P 1'
_cell_length_a   7.20413058
_cell_length_b   7.20413136
_cell_length_c   7.26787385
_cell_angle_alpha   60.28969816
_cell_angle_beta   60.28970835
_cell_angle_gamma   60.00000250
_symmetry_Int_Tables_number   1
_chemical_formula_structural   TbAg3Ir3RuO14
_chemical_formula_sum   'Tb1 Ag3 Ir3 Ru1 O14'
_cell_volume   267.88197500
_cell_formula_units_Z   1
loop_
 _symmetry_equiv_pos_site_id
 _symmetry_equiv_pos_as_xyz
  1  'x, y, z'
loop_
 _atom_site_type_symbol
 _atom_site_label
 _atom_site_symmetry_multiplicity
 _atom_site_fract_x
 _atom_site_fract_y
 _atom_site_fract_z
 _atom_site_occupancy
  Tb  Tb0  1  0.625000  0.625000  0.125000  1
  Ag  Ag1  1  0.625000  0.125000  0.625000  1
  Ag  Ag2  1  0.125000  0.625000  0.625000  1
  Ag  Ag3  1  0.625000  0.625000  0.625000  1
  Ir  Ir4  1  0.125000  0.625000  0.125000  1
  Ir  Ir5  1  0.625000  0.125000  0.125000  1
  Ir  Ir6  1  0.125000  0.125000  0.125000  1
  Ru  Ru7  1  0.125000  0.125000  0.625000  1
  O  O8  1  0.754748  0.754748  0.735757  1
  O  O9  1  0.495252  0.495252  0.514243  1
  O  O10  1  0.035139  0.455167  0.054528  1
  O  O11  1  0.805258  0.192350  0.810043  1
  O  O12  1  0.057650  0.057650  0.439957  1
  O  O13  1  0.455167  0.035139  0.054528  1
  O  O14  1  0.057650  0.444742  0.439957  1
  O  O15  1  0.455167  0.455167  0.054528  1
  O  O16  1  0.444742  0.057650  0.439957  1
  O  O17  1  0.192350  0.805258  0.810043  1
  O  O18  1  0.794833  0.214861  0.195472  1
  O  O19  1  0.214861  0.794833  0.195472  1
  O  O20  1  0.794833  0.794833  0.195472  1
  O  O21  1  0.192350  0.192350  0.810043  1
