# generated using pymatgen
data_Tm12GaCo4Pb
_symmetry_space_group_name_H-M   'P 1'
_cell_length_a   8.23242849
_cell_length_b   8.23242950
_cell_length_c   8.23242829
_cell_angle_alpha   111.99331074
_cell_angle_beta   109.42813727
_cell_angle_gamma   107.03030015
_symmetry_Int_Tables_number   1
_chemical_formula_structural   Tm12GaCo4Pb
_chemical_formula_sum   'Tm12 Ga1 Co4 Pb1'
_cell_volume   428.69234646
_cell_formula_units_Z   1
loop_
 _symmetry_equiv_pos_site_id
 _symmetry_equiv_pos_as_xyz
  1  'x, y, z'
loop_
 _atom_site_type_symbol
 _atom_site_label
 _atom_site_symmetry_multiplicity
 _atom_site_fract_x
 _atom_site_fract_y
 _atom_site_fract_z
 _atom_site_occupancy
  Tm  Tm0  1  0.969274  0.267266  0.702010  1
  Tm  Tm1  1  0.030726  0.732734  0.297990  1
  Tm  Tm2  1  0.675048  0.859973  0.184925  1
  Tm  Tm3  1  0.324952  0.509878  0.184925  1
  Tm  Tm4  1  0.324952  0.140027  0.815075  1
  Tm  Tm5  1  0.675048  0.490122  0.815075  1
  Tm  Tm6  1  0.565256  0.267266  0.297990  1
  Tm  Tm7  1  0.434744  0.732734  0.702010  1
  Tm  Tm8  1  0.179563  0.780124  0.959687  1
  Tm  Tm9  1  0.820437  0.780124  0.600563  1
  Tm  Tm10  1  0.179563  0.219876  0.399437  1
  Tm  Tm11  1  0.820437  0.219876  0.040313  1
  Ga  Ga12  1  0.000000  0.500000  0.500000  1
  Co  Co13  1  0.115049  0.115049  0.000000  1
  Co  Co14  1  0.884951  0.884951  0.000000  1
  Co  Co15  1  0.660984  0.500000  0.160984  1
  Co  Co16  1  0.339016  0.500000  0.839016  1
  Pb  Pb17  1  0.500000  0.000000  0.500000  1
