# generated using pymatgen
data_Tb2Pr3P12Ru18Rh
_symmetry_space_group_name_H-M   'P 1'
_cell_length_a   4.01528600
_cell_length_b   12.63444056
_cell_length_c   12.58535903
_cell_angle_alpha   119.87523667
_cell_angle_beta   90.00000000
_cell_angle_gamma   90.00000000
_symmetry_Int_Tables_number   1
_chemical_formula_structural   Tb2Pr3P12Ru18Rh
_chemical_formula_sum   'Tb2 Pr3 P12 Ru18 Rh1'
_cell_volume   553.62203173
_cell_formula_units_Z   1
loop_
 _symmetry_equiv_pos_site_id
 _symmetry_equiv_pos_as_xyz
  1  'x, y, z'
loop_
 _atom_site_type_symbol
 _atom_site_label
 _atom_site_symmetry_multiplicity
 _atom_site_fract_x
 _atom_site_fract_y
 _atom_site_fract_z
 _atom_site_occupancy
  Tb  Tb0  1  0.000000  0.335347  0.667475  1
  Tb  Tb1  1  0.000000  0.664636  0.332123  1
  Pr  Pr2  1  0.500000  0.000000  0.183657  1
  Pr  Pr3  1  0.500000  0.184402  0.999701  1
  Pr  Pr4  1  0.500000  0.815609  0.815303  1
  P  P5  1  0.000000  0.000001  0.809970  1
  P  P6  1  0.000000  0.811902  0.000328  1
  P  P7  1  0.000000  0.188092  0.188422  1
  P  P8  1  0.500000  0.305536  0.479399  1
  P  P9  1  0.500000  0.177059  0.697839  1
  P  P10  1  0.500000  0.522867  0.827767  1
  P  P11  1  0.500000  0.822931  0.520770  1
  P  P12  1  0.500000  0.477127  0.304881  1
  P  P13  1  0.500000  0.694446  0.173841  1
  P  P14  1  0.000000  0.999996  0.372123  1
  P  P15  1  0.000000  0.374844  0.999913  1
  P  P16  1  0.000000  0.625144  0.625059  1
  Ru  Ru17  1  0.000000  0.554800  0.000717  1
  Ru  Ru18  1  0.000000  0.445203  0.445923  1
  Ru  Ru19  1  0.500000  0.999997  0.711178  1
  Ru  Ru20  1  0.500000  0.714057  0.000882  1
  Ru  Ru21  1  0.500000  0.285949  0.286837  1
  Ru  Ru22  1  0.000000  0.195382  0.381641  1
  Ru  Ru23  1  0.000000  0.185595  0.804350  1
  Ru  Ru24  1  0.000000  0.620214  0.815210  1
  Ru  Ru25  1  0.000000  0.814396  0.618751  1
  Ru  Ru26  1  0.000000  0.379771  0.194997  1
  Ru  Ru27  1  0.000000  0.804612  0.186259  1
  Ru  Ru28  1  0.500000  0.125775  0.493703  1
  Ru  Ru29  1  0.500000  0.368809  0.875599  1
  Ru  Ru30  1  0.500000  0.506813  0.632865  1
  Ru  Ru31  1  0.500000  0.631187  0.506795  1
  Ru  Ru32  1  0.500000  0.493188  0.126053  1
  Ru  Ru33  1  0.500000  0.874217  0.367928  1
  Ru  Ru34  1  0.000000  0.000000  0.999001  1
  Rh  Rh35  1  0.000000  0.999993  0.552739  1
