# generated using pymatgen
data_Sc3Ta2SnRu6
_symmetry_space_group_name_H-M   'P 1'
_cell_length_a   4.52498300
_cell_length_b   6.38887200
_cell_length_c   13.56638900
_cell_angle_alpha   90.00000000
_cell_angle_beta   90.00235589
_cell_angle_gamma   90.00000000
_symmetry_Int_Tables_number   1
_chemical_formula_structural   Sc3Ta2SnRu6
_chemical_formula_sum   'Sc6 Ta4 Sn2 Ru12'
_cell_volume   392.19802715
_cell_formula_units_Z   2
loop_
 _symmetry_equiv_pos_site_id
 _symmetry_equiv_pos_as_xyz
  1  'x, y, z'
loop_
 _atom_site_type_symbol
 _atom_site_label
 _atom_site_symmetry_multiplicity
 _atom_site_fract_x
 _atom_site_fract_y
 _atom_site_fract_z
 _atom_site_occupancy
  Sc  Sc0  1  0.000016  0.000000  0.004303  1
  Sc  Sc1  1  0.499913  0.500000  0.162372  1
  Sc  Sc2  1  0.999909  0.000000  0.330963  1
  Sc  Sc3  1  0.500001  0.500000  0.500632  1
  Sc  Sc4  1  0.000084  0.000000  0.666041  1
  Sc  Sc5  1  0.500120  0.500000  0.835686  1
  Ta  Ta6  1  0.999904  0.500000  0.332085  1
  Ta  Ta7  1  0.500001  0.000000  0.499284  1
  Ta  Ta8  1  0.000090  0.500000  0.667388  1
  Ta  Ta9  1  0.500106  0.000000  0.834586  1
  Sn  Sn10  1  0.000024  0.500000  0.000267  1
  Sn  Sn11  1  0.499861  0.000000  0.166409  1
  Ru  Ru12  1  0.500011  0.242752  0.993520  1
  Ru  Ru13  1  0.500011  0.757249  0.993520  1
  Ru  Ru14  1  0.999911  0.257256  0.173153  1
  Ru  Ru15  1  0.999911  0.742744  0.173153  1
  Ru  Ru16  1  0.499890  0.254181  0.338077  1
  Ru  Ru17  1  0.499890  0.745818  0.338077  1
  Ru  Ru18  1  0.999992  0.249045  0.500627  1
  Ru  Ru19  1  0.999992  0.750955  0.500627  1
  Ru  Ru20  1  0.500080  0.250963  0.666023  1
  Ru  Ru21  1  0.500080  0.749036  0.666023  1
  Ru  Ru22  1  0.000100  0.245824  0.828590  1
  Ru  Ru23  1  0.000100  0.754176  0.828590  1
