# generated using pymatgen
data_Nd2Ho3Er5(In2Pd)4
_symmetry_space_group_name_H-M   'P 1'
_cell_length_a   3.61962500
_cell_length_b   8.18570418
_cell_length_c   18.33785641
_cell_angle_alpha   89.97583899
_cell_angle_beta   90.00000000
_cell_angle_gamma   90.00000000
_symmetry_Int_Tables_number   1
_chemical_formula_structural   Nd2Ho3Er5(In2Pd)4
_chemical_formula_sum   'Nd2 Ho3 Er5 In8 Pd4'
_cell_volume   543.33559083
_cell_formula_units_Z   1
loop_
 _symmetry_equiv_pos_site_id
 _symmetry_equiv_pos_as_xyz
  1  'x, y, z'
loop_
 _atom_site_type_symbol
 _atom_site_label
 _atom_site_symmetry_multiplicity
 _atom_site_fract_x
 _atom_site_fract_y
 _atom_site_fract_z
 _atom_site_occupancy
  Nd  Nd0  1  0.000000  0.499998  0.499962  1
  Nd  Nd1  1  0.000000  0.999994  0.000010  1
  Ho  Ho2  1  0.000000  0.738350  0.281366  1
  Ho  Ho3  1  0.000000  0.261647  0.718628  1
  Ho  Ho4  1  0.000000  0.761685  0.781366  1
  Er  Er5  1  0.000000  0.238419  0.218717  1
  Er  Er6  1  0.000000  0.619686  0.084278  1
  Er  Er7  1  0.000000  0.380223  0.915764  1
  Er  Er8  1  0.000000  0.880214  0.584224  1
  Er  Er9  1  0.000000  0.119771  0.415708  1
  In  In10  1  0.500000  0.700855  0.931572  1
  In  In11  1  0.500000  0.299074  0.068570  1
  In  In12  1  0.500000  0.799254  0.431563  1
  In  In13  1  0.500000  0.200838  0.568432  1
  In  In14  1  0.500000  0.583152  0.653120  1
  In  In15  1  0.500000  0.416668  0.346772  1
  In  In16  1  0.500000  0.917078  0.153192  1
  In  In17  1  0.500000  0.083147  0.846864  1
  Pd  Pd18  1  0.500000  0.523086  0.195523  1
  Pd  Pd19  1  0.500000  0.476488  0.804497  1
  Pd  Pd20  1  0.500000  0.976488  0.695494  1
  Pd  Pd21  1  0.500000  0.023885  0.304378  1
