# generated using pymatgen
data_Er19Lu(Ir2Rh)4
_symmetry_space_group_name_H-M   'P 1'
_cell_length_a   10.74123900
_cell_length_b   10.74123900
_cell_length_c   6.38377600
_cell_angle_alpha   90.00000000
_cell_angle_beta   90.00000000
_cell_angle_gamma   90.00000000
_symmetry_Int_Tables_number   1
_chemical_formula_structural   Er19Lu(Ir2Rh)4
_chemical_formula_sum   'Er19 Lu1 Ir8 Rh4'
_cell_volume   736.52314636
_cell_formula_units_Z   1
loop_
 _symmetry_equiv_pos_site_id
 _symmetry_equiv_pos_as_xyz
  1  'x, y, z'
loop_
 _atom_site_type_symbol
 _atom_site_label
 _atom_site_symmetry_multiplicity
 _atom_site_fract_x
 _atom_site_fract_y
 _atom_site_fract_z
 _atom_site_occupancy
  Er  Er0  1  0.289974  0.088019  0.378487  1
  Er  Er1  1  0.290332  0.911760  0.878440  1
  Er  Er2  1  0.709668  0.088240  0.878440  1
  Er  Er3  1  0.710026  0.911981  0.378487  1
  Er  Er4  1  0.588319  0.790654  0.878333  1
  Er  Er5  1  0.588278  0.209348  0.378382  1
  Er  Er6  1  0.411722  0.790652  0.378382  1
  Er  Er7  1  0.411681  0.209346  0.878333  1
  Er  Er8  1  0.209348  0.411722  0.621618  1
  Er  Er9  1  0.209346  0.588319  0.121667  1
  Er  Er10  1  0.790654  0.411681  0.121667  1
  Er  Er11  1  0.790652  0.588278  0.621618  1
  Er  Er12  1  0.911760  0.709668  0.121560  1
  Er  Er13  1  0.911981  0.289974  0.621513  1
  Er  Er14  1  0.088019  0.710026  0.621513  1
  Er  Er15  1  0.088240  0.290332  0.121560  1
  Er  Er16  1  0.000000  0.000000  0.000000  1
  Er  Er17  1  0.500000  0.500000  0.000000  1
  Er  Er18  1  0.500000  0.500000  0.500000  1
  Lu  Lu19  1  0.000000  0.000000  0.500000  1
  Ir  Ir20  1  0.846878  0.152969  0.251333  1
  Ir  Ir21  1  0.847031  0.846878  0.748667  1
  Ir  Ir22  1  0.152969  0.153122  0.748667  1
  Ir  Ir23  1  0.153122  0.847031  0.251333  1
  Ir  Ir24  1  0.653820  0.346106  0.750033  1
  Ir  Ir25  1  0.653894  0.653820  0.249967  1
  Ir  Ir26  1  0.346106  0.346180  0.249967  1
  Ir  Ir27  1  0.346180  0.653894  0.750033  1
  Rh  Rh28  1  0.500000  0.000000  0.122964  1
  Rh  Rh29  1  0.500000  0.000000  0.623006  1
  Rh  Rh30  1  0.000000  0.500000  0.877036  1
  Rh  Rh31  1  0.000000  0.500000  0.376994  1
