# generated using pymatgen
data_Tb12FeIrI17
_symmetry_space_group_name_H-M   'P 1'
_cell_length_a   9.81473818
_cell_length_b   11.75007666
_cell_length_c   11.77459107
_cell_angle_alpha   93.39190791
_cell_angle_beta   104.82697398
_cell_angle_gamma   114.39355033
_symmetry_Int_Tables_number   1
_chemical_formula_structural   Tb12FeIrI17
_chemical_formula_sum   'Tb12 Fe1 Ir1 I17'
_cell_volume   1174.35097048
_cell_formula_units_Z   1
loop_
 _symmetry_equiv_pos_site_id
 _symmetry_equiv_pos_as_xyz
  1  'x, y, z'
loop_
 _atom_site_type_symbol
 _atom_site_label
 _atom_site_symmetry_multiplicity
 _atom_site_fract_x
 _atom_site_fract_y
 _atom_site_fract_z
 _atom_site_occupancy
  Tb  Tb0  1  0.050478  0.500593  0.318753  1
  Tb  Tb1  1  0.991571  0.811985  0.582258  1
  Tb  Tb2  1  0.654746  0.241663  0.281450  1
  Tb  Tb3  1  0.006569  0.192245  0.409632  1
  Tb  Tb4  1  0.222497  0.669121  0.989320  1
  Tb  Tb5  1  0.259708  0.985842  0.891921  1
  Tb  Tb6  1  0.354625  0.759301  0.715310  1
  Tb  Tb7  1  0.942038  0.489258  0.676794  1
  Tb  Tb8  1  0.747281  0.025042  0.112529  1
  Tb  Tb9  1  0.141735  0.286031  0.154192  1
  Tb  Tb10  1  0.781887  0.327693  0.019171  1
  Tb  Tb11  1  0.848277  0.711981  0.848283  1
  Fe  Fe12  1  0.895615  0.262211  0.214477  1
  Ir  Ir13  1  0.104374  0.738011  0.785457  1
  I  I14  1  0.784859  0.529129  0.418223  1
  I  I15  1  0.642135  0.418546  0.760101  1
  I  I16  1  0.843403  0.894453  0.326307  1
  I  I17  1  0.326093  0.212747  0.368869  1
  I  I18  1  0.156247  0.105282  0.674364  1
  I  I19  1  0.586971  0.053049  0.843069  1
  I  I20  1  0.755535  0.184258  0.538636  1
  I  I21  1  0.550660  0.707977  0.953478  1
  I  I22  1  0.358061  0.581331  0.240392  1
  I  I23  1  0.215025  0.471034  0.582585  1
  I  I24  1  0.055568  0.367585  0.896807  1
  I  I25  1  0.449718  0.291628  0.046163  1
  I  I26  1  0.999654  0.999319  0.999457  1
  I  I27  1  0.244710  0.815570  0.461165  1
  I  I28  1  0.412434  0.946423  0.156466  1
  I  I29  1  0.672061  0.787626  0.630812  1
  I  I30  1  0.945466  0.633067  0.103561  1
