# generated using pymatgen
data_KWF6
_symmetry_space_group_name_H-M   'P 1'
_cell_length_a   5.40900900
_cell_length_b   5.40900900
_cell_length_c   9.91795600
_cell_angle_alpha   90.00000000
_cell_angle_beta   90.00000000
_cell_angle_gamma   90.00000000
_symmetry_Int_Tables_number   1
_chemical_formula_structural   KWF6
_chemical_formula_sum   'K2 W2 F12'
_cell_volume   290.17339127
_cell_formula_units_Z   2
loop_
 _symmetry_equiv_pos_site_id
 _symmetry_equiv_pos_as_xyz
  1  'x, y, z'
loop_
 _atom_site_type_symbol
 _atom_site_label
 _atom_site_symmetry_multiplicity
 _atom_site_fract_x
 _atom_site_fract_y
 _atom_site_fract_z
 _atom_site_occupancy
  K  K0  1  0.500000  0.500000  0.250000  1
  K  K1  1  0.500000  0.500000  0.750000  1
  W  W2  1  0.000000  0.000000  0.500000  1
  W  W3  1  0.000000  0.000000  0.000000  1
  F  F4  1  0.184084  0.815916  0.366534  1
  F  F5  1  0.815916  0.184084  0.366534  1
  F  F6  1  0.815916  0.815916  0.133466  1
  F  F7  1  0.184084  0.184084  0.133466  1
  F  F8  1  0.256919  0.743081  0.000000  1
  F  F9  1  0.743081  0.743081  0.500000  1
  F  F10  1  0.256919  0.256919  0.500000  1
  F  F11  1  0.743081  0.256919  0.000000  1
  F  F12  1  0.184084  0.184084  0.866534  1
  F  F13  1  0.184084  0.815916  0.633466  1
  F  F14  1  0.815916  0.184084  0.633466  1
  F  F15  1  0.815916  0.815916  0.866534  1
