# generated using pymatgen
data_La2AlNi5(BIr)2
_symmetry_space_group_name_H-M   'P 1'
_cell_length_a   5.36739239
_cell_length_b   5.36739211
_cell_length_c   7.00734000
_cell_angle_alpha   90.00000000
_cell_angle_beta   90.00000000
_cell_angle_gamma   122.58034527
_symmetry_Int_Tables_number   1
_chemical_formula_structural   La2AlNi5(BIr)2
_chemical_formula_sum   'La2 Al1 Ni5 B2 Ir2'
_cell_volume   170.10632837
_cell_formula_units_Z   1
loop_
 _symmetry_equiv_pos_site_id
 _symmetry_equiv_pos_as_xyz
  1  'x, y, z'
loop_
 _atom_site_type_symbol
 _atom_site_label
 _atom_site_symmetry_multiplicity
 _atom_site_fract_x
 _atom_site_fract_y
 _atom_site_fract_z
 _atom_site_occupancy
  La  La0  1  0.000049  0.999951  0.500000  1
  La  La1  1  0.993632  0.006368  0.000000  1
  Al  Al2  1  0.315423  0.684577  0.000000  1
  Ni  Ni3  1  0.688024  0.311976  0.000000  1
  Ni  Ni4  1  0.500448  0.000868  0.300772  1
  Ni  Ni5  1  0.999132  0.499552  0.300772  1
  Ni  Ni6  1  0.500448  0.000868  0.699228  1
  Ni  Ni7  1  0.999132  0.499552  0.699228  1
  B  B8  1  0.666990  0.333010  0.500000  1
  B  B9  1  0.335519  0.664481  0.500000  1
  Ir  Ir10  1  0.500601  0.499399  0.281109  1
  Ir  Ir11  1  0.500601  0.499399  0.718891  1
