# generated using pymatgen
data_TbDy4Y3(B6Ru)4
_symmetry_space_group_name_H-M   'P 1'
_cell_length_a   3.66714900
_cell_length_b   9.15737101
_cell_length_c   11.53086201
_cell_angle_alpha   90.00535615
_cell_angle_beta   90.00000000
_cell_angle_gamma   90.00000000
_symmetry_Int_Tables_number   1
_chemical_formula_structural   TbDy4Y3(B6Ru)4
_chemical_formula_sum   'Tb1 Dy4 Y3 B24 Ru4'
_cell_volume   387.22299459
_cell_formula_units_Z   1
loop_
 _symmetry_equiv_pos_site_id
 _symmetry_equiv_pos_as_xyz
  1  'x, y, z'
loop_
 _atom_site_type_symbol
 _atom_site_label
 _atom_site_symmetry_multiplicity
 _atom_site_fract_x
 _atom_site_fract_y
 _atom_site_fract_z
 _atom_site_occupancy
  Tb  Tb0  1  0.000000  0.323207  0.413978  1
  Dy  Dy1  1  0.000000  0.944011  0.372175  1
  Dy  Dy2  1  0.000000  0.055921  0.627842  1
  Dy  Dy3  1  0.000000  0.444082  0.127783  1
  Dy  Dy4  1  0.000000  0.555933  0.872200  1
  Y  Y5  1  0.000000  0.677074  0.585979  1
  Y  Y6  1  0.000000  0.822943  0.085950  1
  Y  Y7  1  0.000000  0.177048  0.914033  1
  B  B8  1  0.500000  0.554483  0.432820  1
  B  B9  1  0.500000  0.445523  0.567194  1
  B  B10  1  0.500000  0.054428  0.067108  1
  B  B11  1  0.500000  0.945559  0.932893  1
  B  B12  1  0.500000  0.748019  0.419699  1
  B  B13  1  0.500000  0.251976  0.580392  1
  B  B14  1  0.500000  0.248003  0.080313  1
  B  B15  1  0.500000  0.751993  0.919692  1
  B  B16  1  0.500000  0.791350  0.266479  1
  B  B17  1  0.500000  0.208649  0.733542  1
  B  B18  1  0.500000  0.291256  0.233464  1
  B  B19  1  0.500000  0.708645  0.766474  1
  B  B20  1  0.500000  0.632422  0.185417  1
  B  B21  1  0.500000  0.367571  0.814586  1
  B  B22  1  0.500000  0.132397  0.314544  1
  B  B23  1  0.500000  0.867557  0.685425  1
  B  B24  1  0.500000  0.984412  0.212830  1
  B  B25  1  0.500000  0.015578  0.787157  1
  B  B26  1  0.500000  0.484549  0.287144  1
  B  B27  1  0.500000  0.515583  0.712855  1
  B  B28  1  0.500000  0.609181  0.030129  1
  B  B29  1  0.500000  0.390824  0.969864  1
  B  B30  1  0.500000  0.108931  0.469936  1
  B  B31  1  0.500000  0.890846  0.530117  1
  Ru  Ru32  1  0.000000  0.638294  0.321140  1
  Ru  Ru33  1  0.000000  0.361774  0.678839  1
  Ru  Ru34  1  0.000000  0.138204  0.178823  1
  Ru  Ru35  1  0.000000  0.861775  0.821183  1
