# generated using pymatgen
data_RbTe7Mo6
_symmetry_space_group_name_H-M   'P 1'
_cell_length_a   10.43820619
_cell_length_b   10.43820618
_cell_length_c   10.43820628
_cell_angle_alpha   60.02705371
_cell_angle_beta   60.02706085
_cell_angle_gamma   60.02705899
_symmetry_Int_Tables_number   1
_chemical_formula_structural   RbTe7Mo6
_chemical_formula_sum   'Rb2 Te14 Mo12'
_cell_volume   804.69058262
_cell_formula_units_Z   2
loop_
 _symmetry_equiv_pos_site_id
 _symmetry_equiv_pos_as_xyz
  1  'x, y, z'
loop_
 _atom_site_type_symbol
 _atom_site_label
 _atom_site_symmetry_multiplicity
 _atom_site_fract_x
 _atom_site_fract_y
 _atom_site_fract_z
 _atom_site_occupancy
  Rb  Rb0  1  0.620068  0.620068  0.620068  1
  Rb  Rb1  1  0.379933  0.379933  0.379933  1
  Te  Te2  1  0.425644  0.801391  0.164703  1
  Te  Te3  1  0.164703  0.425644  0.801391  1
  Te  Te4  1  0.801391  0.164703  0.425644  1
  Te  Te5  1  0.574356  0.198609  0.835297  1
  Te  Te6  1  0.835297  0.574356  0.198609  1
  Te  Te7  1  0.198609  0.835297  0.574356  1
  Te  Te8  1  0.629690  0.980476  0.248173  1
  Te  Te9  1  0.248173  0.629690  0.980476  1
  Te  Te10  1  0.980476  0.248173  0.629690  1
  Te  Te11  1  0.370310  0.019524  0.751827  1
  Te  Te12  1  0.751827  0.370310  0.019524  1
  Te  Te13  1  0.019524  0.751827  0.370310  1
  Te  Te14  1  0.774845  0.774845  0.774845  1
  Te  Te15  1  0.225155  0.225155  0.225155  1
  Mo  Mo16  1  0.709415  0.881629  0.000835  1
  Mo  Mo17  1  0.000835  0.709415  0.881629  1
  Mo  Mo18  1  0.881629  0.000835  0.709415  1
  Mo  Mo19  1  0.290585  0.118371  0.999165  1
  Mo  Mo20  1  0.999165  0.290585  0.118371  1
  Mo  Mo21  1  0.118371  0.999165  0.290585  1
  Mo  Mo22  1  0.943829  0.812771  0.110214  1
  Mo  Mo23  1  0.110214  0.943829  0.812771  1
  Mo  Mo24  1  0.812771  0.110214  0.943829  1
  Mo  Mo25  1  0.056171  0.187229  0.889786  1
  Mo  Mo26  1  0.889786  0.056171  0.187229  1
  Mo  Mo27  1  0.187229  0.889786  0.056171  1
