# generated using pymatgen
data_CsTb2LuS5
_symmetry_space_group_name_H-M   'P 1'
_cell_length_a   3.99312200
_cell_length_b   12.02489000
_cell_length_c   21.31690100
_cell_angle_alpha   90.00000000
_cell_angle_beta   90.00000000
_cell_angle_gamma   90.00000000
_symmetry_Int_Tables_number   1
_chemical_formula_structural   CsTb2LuS5
_chemical_formula_sum   'Cs4 Tb8 Lu4 S20'
_cell_volume   1023.57049761
_cell_formula_units_Z   4
loop_
 _symmetry_equiv_pos_site_id
 _symmetry_equiv_pos_as_xyz
  1  'x, y, z'
loop_
 _atom_site_type_symbol
 _atom_site_label
 _atom_site_symmetry_multiplicity
 _atom_site_fract_x
 _atom_site_fract_y
 _atom_site_fract_z
 _atom_site_occupancy
  Cs  Cs0  1  0.250000  0.854122  0.092132  1
  Cs  Cs1  1  0.750000  0.145878  0.907868  1
  Cs  Cs2  1  0.750000  0.354122  0.407868  1
  Cs  Cs3  1  0.250000  0.645878  0.592132  1
  Tb  Tb4  1  0.750000  0.796728  0.825950  1
  Tb  Tb5  1  0.250000  0.203272  0.174050  1
  Tb  Tb6  1  0.250000  0.296728  0.674050  1
  Tb  Tb7  1  0.750000  0.703272  0.325950  1
  Tb  Tb8  1  0.250000  0.957801  0.696803  1
  Tb  Tb9  1  0.750000  0.042199  0.303197  1
  Tb  Tb10  1  0.750000  0.457801  0.803197  1
  Tb  Tb11  1  0.250000  0.542199  0.196803  1
  Lu  Lu12  1  0.750000  0.392620  0.052899  1
  Lu  Lu13  1  0.250000  0.607380  0.947101  1
  Lu  Lu14  1  0.250000  0.892620  0.447101  1
  Lu  Lu15  1  0.750000  0.107380  0.552899  1
  S  S16  1  0.250000  0.953509  0.566806  1
  S  S17  1  0.750000  0.046491  0.433194  1
  S  S18  1  0.750000  0.453509  0.933194  1
  S  S19  1  0.250000  0.546491  0.066806  1
  S  S20  1  0.750000  0.756724  0.952329  1
  S  S21  1  0.250000  0.243276  0.047671  1
  S  S22  1  0.250000  0.256724  0.547671  1
  S  S23  1  0.750000  0.743276  0.452329  1
  S  S24  1  0.250000  0.947528  0.824799  1
  S  S25  1  0.750000  0.052472  0.175201  1
  S  S26  1  0.750000  0.447528  0.675201  1
  S  S27  1  0.250000  0.552472  0.324799  1
  S  S28  1  0.750000  0.125525  0.681371  1
  S  S29  1  0.250000  0.874475  0.318629  1
  S  S30  1  0.250000  0.625525  0.818629  1
  S  S31  1  0.750000  0.374475  0.181371  1
  S  S32  1  0.750000  0.691521  0.197974  1
  S  S33  1  0.250000  0.308479  0.802026  1
  S  S34  1  0.250000  0.191521  0.302026  1
  S  S35  1  0.750000  0.808479  0.697974  1
