# generated using pymatgen
data_Pr2HoPa(Al3Rh)6
_symmetry_space_group_name_H-M   'P 1'
_cell_length_a   7.61364222
_cell_length_b   7.61432568
_cell_length_c   9.50950900
_cell_angle_alpha   90.00000000
_cell_angle_beta   90.00000000
_cell_angle_gamma   119.35930948
_symmetry_Int_Tables_number   1
_chemical_formula_structural   Pr2HoPa(Al3Rh)6
_chemical_formula_sum   'Pr2 Ho1 Pa1 Al18 Rh6'
_cell_volume   480.48563112
_cell_formula_units_Z   1
loop_
 _symmetry_equiv_pos_site_id
 _symmetry_equiv_pos_as_xyz
  1  'x, y, z'
loop_
 _atom_site_type_symbol
 _atom_site_label
 _atom_site_symmetry_multiplicity
 _atom_site_fract_x
 _atom_site_fract_y
 _atom_site_fract_z
 _atom_site_occupancy
  Pr  Pr0  1  0.005449  0.329007  0.250000  1
  Pr  Pr1  1  0.329510  0.005025  0.250000  1
  Ho  Ho2  1  0.673117  0.994695  0.750000  1
  Pa  Pa3  1  0.996143  0.672752  0.750000  1
  Al  Al4  1  0.130746  0.129374  0.750000  1
  Al  Al5  1  0.869112  0.870163  0.250000  1
  Al  Al6  1  0.999708  0.332826  0.578855  1
  Al  Al7  1  0.996659  0.664391  0.426204  1
  Al  Al8  1  0.996659  0.664391  0.073796  1
  Al  Al9  1  0.339412  0.003285  0.920993  1
  Al  Al10  1  0.999708  0.332826  0.921145  1
  Al  Al11  1  0.665022  0.997853  0.071272  1
  Al  Al12  1  0.665022  0.997853  0.428728  1
  Al  Al13  1  0.339412  0.003285  0.579007  1
  Al  Al14  1  0.334089  0.334147  0.045748  1
  Al  Al15  1  0.664114  0.666683  0.948554  1
  Al  Al16  1  0.664114  0.666683  0.551446  1
  Al  Al17  1  0.334089  0.334147  0.454252  1
  Al  Al18  1  0.339572  0.549594  0.750000  1
  Al  Al19  1  0.659214  0.451782  0.250000  1
  Al  Al20  1  0.549677  0.343607  0.750000  1
  Al  Al21  1  0.453306  0.660012  0.250000  1
  Rh  Rh22  1  0.673528  0.330569  0.504179  1
  Rh  Rh23  1  0.327306  0.671909  0.504431  1
  Rh  Rh24  1  0.327306  0.671909  0.995569  1
  Rh  Rh25  1  0.673528  0.330569  0.995821  1
  Rh  Rh26  1  0.997239  0.995333  0.505802  1
  Rh  Rh27  1  0.997239  0.995333  0.994198  1
