# generated using pymatgen
data_Ca3Pr(RuO3)8
_symmetry_space_group_name_H-M   'P 1'
_cell_length_a   5.34943801
_cell_length_b   7.39260300
_cell_length_c   11.00527702
_cell_angle_alpha   90.00000000
_cell_angle_beta   90.00679075
_cell_angle_gamma   90.00000000
_symmetry_Int_Tables_number   1
_chemical_formula_structural   Ca3Pr(RuO3)8
_chemical_formula_sum   'Ca3 Pr1 Ru8 O24'
_cell_volume   435.21766963
_cell_formula_units_Z   1
loop_
 _symmetry_equiv_pos_site_id
 _symmetry_equiv_pos_as_xyz
  1  'x, y, z'
loop_
 _atom_site_type_symbol
 _atom_site_label
 _atom_site_symmetry_multiplicity
 _atom_site_fract_x
 _atom_site_fract_y
 _atom_site_fract_z
 _atom_site_occupancy
  Ca  Ca0  1  0.956157  0.250000  0.457081  1
  Ca  Ca1  1  0.542885  0.250000  0.953749  1
  Ca  Ca2  1  0.043587  0.750000  0.543441  1
  Pr  Pr3  1  0.458923  0.750000  0.046067  1
  Ru  Ru4  1  0.557640  0.499737  0.640601  1
  Ru  Ru5  1  0.057340  0.498380  0.857304  1
  Ru  Ru6  1  0.441079  0.000820  0.361311  1
  Ru  Ru7  1  0.942780  0.004786  0.141504  1
  Ru  Ru8  1  0.057340  0.001620  0.857304  1
  Ru  Ru9  1  0.557640  0.000263  0.640601  1
  Ru  Ru10  1  0.942780  0.495214  0.141504  1
  Ru  Ru11  1  0.441079  0.499180  0.361311  1
  O  O12  1  0.674299  0.250000  0.627128  1
  O  O13  1  0.174203  0.750000  0.872281  1
  O  O14  1  0.327794  0.750000  0.373789  1
  O  O15  1  0.826290  0.250000  0.126991  1
  O  O16  1  0.443833  0.750000  0.645701  1
  O  O17  1  0.942670  0.250000  0.852940  1
  O  O18  1  0.557488  0.250000  0.355111  1
  O  O19  1  0.055349  0.750000  0.146650  1
  O  O20  1  0.135598  0.435611  0.282233  1
  O  O21  1  0.632197  0.564284  0.217748  1
  O  O22  1  0.865809  0.934966  0.717591  1
  O  O23  1  0.365718  0.065559  0.781578  1
  O  O24  1  0.773869  0.961196  0.976839  1
  O  O25  1  0.274499  0.041177  0.523225  1
  O  O26  1  0.228133  0.458537  0.021859  1
  O  O27  1  0.723600  0.541193  0.477744  1
  O  O28  1  0.228133  0.041463  0.021859  1
  O  O29  1  0.723600  0.958807  0.477744  1
  O  O30  1  0.773869  0.538804  0.976839  1
  O  O31  1  0.274499  0.458823  0.523225  1
  O  O32  1  0.632197  0.935716  0.217748  1
  O  O33  1  0.135598  0.064389  0.282233  1
  O  O34  1  0.365718  0.434441  0.781578  1
  O  O35  1  0.865809  0.565034  0.717591  1
