# generated using pymatgen
data_Er16In4OsRuRh2
_symmetry_space_group_name_H-M   'P 1'
_cell_length_a   9.57425607
_cell_length_b   9.60126027
_cell_length_c   9.57695016
_cell_angle_alpha   60.08059102
_cell_angle_beta   60.00930342
_cell_angle_gamma   60.09299833
_symmetry_Int_Tables_number   1
_chemical_formula_structural   Er16In4OsRuRh2
_chemical_formula_sum   'Er16 In4 Os1 Ru1 Rh2'
_cell_volume   623.36815754
_cell_formula_units_Z   1
loop_
 _symmetry_equiv_pos_site_id
 _symmetry_equiv_pos_as_xyz
  1  'x, y, z'
loop_
 _atom_site_type_symbol
 _atom_site_label
 _atom_site_symmetry_multiplicity
 _atom_site_fract_x
 _atom_site_fract_y
 _atom_site_fract_z
 _atom_site_occupancy
  Er  Er0  1  0.190688  0.193777  0.808895  1
  Er  Er1  1  0.438149  0.061686  0.062016  1
  Er  Er2  1  0.441531  0.059796  0.438393  1
  Er  Er3  1  0.058818  0.437673  0.058545  1
  Er  Er4  1  0.652024  0.046127  0.649825  1
  Er  Er5  1  0.191820  0.807812  0.808548  1
  Er  Er6  1  0.060281  0.059796  0.438393  1
  Er  Er7  1  0.807641  0.192402  0.192316  1
  Er  Er8  1  0.806991  0.808826  0.194161  1
  Er  Er9  1  0.651800  0.650357  0.046043  1
  Er  Er10  1  0.652908  0.651074  0.650119  1
  Er  Er11  1  0.057421  0.440667  0.444490  1
  Er  Er12  1  0.045898  0.651074  0.650119  1
  Er  Er13  1  0.806640  0.193777  0.808895  1
  Er  Er14  1  0.444965  0.437673  0.058545  1
  Er  Er15  1  0.190023  0.808826  0.194161  1
  In  In16  1  0.417298  0.748495  0.416908  1
  In  In17  1  0.417356  0.417013  0.748274  1
  In  In18  1  0.748914  0.416190  0.416962  1
  In  In19  1  0.417934  0.416190  0.416962  1
  Os  Os20  1  0.859857  0.422057  0.858230  1
  Ru  Ru21  1  0.860337  0.858875  0.420450  1
  Rh  Rh22  1  0.420507  0.859920  0.859374  1
  Rh  Rh23  1  0.860198  0.859920  0.859374  1
