# generated using pymatgen
data_Y11Sc(Si3Os)4
_symmetry_space_group_name_H-M   'P 1'
_cell_length_a   4.17672900
_cell_length_b   10.75017437
_cell_length_c   12.29890852
_cell_angle_alpha   89.79493833
_cell_angle_beta   90.00000000
_cell_angle_gamma   90.00000000
_symmetry_Int_Tables_number   1
_chemical_formula_structural   Y11Sc(Si3Os)4
_chemical_formula_sum   'Y11 Sc1 Si12 Os4'
_cell_volume   552.22440489
_cell_formula_units_Z   1
loop_
 _symmetry_equiv_pos_site_id
 _symmetry_equiv_pos_as_xyz
  1  'x, y, z'
loop_
 _atom_site_type_symbol
 _atom_site_label
 _atom_site_symmetry_multiplicity
 _atom_site_fract_x
 _atom_site_fract_y
 _atom_site_fract_z
 _atom_site_occupancy
  Y  Y0  1  0.250000  0.881958  0.019588  1
  Y  Y1  1  0.250000  0.618480  0.520789  1
  Y  Y2  1  0.750000  0.119073  0.976401  1
  Y  Y3  1  0.750000  0.377988  0.481559  1
  Y  Y4  1  0.250000  0.922207  0.605492  1
  Y  Y5  1  0.250000  0.580317  0.104371  1
  Y  Y6  1  0.750000  0.079095  0.397547  1
  Y  Y7  1  0.750000  0.418138  0.893580  1
  Y  Y8  1  0.250000  0.659203  0.799843  1
  Y  Y9  1  0.250000  0.840560  0.300380  1
  Y  Y10  1  0.750000  0.338414  0.199799  1
  Sc  Sc11  1  0.750000  0.161803  0.702109  1
  Si  Si12  1  0.250000  0.012345  0.818651  1
  Si  Si13  1  0.250000  0.491134  0.320513  1
  Si  Si14  1  0.750000  0.993298  0.179358  1
  Si  Si15  1  0.750000  0.508920  0.679480  1
  Si  Si16  1  0.250000  0.245699  0.836313  1
  Si  Si17  1  0.250000  0.250153  0.343385  1
  Si  Si18  1  0.750000  0.751874  0.158516  1
  Si  Si19  1  0.750000  0.748832  0.658328  1
  Si  Si20  1  0.250000  0.200546  0.552945  1
  Si  Si21  1  0.250000  0.295606  0.042643  1
  Si  Si22  1  0.750000  0.796341  0.456191  1
  Si  Si23  1  0.750000  0.704771  0.954637  1
  Os  Os24  1  0.250000  0.387820  0.681160  1
  Os  Os25  1  0.250000  0.111976  0.181716  1
  Os  Os26  1  0.750000  0.611165  0.318784  1
  Os  Os27  1  0.750000  0.892284  0.815922  1
