# generated using pymatgen
data_Sm5Er3(Si3Au)4
_symmetry_space_group_name_H-M   'P 1'
_cell_length_a   8.21970100
_cell_length_b   8.21970136
_cell_length_c   8.34933900
_cell_angle_alpha   90.00000000
_cell_angle_beta   90.00000000
_cell_angle_gamma   120.00000259
_symmetry_Int_Tables_number   1
_chemical_formula_structural   Sm5Er3(Si3Au)4
_chemical_formula_sum   'Sm5 Er3 Si12 Au4'
_cell_volume   488.53397683
_cell_formula_units_Z   1
loop_
 _symmetry_equiv_pos_site_id
 _symmetry_equiv_pos_as_xyz
  1  'x, y, z'
loop_
 _atom_site_type_symbol
 _atom_site_label
 _atom_site_symmetry_multiplicity
 _atom_site_fract_x
 _atom_site_fract_y
 _atom_site_fract_z
 _atom_site_occupancy
  Sm  Sm0  1  0.000000  0.000000  0.250000  1
  Sm  Sm1  1  0.000000  0.000000  0.750000  1
  Sm  Sm2  1  0.498523  0.501477  0.250000  1
  Sm  Sm3  1  0.498523  0.997046  0.250000  1
  Sm  Sm4  1  0.002954  0.501477  0.250000  1
  Er  Er5  1  0.503167  0.496833  0.750000  1
  Er  Er6  1  0.993668  0.496833  0.750000  1
  Er  Er7  1  0.503167  0.006332  0.750000  1
  Si  Si8  1  0.835930  0.164070  0.502655  1
  Si  Si9  1  0.835930  0.671861  0.502655  1
  Si  Si10  1  0.328139  0.164070  0.502655  1
  Si  Si11  1  0.835930  0.164070  0.997345  1
  Si  Si12  1  0.835930  0.671861  0.997345  1
  Si  Si13  1  0.328139  0.164070  0.997345  1
  Si  Si14  1  0.164422  0.835578  0.000133  1
  Si  Si15  1  0.671155  0.835578  0.000133  1
  Si  Si16  1  0.164422  0.328845  0.000133  1
  Si  Si17  1  0.164422  0.835578  0.499867  1
  Si  Si18  1  0.671155  0.835578  0.499867  1
  Si  Si19  1  0.164422  0.328845  0.499867  1
  Au  Au20  1  0.666667  0.333333  0.506604  1
  Au  Au21  1  0.666667  0.333333  0.993396  1
  Au  Au22  1  0.333333  0.666667  0.976579  1
  Au  Au23  1  0.333333  0.666667  0.523421  1
