# generated using pymatgen
data_Tb2HoCd3Sn2Au
_symmetry_space_group_name_H-M   'P 1'
_cell_length_a   7.48996587
_cell_length_b   7.48996473
_cell_length_c   4.55256200
_cell_angle_alpha   90.00000000
_cell_angle_beta   90.00000000
_cell_angle_gamma   119.94483784
_symmetry_Int_Tables_number   1
_chemical_formula_structural   Tb2HoCd3Sn2Au
_chemical_formula_sum   'Tb2 Ho1 Cd3 Sn2 Au1'
_cell_volume   221.30297200
_cell_formula_units_Z   1
loop_
 _symmetry_equiv_pos_site_id
 _symmetry_equiv_pos_as_xyz
  1  'x, y, z'
loop_
 _atom_site_type_symbol
 _atom_site_label
 _atom_site_symmetry_multiplicity
 _atom_site_fract_x
 _atom_site_fract_y
 _atom_site_fract_z
 _atom_site_occupancy
  Tb  Tb0  1  0.593735  0.999957  0.000000  1
  Tb  Tb1  1  0.999957  0.593735  0.000000  1
  Ho  Ho2  1  0.405862  0.405862  0.000000  1
  Cd  Cd3  1  0.240236  0.000145  0.500000  1
  Cd  Cd4  1  0.000145  0.240236  0.500000  1
  Cd  Cd5  1  0.759698  0.759698  0.500000  1
  Sn  Sn6  1  0.333512  0.666280  0.500000  1
  Sn  Sn7  1  0.666280  0.333512  0.500000  1
  Au  Au8  1  0.000574  0.000574  0.000000  1
