# generated using pymatgen
data_Nd4Ga24(Pd2Pt)3
_symmetry_space_group_name_H-M   'P 1'
_cell_length_a   7.56685737
_cell_length_b   7.60890290
_cell_length_c   13.50911677
_cell_angle_alpha   84.96768250
_cell_angle_beta   100.35181569
_cell_angle_gamma   119.49988627
_symmetry_Int_Tables_number   1
_chemical_formula_structural   Nd4Ga24(Pd2Pt)3
_chemical_formula_sum   'Nd4 Ga24 Pd6 Pt3'
_cell_volume   665.93897228
_cell_formula_units_Z   1
loop_
 _symmetry_equiv_pos_site_id
 _symmetry_equiv_pos_as_xyz
  1  'x, y, z'
loop_
 _atom_site_type_symbol
 _atom_site_label
 _atom_site_symmetry_multiplicity
 _atom_site_fract_x
 _atom_site_fract_y
 _atom_site_fract_z
 _atom_site_occupancy
  Nd  Nd0  1  0.437184  0.830505  0.811013  1
  Nd  Nd1  1  0.562401  0.169325  0.188838  1
  Nd  Nd2  1  0.770005  0.502755  0.811178  1
  Nd  Nd3  1  0.229695  0.497378  0.188560  1
  Ga  Ga4  1  0.477210  0.165939  0.941580  1
  Ga  Ga5  1  0.522454  0.833913  0.058198  1
  Ga  Ga6  1  0.022577  0.167966  0.559412  1
  Ga  Ga7  1  0.978339  0.831920  0.441022  1
  Ga  Ga8  1  0.354555  0.833042  0.555946  1
  Ga  Ga9  1  0.644601  0.166633  0.443246  1
  Ga  Ga10  1  0.615590  0.834234  0.327633  1
  Ga  Ga11  1  0.383880  0.165573  0.672088  1
  Ga  Ga12  1  0.058563  0.495467  0.669985  1
  Ga  Ga13  1  0.942240  0.505840  0.330046  1
  Ga  Ga14  1  0.728472  0.836421  0.670091  1
  Ga  Ga15  1  0.271047  0.162381  0.330024  1
  Ga  Ga16  1  0.145690  0.498197  0.942433  1
  Ga  Ga17  1  0.854014  0.501886  0.057472  1
  Ga  Ga18  1  0.816167  0.834104  0.948559  1
  Ga  Ga19  1  0.183937  0.166002  0.051470  1
  Ga  Ga20  1  0.314551  0.501452  0.443264  1
  Ga  Ga21  1  0.685547  0.499325  0.557050  1
  Ga  Ga22  1  0.100718  0.835813  0.182853  1
  Ga  Ga23  1  0.899953  0.163726  0.817548  1
  Ga  Ga24  1  0.305917  0.368261  0.816467  1
  Ga  Ga25  1  0.694309  0.631982  0.183625  1
  Ga  Ga26  1  0.102999  0.962777  0.816699  1
  Ga  Ga27  1  0.897212  0.036994  0.183353  1
  Pd  Pd28  1  0.384432  0.501847  0.637191  1
  Pd  Pd29  1  0.615585  0.498132  0.363079  1
  Pd  Pd30  1  0.170446  0.829931  0.998991  1
  Pd  Pd31  1  0.829215  0.170084  0.000814  1
  Pd  Pd32  1  0.290623  0.832502  0.362008  1
  Pd  Pd33  1  0.499920  0.500060  0.999950  1
  Pt  Pt34  1  0.709780  0.167672  0.637844  1
  Pt  Pt35  1  0.049232  0.830360  0.636122  1
  Pt  Pt36  1  0.950940  0.169603  0.364345  1
