# generated using pymatgen
data_Th2Al4ZnAu3
_symmetry_space_group_name_H-M   'P 1'
_cell_length_a   4.37009100
_cell_length_b   4.37009100
_cell_length_c   10.60942300
_cell_angle_alpha   90.00000000
_cell_angle_beta   90.00000000
_cell_angle_gamma   90.00000000
_symmetry_Int_Tables_number   1
_chemical_formula_structural   Th2Al4ZnAu3
_chemical_formula_sum   'Th2 Al4 Zn1 Au3'
_cell_volume   202.61552828
_cell_formula_units_Z   1
loop_
 _symmetry_equiv_pos_site_id
 _symmetry_equiv_pos_as_xyz
  1  'x, y, z'
loop_
 _atom_site_type_symbol
 _atom_site_label
 _atom_site_symmetry_multiplicity
 _atom_site_fract_x
 _atom_site_fract_y
 _atom_site_fract_z
 _atom_site_occupancy
  Th  Th0  1  0.000000  0.500000  0.244041  1
  Th  Th1  1  0.500000  0.000000  0.755959  1
  Al  Al2  1  0.000000  0.000000  0.500000  1
  Al  Al3  1  0.500000  0.500000  0.500000  1
  Al  Al4  1  0.000000  0.500000  0.868644  1
  Al  Al5  1  0.500000  0.000000  0.131356  1
  Zn  Zn6  1  0.000000  0.000000  0.000000  1
  Au  Au7  1  0.500000  0.500000  0.000000  1
  Au  Au8  1  0.000000  0.500000  0.632145  1
  Au  Au9  1  0.500000  0.000000  0.367855  1
