# generated using pymatgen
data_Dy5Er11(C2Br3)4
_symmetry_space_group_name_H-M   'P 1'
_cell_length_a   3.66744700
_cell_length_b   10.64415014
_cell_length_c   20.39544326
_cell_angle_alpha   90.01835413
_cell_angle_beta   90.00000000
_cell_angle_gamma   90.00000000
_symmetry_Int_Tables_number   1
_chemical_formula_structural   Dy5Er11(C2Br3)4
_chemical_formula_sum   'Dy5 Er11 C8 Br12'
_cell_volume   796.17395072
_cell_formula_units_Z   1
loop_
 _symmetry_equiv_pos_site_id
 _symmetry_equiv_pos_as_xyz
  1  'x, y, z'
loop_
 _atom_site_type_symbol
 _atom_site_label
 _atom_site_symmetry_multiplicity
 _atom_site_fract_x
 _atom_site_fract_y
 _atom_site_fract_z
 _atom_site_occupancy
  Dy  Dy0  1  0.250000  0.866418  0.580282  1
  Dy  Dy1  1  0.750000  0.133682  0.419259  1
  Dy  Dy2  1  0.750000  0.633525  0.080737  1
  Dy  Dy3  1  0.250000  0.366582  0.919386  1
  Dy  Dy4  1  0.250000  0.866404  0.744698  1
  Er  Er5  1  0.750000  0.133537  0.256011  1
  Er  Er6  1  0.750000  0.633567  0.243911  1
  Er  Er7  1  0.250000  0.366408  0.755909  1
  Er  Er8  1  0.250000  0.866718  0.169847  1
  Er  Er9  1  0.750000  0.133315  0.830104  1
  Er  Er10  1  0.750000  0.632977  0.669648  1
  Er  Er11  1  0.250000  0.366937  0.330086  1
  Er  Er12  1  0.250000  0.899968  0.327491  1
  Er  Er13  1  0.750000  0.100209  0.672346  1
  Er  Er14  1  0.750000  0.599735  0.827397  1
  Er  Er15  1  0.250000  0.400038  0.172351  1
  C  C16  1  0.250000  0.613726  0.750425  1
  C  C17  1  0.750000  0.384071  0.249560  1
  C  C18  1  0.750000  0.884537  0.250395  1
  C  C19  1  0.250000  0.117654  0.749608  1
  C  C20  1  0.250000  0.632330  0.157315  1
  C  C21  1  0.750000  0.367775  0.842946  1
  C  C22  1  0.750000  0.867688  0.656499  1
  C  C23  1  0.250000  0.132372  0.342697  1
  Br  Br24  1  0.250000  0.610264  0.556779  1
  Br  Br25  1  0.750000  0.389516  0.443180  1
  Br  Br26  1  0.750000  0.889384  0.056776  1
  Br  Br27  1  0.250000  0.111157  0.943206  1
  Br  Br28  1  0.250000  0.629469  0.952442  1
  Br  Br29  1  0.750000  0.370047  0.047927  1
  Br  Br30  1  0.750000  0.870280  0.451812  1
  Br  Br31  1  0.250000  0.129987  0.547547  1
  Br  Br32  1  0.250000  0.635218  0.355731  1
  Br  Br33  1  0.750000  0.364767  0.643992  1
  Br  Br34  1  0.750000  0.864596  0.857511  1
  Br  Br35  1  0.250000  0.135142  0.144187  1
