# generated using pymatgen
data_LiPa2(SnRh)3
_symmetry_space_group_name_H-M   'P 1'
_cell_length_a   7.46338576
_cell_length_b   7.46338579
_cell_length_c   3.92785900
_cell_angle_alpha   90.00000000
_cell_angle_beta   90.00000000
_cell_angle_gamma   121.45247399
_symmetry_Int_Tables_number   1
_chemical_formula_structural   LiPa2(SnRh)3
_chemical_formula_sum   'Li1 Pa2 Sn3 Rh3'
_cell_volume   186.64398898
_cell_formula_units_Z   1
loop_
 _symmetry_equiv_pos_site_id
 _symmetry_equiv_pos_as_xyz
  1  'x, y, z'
loop_
 _atom_site_type_symbol
 _atom_site_label
 _atom_site_symmetry_multiplicity
 _atom_site_fract_x
 _atom_site_fract_y
 _atom_site_fract_z
 _atom_site_occupancy
  Li  Li0  1  0.394909  0.394909  0.500000  1
  Pa  Pa1  1  0.589721  0.000723  0.500000  1
  Pa  Pa2  1  0.000723  0.589721  0.500000  1
  Sn  Sn3  1  0.713877  0.713877  0.000000  1
  Sn  Sn4  1  0.262820  0.027716  0.000000  1
  Sn  Sn5  1  0.027716  0.262820  0.000000  1
  Rh  Rh6  1  0.696095  0.329922  0.000000  1
  Rh  Rh7  1  0.329922  0.696095  0.000000  1
  Rh  Rh8  1  0.984216  0.984216  0.500000  1
