# generated using pymatgen
data_Ce10CuBi6Se
_symmetry_space_group_name_H-M   'P 1'
_cell_length_a   9.58530600
_cell_length_b   9.58530507
_cell_length_c   6.50832600
_cell_angle_alpha   90.00000000
_cell_angle_beta   90.00000000
_cell_angle_gamma   119.99999631
_symmetry_Int_Tables_number   1
_chemical_formula_structural   Ce10CuBi6Se
_chemical_formula_sum   'Ce10 Cu1 Bi6 Se1'
_cell_volume   517.85940458
_cell_formula_units_Z   1
loop_
 _symmetry_equiv_pos_site_id
 _symmetry_equiv_pos_as_xyz
  1  'x, y, z'
loop_
 _atom_site_type_symbol
 _atom_site_label
 _atom_site_symmetry_multiplicity
 _atom_site_fract_x
 _atom_site_fract_y
 _atom_site_fract_z
 _atom_site_occupancy
  Ce  Ce0  1  0.666667  0.333333  0.000000  1
  Ce  Ce1  1  0.333333  0.666667  0.000000  1
  Ce  Ce2  1  0.333333  0.666667  0.500000  1
  Ce  Ce3  1  0.666667  0.333333  0.500000  1
  Ce  Ce4  1  0.740518  0.740518  0.747770  1
  Ce  Ce5  1  0.259482  0.000000  0.747770  1
  Ce  Ce6  1  0.000000  0.259482  0.747770  1
  Ce  Ce7  1  0.259482  0.259482  0.252230  1
  Ce  Ce8  1  0.740518  0.000000  0.252230  1
  Ce  Ce9  1  0.000000  0.740518  0.252230  1
  Cu  Cu10  1  0.000000  0.000000  0.500000  1
  Bi  Bi11  1  0.384495  0.384495  0.749209  1
  Bi  Bi12  1  0.615505  0.000000  0.749209  1
  Bi  Bi13  1  0.000000  0.615505  0.749209  1
  Bi  Bi14  1  0.615505  0.615505  0.250791  1
  Bi  Bi15  1  0.384495  0.000000  0.250791  1
  Bi  Bi16  1  0.000000  0.384495  0.250791  1
  Se  Se17  1  0.000000  0.000000  0.000000  1
