# generated using pymatgen
data_Ho5Lu5(In2Ir)4
_symmetry_space_group_name_H-M   'P 1'
_cell_length_a   3.61827100
_cell_length_b   7.96008338
_cell_length_c   18.11061529
_cell_angle_alpha   89.82659829
_cell_angle_beta   90.00000000
_cell_angle_gamma   90.00000000
_symmetry_Int_Tables_number   1
_chemical_formula_structural   Ho5Lu5(In2Ir)4
_chemical_formula_sum   'Ho5 Lu5 In8 Ir4'
_cell_volume   521.61482298
_cell_formula_units_Z   1
loop_
 _symmetry_equiv_pos_site_id
 _symmetry_equiv_pos_as_xyz
  1  'x, y, z'
loop_
 _atom_site_type_symbol
 _atom_site_label
 _atom_site_symmetry_multiplicity
 _atom_site_fract_x
 _atom_site_fract_y
 _atom_site_fract_z
 _atom_site_occupancy
  Ho  Ho0  1  0.000000  0.501546  0.499757  1
  Ho  Ho1  1  0.000000  0.998269  0.999897  1
  Ho  Ho2  1  0.000000  0.745408  0.278467  1
  Ho  Ho3  1  0.000000  0.256250  0.720970  1
  Ho  Ho4  1  0.000000  0.755562  0.778940  1
  Lu  Lu5  1  0.000000  0.243653  0.221685  1
  Lu  Lu6  1  0.000000  0.613720  0.090776  1
  Lu  Lu7  1  0.000000  0.382663  0.910468  1
  Lu  Lu8  1  0.000000  0.885082  0.589537  1
  Lu  Lu9  1  0.000000  0.117942  0.409891  1
  In  In10  1  0.500000  0.700859  0.935304  1
  In  In11  1  0.500000  0.295072  0.066040  1
  In  In12  1  0.500000  0.799361  0.434336  1
  In  In13  1  0.500000  0.203827  0.565194  1
  In  In14  1  0.500000  0.574480  0.649286  1
  In  In15  1  0.500000  0.426953  0.350511  1
  In  In16  1  0.500000  0.928377  0.148942  1
  In  In17  1  0.500000  0.073072  0.850651  1
  Ir  Ir18  1  0.500000  0.516017  0.195593  1
  Ir  Ir19  1  0.500000  0.477325  0.805032  1
  Ir  Ir20  1  0.500000  0.978381  0.694894  1
  Ir  Ir21  1  0.500000  0.026178  0.303828  1
