# generated using pymatgen
data_Y3Si3Ru2
_symmetry_space_group_name_H-M   'P 1'
_cell_length_a   5.76944292
_cell_length_b   5.76944172
_cell_length_c   13.80555500
_cell_angle_alpha   90.00000000
_cell_angle_beta   90.00000000
_cell_angle_gamma   137.49859621
_symmetry_Int_Tables_number   1
_chemical_formula_structural   Y3Si3Ru2
_chemical_formula_sum   'Y6 Si6 Ru4'
_cell_volume   310.46775405
_cell_formula_units_Z   2
loop_
 _symmetry_equiv_pos_site_id
 _symmetry_equiv_pos_as_xyz
  1  'x, y, z'
loop_
 _atom_site_type_symbol
 _atom_site_label
 _atom_site_symmetry_multiplicity
 _atom_site_fract_x
 _atom_site_fract_y
 _atom_site_fract_z
 _atom_site_occupancy
  Y  Y0  1  0.924251  0.075749  0.385223  1
  Y  Y1  1  0.075749  0.924251  0.614777  1
  Y  Y2  1  0.924251  0.075749  0.114777  1
  Y  Y3  1  0.075749  0.924251  0.885223  1
  Y  Y4  1  0.642425  0.357575  0.250000  1
  Y  Y5  1  0.357575  0.642425  0.750000  1
  Si  Si6  1  0.618672  0.381328  0.461554  1
  Si  Si7  1  0.381328  0.618672  0.538446  1
  Si  Si8  1  0.618672  0.381328  0.038446  1
  Si  Si9  1  0.381328  0.618672  0.961554  1
  Si  Si10  1  0.329405  0.670595  0.250000  1
  Si  Si11  1  0.670595  0.329405  0.750000  1
  Ru  Ru12  1  0.786367  0.213633  0.919433  1
  Ru  Ru13  1  0.213633  0.786367  0.080567  1
  Ru  Ru14  1  0.786367  0.213633  0.580567  1
  Ru  Ru15  1  0.213633  0.786367  0.419433  1
