# generated using pymatgen
data_TbY3HgRh
_symmetry_space_group_name_H-M   'P 1'
_cell_length_a   9.60259680
_cell_length_b   9.60259707
_cell_length_c   9.60259800
_cell_angle_alpha   60.00000368
_cell_angle_beta   60.00000275
_cell_angle_gamma   60.00000276
_symmetry_Int_Tables_number   1
_chemical_formula_structural   TbY3HgRh
_chemical_formula_sum   'Tb4 Y12 Hg4 Rh4'
_cell_volume   626.11077817
_cell_formula_units_Z   4
loop_
 _symmetry_equiv_pos_site_id
 _symmetry_equiv_pos_as_xyz
  1  'x, y, z'
loop_
 _atom_site_type_symbol
 _atom_site_label
 _atom_site_symmetry_multiplicity
 _atom_site_fract_x
 _atom_site_fract_y
 _atom_site_fract_z
 _atom_site_occupancy
  Tb  Tb0  1  0.601469  0.601469  0.601469  1
  Tb  Tb1  1  0.601469  0.601469  0.195594  1
  Tb  Tb2  1  0.601469  0.195594  0.601469  1
  Tb  Tb3  1  0.195594  0.601469  0.601469  1
  Y  Y4  1  0.060446  0.439554  0.439554  1
  Y  Y5  1  0.439554  0.060446  0.060446  1
  Y  Y6  1  0.439554  0.060446  0.439554  1
  Y  Y7  1  0.060446  0.439554  0.060446  1
  Y  Y8  1  0.439554  0.439554  0.060446  1
  Y  Y9  1  0.060446  0.060446  0.439554  1
  Y  Y10  1  0.187150  0.812850  0.812850  1
  Y  Y11  1  0.812850  0.187150  0.187150  1
  Y  Y12  1  0.812850  0.187150  0.812850  1
  Y  Y13  1  0.187150  0.812850  0.187150  1
  Y  Y14  1  0.812850  0.812850  0.187150  1
  Y  Y15  1  0.187150  0.187150  0.812850  1
  Hg  Hg16  1  0.834708  0.834708  0.834708  1
  Hg  Hg17  1  0.834708  0.834708  0.495875  1
  Hg  Hg18  1  0.834708  0.495875  0.834708  1
  Hg  Hg19  1  0.495875  0.834708  0.834708  1
  Rh  Rh20  1  0.393567  0.393567  0.393567  1
  Rh  Rh21  1  0.393567  0.393567  0.819302  1
  Rh  Rh22  1  0.393567  0.819302  0.393567  1
  Rh  Rh23  1  0.819302  0.393567  0.393567  1
