# generated using pymatgen
data_Al5SiTc3
_symmetry_space_group_name_H-M   'P 1'
_cell_length_a   4.73448330
_cell_length_b   4.73448378
_cell_length_c   6.62946770
_cell_angle_alpha   90.21068118
_cell_angle_beta   90.21068256
_cell_angle_gamma   120.41117191
_symmetry_Int_Tables_number   1
_chemical_formula_structural   Al5SiTc3
_chemical_formula_sum   'Al5 Si1 Tc3'
_cell_volume   128.15285379
_cell_formula_units_Z   1
loop_
 _symmetry_equiv_pos_site_id
 _symmetry_equiv_pos_as_xyz
  1  'x, y, z'
loop_
 _atom_site_type_symbol
 _atom_site_label
 _atom_site_symmetry_multiplicity
 _atom_site_fract_x
 _atom_site_fract_y
 _atom_site_fract_z
 _atom_site_occupancy
  Al  Al0  1  0.166982  0.337180  0.005804  1
  Al  Al1  1  0.834756  0.662468  0.997562  1
  Al  Al2  1  0.337531  0.165242  0.335771  1
  Al  Al3  1  0.662820  0.833018  0.327529  1
  Al  Al4  1  0.835305  0.164694  0.666667  1
  Si  Si5  1  0.166909  0.833091  0.666667  1
  Tc  Tc6  1  0.493461  0.998038  0.991423  1
  Tc  Tc7  1  0.001962  0.506538  0.341910  1
  Tc  Tc8  1  0.500270  0.499731  0.666667  1
