# generated using pymatgen
data_Tb2DyAl12Os3Pt
_symmetry_space_group_name_H-M   'P 1'
_cell_length_a   8.83418910
_cell_length_b   8.81307906
_cell_length_c   9.58633700
_cell_angle_alpha   90.05145934
_cell_angle_beta   90.11889505
_cell_angle_gamma   119.58834421
_symmetry_Int_Tables_number   1
_chemical_formula_structural   Tb2DyAl12Os3Pt
_chemical_formula_sum   'Tb4 Dy2 Al24 Os6 Pt2'
_cell_volume   649.02628272
_cell_formula_units_Z   2
loop_
 _symmetry_equiv_pos_site_id
 _symmetry_equiv_pos_as_xyz
  1  'x, y, z'
loop_
 _atom_site_type_symbol
 _atom_site_label
 _atom_site_symmetry_multiplicity
 _atom_site_fract_x
 _atom_site_fract_y
 _atom_site_fract_z
 _atom_site_occupancy
  Tb  Tb0  1  0.189818  0.386176  0.252921  1
  Tb  Tb1  1  0.810182  0.613824  0.747079  1
  Tb  Tb2  1  0.615966  0.808539  0.252483  1
  Tb  Tb3  1  0.384034  0.191461  0.747517  1
  Dy  Dy4  1  0.190462  0.804087  0.252516  1
  Dy  Dy5  1  0.809538  0.195913  0.747484  1
  Al  Al6  1  0.328530  0.664797  0.025970  1
  Al  Al7  1  0.671470  0.335203  0.974030  1
  Al  Al8  1  0.666665  0.332909  0.522788  1
  Al  Al9  1  0.333335  0.667091  0.477212  1
  Al  Al10  1  0.164531  0.328266  0.575657  1
  Al  Al11  1  0.835469  0.671734  0.424343  1
  Al  Al12  1  0.672683  0.836599  0.574937  1
  Al  Al13  1  0.841730  0.674377  0.077852  1
  Al  Al14  1  0.327317  0.163401  0.425063  1
  Al  Al15  1  0.158270  0.325623  0.922148  1
  Al  Al16  1  0.164670  0.836756  0.575593  1
  Al  Al17  1  0.323590  0.161774  0.078748  1
  Al  Al18  1  0.835330  0.163244  0.424407  1
  Al  Al19  1  0.676410  0.838226  0.921252  1
  Al  Al20  1  0.841211  0.167462  0.077521  1
  Al  Al21  1  0.158789  0.832538  0.922479  1
  Al  Al22  1  0.561723  0.124745  0.251778  1
  Al  Al23  1  0.438277  0.875255  0.748222  1
  Al  Al24  1  0.876137  0.438694  0.248952  1
  Al  Al25  1  0.123863  0.561306  0.751048  1
  Al  Al26  1  0.562466  0.437092  0.252035  1
  Al  Al27  1  0.437534  0.562908  0.747965  1
  Al  Al28  1  0.997856  0.999064  0.250316  1
  Al  Al29  1  0.002144  0.000936  0.749684  1
  Os  Os30  1  0.000000  0.500000  0.000000  1
  Os  Os31  1  0.500000  0.000000  0.500000  1
  Os  Os32  1  0.000000  0.500000  0.500000  1
  Os  Os33  1  0.500000  0.500000  0.500000  1
  Os  Os34  1  0.000000  0.000000  0.000000  1
  Os  Os35  1  0.000000  0.000000  0.500000  1
  Pt  Pt36  1  0.500000  0.000000  0.000000  1
  Pt  Pt37  1  0.500000  0.500000  0.000000  1
