# generated using pymatgen
data_Rb8Tb6PtBr20
_symmetry_space_group_name_H-M   'P 1'
_cell_length_a   12.42000712
_cell_length_b   12.42000649
_cell_length_c   12.42000600
_cell_angle_alpha   60.00000130
_cell_angle_beta   60.00000297
_cell_angle_gamma   60.00000185
_symmetry_Int_Tables_number   1
_chemical_formula_structural   Rb8Tb6PtBr20
_chemical_formula_sum   'Rb8 Tb6 Pt1 Br20'
_cell_volume   1354.72297259
_cell_formula_units_Z   1
loop_
 _symmetry_equiv_pos_site_id
 _symmetry_equiv_pos_as_xyz
  1  'x, y, z'
loop_
 _atom_site_type_symbol
 _atom_site_label
 _atom_site_symmetry_multiplicity
 _atom_site_fract_x
 _atom_site_fract_y
 _atom_site_fract_z
 _atom_site_occupancy
  Rb  Rb0  1  0.358956  0.358956  0.358956  1
  Rb  Rb1  1  0.641044  0.641044  0.641044  1
  Rb  Rb2  1  0.358956  0.358956  0.923132  1
  Rb  Rb3  1  0.358956  0.923132  0.358956  1
  Rb  Rb4  1  0.641044  0.641044  0.076868  1
  Rb  Rb5  1  0.641044  0.076868  0.641044  1
  Rb  Rb6  1  0.923132  0.358956  0.358956  1
  Rb  Rb7  1  0.076868  0.641044  0.641044  1
  Tb  Tb8  1  0.841800  0.158200  0.158200  1
  Tb  Tb9  1  0.158200  0.841800  0.841800  1
  Tb  Tb10  1  0.158200  0.841800  0.158200  1
  Tb  Tb11  1  0.841800  0.158200  0.841800  1
  Tb  Tb12  1  0.158200  0.158200  0.841800  1
  Tb  Tb13  1  0.841800  0.841800  0.158200  1
  Pt  Pt14  1  0.000000  0.000000  0.000000  1
  Br  Br15  1  0.331623  0.000000  0.000000  1
  Br  Br16  1  0.668377  0.000000  0.000000  1
  Br  Br17  1  0.000000  0.331623  0.668377  1
  Br  Br18  1  0.000000  0.668377  0.331623  1
  Br  Br19  1  0.000000  0.331623  0.000000  1
  Br  Br20  1  0.668377  0.000000  0.331623  1
  Br  Br21  1  0.000000  0.668377  0.000000  1
  Br  Br22  1  0.331623  0.000000  0.668377  1
  Br  Br23  1  0.000000  0.000000  0.331623  1
  Br  Br24  1  0.000000  0.000000  0.668377  1
  Br  Br25  1  0.668377  0.331623  0.000000  1
  Br  Br26  1  0.331623  0.668377  0.000000  1
  Br  Br27  1  0.678026  0.321974  0.321974  1
  Br  Br28  1  0.321974  0.678026  0.678026  1
  Br  Br29  1  0.321974  0.678026  0.321974  1
  Br  Br30  1  0.678026  0.321974  0.678026  1
  Br  Br31  1  0.321974  0.321974  0.678026  1
  Br  Br32  1  0.678026  0.678026  0.321974  1
  Br  Br33  1  0.250000  0.250000  0.250000  1
  Br  Br34  1  0.750000  0.750000  0.750000  1
