# generated using pymatgen
data_Nd3ThAl14(Ga2Ir3)2
_symmetry_space_group_name_H-M   'P 1'
_cell_length_a   7.61828414
_cell_length_b   7.61952094
_cell_length_c   9.62970400
_cell_angle_alpha   90.00000000
_cell_angle_beta   90.00000000
_cell_angle_gamma   119.39220282
_symmetry_Int_Tables_number   1
_chemical_formula_structural   Nd3ThAl14(Ga2Ir3)2
_chemical_formula_sum   'Nd3 Th1 Al14 Ga4 Ir6'
_cell_volume   487.03011867
_cell_formula_units_Z   1
loop_
 _symmetry_equiv_pos_site_id
 _symmetry_equiv_pos_as_xyz
  1  'x, y, z'
loop_
 _atom_site_type_symbol
 _atom_site_label
 _atom_site_symmetry_multiplicity
 _atom_site_fract_x
 _atom_site_fract_y
 _atom_site_fract_z
 _atom_site_occupancy
  Nd  Nd0  1  0.001972  0.326764  0.750000  1
  Nd  Nd1  1  0.670948  0.992995  0.250000  1
  Nd  Nd2  1  0.329703  0.005944  0.750000  1
  Th  Th3  1  0.997091  0.673558  0.250000  1
  Al  Al4  1  0.002496  0.332821  0.072674  1
  Al  Al5  1  0.997505  0.664406  0.923534  1
  Al  Al6  1  0.997505  0.664406  0.576466  1
  Al  Al7  1  0.339142  0.005688  0.427629  1
  Al  Al8  1  0.002496  0.332821  0.427326  1
  Al  Al9  1  0.664234  0.997575  0.573139  1
  Al  Al10  1  0.664234  0.997575  0.926861  1
  Al  Al11  1  0.339142  0.005688  0.072371  1
  Al  Al12  1  0.333247  0.333736  0.550203  1
  Al  Al13  1  0.663687  0.665160  0.453781  1
  Al  Al14  1  0.663687  0.665160  0.046219  1
  Al  Al15  1  0.333247  0.333736  0.949797  1
  Al  Al16  1  0.546244  0.340426  0.250000  1
  Al  Al17  1  0.450885  0.659969  0.750000  1
  Ga  Ga18  1  0.133818  0.135088  0.250000  1
  Ga  Ga19  1  0.868789  0.869767  0.750000  1
  Ga  Ga20  1  0.342099  0.545798  0.250000  1
  Ga  Ga21  1  0.658231  0.452975  0.750000  1
  Ir  Ir22  1  0.671910  0.330548  0.003930  1
  Ir  Ir23  1  0.328058  0.670969  0.999028  1
  Ir  Ir24  1  0.328058  0.670969  0.500972  1
  Ir  Ir25  1  0.671910  0.330548  0.496070  1
  Ir  Ir26  1  0.999830  0.997455  0.002137  1
  Ir  Ir27  1  0.999830  0.997455  0.497863  1
