# generated using pymatgen
data_Dy6Ga5Ni12Os
_symmetry_space_group_name_H-M   'P 1'
_cell_length_a   5.17303800
_cell_length_b   5.17303722
_cell_length_c   16.01509300
_cell_angle_alpha   90.00000000
_cell_angle_beta   90.00000000
_cell_angle_gamma   119.99999220
_symmetry_Int_Tables_number   1
_chemical_formula_structural   Dy6Ga5Ni12Os
_chemical_formula_sum   'Dy6 Ga5 Ni12 Os1'
_cell_volume   371.15165605
_cell_formula_units_Z   1
loop_
 _symmetry_equiv_pos_site_id
 _symmetry_equiv_pos_as_xyz
  1  'x, y, z'
loop_
 _atom_site_type_symbol
 _atom_site_label
 _atom_site_symmetry_multiplicity
 _atom_site_fract_x
 _atom_site_fract_y
 _atom_site_fract_z
 _atom_site_occupancy
  Dy  Dy0  1  0.333333  0.666667  0.547042  1
  Dy  Dy1  1  0.666667  0.333333  0.452958  1
  Dy  Dy2  1  0.666667  0.333333  0.032032  1
  Dy  Dy3  1  0.333333  0.666667  0.967968  1
  Dy  Dy4  1  0.333333  0.666667  0.761982  1
  Dy  Dy5  1  0.666667  0.333333  0.238018  1
  Ga  Ga6  1  0.000000  0.000000  0.255987  1
  Ga  Ga7  1  0.000000  0.000000  0.744013  1
  Ga  Ga8  1  0.333333  0.666667  0.254855  1
  Ga  Ga9  1  0.666667  0.333333  0.745145  1
  Ga  Ga10  1  0.000000  0.000000  0.500000  1
  Ni  Ni11  1  0.165173  0.330344  0.130344  1
  Ni  Ni12  1  0.834827  0.669656  0.869656  1
  Ni  Ni13  1  0.669656  0.834827  0.130344  1
  Ni  Ni14  1  0.830887  0.661775  0.623163  1
  Ni  Ni15  1  0.330344  0.165173  0.869656  1
  Ni  Ni16  1  0.169113  0.338225  0.376837  1
  Ni  Ni17  1  0.165173  0.834827  0.130344  1
  Ni  Ni18  1  0.338225  0.169113  0.623163  1
  Ni  Ni19  1  0.834827  0.165173  0.869656  1
  Ni  Ni20  1  0.661775  0.830887  0.376837  1
  Ni  Ni21  1  0.830887  0.169113  0.623163  1
  Ni  Ni22  1  0.169113  0.830887  0.376837  1
  Os  Os23  1  0.000000  0.000000  0.000000  1
