# generated using pymatgen
data_Tb2FeCo5P4
_symmetry_space_group_name_H-M   'P 1'
_cell_length_a   3.70733100
_cell_length_b   10.55667800
_cell_length_c   12.16510800
_cell_angle_alpha   90.00000000
_cell_angle_beta   90.00000000
_cell_angle_gamma   90.00000000
_symmetry_Int_Tables_number   1
_chemical_formula_structural   Tb2FeCo5P4
_chemical_formula_sum   'Tb6 Fe3 Co15 P12'
_cell_volume   476.10704352
_cell_formula_units_Z   3
loop_
 _symmetry_equiv_pos_site_id
 _symmetry_equiv_pos_as_xyz
  1  'x, y, z'
loop_
 _atom_site_type_symbol
 _atom_site_label
 _atom_site_symmetry_multiplicity
 _atom_site_fract_x
 _atom_site_fract_y
 _atom_site_fract_z
 _atom_site_occupancy
  Tb  Tb0  1  0.000000  0.500000  0.521990  1
  Tb  Tb1  1  0.500000  0.000000  0.478052  1
  Tb  Tb2  1  0.500000  0.817742  0.204907  1
  Tb  Tb3  1  0.500000  0.182258  0.204907  1
  Tb  Tb4  1  0.000000  0.680874  0.795644  1
  Tb  Tb5  1  0.000000  0.319126  0.795644  1
  Fe  Fe6  1  0.500000  0.500000  0.155237  1
  Fe  Fe7  1  0.000000  0.000000  0.843154  1
  Fe  Fe8  1  0.000000  0.500000  0.988827  1
  Co  Co9  1  0.500000  0.500000  0.701465  1
  Co  Co10  1  0.000000  0.000000  0.298389  1
  Co  Co11  1  0.500000  0.000000  0.013331  1
  Co  Co12  1  0.500000  0.331194  0.994436  1
  Co  Co13  1  0.500000  0.668806  0.994436  1
  Co  Co14  1  0.000000  0.166147  0.005408  1
  Co  Co15  1  0.000000  0.833853  0.005408  1
  Co  Co16  1  0.500000  0.296862  0.430475  1
  Co  Co17  1  0.500000  0.703138  0.430475  1
  Co  Co18  1  0.000000  0.203480  0.569738  1
  Co  Co19  1  0.000000  0.796520  0.569738  1
  Co  Co20  1  0.500000  0.879386  0.709212  1
  Co  Co21  1  0.500000  0.120614  0.709212  1
  Co  Co22  1  0.000000  0.620707  0.290336  1
  Co  Co23  1  0.000000  0.379293  0.290336  1
  P  P24  1  0.500000  0.500000  0.884993  1
  P  P25  1  0.000000  0.000000  0.117133  1
  P  P26  1  0.500000  0.500000  0.340805  1
  P  P27  1  0.000000  0.000000  0.658040  1
  P  P28  1  0.500000  0.309676  0.616076  1
  P  P29  1  0.500000  0.690324  0.616076  1
  P  P30  1  0.000000  0.190606  0.384033  1
  P  P31  1  0.000000  0.809394  0.384033  1
  P  P32  1  0.500000  0.847810  0.892955  1
  P  P33  1  0.500000  0.152190  0.892955  1
  P  P34  1  0.000000  0.652608  0.106071  1
  P  P35  1  0.000000  0.347392  0.106071  1
