# generated using pymatgen
data_NdSmB2Pt7Au
_symmetry_space_group_name_H-M   'P 1'
_cell_length_a   5.51706900
_cell_length_b   5.51706746
_cell_length_c   7.73482800
_cell_angle_alpha   90.00000000
_cell_angle_beta   90.00000000
_cell_angle_gamma   119.99999123
_symmetry_Int_Tables_number   1
_chemical_formula_structural   NdSmB2Pt7Au
_chemical_formula_sum   'Nd1 Sm1 B2 Pt7 Au1'
_cell_volume   203.89099297
_cell_formula_units_Z   1
loop_
 _symmetry_equiv_pos_site_id
 _symmetry_equiv_pos_as_xyz
  1  'x, y, z'
loop_
 _atom_site_type_symbol
 _atom_site_label
 _atom_site_symmetry_multiplicity
 _atom_site_fract_x
 _atom_site_fract_y
 _atom_site_fract_z
 _atom_site_occupancy
  Nd  Nd0  1  0.000000  0.000000  0.500000  1
  Sm  Sm1  1  0.000000  0.000000  0.000000  1
  B  B2  1  0.333333  0.666667  0.000000  1
  B  B3  1  0.666667  0.333333  0.000000  1
  Pt  Pt4  1  0.666667  0.333333  0.500000  1
  Pt  Pt5  1  0.500751  0.001501  0.196246  1
  Pt  Pt6  1  0.500751  0.001501  0.803754  1
  Pt  Pt7  1  0.998499  0.499249  0.196246  1
  Pt  Pt8  1  0.998499  0.499249  0.803754  1
  Pt  Pt9  1  0.500751  0.499249  0.196246  1
  Pt  Pt10  1  0.500751  0.499249  0.803754  1
  Au  Au11  1  0.333333  0.666667  0.500000  1
