# generated using pymatgen
data_Er4AlReOs6
_symmetry_space_group_name_H-M   'P 1'
_cell_length_a   5.16963300
_cell_length_b   5.40562808
_cell_length_c   8.85202400
_cell_angle_alpha   90.00000000
_cell_angle_beta   90.00000000
_cell_angle_gamma   119.66838535
_symmetry_Int_Tables_number   1
_chemical_formula_structural   Er4AlReOs6
_chemical_formula_sum   'Er4 Al1 Re1 Os6'
_cell_volume   214.94167889
_cell_formula_units_Z   1
loop_
 _symmetry_equiv_pos_site_id
 _symmetry_equiv_pos_as_xyz
  1  'x, y, z'
loop_
 _atom_site_type_symbol
 _atom_site_label
 _atom_site_symmetry_multiplicity
 _atom_site_fract_x
 _atom_site_fract_y
 _atom_site_fract_z
 _atom_site_occupancy
  Er  Er0  1  0.335396  0.668700  0.439193  1
  Er  Er1  1  0.661677  0.329154  0.565445  1
  Er  Er2  1  0.661677  0.329154  0.934555  1
  Er  Er3  1  0.335396  0.668700  0.060807  1
  Al  Al4  1  0.833862  0.170212  0.250000  1
  Re  Re5  1  0.658271  0.832133  0.750000  1
  Os  Os6  1  0.998046  0.989243  0.498512  1
  Os  Os7  1  0.998046  0.989243  0.001488  1
  Os  Os8  1  0.826606  0.657785  0.250000  1
  Os  Os9  1  0.348549  0.183205  0.250000  1
  Os  Os10  1  0.167470  0.833328  0.750000  1
  Os  Os11  1  0.175002  0.349145  0.750000  1
