# generated using pymatgen
data_La3Nd13Cd2(HgPt2)2
_symmetry_space_group_name_H-M   'P 1'
_cell_length_a   10.04388842
_cell_length_b   10.04612467
_cell_length_c   10.04911100
_cell_angle_alpha   59.99016288
_cell_angle_beta   59.98279454
_cell_angle_gamma   60.00401672
_symmetry_Int_Tables_number   1
_chemical_formula_structural   La3Nd13Cd2(HgPt2)2
_chemical_formula_sum   'La3 Nd13 Cd2 Hg2 Pt4'
_cell_volume   716.86515714
_cell_formula_units_Z   1
loop_
 _symmetry_equiv_pos_site_id
 _symmetry_equiv_pos_as_xyz
  1  'x, y, z'
loop_
 _atom_site_type_symbol
 _atom_site_label
 _atom_site_symmetry_multiplicity
 _atom_site_fract_x
 _atom_site_fract_y
 _atom_site_fract_z
 _atom_site_occupancy
  La  La0  1  0.349926  0.351061  0.350199  1
  La  La1  1  0.349926  0.351061  0.948814  1
  La  La2  1  0.352124  0.943969  0.351953  1
  Nd  Nd3  1  0.942274  0.353408  0.352159  1
  Nd  Nd4  1  0.809993  0.190582  0.191685  1
  Nd  Nd5  1  0.190284  0.809847  0.808646  1
  Nd  Nd6  1  0.190284  0.809847  0.191223  1
  Nd  Nd7  1  0.809993  0.190582  0.807740  1
  Nd  Nd8  1  0.189988  0.190246  0.809883  1
  Nd  Nd9  1  0.808454  0.807416  0.192065  1
  Nd  Nd10  1  0.935965  0.563699  0.565801  1
  Nd  Nd11  1  0.563808  0.935859  0.934427  1
  Nd  Nd12  1  0.563808  0.935859  0.565906  1
  Nd  Nd13  1  0.935965  0.563699  0.934535  1
  Nd  Nd14  1  0.563587  0.563796  0.936309  1
  Nd  Nd15  1  0.934262  0.934350  0.565694  1
  Cd  Cd16  1  0.580888  0.258219  0.580448  1
  Cd  Cd17  1  0.257953  0.579753  0.581148  1
  Hg  Hg18  1  0.585144  0.583546  0.586286  1
  Hg  Hg19  1  0.585144  0.583546  0.245024  1
  Pt  Pt20  1  0.142674  0.142694  0.143755  1
  Pt  Pt21  1  0.142674  0.142694  0.570877  1
  Pt  Pt22  1  0.141958  0.572352  0.142845  1
  Pt  Pt23  1  0.572932  0.141916  0.142576  1
