# generated using pymatgen
data_Sm5Y3(PtI6)2
_symmetry_space_group_name_H-M   'P 1'
_cell_length_a   4.26237300
_cell_length_b   14.20511632
_cell_length_c   14.95567500
_cell_angle_alpha   90.13652068
_cell_angle_beta   90.00000000
_cell_angle_gamma   90.00000000
_symmetry_Int_Tables_number   1
_chemical_formula_structural   Sm5Y3(PtI6)2
_chemical_formula_sum   'Sm5 Y3 Pt2 I12'
_cell_volume   905.52622557
_cell_formula_units_Z   1
loop_
 _symmetry_equiv_pos_site_id
 _symmetry_equiv_pos_as_xyz
  1  'x, y, z'
loop_
 _atom_site_type_symbol
 _atom_site_label
 _atom_site_symmetry_multiplicity
 _atom_site_fract_x
 _atom_site_fract_y
 _atom_site_fract_z
 _atom_site_occupancy
  Sm  Sm0  1  0.500000  0.117654  0.343480  1
  Sm  Sm1  1  0.000000  0.107797  0.574317  1
  Sm  Sm2  1  0.000000  0.891352  0.426932  1
  Sm  Sm3  1  0.000000  0.607998  0.926483  1
  Sm  Sm4  1  0.000000  0.392638  0.072631  1
  Y  Y5  1  0.500000  0.882786  0.656486  1
  Y  Y6  1  0.500000  0.616904  0.155818  1
  Y  Y7  1  0.500000  0.383278  0.843927  1
  Pt  Pt8  1  0.500000  0.999122  0.501330  1
  Pt  Pt9  1  0.500000  0.500414  0.999689  1
  I  I10  1  0.500000  0.244866  0.162324  1
  I  I11  1  0.500000  0.756647  0.834249  1
  I  I12  1  0.500000  0.742897  0.334892  1
  I  I13  1  0.500000  0.256332  0.666015  1
  I  I14  1  0.000000  0.264784  0.416259  1
  I  I15  1  0.000000  0.738714  0.587757  1
  I  I16  1  0.000000  0.760910  0.087570  1
  I  I17  1  0.000000  0.239211  0.911856  1
  I  I18  1  0.000000  0.998089  0.235006  1
  I  I19  1  0.000000  0.997595  0.763657  1
  I  I20  1  0.000000  0.502278  0.262813  1
  I  I21  1  0.000000  0.497734  0.736513  1
