# generated using pymatgen
data_Sr8HfSc(MoO8)2
_symmetry_space_group_name_H-M   'P 1'
_cell_length_a   5.81445192
_cell_length_b   5.83218416
_cell_length_c   12.55815372
_cell_angle_alpha   90.11585320
_cell_angle_beta   89.92715634
_cell_angle_gamma   90.45183607
_symmetry_Int_Tables_number   1
_chemical_formula_structural   Sr8HfSc(MoO8)2
_chemical_formula_sum   'Sr8 Hf1 Sc1 Mo2 O16'
_cell_volume   425.84452961
_cell_formula_units_Z   1
loop_
 _symmetry_equiv_pos_site_id
 _symmetry_equiv_pos_as_xyz
  1  'x, y, z'
loop_
 _atom_site_type_symbol
 _atom_site_label
 _atom_site_symmetry_multiplicity
 _atom_site_fract_x
 _atom_site_fract_y
 _atom_site_fract_z
 _atom_site_occupancy
  Sr  Sr0  1  0.264104  0.765366  0.103700  1
  Sr  Sr1  1  0.267099  0.238462  0.605922  1
  Sr  Sr2  1  0.740362  0.766772  0.606069  1
  Sr  Sr3  1  0.738434  0.237714  0.101387  1
  Sr  Sr4  1  0.761566  0.262286  0.398613  1
  Sr  Sr5  1  0.759638  0.733228  0.893931  1
  Sr  Sr6  1  0.232901  0.261538  0.894078  1
  Sr  Sr7  1  0.235896  0.734634  0.396300  1
  Hf  Hf8  1  0.750000  0.750000  0.250000  1
  Sc  Sc9  1  0.750000  0.250000  0.750000  1
  Mo  Mo10  1  0.250000  0.750000  0.750000  1
  Mo  Mo11  1  0.250000  0.250000  0.250000  1
  O  O12  1  0.285103  0.210819  0.087249  1
  O  O13  1  0.281562  0.783838  0.593531  1
  O  O14  1  0.493223  0.993388  0.774105  1
  O  O15  1  0.500600  0.995126  0.275547  1
  O  O16  1  0.493741  0.504881  0.749112  1
  O  O17  1  0.495951  0.499603  0.248861  1
  O  O18  1  0.705620  0.201791  0.584973  1
  O  O19  1  0.708845  0.793324  0.084998  1
  O  O20  1  0.794380  0.298209  0.915027  1
  O  O21  1  0.791155  0.706676  0.415002  1
  O  O22  1  0.004049  0.000397  0.251139  1
  O  O23  1  0.999400  0.504874  0.224453  1
  O  O24  1  0.006259  0.995119  0.750888  1
  O  O25  1  0.006777  0.506612  0.725895  1
  O  O26  1  0.218438  0.716162  0.906469  1
  O  O27  1  0.214897  0.289181  0.412751  1
