# generated using pymatgen
data_Tm2U(AlFe)3
_symmetry_space_group_name_H-M   'P 1'
_cell_length_a   6.65043549
_cell_length_b   6.65043661
_cell_length_c   3.90728000
_cell_angle_alpha   90.00000000
_cell_angle_beta   90.00000000
_cell_angle_gamma   117.17076797
_symmetry_Int_Tables_number   1
_chemical_formula_structural   Tm2U(AlFe)3
_chemical_formula_sum   'Tm2 U1 Al3 Fe3'
_cell_volume   153.74241572
_cell_formula_units_Z   1
loop_
 _symmetry_equiv_pos_site_id
 _symmetry_equiv_pos_as_xyz
  1  'x, y, z'
loop_
 _atom_site_type_symbol
 _atom_site_label
 _atom_site_symmetry_multiplicity
 _atom_site_fract_x
 _atom_site_fract_y
 _atom_site_fract_z
 _atom_site_occupancy
  Tm  Tm0  1  0.418225  0.010162  0.500000  1
  Tm  Tm1  1  0.010162  0.418225  0.500000  1
  U  U2  1  0.615169  0.615169  0.500000  1
  Al  Al3  1  0.753354  0.021892  0.000000  1
  Al  Al4  1  0.021892  0.753354  0.000000  1
  Al  Al5  1  0.209430  0.209430  0.000000  1
  Fe  Fe6  1  0.392926  0.630476  0.000000  1
  Fe  Fe7  1  0.630476  0.392926  0.000000  1
  Fe  Fe8  1  0.948366  0.948366  0.500000  1
