# generated using pymatgen
data_LaPr19(Ir5Au)2
_symmetry_space_group_name_H-M   'P 1'
_cell_length_a   11.54681963
_cell_length_b   11.49011184
_cell_length_c   6.60810180
_cell_angle_alpha   89.99750578
_cell_angle_beta   89.98835123
_cell_angle_gamma   89.93226987
_symmetry_Int_Tables_number   1
_chemical_formula_structural   LaPr19(Ir5Au)2
_chemical_formula_sum   'La1 Pr19 Ir10 Au2'
_cell_volume   876.72431187
_cell_formula_units_Z   1
loop_
 _symmetry_equiv_pos_site_id
 _symmetry_equiv_pos_as_xyz
  1  'x, y, z'
loop_
 _atom_site_type_symbol
 _atom_site_label
 _atom_site_symmetry_multiplicity
 _atom_site_fract_x
 _atom_site_fract_y
 _atom_site_fract_z
 _atom_site_occupancy
  La  La0  1  0.293238  0.091969  0.383877  1
  Pr  Pr1  1  0.292958  0.907730  0.881916  1
  Pr  Pr2  1  0.697905  0.094603  0.868528  1
  Pr  Pr3  1  0.698147  0.905408  0.367737  1
  Pr  Pr4  1  0.579851  0.789739  0.884451  1
  Pr  Pr5  1  0.581912  0.211300  0.384878  1
  Pr  Pr6  1  0.406241  0.790733  0.384284  1
  Pr  Pr7  1  0.406787  0.208549  0.885041  1
  Pr  Pr8  1  0.208760  0.409175  0.615060  1
  Pr  Pr9  1  0.208979  0.591491  0.114781  1
  Pr  Pr10  1  0.790425  0.417327  0.115109  1
  Pr  Pr11  1  0.790369  0.583114  0.615514  1
  Pr  Pr12  1  0.914323  0.703726  0.133658  1
  Pr  Pr13  1  0.913835  0.296142  0.632701  1
  Pr  Pr14  1  0.098331  0.702758  0.617844  1
  Pr  Pr15  1  0.097980  0.297650  0.116593  1
  Pr  Pr16  1  0.009026  0.998680  0.499624  1
  Pr  Pr17  1  0.010193  0.000852  0.998209  1
  Pr  Pr18  1  0.498867  0.498647  0.001444  1
  Pr  Pr19  1  0.499427  0.501142  0.500993  1
  Ir  Ir20  1  0.154859  0.154049  0.748453  1
  Ir  Ir21  1  0.152896  0.845111  0.249633  1
  Ir  Ir22  1  0.655588  0.347154  0.749141  1
  Ir  Ir23  1  0.655044  0.653365  0.248538  1
  Ir  Ir24  1  0.347508  0.344950  0.251804  1
  Ir  Ir25  1  0.347658  0.654313  0.751048  1
  Ir  Ir26  1  0.500644  0.000242  0.119701  1
  Ir  Ir27  1  0.501392  0.000050  0.616905  1
  Ir  Ir28  1  0.999113  0.501630  0.881586  1
  Ir  Ir29  1  0.998910  0.498401  0.381753  1
  Au  Au30  1  0.844915  0.154536  0.248957  1
  Au  Au31  1  0.843921  0.845466  0.750245  1
