# generated using pymatgen
data_DySi3N5
_symmetry_space_group_name_H-M   'P 1'
_cell_length_a   4.74079700
_cell_length_b   7.78531600
_cell_length_c   11.24109200
_cell_angle_alpha   90.00000000
_cell_angle_beta   90.00000000
_cell_angle_gamma   90.00000000
_symmetry_Int_Tables_number   1
_chemical_formula_structural   DySi3N5
_chemical_formula_sum   'Dy4 Si12 N20'
_cell_volume   414.89299896
_cell_formula_units_Z   4
loop_
 _symmetry_equiv_pos_site_id
 _symmetry_equiv_pos_as_xyz
  1  'x, y, z'
loop_
 _atom_site_type_symbol
 _atom_site_label
 _atom_site_symmetry_multiplicity
 _atom_site_fract_x
 _atom_site_fract_y
 _atom_site_fract_z
 _atom_site_occupancy
  Dy  Dy0  1  0.493428  0.053081  0.180499  1
  Dy  Dy1  1  0.006572  0.946919  0.680499  1
  Dy  Dy2  1  0.506572  0.553081  0.319501  1
  Dy  Dy3  1  0.993428  0.446919  0.819501  1
  Si  Si4  1  0.005068  0.208327  0.417321  1
  Si  Si5  1  0.494932  0.791673  0.917321  1
  Si  Si6  1  0.994932  0.708327  0.082679  1
  Si  Si7  1  0.505068  0.291673  0.582679  1
  Si  Si8  1  0.540387  0.463478  0.039745  1
  Si  Si9  1  0.959613  0.536522  0.539745  1
  Si  Si10  1  0.459613  0.963478  0.460255  1
  Si  Si11  1  0.040387  0.036522  0.960255  1
  Si  Si12  1  0.031467  0.336866  0.164550  1
  Si  Si13  1  0.468533  0.663134  0.664550  1
  Si  Si14  1  0.968533  0.836866  0.335450  1
  Si  Si15  1  0.531467  0.163134  0.835450  1
  N  N16  1  0.184937  0.294479  0.300102  1
  N  N17  1  0.315063  0.705521  0.800102  1
  N  N18  1  0.815063  0.794479  0.199898  1
  N  N19  1  0.684937  0.205521  0.699898  1
  N  N20  1  0.204046  0.521521  0.100139  1
  N  N21  1  0.295954  0.478479  0.600139  1
  N  N22  1  0.795954  0.021521  0.399861  1
  N  N23  1  0.704046  0.978479  0.899861  1
  N  N24  1  0.679971  0.381451  0.169338  1
  N  N25  1  0.820029  0.618549  0.669338  1
  N  N26  1  0.320029  0.881451  0.330662  1
  N  N27  1  0.179971  0.118549  0.830662  1
  N  N28  1  0.078127  0.155203  0.084757  1
  N  N29  1  0.421873  0.844797  0.584757  1
  N  N30  1  0.921873  0.655203  0.415243  1
  N  N31  1  0.578127  0.344797  0.915243  1
  N  N32  1  0.272978  0.145315  0.516516  1
  N  N33  1  0.227022  0.854685  0.016516  1
  N  N34  1  0.727022  0.645315  0.983484  1
  N  N35  1  0.772978  0.354685  0.483484  1
