# generated using pymatgen
data_Rb2Sm10Fe2Br17
_symmetry_space_group_name_H-M   'P 1'
_cell_length_a   9.31532079
_cell_length_b   10.97131326
_cell_length_c   10.97201800
_cell_angle_alpha   107.61355617
_cell_angle_beta   93.40043812
_cell_angle_gamma   93.40715751
_symmetry_Int_Tables_number   1
_chemical_formula_structural   Rb2Sm10Fe2Br17
_chemical_formula_sum   'Rb2 Sm10 Fe2 Br17'
_cell_volume   1063.36842260
_cell_formula_units_Z   1
loop_
 _symmetry_equiv_pos_site_id
 _symmetry_equiv_pos_as_xyz
  1  'x, y, z'
loop_
 _atom_site_type_symbol
 _atom_site_label
 _atom_site_symmetry_multiplicity
 _atom_site_fract_x
 _atom_site_fract_y
 _atom_site_fract_z
 _atom_site_occupancy
  Rb  Rb0  1  0.997901  0.817847  0.180048  1
  Rb  Rb1  1  0.997893  0.180049  0.817838  1
  Sm  Sm2  1  0.438754  0.166555  0.166566  1
  Sm  Sm3  1  0.573140  0.504787  0.208259  1
  Sm  Sm4  1  0.823855  0.291599  0.291604  1
  Sm  Sm5  1  0.313184  0.438740  0.438760  1
  Sm  Sm6  1  0.427014  0.801383  0.489157  1
  Sm  Sm7  1  0.573051  0.208221  0.504749  1
  Sm  Sm8  1  0.684566  0.569446  0.569432  1
  Sm  Sm9  1  0.184329  0.705410  0.705441  1
  Sm  Sm10  1  0.427009  0.489149  0.801386  1
  Sm  Sm11  1  0.559439  0.829571  0.829546  1
  Fe  Fe12  1  0.569827  0.359099  0.359100  1
  Fe  Fe13  1  0.431419  0.641921  0.641922  1
  Br  Br14  1  0.581190  0.685137  0.023026  1
  Br  Br15  1  0.713090  0.066233  0.066226  1
  Br  Br16  1  0.857421  0.449205  0.119788  1
  Br  Br17  1  0.132026  0.209097  0.209084  1
  Br  Br18  1  0.282499  0.604457  0.256206  1
  Br  Br19  1  0.418998  0.979911  0.311476  1
  Br  Br20  1  0.717509  0.744076  0.396314  1
  Br  Br21  1  0.857334  0.119747  0.449168  1
  Br  Br22  1  0.999140  0.500556  0.500620  1
  Br  Br23  1  0.141925  0.880119  0.548832  1
  Br  Br24  1  0.282410  0.256200  0.604475  1
  Br  Br25  1  0.581121  0.023039  0.685090  1
  Br  Br26  1  0.717480  0.396292  0.744014  1
  Br  Br27  1  0.868512  0.790648  0.790573  1
  Br  Br28  1  0.141929  0.548817  0.880139  1
  Br  Br29  1  0.286997  0.931186  0.931204  1
  Br  Br30  1  0.419042  0.311502  0.979958  1
