# generated using pymatgen
data_Rb4Li2ScAlSb4
_symmetry_space_group_name_H-M   'P 1'
_cell_length_a   9.77387436
_cell_length_b   9.77387439
_cell_length_c   9.77387523
_cell_angle_alpha   137.86474768
_cell_angle_beta   60.59308867
_cell_angle_gamma   138.54238363
_symmetry_Int_Tables_number   1
_chemical_formula_structural   Rb4Li2ScAlSb4
_chemical_formula_sum   'Rb4 Li2 Sc1 Al1 Sb4'
_cell_volume   410.28300037
_cell_formula_units_Z   1
loop_
 _symmetry_equiv_pos_site_id
 _symmetry_equiv_pos_as_xyz
  1  'x, y, z'
loop_
 _atom_site_type_symbol
 _atom_site_label
 _atom_site_symmetry_multiplicity
 _atom_site_fract_x
 _atom_site_fract_y
 _atom_site_fract_z
 _atom_site_occupancy
  Rb  Rb0  1  0.827677  0.266896  0.097713  1
  Rb  Rb1  1  0.672322  0.770035  0.439221  1
  Rb  Rb2  1  0.330816  0.233103  0.560780  1
  Rb  Rb3  1  0.169183  0.729964  0.902287  1
  Li  Li4  1  0.750000  0.250000  0.500000  1
  Li  Li5  1  0.250000  0.750000  0.500000  1
  Sc  Sc6  1  0.250000  0.250000  0.000000  1
  Al  Al7  1  0.750000  0.750000  0.000000  1
  Sb  Sb8  1  0.417612  0.740713  0.141337  1
  Sb  Sb9  1  0.082387  0.223724  0.323101  1
  Sb  Sb10  1  0.900622  0.759286  0.676899  1
  Sb  Sb11  1  0.599377  0.276276  0.858663  1
