# generated using pymatgen
data_Tb3Ho5(TcC2)4
_symmetry_space_group_name_H-M   'P 1'
_cell_length_a   5.10093100
_cell_length_b   6.56599518
_cell_length_c   9.86712579
_cell_angle_alpha   89.88709467
_cell_angle_beta   90.00000000
_cell_angle_gamma   90.00000000
_symmetry_Int_Tables_number   1
_chemical_formula_structural   Tb3Ho5(TcC2)4
_chemical_formula_sum   'Tb3 Ho5 Tc4 C8'
_cell_volume   330.47592778
_cell_formula_units_Z   1
loop_
 _symmetry_equiv_pos_site_id
 _symmetry_equiv_pos_as_xyz
  1  'x, y, z'
loop_
 _atom_site_type_symbol
 _atom_site_label
 _atom_site_symmetry_multiplicity
 _atom_site_fract_x
 _atom_site_fract_y
 _atom_site_fract_z
 _atom_site_occupancy
  Tb  Tb0  1  0.250000  0.467379  0.784208  1
  Tb  Tb1  1  0.750000  0.032717  0.284183  1
  Tb  Tb2  1  0.250000  0.967386  0.715699  1
  Ho  Ho3  1  0.750000  0.533157  0.216000  1
  Ho  Ho4  1  0.250000  0.823109  0.058074  1
  Ho  Ho5  1  0.750000  0.676507  0.557720  1
  Ho  Ho6  1  0.250000  0.323602  0.441969  1
  Ho  Ho7  1  0.750000  0.176554  0.942242  1
  Tc  Tc8  1  0.250000  0.282000  0.133685  1
  Tc  Tc9  1  0.750000  0.218712  0.633456  1
  Tc  Tc10  1  0.250000  0.781197  0.366193  1
  Tc  Tc11  1  0.750000  0.718380  0.866552  1
  C  C12  1  0.250000  0.177306  0.951796  1
  C  C13  1  0.750000  0.821513  0.049005  1
  C  C14  1  0.250000  0.677185  0.548355  1
  C  C15  1  0.750000  0.323228  0.451147  1
  C  C16  1  0.250000  0.049165  0.258332  1
  C  C17  1  0.750000  0.450976  0.758336  1
  C  C18  1  0.250000  0.548975  0.241367  1
  C  C19  1  0.750000  0.950952  0.741684  1
