# generated using pymatgen
data_Dy5(ThAu5)2
_symmetry_space_group_name_H-M   'P 1'
_cell_length_a   8.82735403
_cell_length_b   8.82735440
_cell_length_c   10.42381900
_cell_angle_alpha   90.00000000
_cell_angle_beta   90.00000000
_cell_angle_gamma   107.42304193
_symmetry_Int_Tables_number   1
_chemical_formula_structural   Dy5(ThAu5)2
_chemical_formula_sum   'Dy10 Th4 Au20'
_cell_volume   774.98083801
_cell_formula_units_Z   2
loop_
 _symmetry_equiv_pos_site_id
 _symmetry_equiv_pos_as_xyz
  1  'x, y, z'
loop_
 _atom_site_type_symbol
 _atom_site_label
 _atom_site_symmetry_multiplicity
 _atom_site_fract_x
 _atom_site_fract_y
 _atom_site_fract_z
 _atom_site_occupancy
  Dy  Dy0  1  0.694289  0.305711  0.000000  1
  Dy  Dy1  1  0.305711  0.694289  0.000000  1
  Dy  Dy2  1  0.805711  0.194289  0.500000  1
  Dy  Dy3  1  0.194289  0.805711  0.500000  1
  Dy  Dy4  1  0.000000  0.000000  0.000000  1
  Dy  Dy5  1  0.500000  0.500000  0.500000  1
  Dy  Dy6  1  0.000310  0.500310  0.250000  1
  Dy  Dy7  1  0.999690  0.499690  0.750000  1
  Dy  Dy8  1  0.499690  0.999690  0.750000  1
  Dy  Dy9  1  0.500310  0.000310  0.250000  1
  Th  Th10  1  0.308198  0.308198  0.189877  1
  Th  Th11  1  0.691802  0.691802  0.810123  1
  Th  Th12  1  0.191802  0.191802  0.689877  1
  Th  Th13  1  0.808198  0.808198  0.310123  1
  Au  Au14  1  0.858455  0.149986  0.207435  1
  Au  Au15  1  0.141545  0.850014  0.792565  1
  Au  Au16  1  0.641545  0.350014  0.707435  1
  Au  Au17  1  0.649986  0.358455  0.292565  1
  Au  Au18  1  0.358455  0.649986  0.292565  1
  Au  Au19  1  0.350014  0.641545  0.707435  1
  Au  Au20  1  0.850014  0.141545  0.792565  1
  Au  Au21  1  0.149986  0.858455  0.207435  1
  Au  Au22  1  0.939257  0.645611  0.003511  1
  Au  Au23  1  0.060743  0.354389  0.996489  1
  Au  Au24  1  0.560743  0.854389  0.503511  1
  Au  Au25  1  0.145611  0.439257  0.496489  1
  Au  Au26  1  0.439257  0.145611  0.496489  1
  Au  Au27  1  0.854389  0.560743  0.503511  1
  Au  Au28  1  0.354389  0.060743  0.996489  1
  Au  Au29  1  0.645611  0.939257  0.003511  1
  Au  Au30  1  0.100059  0.100059  0.399169  1
  Au  Au31  1  0.899941  0.899941  0.600831  1
  Au  Au32  1  0.399941  0.399941  0.899169  1
  Au  Au33  1  0.600059  0.600059  0.100831  1
