# generated using pymatgen
data_Y2Er2CdRh
_symmetry_space_group_name_H-M   'P 1'
_cell_length_a   9.53497737
_cell_length_b   9.53497806
_cell_length_c   9.55383600
_cell_angle_alpha   59.93456145
_cell_angle_beta   59.93455901
_cell_angle_gamma   60.13089284
_symmetry_Int_Tables_number   1
_chemical_formula_structural   Y2Er2CdRh
_chemical_formula_sum   'Y8 Er8 Cd4 Rh4'
_cell_volume   614.18440991
_cell_formula_units_Z   4
loop_
 _symmetry_equiv_pos_site_id
 _symmetry_equiv_pos_as_xyz
  1  'x, y, z'
loop_
 _atom_site_type_symbol
 _atom_site_label
 _atom_site_symmetry_multiplicity
 _atom_site_fract_x
 _atom_site_fract_y
 _atom_site_fract_z
 _atom_site_occupancy
  Y  Y0  1  0.437751  0.437751  0.062249  1
  Y  Y1  1  0.062249  0.062249  0.437751  1
  Y  Y2  1  0.186978  0.813022  0.813022  1
  Y  Y3  1  0.813022  0.186978  0.186978  1
  Y  Y4  1  0.813022  0.186978  0.813022  1
  Y  Y5  1  0.186978  0.813022  0.186978  1
  Y  Y6  1  0.812150  0.812150  0.187850  1
  Y  Y7  1  0.187850  0.187850  0.812150  1
  Er  Er8  1  0.599556  0.599556  0.600545  1
  Er  Er9  1  0.599556  0.599556  0.200344  1
  Er  Er10  1  0.600545  0.200344  0.599556  1
  Er  Er11  1  0.200344  0.600545  0.599556  1
  Er  Er12  1  0.061531  0.438469  0.438469  1
  Er  Er13  1  0.438469  0.061531  0.061531  1
  Er  Er14  1  0.438469  0.061531  0.438469  1
  Er  Er15  1  0.061531  0.438469  0.061531  1
  Cd  Cd16  1  0.830961  0.830961  0.830801  1
  Cd  Cd17  1  0.830961  0.830961  0.507277  1
  Cd  Cd18  1  0.830801  0.507277  0.830961  1
  Cd  Cd19  1  0.507277  0.830801  0.830961  1
  Rh  Rh20  1  0.391789  0.391789  0.396622  1
  Rh  Rh21  1  0.391789  0.391789  0.819800  1
  Rh  Rh22  1  0.396622  0.819800  0.391789  1
  Rh  Rh23  1  0.819800  0.396622  0.391789  1
