# generated using pymatgen
data_CsRb3(SiP)12
_symmetry_space_group_name_H-M   'P 1'
_cell_length_a   3.56503400
_cell_length_b   9.92670751
_cell_length_c   20.22148907
_cell_angle_alpha   90.43458898
_cell_angle_beta   90.00000000
_cell_angle_gamma   90.00000000
_symmetry_Int_Tables_number   1
_chemical_formula_structural   CsRb3(SiP)12
_chemical_formula_sum   'Cs1 Rb3 Si12 P12'
_cell_volume   715.59869811
_cell_formula_units_Z   1
loop_
 _symmetry_equiv_pos_site_id
 _symmetry_equiv_pos_as_xyz
  1  'x, y, z'
loop_
 _atom_site_type_symbol
 _atom_site_label
 _atom_site_symmetry_multiplicity
 _atom_site_fract_x
 _atom_site_fract_y
 _atom_site_fract_z
 _atom_site_occupancy
  Cs  Cs0  1  0.000000  0.793499  0.192464  1
  Rb  Rb1  1  0.000000  0.296136  0.309007  1
  Rb  Rb2  1  0.000000  0.704650  0.691024  1
  Rb  Rb3  1  0.000000  0.203575  0.807926  1
  Si  Si4  1  0.500000  0.404093  0.034068  1
  Si  Si5  1  0.500000  0.593308  0.964518  1
  Si  Si6  1  0.500000  0.098125  0.533246  1
  Si  Si7  1  0.500000  0.905627  0.464664  1
  Si  Si8  1  0.000000  0.112993  0.015812  1
  Si  Si9  1  0.000000  0.884425  0.984199  1
  Si  Si10  1  0.000000  0.387749  0.515843  1
  Si  Si11  1  0.000000  0.616216  0.486229  1
  Si  Si12  1  0.000000  0.182167  0.127732  1
  Si  Si13  1  0.000000  0.818374  0.872027  1
  Si  Si14  1  0.000000  0.321349  0.627523  1
  Si  Si15  1  0.000000  0.677020  0.374275  1
  P  P16  1  0.500000  0.119503  0.186801  1
  P  P17  1  0.500000  0.884570  0.813595  1
  P  P18  1  0.500000  0.387465  0.686443  1
  P  P19  1  0.500000  0.607002  0.316862  1
  P  P20  1  0.500000  0.284136  0.465435  1
  P  P21  1  0.500000  0.722823  0.534816  1
  P  P22  1  0.500000  0.216214  0.966002  1
  P  P23  1  0.500000  0.779908  0.032950  1
  P  P24  1  0.000000  0.411001  0.104540  1
  P  P25  1  0.000000  0.587968  0.894152  1
  P  P26  1  0.000000  0.091764  0.603661  1
  P  P27  1  0.000000  0.908340  0.394184  1
