# generated using pymatgen
data_TbZrPaGa5
_symmetry_space_group_name_H-M   'P 1'
_cell_length_a   5.93763181
_cell_length_b   5.93763202
_cell_length_c   9.39227530
_cell_angle_alpha   90.05874052
_cell_angle_beta   90.05874241
_cell_angle_gamma   102.83504109
_symmetry_Int_Tables_number   1
_chemical_formula_structural   TbZrPaGa5
_chemical_formula_sum   'Tb2 Zr2 Pa2 Ga10'
_cell_volume   322.85497096
_cell_formula_units_Z   2
loop_
 _symmetry_equiv_pos_site_id
 _symmetry_equiv_pos_as_xyz
  1  'x, y, z'
loop_
 _atom_site_type_symbol
 _atom_site_label
 _atom_site_symmetry_multiplicity
 _atom_site_fract_x
 _atom_site_fract_y
 _atom_site_fract_z
 _atom_site_occupancy
  Tb  Tb0  1  0.205587  0.794413  0.500000  1
  Tb  Tb1  1  0.794413  0.205587  0.500000  1
  Zr  Zr2  1  0.646174  0.646174  0.244110  1
  Zr  Zr3  1  0.353826  0.353826  0.755890  1
  Pa  Pa4  1  0.794196  0.205804  0.000000  1
  Pa  Pa5  1  0.205804  0.794196  0.000000  1
  Ga  Ga6  1  0.078147  0.488867  0.251305  1
  Ga  Ga7  1  0.921853  0.511133  0.748695  1
  Ga  Ga8  1  0.488867  0.078147  0.251305  1
  Ga  Ga9  1  0.511133  0.921853  0.748695  1
  Ga  Ga10  1  0.022373  0.022373  0.250929  1
  Ga  Ga11  1  0.977627  0.977627  0.749071  1
  Ga  Ga12  1  0.318318  0.318318  0.057027  1
  Ga  Ga13  1  0.681682  0.681682  0.942973  1
  Ga  Ga14  1  0.681999  0.681999  0.546568  1
  Ga  Ga15  1  0.318001  0.318001  0.453432  1
