# generated using pymatgen
data_Er2MnFe(Co4P3)2
_symmetry_space_group_name_H-M   'P 1'
_cell_length_a   3.64518800
_cell_length_b   10.25018200
_cell_length_c   11.74873900
_cell_angle_alpha   90.00000000
_cell_angle_beta   90.00000000
_cell_angle_gamma   90.00000000
_symmetry_Int_Tables_number   1
_chemical_formula_structural   Er2MnFe(Co4P3)2
_chemical_formula_sum   'Er4 Mn2 Fe2 Co16 P12'
_cell_volume   438.97800918
_cell_formula_units_Z   2
loop_
 _symmetry_equiv_pos_site_id
 _symmetry_equiv_pos_as_xyz
  1  'x, y, z'
loop_
 _atom_site_type_symbol
 _atom_site_label
 _atom_site_symmetry_multiplicity
 _atom_site_fract_x
 _atom_site_fract_y
 _atom_site_fract_z
 _atom_site_occupancy
  Er  Er0  1  0.250000  0.582556  0.704149  1
  Er  Er1  1  0.250000  0.917444  0.204149  1
  Er  Er2  1  0.750000  0.418172  0.296216  1
  Er  Er3  1  0.750000  0.081828  0.796216  1
  Mn  Mn4  1  0.750000  0.287996  0.011794  1
  Mn  Mn5  1  0.750000  0.212004  0.511794  1
  Fe  Fe6  1  0.250000  0.711287  0.988408  1
  Fe  Fe7  1  0.250000  0.788713  0.488408  1
  Co  Co8  1  0.250000  0.406071  0.487270  1
  Co  Co9  1  0.250000  0.093929  0.987270  1
  Co  Co10  1  0.750000  0.593088  0.512766  1
  Co  Co11  1  0.750000  0.906912  0.012766  1
  Co  Co12  1  0.250000  0.220603  0.176583  1
  Co  Co13  1  0.250000  0.279397  0.676583  1
  Co  Co14  1  0.750000  0.779451  0.823170  1
  Co  Co15  1  0.750000  0.720549  0.323170  1
  Co  Co16  1  0.250000  0.883377  0.698571  1
  Co  Co17  1  0.250000  0.616623  0.198571  1
  Co  Co18  1  0.750000  0.116718  0.301335  1
  Co  Co19  1  0.750000  0.383282  0.801335  1
  Co  Co20  1  0.250000  0.466896  0.932308  1
  Co  Co21  1  0.250000  0.033104  0.432308  1
  Co  Co22  1  0.750000  0.533924  0.067057  1
  Co  Co23  1  0.750000  0.966076  0.567057  1
  P  P24  1  0.250000  0.418382  0.112861  1
  P  P25  1  0.250000  0.081618  0.612861  1
  P  P26  1  0.750000  0.582051  0.887002  1
  P  P27  1  0.750000  0.917949  0.387002  1
  P  P28  1  0.250000  0.269438  0.868604  1
  P  P29  1  0.250000  0.230562  0.368604  1
  P  P30  1  0.750000  0.731114  0.131523  1
  P  P31  1  0.750000  0.768886  0.631523  1
  P  P32  1  0.250000  0.601820  0.391730  1
  P  P33  1  0.250000  0.898180  0.891730  1
  P  P34  1  0.750000  0.399960  0.608654  1
  P  P35  1  0.750000  0.100040  0.108654  1
