# generated using pymatgen
data_Sm3Pa(B4W)4
_symmetry_space_group_name_H-M   'P 1'
_cell_length_a   3.67732600
_cell_length_b   6.07770873
_cell_length_c   11.75314338
_cell_angle_alpha   90.04040173
_cell_angle_beta   90.00000000
_cell_angle_gamma   90.00000000
_symmetry_Int_Tables_number   1
_chemical_formula_structural   Sm3Pa(B4W)4
_chemical_formula_sum   'Sm3 Pa1 B16 W4'
_cell_volume   262.67935504
_cell_formula_units_Z   1
loop_
 _symmetry_equiv_pos_site_id
 _symmetry_equiv_pos_as_xyz
  1  'x, y, z'
loop_
 _atom_site_type_symbol
 _atom_site_label
 _atom_site_symmetry_multiplicity
 _atom_site_fract_x
 _atom_site_fract_y
 _atom_site_fract_z
 _atom_site_occupancy
  Sm  Sm0  1  0.000000  0.625635  0.349610  1
  Sm  Sm1  1  0.000000  0.373996  0.649747  1
  Sm  Sm2  1  0.000000  0.126278  0.150859  1
  Pa  Pa3  1  0.000000  0.875692  0.849382  1
  B  B4  1  0.500000  0.783878  0.185781  1
  B  B5  1  0.500000  0.209747  0.815272  1
  B  B6  1  0.500000  0.285008  0.314843  1
  B  B7  1  0.500000  0.715633  0.687234  1
  B  B8  1  0.500000  0.864215  0.030051  1
  B  B9  1  0.500000  0.134533  0.966101  1
  B  B10  1  0.500000  0.364406  0.467840  1
  B  B11  1  0.500000  0.635694  0.532939  1
  B  B12  1  0.500000  0.886287  0.453917  1
  B  B13  1  0.500000  0.112811  0.546834  1
  B  B14  1  0.500000  0.386612  0.045813  1
  B  B15  1  0.500000  0.615021  0.952192  1
  B  B16  1  0.500000  0.975627  0.308410  1
  B  B17  1  0.500000  0.021826  0.693321  1
  B  B18  1  0.500000  0.476112  0.191193  1
  B  B19  1  0.500000  0.529711  0.808521  1
  W  W20  1  0.000000  0.630849  0.083624  1
  W  W21  1  0.000000  0.369160  0.913086  1
  W  W22  1  0.000000  0.129880  0.416560  1
  W  W23  1  0.000000  0.871389  0.586871  1
