# generated using pymatgen
data_KTl2F7
_symmetry_space_group_name_H-M   'P 1'
_cell_length_a   8.55931200
_cell_length_b   6.93529059
_cell_length_c   11.29360700
_cell_angle_alpha   89.97633911
_cell_angle_beta   90.00000000
_cell_angle_gamma   90.00000000
_symmetry_Int_Tables_number   1
_chemical_formula_structural   KTl2F7
_chemical_formula_sum   'K4 Tl8 F28'
_cell_volume   670.40331654
_cell_formula_units_Z   4
loop_
 _symmetry_equiv_pos_site_id
 _symmetry_equiv_pos_as_xyz
  1  'x, y, z'
loop_
 _atom_site_type_symbol
 _atom_site_label
 _atom_site_symmetry_multiplicity
 _atom_site_fract_x
 _atom_site_fract_y
 _atom_site_fract_z
 _atom_site_occupancy
  K  K0  1  0.750000  0.751015  0.251822  1
  K  K1  1  0.250000  0.248985  0.748178  1
  K  K2  1  0.750000  0.244036  0.749513  1
  K  K3  1  0.250000  0.755964  0.250487  1
  Tl  Tl4  1  0.504424  0.250062  0.058667  1
  Tl  Tl5  1  0.004424  0.749938  0.941333  1
  Tl  Tl6  1  0.495576  0.749938  0.941333  1
  Tl  Tl7  1  0.995576  0.250062  0.058667  1
  Tl  Tl8  1  0.995029  0.250222  0.440776  1
  Tl  Tl9  1  0.495029  0.749778  0.559224  1
  Tl  Tl10  1  0.004971  0.749778  0.559224  1
  Tl  Tl11  1  0.504971  0.250222  0.440776  1
  F  F12  1  0.530225  0.937765  0.106810  1
  F  F13  1  0.030225  0.062235  0.893190  1
  F  F14  1  0.469775  0.062235  0.893190  1
  F  F15  1  0.969775  0.937765  0.106810  1
  F  F16  1  0.532529  0.562513  0.106332  1
  F  F17  1  0.032529  0.437487  0.893668  1
  F  F18  1  0.467471  0.437487  0.893668  1
  F  F19  1  0.967471  0.562513  0.106332  1
  F  F20  1  0.520050  0.937546  0.391443  1
  F  F21  1  0.020050  0.062454  0.608557  1
  F  F22  1  0.479950  0.062454  0.608557  1
  F  F23  1  0.979950  0.937546  0.391443  1
  F  F24  1  0.750000  0.249444  0.991264  1
  F  F25  1  0.250000  0.750556  0.008736  1
  F  F26  1  0.750000  0.750803  0.895838  1
  F  F27  1  0.250000  0.249197  0.104162  1
  F  F28  1  0.750000  0.249732  0.501837  1
  F  F29  1  0.250000  0.750268  0.498163  1
  F  F30  1  0.750000  0.750988  0.590121  1
  F  F31  1  0.250000  0.249012  0.409879  1
  F  F32  1  0.933438  0.250334  0.249767  1
  F  F33  1  0.433438  0.749666  0.750233  1
  F  F34  1  0.066562  0.749666  0.750233  1
  F  F35  1  0.566562  0.250334  0.249767  1
  F  F36  1  0.978997  0.562778  0.391508  1
  F  F37  1  0.478997  0.437222  0.608492  1
  F  F38  1  0.021003  0.437222  0.608492  1
  F  F39  1  0.521003  0.562778  0.391508  1
