# generated using pymatgen
data_Pr7Nd3(Sn3P)2
_symmetry_space_group_name_H-M   'P 1'
_cell_length_a   9.45320500
_cell_length_b   9.45320453
_cell_length_c   7.08180200
_cell_angle_alpha   90.00000000
_cell_angle_beta   90.00000000
_cell_angle_gamma   119.99999115
_symmetry_Int_Tables_number   1
_chemical_formula_structural   Pr7Nd3(Sn3P)2
_chemical_formula_sum   'Pr7 Nd3 Sn6 P2'
_cell_volume   548.06564679
_cell_formula_units_Z   1
loop_
 _symmetry_equiv_pos_site_id
 _symmetry_equiv_pos_as_xyz
  1  'x, y, z'
loop_
 _atom_site_type_symbol
 _atom_site_label
 _atom_site_symmetry_multiplicity
 _atom_site_fract_x
 _atom_site_fract_y
 _atom_site_fract_z
 _atom_site_occupancy
  Pr  Pr0  1  0.760494  0.760494  0.250000  1
  Pr  Pr1  1  0.239506  0.000000  0.250000  1
  Pr  Pr2  1  0.000000  0.239506  0.250000  1
  Pr  Pr3  1  0.666667  0.333333  0.499850  1
  Pr  Pr4  1  0.333333  0.666667  0.499850  1
  Pr  Pr5  1  0.333333  0.666667  0.000150  1
  Pr  Pr6  1  0.666667  0.333333  0.000150  1
  Nd  Nd7  1  0.238284  0.238284  0.750000  1
  Nd  Nd8  1  0.761716  0.000000  0.750000  1
  Nd  Nd9  1  0.000000  0.761716  0.750000  1
  Sn  Sn10  1  0.400195  0.400195  0.250000  1
  Sn  Sn11  1  0.599805  0.000000  0.250000  1
  Sn  Sn12  1  0.000000  0.599805  0.250000  1
  Sn  Sn13  1  0.599744  0.599744  0.750000  1
  Sn  Sn14  1  0.400256  0.000000  0.750000  1
  Sn  Sn15  1  0.000000  0.400256  0.750000  1
  P  P16  1  0.000000  0.000000  0.501493  1
  P  P17  1  0.000000  0.000000  0.998507  1
