# generated using pymatgen
data_Ce8Ti12Si15Sn
_symmetry_space_group_name_H-M   'P 1'
_cell_length_a   7.12964963
_cell_length_b   7.09299029
_cell_length_c   13.05813900
_cell_angle_alpha   89.99091247
_cell_angle_beta   89.73960793
_cell_angle_gamma   89.93757446
_symmetry_Int_Tables_number   1
_chemical_formula_structural   Ce8Ti12Si15Sn
_chemical_formula_sum   'Ce8 Ti12 Si15 Sn1'
_cell_volume   660.34986403
_cell_formula_units_Z   1
loop_
 _symmetry_equiv_pos_site_id
 _symmetry_equiv_pos_as_xyz
  1  'x, y, z'
loop_
 _atom_site_type_symbol
 _atom_site_label
 _atom_site_symmetry_multiplicity
 _atom_site_fract_x
 _atom_site_fract_y
 _atom_site_fract_z
 _atom_site_occupancy
  Ce  Ce0  1  0.336102  0.003955  0.461841  1
  Ce  Ce1  1  0.498776  0.826021  0.719911  1
  Ce  Ce2  1  0.510286  0.168954  0.219131  1
  Ce  Ce3  1  0.832111  0.489748  0.280540  1
  Ce  Ce4  1  0.169669  0.517622  0.784688  1
  Ce  Ce5  1  0.670190  0.990541  0.970443  1
  Ce  Ce6  1  0.997071  0.341723  0.524237  1
  Ce  Ce7  1  0.992674  0.668438  0.032771  1
  Ti  Ti8  1  0.328645  0.329006  0.001368  1
  Ti  Ti9  1  0.171854  0.828204  0.249173  1
  Ti  Ti10  1  0.816410  0.172568  0.752231  1
  Ti  Ti11  1  0.670781  0.670747  0.499587  1
  Ti  Ti12  1  0.157308  0.005588  0.885442  1
  Ti  Ti13  1  0.495103  0.655471  0.127836  1
  Ti  Ti14  1  0.512639  0.348366  0.627178  1
  Ti  Ti15  1  0.658549  0.495028  0.875140  1
  Ti  Ti16  1  0.341850  0.507325  0.371756  1
  Ti  Ti17  1  0.842317  0.994378  0.376516  1
  Ti  Ti18  1  0.007742  0.156032  0.122383  1
  Ti  Ti19  1  0.980645  0.829077  0.617354  1
  Si  Si20  1  0.375656  0.701440  0.940981  1
  Si  Si21  1  0.622269  0.300897  0.437366  1
  Si  Si22  1  0.701766  0.373691  0.062313  1
  Si  Si23  1  0.298327  0.626116  0.561460  1
  Si  Si24  1  0.801403  0.873187  0.188713  1
  Si  Si25  1  0.126162  0.199853  0.310289  1
  Si  Si26  1  0.875002  0.803542  0.812067  1
  Si  Si27  1  0.294545  0.957449  0.068971  1
  Si  Si28  1  0.545612  0.789074  0.314970  1
  Si  Si29  1  0.463121  0.210106  0.821347  1
  Si  Si30  1  0.795332  0.537710  0.685328  1
  Si  Si31  1  0.208747  0.457190  0.183368  1
  Si  Si32  1  0.705667  0.043618  0.566112  1
  Si  Si33  1  0.958370  0.293119  0.933471  1
  Si  Si34  1  0.042449  0.710898  0.430140  1
  Sn  Sn35  1  0.194849  0.123317  0.683574  1
