# generated using pymatgen
data_La8PrDy11Sn16
_symmetry_space_group_name_H-M   'P 1'
_cell_length_a   8.17593784
_cell_length_b   8.32252948
_cell_length_c   15.80147200
_cell_angle_alpha   90.01817487
_cell_angle_beta   90.04774452
_cell_angle_gamma   90.05657477
_symmetry_Int_Tables_number   1
_chemical_formula_structural   La8PrDy11Sn16
_chemical_formula_sum   'La8 Pr1 Dy11 Sn16'
_cell_volume   1075.20205168
_cell_formula_units_Z   1
loop_
 _symmetry_equiv_pos_site_id
 _symmetry_equiv_pos_as_xyz
  1  'x, y, z'
loop_
 _atom_site_type_symbol
 _atom_site_label
 _atom_site_symmetry_multiplicity
 _atom_site_fract_x
 _atom_site_fract_y
 _atom_site_fract_z
 _atom_site_occupancy
  La  La0  1  0.860972  0.665003  0.880793  1
  La  La1  1  0.513801  0.320313  0.902787  1
  La  La2  1  0.013174  0.178482  0.594335  1
  La  La3  1  0.487320  0.678162  0.403787  1
  La  La4  1  0.986353  0.821575  0.097608  1
  La  La5  1  0.486992  0.678149  0.097791  1
  La  La6  1  0.987343  0.821883  0.403615  1
  La  La7  1  0.512324  0.320897  0.595493  1
  Pr  Pr8  1  0.013800  0.179307  0.902650  1
  Dy  Dy9  1  0.357984  0.836265  0.876037  1
  Dy  Dy10  1  0.858240  0.663748  0.622695  1
  Dy  Dy11  1  0.641738  0.163347  0.376878  1
  Dy  Dy12  1  0.140254  0.337609  0.122847  1
  Dy  Dy13  1  0.639225  0.162848  0.125864  1
  Dy  Dy14  1  0.142248  0.336173  0.376842  1
  Dy  Dy15  1  0.358914  0.836811  0.621367  1
  Dy  Dy16  1  0.193479  0.502606  0.749846  1
  Dy  Dy17  1  0.692039  0.997889  0.748871  1
  Dy  Dy18  1  0.806638  0.496594  0.251283  1
  Dy  Dy19  1  0.306230  0.002584  0.249782  1
  Sn  Sn20  1  0.304276  0.042341  0.041201  1
  Sn  Sn21  1  0.807492  0.458396  0.457795  1
  Sn  Sn22  1  0.693864  0.958377  0.542026  1
  Sn  Sn23  1  0.205802  0.537793  0.958641  1
  Sn  Sn24  1  0.687528  0.967483  0.958938  1
  Sn  Sn25  1  0.192147  0.541405  0.542120  1
  Sn  Sn26  1  0.306903  0.041115  0.456520  1
  Sn  Sn27  1  0.804065  0.453522  0.047281  1
  Sn  Sn28  1  0.555661  0.624992  0.746773  1
  Sn  Sn29  1  0.060416  0.879170  0.748049  1
  Sn  Sn30  1  0.441424  0.375159  0.250841  1
  Sn  Sn31  1  0.942830  0.124873  0.250496  1
  Sn  Sn32  1  0.320133  0.140568  0.748950  1
  Sn  Sn33  1  0.821729  0.355469  0.747916  1
  Sn  Sn34  1  0.678778  0.858620  0.250865  1
  Sn  Sn35  1  0.177880  0.640469  0.250414  1
