# generated using pymatgen
data_Nd8AsPd23Rh
_symmetry_space_group_name_H-M   'P 1'
_cell_length_a   8.52728800
_cell_length_b   8.52728800
_cell_length_c   8.54232400
_cell_angle_alpha   90.00000000
_cell_angle_beta   90.00000000
_cell_angle_gamma   90.00000000
_symmetry_Int_Tables_number   1
_chemical_formula_structural   Nd8AsPd23Rh
_chemical_formula_sum   'Nd8 As1 Pd23 Rh1'
_cell_volume   621.15201985
_cell_formula_units_Z   1
loop_
 _symmetry_equiv_pos_site_id
 _symmetry_equiv_pos_as_xyz
  1  'x, y, z'
loop_
 _atom_site_type_symbol
 _atom_site_label
 _atom_site_symmetry_multiplicity
 _atom_site_fract_x
 _atom_site_fract_y
 _atom_site_fract_z
 _atom_site_occupancy
  Nd  Nd0  1  0.748388  0.748388  0.253948  1
  Nd  Nd1  1  0.745925  0.254075  0.745748  1
  Nd  Nd2  1  0.254075  0.745925  0.745748  1
  Nd  Nd3  1  0.745925  0.745925  0.745748  1
  Nd  Nd4  1  0.748388  0.251612  0.253948  1
  Nd  Nd5  1  0.254075  0.254075  0.745748  1
  Nd  Nd6  1  0.251612  0.748388  0.253948  1
  Nd  Nd7  1  0.251612  0.251612  0.253948  1
  As  As8  1  0.000000  0.000000  0.006846  1
  Pd  Pd9  1  0.742708  0.000000  0.499514  1
  Pd  Pd10  1  0.739124  0.500000  0.000296  1
  Pd  Pd11  1  0.500000  0.000000  0.738906  1
  Pd  Pd12  1  0.000000  0.742708  0.499514  1
  Pd  Pd13  1  0.500000  0.000000  0.260647  1
  Pd  Pd14  1  0.000000  0.257292  0.499514  1
  Pd  Pd15  1  0.500000  0.739124  0.000296  1
  Pd  Pd16  1  0.253327  0.500000  0.499885  1
  Pd  Pd17  1  0.500000  0.500000  0.746746  1
  Pd  Pd18  1  0.500000  0.500000  0.253887  1
  Pd  Pd19  1  0.500000  0.253327  0.499885  1
  Pd  Pd20  1  0.500000  0.746673  0.499885  1
  Pd  Pd21  1  0.746673  0.500000  0.499885  1
  Pd  Pd22  1  0.290790  0.000000  0.999031  1
  Pd  Pd23  1  0.000000  0.000000  0.716457  1
  Pd  Pd24  1  0.000000  0.500000  0.260647  1
  Pd  Pd25  1  0.000000  0.290790  0.999031  1
  Pd  Pd26  1  0.000000  0.709210  0.999031  1
  Pd  Pd27  1  0.709210  0.000000  0.999031  1
  Pd  Pd28  1  0.260876  0.500000  0.000296  1
  Pd  Pd29  1  0.257292  0.000000  0.499514  1
  Pd  Pd30  1  0.000000  0.500000  0.738906  1
  Pd  Pd31  1  0.500000  0.260876  0.000296  1
  Rh  Rh32  1  0.000000  0.000000  0.283267  1
