# generated using pymatgen
data_Y3Ho(Lu3Sn4)2
_symmetry_space_group_name_H-M   'P 1'
_cell_length_a   7.96648000
_cell_length_b   8.09402803
_cell_length_c   15.28866300
_cell_angle_alpha   90.00491267
_cell_angle_beta   90.00000000
_cell_angle_gamma   90.00000000
_symmetry_Int_Tables_number   1
_chemical_formula_structural   Y3Ho(Lu3Sn4)2
_chemical_formula_sum   'Y6 Ho2 Lu12 Sn16'
_cell_volume   985.82693627
_cell_formula_units_Z   2
loop_
 _symmetry_equiv_pos_site_id
 _symmetry_equiv_pos_as_xyz
  1  'x, y, z'
loop_
 _atom_site_type_symbol
 _atom_site_label
 _atom_site_symmetry_multiplicity
 _atom_site_fract_x
 _atom_site_fract_y
 _atom_site_fract_z
 _atom_site_occupancy
  Y  Y0  1  0.521928  0.320958  0.903240  1
  Y  Y1  1  0.021928  0.179042  0.596760  1
  Y  Y2  1  0.478121  0.679144  0.403262  1
  Y  Y3  1  0.978121  0.820856  0.096738  1
  Y  Y4  1  0.478138  0.679302  0.096673  1
  Y  Y5  1  0.978138  0.820698  0.403327  1
  Ho  Ho6  1  0.521737  0.320971  0.596884  1
  Ho  Ho7  1  0.021737  0.179029  0.903116  1
  Lu  Lu8  1  0.366848  0.837148  0.876774  1
  Lu  Lu9  1  0.866848  0.662852  0.623226  1
  Lu  Lu10  1  0.633105  0.163043  0.376907  1
  Lu  Lu11  1  0.133105  0.336957  0.123093  1
  Lu  Lu12  1  0.633081  0.162919  0.123189  1
  Lu  Lu13  1  0.133081  0.337081  0.376811  1
  Lu  Lu14  1  0.366722  0.837193  0.623275  1
  Lu  Lu15  1  0.866722  0.662807  0.876725  1
  Lu  Lu16  1  0.197517  0.504894  0.750019  1
  Lu  Lu17  1  0.697517  0.995106  0.749981  1
  Lu  Lu18  1  0.802573  0.494999  0.250024  1
  Lu  Lu19  1  0.302573  0.005001  0.249976  1
  Sn  Sn20  1  0.295308  0.038961  0.041362  1
  Sn  Sn21  1  0.795308  0.461039  0.458638  1
  Sn  Sn22  1  0.704354  0.961521  0.541692  1
  Sn  Sn23  1  0.204354  0.538479  0.958308  1
  Sn  Sn24  1  0.705152  0.961660  0.958329  1
  Sn  Sn25  1  0.205152  0.538340  0.541671  1
  Sn  Sn26  1  0.295527  0.038730  0.458432  1
  Sn  Sn27  1  0.795527  0.461270  0.041568  1
  Sn  Sn28  1  0.563305  0.620915  0.749980  1
  Sn  Sn29  1  0.063305  0.879085  0.750020  1
  Sn  Sn30  1  0.436574  0.379159  0.250014  1
  Sn  Sn31  1  0.936574  0.120841  0.249986  1
  Sn  Sn32  1  0.331365  0.148897  0.749935  1
  Sn  Sn33  1  0.831365  0.351103  0.750065  1
  Sn  Sn34  1  0.668648  0.851377  0.250038  1
  Sn  Sn35  1  0.168648  0.648623  0.249962  1
