# generated using pymatgen
data_Dy3Sc3Al14(Si5Tc3)2
_symmetry_space_group_name_H-M   'P 1'
_cell_length_a   8.59382800
_cell_length_b   8.59382718
_cell_length_c   9.28805900
_cell_angle_alpha   90.00000000
_cell_angle_beta   90.00000000
_cell_angle_gamma   119.99999544
_symmetry_Int_Tables_number   1
_chemical_formula_structural   Dy3Sc3Al14(Si5Tc3)2
_chemical_formula_sum   'Dy3 Sc3 Al14 Si10 Tc6'
_cell_volume   594.05805717
_cell_formula_units_Z   1
loop_
 _symmetry_equiv_pos_site_id
 _symmetry_equiv_pos_as_xyz
  1  'x, y, z'
loop_
 _atom_site_type_symbol
 _atom_site_label
 _atom_site_symmetry_multiplicity
 _atom_site_fract_x
 _atom_site_fract_y
 _atom_site_fract_z
 _atom_site_occupancy
  Dy  Dy0  1  0.197191  0.802809  0.250000  1
  Dy  Dy1  1  0.197191  0.394383  0.250000  1
  Dy  Dy2  1  0.605617  0.802809  0.250000  1
  Sc  Sc3  1  0.798870  0.201130  0.750000  1
  Sc  Sc4  1  0.798870  0.597741  0.750000  1
  Sc  Sc5  1  0.402259  0.201130  0.750000  1
  Al  Al6  1  0.162732  0.837268  0.912070  1
  Al  Al7  1  0.162732  0.325464  0.912070  1
  Al  Al8  1  0.674536  0.837268  0.912070  1
  Al  Al9  1  0.834927  0.165073  0.077253  1
  Al  Al10  1  0.834927  0.669854  0.077253  1
  Al  Al11  1  0.330146  0.165073  0.077253  1
  Al  Al12  1  0.834927  0.165073  0.422747  1
  Al  Al13  1  0.834927  0.669854  0.422747  1
  Al  Al14  1  0.330146  0.165073  0.422747  1
  Al  Al15  1  0.162732  0.837268  0.587930  1
  Al  Al16  1  0.162732  0.325464  0.587930  1
  Al  Al17  1  0.674536  0.837268  0.587930  1
  Al  Al18  1  0.000000  0.000000  0.250000  1
  Al  Al19  1  0.000000  0.000000  0.750000  1
  Si  Si20  1  0.565787  0.434213  0.250000  1
  Si  Si21  1  0.565787  0.131576  0.250000  1
  Si  Si22  1  0.868424  0.434213  0.250000  1
  Si  Si23  1  0.436518  0.563482  0.750000  1
  Si  Si24  1  0.436518  0.873036  0.750000  1
  Si  Si25  1  0.126964  0.563482  0.750000  1
  Si  Si26  1  0.333333  0.666667  0.463814  1
  Si  Si27  1  0.666667  0.333333  0.550044  1
  Si  Si28  1  0.666667  0.333333  0.949956  1
  Si  Si29  1  0.333333  0.666667  0.036186  1
  Tc  Tc30  1  0.500563  0.499437  0.503116  1
  Tc  Tc31  1  0.500563  0.001125  0.503116  1
  Tc  Tc32  1  0.998875  0.499437  0.503116  1
  Tc  Tc33  1  0.500563  0.499437  0.996884  1
  Tc  Tc34  1  0.500563  0.001125  0.996884  1
  Tc  Tc35  1  0.998875  0.499437  0.996884  1
