# generated using pymatgen
data_DyY3Al3(Ga5Ir2)3
_symmetry_space_group_name_H-M   'P 1'
_cell_length_a   7.57865917
_cell_length_b   7.57899084
_cell_length_c   9.51883800
_cell_angle_alpha   89.98967880
_cell_angle_beta   89.99032957
_cell_angle_gamma   119.75131485
_symmetry_Int_Tables_number   1
_chemical_formula_structural   DyY3Al3(Ga5Ir2)3
_chemical_formula_sum   'Dy1 Y3 Al3 Ga15 Ir6'
_cell_volume   474.68024754
_cell_formula_units_Z   1
loop_
 _symmetry_equiv_pos_site_id
 _symmetry_equiv_pos_as_xyz
  1  'x, y, z'
loop_
 _atom_site_type_symbol
 _atom_site_label
 _atom_site_symmetry_multiplicity
 _atom_site_fract_x
 _atom_site_fract_y
 _atom_site_fract_z
 _atom_site_occupancy
  Dy  Dy0  1  0.330788  0.000110  0.249162  1
  Y  Y1  1  0.000317  0.669842  0.749921  1
  Y  Y2  1  0.000169  0.330794  0.249188  1
  Y  Y3  1  0.669828  0.000302  0.749918  1
  Al  Al4  1  0.664522  0.664525  0.948070  1
  Al  Al5  1  0.668397  0.668400  0.552164  1
  Al  Al6  1  0.331954  0.331898  0.447975  1
  Ga  Ga7  1  0.126823  0.126822  0.749320  1
  Ga  Ga8  1  0.873465  0.873351  0.249366  1
  Ga  Ga9  1  0.999979  0.335228  0.579408  1
  Ga  Ga10  1  0.000462  0.665204  0.420043  1
  Ga  Ga11  1  0.999741  0.665018  0.079846  1
  Ga  Ga12  1  0.335598  0.001491  0.918635  1
  Ga  Ga13  1  0.001478  0.335597  0.918559  1
  Ga  Ga14  1  0.664829  0.999650  0.079847  1
  Ga  Ga15  1  0.665015  0.000364  0.420043  1
  Ga  Ga16  1  0.335228  0.999992  0.579333  1
  Ga  Ga17  1  0.328892  0.328794  0.064855  1
  Ga  Ga18  1  0.347417  0.549941  0.749826  1
  Ga  Ga19  1  0.656223  0.451278  0.250188  1
  Ga  Ga20  1  0.549938  0.347402  0.749826  1
  Ga  Ga21  1  0.451428  0.656470  0.250187  1
  Ir  Ir22  1  0.669025  0.330404  0.499531  1
  Ir  Ir23  1  0.330438  0.669112  0.499520  1
  Ir  Ir24  1  0.330252  0.672015  0.999274  1
  Ir  Ir25  1  0.671933  0.330222  0.999254  1
  Ir  Ir26  1  0.000203  0.000156  0.499085  1
  Ir  Ir27  1  0.995655  0.995619  0.997657  1
