# generated using pymatgen
data_Nd6DyTmSb20
_symmetry_space_group_name_H-M   'P 1'
_cell_length_a   4.27528400
_cell_length_b   13.47365634
_cell_length_c   15.09265400
_cell_angle_alpha   77.93033935
_cell_angle_beta   90.00000000
_cell_angle_gamma   90.00000000
_symmetry_Int_Tables_number   1
_chemical_formula_structural   Nd6DyTmSb20
_chemical_formula_sum   'Nd6 Dy1 Tm1 Sb20'
_cell_volume   850.17411104
_cell_formula_units_Z   1
loop_
 _symmetry_equiv_pos_site_id
 _symmetry_equiv_pos_as_xyz
  1  'x, y, z'
loop_
 _atom_site_type_symbol
 _atom_site_label
 _atom_site_symmetry_multiplicity
 _atom_site_fract_x
 _atom_site_fract_y
 _atom_site_fract_z
 _atom_site_occupancy
  Nd  Nd0  1  0.750000  0.335496  0.142403  1
  Nd  Nd1  1  0.250000  0.949589  0.361112  1
  Nd  Nd2  1  0.250000  0.664214  0.856749  1
  Nd  Nd3  1  0.250000  0.667876  0.576530  1
  Nd  Nd4  1  0.750000  0.050745  0.639033  1
  Nd  Nd5  1  0.750000  0.331938  0.424275  1
  Dy  Dy6  1  0.750000  0.603447  0.227447  1
  Tm  Tm7  1  0.250000  0.397092  0.772397  1
  Sb  Sb8  1  0.750000  0.850913  0.820035  1
  Sb  Sb9  1  0.250000  0.862105  0.675242  1
  Sb  Sb10  1  0.250000  0.143038  0.478196  1
  Sb  Sb11  1  0.750000  0.284838  0.933520  1
  Sb  Sb12  1  0.250000  0.147786  0.781395  1
  Sb  Sb13  1  0.750000  0.574663  0.441728  1
  Sb  Sb14  1  0.750000  0.138145  0.324794  1
  Sb  Sb15  1  0.250000  0.706054  0.350603  1
  Sb  Sb16  1  0.750000  0.294228  0.650390  1
  Sb  Sb17  1  0.750000  0.853420  0.218946  1
  Sb  Sb18  1  0.250000  0.420284  0.971782  1
  Sb  Sb19  1  0.250000  0.425493  0.559494  1
  Sb  Sb20  1  0.750000  0.570418  0.736922  1
  Sb  Sb21  1  0.250000  0.427012  0.263663  1
  Sb  Sb22  1  0.750000  0.856994  0.521916  1
  Sb  Sb23  1  0.750000  0.031766  0.891296  1
  Sb  Sb24  1  0.250000  0.715305  0.064795  1
  Sb  Sb25  1  0.250000  0.968418  0.108644  1
  Sb  Sb26  1  0.250000  0.149064  0.179940  1
  Sb  Sb27  1  0.750000  0.579657  0.026755  1
