# generated using pymatgen
data_Pu4Re3B16Ru
_symmetry_space_group_name_H-M   'P 1'
_cell_length_a   5.98963920
_cell_length_b   11.60196139
_cell_length_c   3.56933600
_cell_angle_alpha   90.00000000
_cell_angle_beta   90.00000000
_cell_angle_gamma   90.02973991
_symmetry_Int_Tables_number   1
_chemical_formula_structural   Pu4Re3B16Ru
_chemical_formula_sum   'Pu4 Re3 B16 Ru1'
_cell_volume   248.03870325
_cell_formula_units_Z   1
loop_
 _symmetry_equiv_pos_site_id
 _symmetry_equiv_pos_as_xyz
  1  'x, y, z'
loop_
 _atom_site_type_symbol
 _atom_site_label
 _atom_site_symmetry_multiplicity
 _atom_site_fract_x
 _atom_site_fract_y
 _atom_site_fract_z
 _atom_site_occupancy
  Pu  Pu0  1  0.625830  0.350229  0.000000  1
  Pu  Pu1  1  0.373223  0.649709  0.000000  1
  Pu  Pu2  1  0.125973  0.150881  0.000000  1
  Pu  Pu3  1  0.874090  0.849764  0.000000  1
  Re  Re4  1  0.635323  0.090330  0.000000  1
  Re  Re5  1  0.364258  0.909156  0.000000  1
  Re  Re6  1  0.136462  0.409205  0.000000  1
  B  B7  1  0.786533  0.187139  0.500000  1
  B  B8  1  0.212765  0.812804  0.500000  1
  B  B9  1  0.287096  0.313262  0.500000  1
  B  B10  1  0.713822  0.685927  0.500000  1
  B  B11  1  0.865106  0.031730  0.500000  1
  B  B12  1  0.134817  0.968479  0.500000  1
  B  B13  1  0.365433  0.468597  0.500000  1
  B  B14  1  0.635608  0.531666  0.500000  1
  B  B15  1  0.885760  0.453098  0.500000  1
  B  B16  1  0.114334  0.546663  0.500000  1
  B  B17  1  0.385309  0.046848  0.500000  1
  B  B18  1  0.614748  0.953120  0.500000  1
  B  B19  1  0.972607  0.308201  0.500000  1
  B  B20  1  0.026503  0.691561  0.500000  1
  B  B21  1  0.473478  0.191965  0.500000  1
  B  B22  1  0.527769  0.807820  0.500000  1
  Ru  Ru23  1  0.863154  0.591845  0.000000  1
