# generated using pymatgen
data_Tb6Ti6Ga10Ir7
_symmetry_space_group_name_H-M   'P 1'
_cell_length_a   9.07608444
_cell_length_b   9.02353973
_cell_length_c   9.02354200
_cell_angle_alpha   59.61458819
_cell_angle_beta   59.80719080
_cell_angle_gamma   59.80718909
_symmetry_Int_Tables_number   1
_chemical_formula_structural   Tb6Ti6Ga10Ir7
_chemical_formula_sum   'Tb6 Ti6 Ga10 Ir7'
_cell_volume   519.50779017
_cell_formula_units_Z   1
loop_
 _symmetry_equiv_pos_site_id
 _symmetry_equiv_pos_as_xyz
  1  'x, y, z'
loop_
 _atom_site_type_symbol
 _atom_site_label
 _atom_site_symmetry_multiplicity
 _atom_site_fract_x
 _atom_site_fract_y
 _atom_site_fract_z
 _atom_site_occupancy
  Tb  Tb0  1  0.696483  0.708171  0.299139  1
  Tb  Tb1  1  0.296208  0.708171  0.299139  1
  Tb  Tb2  1  0.705916  0.294084  0.294084  1
  Tb  Tb3  1  0.296208  0.299139  0.708171  1
  Tb  Tb4  1  0.696483  0.299139  0.708171  1
  Tb  Tb5  1  0.299618  0.700382  0.700382  1
  Ti  Ti6  1  0.878402  0.879222  0.363975  1
  Ti  Ti7  1  0.878402  0.363975  0.879222  1
  Ti  Ti8  1  0.367947  0.878406  0.878406  1
  Ti  Ti9  1  0.875242  0.878406  0.878406  1
  Ti  Ti10  1  0.123827  0.125068  0.627277  1
  Ti  Ti11  1  0.123827  0.627277  0.125068  1
  Ga  Ga12  1  0.656459  0.115608  0.115608  1
  Ga  Ga13  1  0.112324  0.115608  0.115608  1
  Ga  Ga14  1  0.665014  0.664159  0.005811  1
  Ga  Ga15  1  0.665014  0.005811  0.664159  1
  Ga  Ga16  1  0.004111  0.665350  0.665350  1
  Ga  Ga17  1  0.665190  0.665350  0.665350  1
  Ga  Ga18  1  0.331364  0.331707  0.005567  1
  Ga  Ga19  1  0.331364  0.005567  0.331707  1
  Ga  Ga20  1  0.000620  0.332746  0.332746  1
  Ga  Ga21  1  0.333888  0.332746  0.332746  1
  Ir  Ir22  1  0.014268  0.985732  0.985732  1
  Ir  Ir23  1  0.997188  0.001385  0.506237  1
  Ir  Ir24  1  0.495190  0.001385  0.506237  1
  Ir  Ir25  1  0.998053  0.501947  0.501947  1
  Ir  Ir26  1  0.495190  0.506237  0.001385  1
  Ir  Ir27  1  0.997188  0.506237  0.001385  1
  Ir  Ir28  1  0.499012  0.000988  0.000988  1
