# generated using pymatgen
data_Dy7Er9In4OsRh3
_symmetry_space_group_name_H-M   'P 1'
_cell_length_a   9.60840254
_cell_length_b   9.63852368
_cell_length_c   9.60677414
_cell_angle_alpha   60.04673880
_cell_angle_beta   59.82341824
_cell_angle_gamma   60.04422745
_symmetry_Int_Tables_number   1
_chemical_formula_structural   Dy7Er9In4OsRh3
_chemical_formula_sum   'Dy7 Er9 In4 Os1 Rh3'
_cell_volume   628.69324922
_cell_formula_units_Z   1
loop_
 _symmetry_equiv_pos_site_id
 _symmetry_equiv_pos_as_xyz
  1  'x, y, z'
loop_
 _atom_site_type_symbol
 _atom_site_label
 _atom_site_symmetry_multiplicity
 _atom_site_fract_x
 _atom_site_fract_y
 _atom_site_fract_z
 _atom_site_occupancy
  Dy  Dy0  1  0.187404  0.192034  0.810941  1
  Dy  Dy1  1  0.438979  0.060812  0.061729  1
  Dy  Dy2  1  0.438119  0.062095  0.436931  1
  Dy  Dy3  1  0.058545  0.437698  0.059267  1
  Dy  Dy4  1  0.649583  0.050212  0.648730  1
  Dy  Dy5  1  0.190963  0.808921  0.811158  1
  Dy  Dy6  1  0.061661  0.061498  0.438013  1
  Er  Er7  1  0.810423  0.191788  0.187733  1
  Er  Er8  1  0.810646  0.809339  0.191296  1
  Er  Er9  1  0.649699  0.648991  0.049498  1
  Er  Er10  1  0.651243  0.650620  0.650557  1
  Er  Er11  1  0.058628  0.438224  0.444108  1
  Er  Er12  1  0.048637  0.649620  0.649592  1
  Er  Er13  1  0.809423  0.193179  0.810246  1
  Er  Er14  1  0.444929  0.437775  0.058919  1
  Er  Er15  1  0.190253  0.809079  0.191035  1
  In  In16  1  0.417784  0.747343  0.417511  1
  In  In17  1  0.417556  0.416916  0.748682  1
  In  In18  1  0.748723  0.416930  0.417369  1
  In  In19  1  0.417354  0.416589  0.417064  1
  Os  Os20  1  0.856615  0.427260  0.857293  1
  Rh  Rh21  1  0.858832  0.857569  0.424819  1
  Rh  Rh22  1  0.426160  0.856808  0.858882  1
  Rh  Rh23  1  0.857840  0.858702  0.858627  1
