# generated using pymatgen
data_Nd3Mg2InIrAu2
_symmetry_space_group_name_H-M   'P 1'
_cell_length_a   7.82747999
_cell_length_b   7.76509811
_cell_length_c   4.06638600
_cell_angle_alpha   90.00000000
_cell_angle_beta   90.00000000
_cell_angle_gamma   119.43227303
_symmetry_Int_Tables_number   1
_chemical_formula_structural   Nd3Mg2InIrAu2
_chemical_formula_sum   'Nd3 Mg2 In1 Ir1 Au2'
_cell_volume   215.26049594
_cell_formula_units_Z   1
loop_
 _symmetry_equiv_pos_site_id
 _symmetry_equiv_pos_as_xyz
  1  'x, y, z'
loop_
 _atom_site_type_symbol
 _atom_site_label
 _atom_site_symmetry_multiplicity
 _atom_site_fract_x
 _atom_site_fract_y
 _atom_site_fract_z
 _atom_site_occupancy
  Nd  Nd0  1  0.974914  0.574850  0.500000  1
  Nd  Nd1  1  0.598304  0.016179  0.500000  1
  Nd  Nd2  1  0.427622  0.406982  0.500000  1
  Mg  Mg3  1  0.996491  0.247895  0.000000  1
  Mg  Mg4  1  0.251771  0.000044  0.000000  1
  In  In5  1  0.747555  0.747363  0.000000  1
  Ir  Ir6  1  0.663698  0.327838  0.000000  1
  Au  Au7  1  0.015444  0.014022  0.500000  1
  Au  Au8  1  0.324201  0.664826  0.000000  1
