# generated using pymatgen
data_Dy2YHf3(GaPt)6
_symmetry_space_group_name_H-M   'P 1'
_cell_length_a   7.26510900
_cell_length_b   7.26538307
_cell_length_c   7.36808200
_cell_angle_alpha   90.00000000
_cell_angle_beta   90.00000000
_cell_angle_gamma   120.00137711
_symmetry_Int_Tables_number   1
_chemical_formula_structural   Dy2YHf3(GaPt)6
_chemical_formula_sum   'Dy2 Y1 Hf3 Ga6 Pt6'
_cell_volume   336.80591331
_cell_formula_units_Z   1
loop_
 _symmetry_equiv_pos_site_id
 _symmetry_equiv_pos_as_xyz
  1  'x, y, z'
loop_
 _atom_site_type_symbol
 _atom_site_label
 _atom_site_symmetry_multiplicity
 _atom_site_fract_x
 _atom_site_fract_y
 _atom_site_fract_z
 _atom_site_occupancy
  Dy  Dy0  1  0.590548  0.998902  0.750000  1
  Dy  Dy1  1  0.408347  0.409474  0.750000  1
  Y  Y2  1  0.001121  0.591602  0.750000  1
  Hf  Hf3  1  0.390254  0.388980  0.250000  1
  Hf  Hf4  1  0.998764  0.609738  0.250000  1
  Hf  Hf5  1  0.610984  0.001198  0.250000  1
  Ga  Ga6  1  0.262577  0.999236  0.008070  1
  Ga  Ga7  1  0.262577  0.999236  0.491930  1
  Ga  Ga8  1  0.000751  0.263284  0.491905  1
  Ga  Ga9  1  0.000751  0.263284  0.008095  1
  Ga  Ga10  1  0.736670  0.737411  0.008065  1
  Ga  Ga11  1  0.736670  0.737411  0.491935  1
  Pt  Pt12  1  0.666384  0.333124  0.470435  1
  Pt  Pt13  1  0.000006  0.000501  0.750000  1
  Pt  Pt14  1  0.666384  0.333124  0.029565  1
  Pt  Pt15  1  0.333605  0.666735  0.032808  1
  Pt  Pt16  1  0.333605  0.666735  0.467192  1
  Pt  Pt17  1  0.000000  0.000025  0.250000  1
