# generated using pymatgen
data_Hf2Ta8Si5Ge
_symmetry_space_group_name_H-M   'P 1'
_cell_length_a   7.66936888
_cell_length_b   7.66936845
_cell_length_c   7.66815644
_cell_angle_alpha   128.98331786
_cell_angle_beta   128.93640432
_cell_angle_gamma   75.08690496
_symmetry_Int_Tables_number   1
_chemical_formula_structural   Hf2Ta8Si5Ge
_chemical_formula_sum   'Hf2 Ta8 Si5 Ge1'
_cell_volume   265.51561688
_cell_formula_units_Z   1
loop_
 _symmetry_equiv_pos_site_id
 _symmetry_equiv_pos_as_xyz
  1  'x, y, z'
loop_
 _atom_site_type_symbol
 _atom_site_label
 _atom_site_symmetry_multiplicity
 _atom_site_fract_x
 _atom_site_fract_y
 _atom_site_fract_z
 _atom_site_occupancy
  Hf  Hf0  1  0.016867  0.184993  0.503735  1
  Hf  Hf1  1  0.681258  0.513131  0.496265  1
  Ta  Ta2  1  0.511784  0.017244  0.827075  1
  Ta  Ta3  1  0.190170  0.684710  0.172926  1
  Ta  Ta4  1  0.986782  0.812869  0.504983  1
  Ta  Ta5  1  0.307887  0.481800  0.495017  1
  Ta  Ta6  1  0.483622  0.988399  0.171629  1
  Ta  Ta7  1  0.816769  0.311991  0.828369  1
  Ta  Ta8  1  0.004566  0.004566  0.000000  1
  Ta  Ta9  1  0.502737  0.502737  0.000000  1
  Si  Si10  1  0.246821  0.246821  0.000000  1
  Si  Si11  1  0.371889  0.130494  0.500014  1
  Si  Si12  1  0.630480  0.871876  0.499986  1
  Si  Si13  1  0.869042  0.369225  0.237197  1
  Si  Si14  1  0.132028  0.631845  0.762803  1
  Ge  Ge15  1  0.747299  0.747299  0.000000  1
