# generated using pymatgen
data_Tb14Y2In6CoRh
_symmetry_space_group_name_H-M   'P 1'
_cell_length_a   10.44770400
_cell_length_b   10.44770443
_cell_length_c   7.06672900
_cell_angle_alpha   90.00000000
_cell_angle_beta   90.00000000
_cell_angle_gamma   120.00000496
_symmetry_Int_Tables_number   1
_chemical_formula_structural   Tb14Y2In6CoRh
_chemical_formula_sum   'Tb14 Y2 In6 Co1 Rh1'
_cell_volume   668.02202990
_cell_formula_units_Z   1
loop_
 _symmetry_equiv_pos_site_id
 _symmetry_equiv_pos_as_xyz
  1  'x, y, z'
loop_
 _atom_site_type_symbol
 _atom_site_label
 _atom_site_symmetry_multiplicity
 _atom_site_fract_x
 _atom_site_fract_y
 _atom_site_fract_z
 _atom_site_occupancy
  Tb  Tb0  1  0.466700  0.533300  0.481050  1
  Tb  Tb1  1  0.066598  0.533300  0.481050  1
  Tb  Tb2  1  0.466700  0.933402  0.481050  1
  Tb  Tb3  1  0.536150  0.463850  0.982208  1
  Tb  Tb4  1  0.927698  0.463850  0.982208  1
  Tb  Tb5  1  0.536150  0.072302  0.982208  1
  Tb  Tb6  1  0.822051  0.177949  0.274561  1
  Tb  Tb7  1  0.355898  0.177949  0.274561  1
  Tb  Tb8  1  0.822051  0.644102  0.274561  1
  Tb  Tb9  1  0.175933  0.824067  0.776258  1
  Tb  Tb10  1  0.648132  0.824067  0.776258  1
  Tb  Tb11  1  0.175933  0.351868  0.776258  1
  Tb  Tb12  1  0.333333  0.666667  0.101000  1
  Tb  Tb13  1  0.666667  0.333333  0.591074  1
  Y  Y14  1  0.000000  0.000000  0.494534  1
  Y  Y15  1  0.000000  0.000000  0.997676  1
  In  In16  1  0.162392  0.837608  0.234612  1
  In  In17  1  0.675216  0.837608  0.234612  1
  In  In18  1  0.162392  0.324784  0.234612  1
  In  In19  1  0.836586  0.163414  0.733100  1
  In  In20  1  0.326831  0.163414  0.733100  1
  In  In21  1  0.836586  0.673169  0.733100  1
  Co  Co22  1  0.666667  0.333333  0.207047  1
  Rh  Rh23  1  0.333333  0.666667  0.707851  1
