# generated using pymatgen
data_Li2DyTmSi4
_symmetry_space_group_name_H-M   'P 1'
_cell_length_a   3.77413000
_cell_length_b   7.57351659
_cell_length_c   10.12142117
_cell_angle_alpha   89.93828874
_cell_angle_beta   90.00000000
_cell_angle_gamma   90.00000000
_symmetry_Int_Tables_number   1
_chemical_formula_structural   Li2DyTmSi4
_chemical_formula_sum   'Li4 Dy2 Tm2 Si8'
_cell_volume   289.30482800
_cell_formula_units_Z   2
loop_
 _symmetry_equiv_pos_site_id
 _symmetry_equiv_pos_as_xyz
  1  'x, y, z'
loop_
 _atom_site_type_symbol
 _atom_site_label
 _atom_site_symmetry_multiplicity
 _atom_site_fract_x
 _atom_site_fract_y
 _atom_site_fract_z
 _atom_site_occupancy
  Li  Li0  1  0.250000  0.990157  0.391239  1
  Li  Li1  1  0.750000  0.009843  0.608761  1
  Li  Li2  1  0.250000  0.488767  0.107023  1
  Li  Li3  1  0.750000  0.511233  0.892977  1
  Dy  Dy4  1  0.250000  0.640112  0.636519  1
  Dy  Dy5  1  0.750000  0.359888  0.363481  1
  Tm  Tm6  1  0.250000  0.137743  0.863363  1
  Tm  Tm7  1  0.750000  0.862257  0.136637  1
  Si  Si8  1  0.750000  0.264509  0.064897  1
  Si  Si9  1  0.250000  0.735491  0.935103  1
  Si  Si10  1  0.750000  0.768937  0.431090  1
  Si  Si11  1  0.250000  0.231063  0.568910  1
  Si  Si12  1  0.750000  0.846161  0.821515  1
  Si  Si13  1  0.250000  0.153839  0.178485  1
  Si  Si14  1  0.750000  0.342975  0.681747  1
  Si  Si15  1  0.250000  0.657025  0.318253  1
