# generated using pymatgen
data_Hf18Cr2FeRe6As
_symmetry_space_group_name_H-M   'P 1'
_cell_length_a   8.56790601
_cell_length_b   8.56790619
_cell_length_c   8.50941800
_cell_angle_alpha   90.00000000
_cell_angle_beta   90.00000000
_cell_angle_gamma   120.00800975
_symmetry_Int_Tables_number   1
_chemical_formula_structural   Hf18Cr2FeRe6As
_chemical_formula_sum   'Hf18 Cr2 Fe1 Re6 As1'
_cell_volume   540.93468224
_cell_formula_units_Z   1
loop_
 _symmetry_equiv_pos_site_id
 _symmetry_equiv_pos_as_xyz
  1  'x, y, z'
loop_
 _atom_site_type_symbol
 _atom_site_label
 _atom_site_symmetry_multiplicity
 _atom_site_fract_x
 _atom_site_fract_y
 _atom_site_fract_z
 _atom_site_occupancy
  Hf  Hf0  1  0.799776  0.599616  0.557483  1
  Hf  Hf1  1  0.799849  0.200151  0.557315  1
  Hf  Hf2  1  0.400384  0.200224  0.557483  1
  Hf  Hf3  1  0.190189  0.380435  0.452633  1
  Hf  Hf4  1  0.190174  0.809826  0.452623  1
  Hf  Hf5  1  0.619565  0.809811  0.452633  1
  Hf  Hf6  1  0.190189  0.380435  0.047367  1
  Hf  Hf7  1  0.190174  0.809826  0.047377  1
  Hf  Hf8  1  0.619565  0.809811  0.047367  1
  Hf  Hf9  1  0.799776  0.599616  0.942517  1
  Hf  Hf10  1  0.799849  0.200151  0.942685  1
  Hf  Hf11  1  0.400384  0.200224  0.942517  1
  Hf  Hf12  1  0.459499  0.919068  0.750000  1
  Hf  Hf13  1  0.459453  0.540547  0.750000  1
  Hf  Hf14  1  0.080932  0.540501  0.750000  1
  Hf  Hf15  1  0.541801  0.083726  0.250000  1
  Hf  Hf16  1  0.541820  0.458180  0.250000  1
  Hf  Hf17  1  0.916274  0.458199  0.250000  1
  Cr  Cr18  1  0.000026  0.999974  0.502103  1
  Cr  Cr19  1  0.000026  0.999974  0.997897  1
  Fe  Fe20  1  0.667017  0.332983  0.750000  1
  Re  Re21  1  0.108004  0.215948  0.750000  1
  Re  Re22  1  0.107974  0.892026  0.750000  1
  Re  Re23  1  0.784052  0.891996  0.750000  1
  Re  Re24  1  0.891870  0.783805  0.250000  1
  Re  Re25  1  0.891900  0.108100  0.250000  1
  Re  Re26  1  0.216195  0.108130  0.250000  1
  As  As27  1  0.333284  0.666716  0.250000  1
