# generated using pymatgen
data_Hf3Zr3Ti4(Sb3C)2
_symmetry_space_group_name_H-M   'P 1'
_cell_length_a   8.24350100
_cell_length_b   8.24350014
_cell_length_c   5.66110500
_cell_angle_alpha   90.00000000
_cell_angle_beta   90.00000000
_cell_angle_gamma   120.00000747
_symmetry_Int_Tables_number   1
_chemical_formula_structural   Hf3Zr3Ti4(Sb3C)2
_chemical_formula_sum   'Hf3 Zr3 Ti4 Sb6 C2'
_cell_volume   333.16176462
_cell_formula_units_Z   1
loop_
 _symmetry_equiv_pos_site_id
 _symmetry_equiv_pos_as_xyz
  1  'x, y, z'
loop_
 _atom_site_type_symbol
 _atom_site_label
 _atom_site_symmetry_multiplicity
 _atom_site_fract_x
 _atom_site_fract_y
 _atom_site_fract_z
 _atom_site_occupancy
  Hf  Hf0  1  0.778107  0.778107  0.250000  1
  Hf  Hf1  1  0.221893  0.000000  0.250000  1
  Hf  Hf2  1  0.000000  0.221893  0.250000  1
  Zr  Zr3  1  0.225005  0.225005  0.750000  1
  Zr  Zr4  1  0.774995  0.000000  0.750000  1
  Zr  Zr5  1  0.000000  0.774995  0.750000  1
  Ti  Ti6  1  0.666667  0.333333  0.499321  1
  Ti  Ti7  1  0.333333  0.666667  0.499321  1
  Ti  Ti8  1  0.333333  0.666667  0.000679  1
  Ti  Ti9  1  0.666667  0.333333  0.000679  1
  Sb  Sb10  1  0.408934  0.408934  0.250000  1
  Sb  Sb11  1  0.591066  0.000000  0.250000  1
  Sb  Sb12  1  0.000000  0.591066  0.250000  1
  Sb  Sb13  1  0.591135  0.591135  0.750000  1
  Sb  Sb14  1  0.408865  0.000000  0.750000  1
  Sb  Sb15  1  0.000000  0.408865  0.750000  1
  C  C16  1  0.000000  0.000000  0.495810  1
  C  C17  1  0.000000  0.000000  0.004190  1
