# generated using pymatgen
data_PrPa(Al3Ir)3
_symmetry_space_group_name_H-M   'P 1'
_cell_length_a   7.65008914
_cell_length_b   7.64308364
_cell_length_c   9.45839500
_cell_angle_alpha   90.00000000
_cell_angle_beta   90.00000000
_cell_angle_gamma   119.62751285
_symmetry_Int_Tables_number   1
_chemical_formula_structural   PrPa(Al3Ir)3
_chemical_formula_sum   'Pr2 Pa2 Al18 Ir6'
_cell_volume   480.72983138
_cell_formula_units_Z   2
loop_
 _symmetry_equiv_pos_site_id
 _symmetry_equiv_pos_as_xyz
  1  'x, y, z'
loop_
 _atom_site_type_symbol
 _atom_site_label
 _atom_site_symmetry_multiplicity
 _atom_site_fract_x
 _atom_site_fract_y
 _atom_site_fract_z
 _atom_site_occupancy
  Pr  Pr0  1  0.669179  0.993835  0.250000  1
  Pr  Pr1  1  0.330821  0.006165  0.750000  1
  Pa  Pa2  1  0.997104  0.670984  0.250000  1
  Pa  Pa3  1  0.002896  0.329016  0.750000  1
  Al  Al4  1  0.131310  0.128097  0.250000  1
  Al  Al5  1  0.868690  0.871903  0.750000  1
  Al  Al6  1  0.002020  0.333795  0.075275  1
  Al  Al7  1  0.997980  0.666205  0.924725  1
  Al  Al8  1  0.997980  0.666205  0.575275  1
  Al  Al9  1  0.335751  0.002788  0.425207  1
  Al  Al10  1  0.002020  0.333795  0.424725  1
  Al  Al11  1  0.664249  0.997212  0.574793  1
  Al  Al12  1  0.664249  0.997212  0.925207  1
  Al  Al13  1  0.335751  0.002788  0.074793  1
  Al  Al14  1  0.335177  0.334783  0.551265  1
  Al  Al15  1  0.664823  0.665217  0.448735  1
  Al  Al16  1  0.664823  0.665217  0.051265  1
  Al  Al17  1  0.335177  0.334783  0.948735  1
  Al  Al18  1  0.337876  0.545591  0.250000  1
  Al  Al19  1  0.662124  0.454409  0.750000  1
  Al  Al20  1  0.548695  0.343737  0.250000  1
  Al  Al21  1  0.451305  0.656263  0.750000  1
  Ir  Ir22  1  0.676754  0.331455  0.999799  1
  Ir  Ir23  1  0.323246  0.668545  0.000201  1
  Ir  Ir24  1  0.323246  0.668545  0.499799  1
  Ir  Ir25  1  0.676754  0.331455  0.500201  1
  Ir  Ir26  1  0.000000  0.000000  0.000000  1
  Ir  Ir27  1  0.000000  0.000000  0.500000  1
