# generated using pymatgen
data_TbNb9Se16
_symmetry_space_group_name_H-M   'P 1'
_cell_length_a   7.00604500
_cell_length_b   7.00604579
_cell_length_c   13.89299000
_cell_angle_alpha   90.00000000
_cell_angle_beta   90.00000000
_cell_angle_gamma   120.00001042
_symmetry_Int_Tables_number   1
_chemical_formula_structural   TbNb9Se16
_chemical_formula_sum   'Tb1 Nb9 Se16'
_cell_volume   590.57111725
_cell_formula_units_Z   1
loop_
 _symmetry_equiv_pos_site_id
 _symmetry_equiv_pos_as_xyz
  1  'x, y, z'
loop_
 _atom_site_type_symbol
 _atom_site_label
 _atom_site_symmetry_multiplicity
 _atom_site_fract_x
 _atom_site_fract_y
 _atom_site_fract_z
 _atom_site_occupancy
  Tb  Tb0  1  0.000000  0.000000  0.000000  1
  Nb  Nb1  1  0.000000  0.000000  0.260186  1
  Nb  Nb2  1  0.000000  0.000000  0.739814  1
  Nb  Nb3  1  0.506539  0.013078  0.261142  1
  Nb  Nb4  1  0.493461  0.986922  0.738858  1
  Nb  Nb5  1  0.986922  0.493461  0.261142  1
  Nb  Nb6  1  0.013078  0.506539  0.738858  1
  Nb  Nb7  1  0.506539  0.493461  0.261142  1
  Nb  Nb8  1  0.493461  0.506539  0.738858  1
  Nb  Nb9  1  0.000000  0.000000  0.500000  1
  Se  Se10  1  0.333333  0.666667  0.615157  1
  Se  Se11  1  0.666667  0.333333  0.384843  1
  Se  Se12  1  0.666667  0.333333  0.136188  1
  Se  Se13  1  0.333333  0.666667  0.863812  1
  Se  Se14  1  0.170032  0.340063  0.140502  1
  Se  Se15  1  0.829968  0.659937  0.859498  1
  Se  Se16  1  0.659937  0.829968  0.140502  1
  Se  Se17  1  0.831851  0.663703  0.619172  1
  Se  Se18  1  0.340063  0.170032  0.859498  1
  Se  Se19  1  0.168149  0.336297  0.380828  1
  Se  Se20  1  0.170032  0.829968  0.140502  1
  Se  Se21  1  0.336297  0.168149  0.619172  1
  Se  Se22  1  0.829968  0.170032  0.859498  1
  Se  Se23  1  0.663703  0.831851  0.380828  1
  Se  Se24  1  0.831851  0.168149  0.619172  1
  Se  Se25  1  0.168149  0.831851  0.380828  1
