# generated using pymatgen
data_Sr4CeTi5O15
_symmetry_space_group_name_H-M   'P 1'
_cell_length_a   3.94065000
_cell_length_b   3.94065000
_cell_length_c   19.74618600
_cell_angle_alpha   90.00000000
_cell_angle_beta   90.00000000
_cell_angle_gamma   90.00000000
_symmetry_Int_Tables_number   1
_chemical_formula_structural   Sr4CeTi5O15
_chemical_formula_sum   'Sr4 Ce1 Ti5 O15'
_cell_volume   306.63304130
_cell_formula_units_Z   1
loop_
 _symmetry_equiv_pos_site_id
 _symmetry_equiv_pos_as_xyz
  1  'x, y, z'
loop_
 _atom_site_type_symbol
 _atom_site_label
 _atom_site_symmetry_multiplicity
 _atom_site_fract_x
 _atom_site_fract_y
 _atom_site_fract_z
 _atom_site_occupancy
  Sr  Sr0  1  0.000000  0.000000  0.205110  1
  Sr  Sr1  1  0.000000  0.000000  0.401713  1
  Sr  Sr2  1  0.000000  0.000000  0.598287  1
  Sr  Sr3  1  0.000000  0.000000  0.794890  1
  Ce  Ce4  1  0.000000  0.000000  0.000000  1
  Ti  Ti5  1  0.500000  0.500000  0.100309  1
  Ti  Ti6  1  0.500000  0.500000  0.301474  1
  Ti  Ti7  1  0.500000  0.500000  0.500000  1
  Ti  Ti8  1  0.500000  0.500000  0.698526  1
  Ti  Ti9  1  0.500000  0.500000  0.899691  1
  O  O10  1  0.500000  0.500000  0.000000  1
  O  O11  1  0.500000  0.500000  0.196608  1
  O  O12  1  0.500000  0.500000  0.399040  1
  O  O13  1  0.500000  0.500000  0.600960  1
  O  O14  1  0.500000  0.500000  0.803392  1
  O  O15  1  0.500000  0.000000  0.092436  1
  O  O16  1  0.500000  0.000000  0.297910  1
  O  O17  1  0.500000  0.000000  0.500000  1
  O  O18  1  0.500000  0.000000  0.702090  1
  O  O19  1  0.500000  0.000000  0.907564  1
  O  O20  1  0.000000  0.500000  0.092436  1
  O  O21  1  0.000000  0.500000  0.297910  1
  O  O22  1  0.000000  0.500000  0.500000  1
  O  O23  1  0.000000  0.500000  0.702090  1
  O  O24  1  0.000000  0.500000  0.907564  1
