# generated using pymatgen
data_Lu4SiMo2Os5
_symmetry_space_group_name_H-M   'P 1'
_cell_length_a   5.24740042
_cell_length_b   5.35133453
_cell_length_c   8.81090900
_cell_angle_alpha   90.00000000
_cell_angle_beta   90.00000000
_cell_angle_gamma   120.28874240
_symmetry_Int_Tables_number   1
_chemical_formula_structural   Lu4SiMo2Os5
_chemical_formula_sum   'Lu4 Si1 Mo2 Os5'
_cell_volume   213.64202244
_cell_formula_units_Z   1
loop_
 _symmetry_equiv_pos_site_id
 _symmetry_equiv_pos_as_xyz
  1  'x, y, z'
loop_
 _atom_site_type_symbol
 _atom_site_label
 _atom_site_symmetry_multiplicity
 _atom_site_fract_x
 _atom_site_fract_y
 _atom_site_fract_z
 _atom_site_occupancy
  Lu  Lu0  1  0.341789  0.671155  0.436225  1
  Lu  Lu1  1  0.665048  0.327804  0.561024  1
  Lu  Lu2  1  0.665048  0.327804  0.938976  1
  Lu  Lu3  1  0.341789  0.671155  0.063775  1
  Si  Si4  1  0.164437  0.339351  0.750000  1
  Mo  Mo5  1  0.156534  0.825306  0.750000  1
  Mo  Mo6  1  0.338644  0.175947  0.250000  1
  Os  Os7  1  0.837380  0.668416  0.250000  1
  Os  Os8  1  0.637806  0.818449  0.750000  1
  Os  Os9  1  0.011127  0.997538  0.995994  1
  Os  Os10  1  0.829272  0.179536  0.250000  1
  Os  Os11  1  0.011127  0.997538  0.504006  1
