# generated using pymatgen
data_Nd3DyFe4(P3Rh4)4
_symmetry_space_group_name_H-M   'P 1'
_cell_length_a   3.89911500
_cell_length_b   10.81694616
_cell_length_c   12.48583818
_cell_angle_alpha   89.98065143
_cell_angle_beta   90.00000000
_cell_angle_gamma   90.00000000
_symmetry_Int_Tables_number   1
_chemical_formula_structural   Nd3DyFe4(P3Rh4)4
_chemical_formula_sum   'Nd3 Dy1 Fe4 P12 Rh16'
_cell_volume   526.60913620
_cell_formula_units_Z   1
loop_
 _symmetry_equiv_pos_site_id
 _symmetry_equiv_pos_as_xyz
  1  'x, y, z'
loop_
 _atom_site_type_symbol
 _atom_site_label
 _atom_site_symmetry_multiplicity
 _atom_site_fract_x
 _atom_site_fract_y
 _atom_site_fract_z
 _atom_site_occupancy
  Nd  Nd0  1  0.250000  0.583147  0.708888  1
  Nd  Nd1  1  0.250000  0.916964  0.208870  1
  Nd  Nd2  1  0.750000  0.416716  0.291453  1
  Dy  Dy3  1  0.750000  0.083021  0.791501  1
  Fe  Fe4  1  0.250000  0.461088  0.932571  1
  Fe  Fe5  1  0.250000  0.037495  0.435303  1
  Fe  Fe6  1  0.750000  0.536938  0.065654  1
  Fe  Fe7  1  0.750000  0.964022  0.568531  1
  P  P8  1  0.250000  0.429705  0.103853  1
  P  P9  1  0.250000  0.069895  0.606791  1
  P  P10  1  0.750000  0.568648  0.894662  1
  P  P11  1  0.750000  0.930571  0.396984  1
  P  P12  1  0.250000  0.271362  0.869186  1
  P  P13  1  0.250000  0.225870  0.371638  1
  P  P14  1  0.750000  0.726417  0.127978  1
  P  P15  1  0.750000  0.774342  0.629126  1
  P  P16  1  0.250000  0.603657  0.390149  1
  P  P17  1  0.250000  0.899115  0.889358  1
  P  P18  1  0.750000  0.397446  0.609528  1
  P  P19  1  0.750000  0.103428  0.110237  1
  Rh  Rh20  1  0.250000  0.717381  0.990419  1
  Rh  Rh21  1  0.250000  0.783283  0.492618  1
  Rh  Rh22  1  0.750000  0.282785  0.008156  1
  Rh  Rh23  1  0.750000  0.217192  0.509188  1
  Rh  Rh24  1  0.250000  0.408549  0.482976  1
  Rh  Rh25  1  0.250000  0.092208  0.977794  1
  Rh  Rh26  1  0.750000  0.592126  0.517540  1
  Rh  Rh27  1  0.750000  0.909635  0.017207  1
  Rh  Rh28  1  0.250000  0.227584  0.173698  1
  Rh  Rh29  1  0.250000  0.267864  0.675592  1
  Rh  Rh30  1  0.750000  0.770919  0.825212  1
  Rh  Rh31  1  0.750000  0.729611  0.325595  1
  Rh  Rh32  1  0.250000  0.883823  0.701815  1
  Rh  Rh33  1  0.250000  0.618879  0.199433  1
  Rh  Rh34  1  0.750000  0.118895  0.300925  1
  Rh  Rh35  1  0.750000  0.379418  0.799572  1
