# generated using pymatgen
data_K2VFeS4
_symmetry_space_group_name_H-M   'P 1'
_cell_length_a   13.30563218
_cell_length_b   11.88847790
_cell_length_c   7.10133925
_cell_angle_alpha   84.99694818
_cell_angle_beta   62.88430394
_cell_angle_gamma   32.11874995
_symmetry_Int_Tables_number   1
_chemical_formula_structural   K2VFeS4
_chemical_formula_sum   'K4 V2 Fe2 S8'
_cell_volume   412.21369759
_cell_formula_units_Z   2
loop_
 _symmetry_equiv_pos_site_id
 _symmetry_equiv_pos_as_xyz
  1  'x, y, z'
loop_
 _atom_site_type_symbol
 _atom_site_label
 _atom_site_symmetry_multiplicity
 _atom_site_fract_x
 _atom_site_fract_y
 _atom_site_fract_z
 _atom_site_occupancy
  K  K0  1  0.678310  0.678310  0.321690  1
  K  K1  1  0.928310  0.928310  0.571690  1
  K  K2  1  0.321690  0.321690  0.678310  1
  K  K3  1  0.571690  0.571690  0.928310  1
  V  V4  1  0.750000  0.750000  0.750000  1
  V  V5  1  0.500000  0.500000  0.500000  1
  Fe  Fe6  1  0.000000  0.000000  0.000000  1
  Fe  Fe7  1  0.250000  0.250000  0.250000  1
  S  S8  1  0.033483  0.359208  0.659398  1
  S  S9  1  0.216517  0.890792  0.590602  1
  S  S10  1  0.890792  0.216517  0.302090  1
  S  S11  1  0.590602  0.302090  0.216517  1
  S  S12  1  0.947910  0.659398  0.359208  1
  S  S13  1  0.659398  0.947910  0.033483  1
  S  S14  1  0.359208  0.033483  0.947910  1
  S  S15  1  0.302090  0.590602  0.890792  1
