# generated using pymatgen
data_Li2Y3Ho2P12Ru17
_symmetry_space_group_name_H-M   'P 1'
_cell_length_a   12.72622200
_cell_length_b   12.51674513
_cell_length_c   3.96717000
_cell_angle_alpha   90.00000000
_cell_angle_beta   90.00000000
_cell_angle_gamma   120.55517510
_symmetry_Int_Tables_number   1
_chemical_formula_structural   Li2Y3Ho2P12Ru17
_chemical_formula_sum   'Li2 Y3 Ho2 P12 Ru17'
_cell_volume   544.18364068
_cell_formula_units_Z   1
loop_
 _symmetry_equiv_pos_site_id
 _symmetry_equiv_pos_as_xyz
  1  'x, y, z'
loop_
 _atom_site_type_symbol
 _atom_site_label
 _atom_site_symmetry_multiplicity
 _atom_site_fract_x
 _atom_site_fract_y
 _atom_site_fract_z
 _atom_site_occupancy
  Li  Li0  1  0.000578  0.562346  0.000000  1
  Li  Li1  1  0.438232  0.437654  0.000000  1
  Y  Y2  1  0.000612  0.181667  0.500000  1
  Y  Y3  1  0.818944  0.818333  0.500000  1
  Y  Y4  1  0.182044  0.000000  0.500000  1
  Ho  Ho5  1  0.663612  0.325821  0.000000  1
  Ho  Ho6  1  0.337790  0.674179  0.000000  1
  P  P7  1  0.998718  0.809276  0.000000  1
  P  P8  1  0.189442  0.190724  0.000000  1
  P  P9  1  0.818108  0.000000  0.000000  1
  P  P10  1  0.691745  0.169878  0.500000  1
  P  P11  1  0.816820  0.515123  0.500000  1
  P  P12  1  0.477587  0.301284  0.500000  1
  P  P13  1  0.176303  0.698716  0.500000  1
  P  P14  1  0.521866  0.830122  0.500000  1
  P  P15  1  0.301696  0.484877  0.500000  1
  P  P16  1  0.002408  0.370697  0.000000  1
  P  P17  1  0.631711  0.629303  0.000000  1
  P  P18  1  0.376296  0.000000  0.000000  1
  Ru  Ru19  1  0.556828  0.000000  0.000000  1
  Ru  Ru20  1  0.998108  0.711902  0.500000  1
  Ru  Ru21  1  0.286205  0.288098  0.500000  1
  Ru  Ru22  1  0.717898  0.000000  0.500000  1
  Ru  Ru23  1  0.809019  0.185767  0.000000  1
  Ru  Ru24  1  0.812081  0.614875  0.000000  1
  Ru  Ru25  1  0.377460  0.191563  0.000000  1
  Ru  Ru26  1  0.185897  0.808437  0.000000  1
  Ru  Ru27  1  0.623253  0.814233  0.000000  1
  Ru  Ru28  1  0.197208  0.385125  0.000000  1
  Ru  Ru29  1  0.873436  0.366177  0.500000  1
  Ru  Ru30  1  0.629212  0.510138  0.500000  1
  Ru  Ru31  1  0.491873  0.124437  0.500000  1
  Ru  Ru32  1  0.367436  0.875563  0.500000  1
  Ru  Ru33  1  0.507258  0.633823  0.500000  1
  Ru  Ru34  1  0.119074  0.489862  0.500000  1
  Ru  Ru35  1  0.003240  0.000000  0.000000  1
