# generated using pymatgen
data_Rb2Te3RuO12
_symmetry_space_group_name_H-M   'P 1'
_cell_length_a   7.21320071
_cell_length_b   7.21320057
_cell_length_c   7.20934895
_cell_angle_alpha   61.27814914
_cell_angle_beta   61.27815030
_cell_angle_gamma   61.23490640
_symmetry_Int_Tables_number   1
_chemical_formula_structural   Rb2Te3RuO12
_chemical_formula_sum   'Rb2 Te3 Ru1 O12'
_cell_volume   272.77527180
_cell_formula_units_Z   1
loop_
 _symmetry_equiv_pos_site_id
 _symmetry_equiv_pos_as_xyz
  1  'x, y, z'
loop_
 _atom_site_type_symbol
 _atom_site_label
 _atom_site_symmetry_multiplicity
 _atom_site_fract_x
 _atom_site_fract_y
 _atom_site_fract_z
 _atom_site_occupancy
  Rb  Rb0  1  0.876667  0.877603  0.369587  1
  Rb  Rb1  1  0.122397  0.123333  0.630413  1
  Te  Te2  1  0.995233  0.504391  0.000114  1
  Te  Te3  1  0.495609  0.004767  0.999886  1
  Te  Te4  1  0.495653  0.504347  0.500000  1
  Ru  Ru5  1  0.495697  0.504303  0.000000  1
  O  O6  1  0.173226  0.182162  0.071330  1
  O  O7  1  0.570944  0.580095  0.673176  1
  O  O8  1  0.168829  0.580080  0.074755  1
  O  O9  1  0.567610  0.181677  0.677289  1
  O  O10  1  0.571441  0.177628  0.075391  1
  O  O11  1  0.173041  0.576704  0.677623  1
  O  O12  1  0.817838  0.826774  0.928670  1
  O  O13  1  0.419905  0.429056  0.326824  1
  O  O14  1  0.822372  0.428559  0.924609  1
  O  O15  1  0.423296  0.826959  0.322377  1
  O  O16  1  0.419920  0.831171  0.925245  1
  O  O17  1  0.818323  0.432390  0.322711  1
