# generated using pymatgen
data_Tb4DyIr2
_symmetry_space_group_name_H-M   'P 1'
_cell_length_a   6.50109382
_cell_length_b   7.22217951
_cell_length_c   8.62750873
_cell_angle_alpha   96.66923281
_cell_angle_beta   112.13347428
_cell_angle_gamma   89.99999183
_symmetry_Int_Tables_number   1
_chemical_formula_structural   Tb4DyIr2
_chemical_formula_sum   'Tb8 Dy2 Ir4'
_cell_volume   372.26768611
_cell_formula_units_Z   2
loop_
 _symmetry_equiv_pos_site_id
 _symmetry_equiv_pos_as_xyz
  1  'x, y, z'
loop_
 _atom_site_type_symbol
 _atom_site_label
 _atom_site_symmetry_multiplicity
 _atom_site_fract_x
 _atom_site_fract_y
 _atom_site_fract_z
 _atom_site_occupancy
  Tb  Tb0  1  0.792260  0.083284  0.814497  1
  Tb  Tb1  1  0.977764  0.416716  0.185503  1
  Tb  Tb2  1  0.207740  0.916716  0.185503  1
  Tb  Tb3  1  0.022236  0.583284  0.814497  1
  Tb  Tb4  1  0.210169  0.184449  0.561188  1
  Tb  Tb5  1  0.648981  0.315551  0.438812  1
  Tb  Tb6  1  0.789831  0.815551  0.438812  1
  Tb  Tb7  1  0.351019  0.684449  0.561188  1
  Dy  Dy8  1  0.429473  0.250000  0.000000  1
  Dy  Dy9  1  0.570527  0.750000  0.000000  1
  Ir  Ir10  1  0.600685  0.425680  0.777697  1
  Ir  Ir11  1  0.822988  0.074320  0.222303  1
  Ir  Ir12  1  0.399315  0.574320  0.222303  1
  Ir  Ir13  1  0.177012  0.925680  0.777697  1
