# generated using pymatgen
data_LiU4Tl3(AsO6)4
_symmetry_space_group_name_H-M   'P 1'
_cell_length_a   5.81996407
_cell_length_b   12.13586055
_cell_length_c   11.25479760
_cell_angle_alpha   109.72436460
_cell_angle_beta   104.85824047
_cell_angle_gamma   105.38074866
_symmetry_Int_Tables_number   1
_chemical_formula_structural   LiU4Tl3(AsO6)4
_chemical_formula_sum   'Li1 U4 Tl3 As4 O24'
_cell_volume   667.02342310
_cell_formula_units_Z   1
loop_
 _symmetry_equiv_pos_site_id
 _symmetry_equiv_pos_as_xyz
  1  'x, y, z'
loop_
 _atom_site_type_symbol
 _atom_site_label
 _atom_site_symmetry_multiplicity
 _atom_site_fract_x
 _atom_site_fract_y
 _atom_site_fract_z
 _atom_site_occupancy
  Li  Li0  1  0.148317  0.619968  0.720981  1
  U  U1  1  0.009591  0.753180  0.010097  1
  U  U2  1  0.001252  0.730395  0.503121  1
  U  U3  1  0.023202  0.279595  0.505748  1
  U  U4  1  0.984184  0.235286  0.981820  1
  Tl  Tl5  1  0.676428  0.392258  0.237036  1
  Tl  Tl6  1  0.711902  0.911282  0.306749  1
  Tl  Tl7  1  0.298963  0.100349  0.704443  1
  As  As8  1  0.289035  0.600908  0.241473  1
  As  As9  1  0.293586  0.118843  0.247999  1
  As  As10  1  0.701191  0.872490  0.754885  1
  As  As11  1  0.739765  0.403800  0.759610  1
  O  O12  1  0.722061  0.212202  0.043269  1
  O  O13  1  0.230874  0.683448  0.148114  1
  O  O14  1  0.200775  0.171786  0.126545  1
  O  O15  1  0.788021  0.758352  0.098784  1
  O  O16  1  0.184469  0.441599  0.140919  1
  O  O17  1  0.268326  0.965027  0.172500  1
  O  O18  1  0.133047  0.615852  0.353291  1
  O  O19  1  0.616733  0.663288  0.330890  1
  O  O20  1  0.614384  0.216871  0.348711  1
  O  O21  1  0.106687  0.133187  0.345401  1
  O  O22  1  0.136726  0.865851  0.468401  1
  O  O23  1  0.145548  0.405459  0.458576  1
  O  O24  1  0.883351  0.600606  0.549635  1
  O  O25  1  0.893249  0.155250  0.555999  1
  O  O26  1  0.860750  0.849654  0.644524  1
  O  O27  1  0.376942  0.776608  0.673095  1
  O  O28  1  0.425778  0.320825  0.643246  1
  O  O29  1  0.955913  0.427475  0.680063  1
  O  O30  1  0.750421  0.030164  0.816279  1
  O  O31  1  0.759538  0.547420  0.868216  1
  O  O32  1  0.247013  0.256350  0.920462  1
  O  O33  1  0.815139  0.833889  0.884228  1
  O  O34  1  0.790702  0.312462  0.843873  1
  O  O35  1  0.216137  0.738024  0.911020  1
