# generated using pymatgen
data_NaCu(SO4)2
_symmetry_space_group_name_H-M   'P 1'
_cell_length_a   8.34157100
_cell_length_b   4.69150915
_cell_length_c   9.39962305
_cell_angle_alpha   65.82331520
_cell_angle_beta   90.00000000
_cell_angle_gamma   90.00000000
_symmetry_Int_Tables_number   1
_chemical_formula_structural   NaCu(SO4)2
_chemical_formula_sum   'Na2 Cu2 S4 O16'
_cell_volume   335.58479167
_cell_formula_units_Z   2
loop_
 _symmetry_equiv_pos_site_id
 _symmetry_equiv_pos_as_xyz
  1  'x, y, z'
loop_
 _atom_site_type_symbol
 _atom_site_label
 _atom_site_symmetry_multiplicity
 _atom_site_fract_x
 _atom_site_fract_y
 _atom_site_fract_z
 _atom_site_occupancy
  Na  Na0  1  0.000000  0.000000  0.500000  1
  Na  Na1  1  0.500000  0.000000  0.000000  1
  Cu  Cu2  1  0.000000  0.000000  0.000000  1
  Cu  Cu3  1  0.500000  0.000000  0.500000  1
  S  S4  1  0.199076  0.606674  0.890203  1
  S  S5  1  0.300924  0.606674  0.390203  1
  S  S6  1  0.800924  0.393326  0.109797  1
  S  S7  1  0.699076  0.393326  0.609797  1
  O  O8  1  0.366308  0.661655  0.530434  1
  O  O9  1  0.633692  0.338345  0.469566  1
  O  O10  1  0.133692  0.661655  0.030434  1
  O  O11  1  0.187798  0.248814  0.944341  1
  O  O12  1  0.687798  0.751186  0.555659  1
  O  O13  1  0.603615  0.222391  0.746908  1
  O  O14  1  0.812202  0.751186  0.055659  1
  O  O15  1  0.866308  0.338345  0.969566  1
  O  O16  1  0.371038  0.667797  0.876540  1
  O  O17  1  0.396385  0.777609  0.253092  1
  O  O18  1  0.896385  0.222391  0.246908  1
  O  O19  1  0.128962  0.667797  0.376540  1
  O  O20  1  0.312202  0.248814  0.444341  1
  O  O21  1  0.628962  0.332203  0.123460  1
  O  O22  1  0.103615  0.777609  0.753092  1
  O  O23  1  0.871038  0.332203  0.623460  1
