# generated using pymatgen
data_CePr3(CdAu2)2
_symmetry_space_group_name_H-M   'P 1'
_cell_length_a   8.15377743
_cell_length_b   8.15377743
_cell_length_c   3.86508500
_cell_angle_alpha   90.00000000
_cell_angle_beta   90.00000000
_cell_angle_gamma   90.42633707
_symmetry_Int_Tables_number   1
_chemical_formula_structural   CePr3(CdAu2)2
_chemical_formula_sum   'Ce1 Pr3 Cd2 Au4'
_cell_volume   256.95953129
_cell_formula_units_Z   1
loop_
 _symmetry_equiv_pos_site_id
 _symmetry_equiv_pos_as_xyz
  1  'x, y, z'
loop_
 _atom_site_type_symbol
 _atom_site_label
 _atom_site_symmetry_multiplicity
 _atom_site_fract_x
 _atom_site_fract_y
 _atom_site_fract_z
 _atom_site_occupancy
  Ce  Ce0  1  0.672271  0.172271  0.500000  1
  Pr  Pr1  1  0.326552  0.826552  0.500000  1
  Pr  Pr2  1  0.173205  0.325968  0.500000  1
  Pr  Pr3  1  0.825968  0.673205  0.500000  1
  Cd  Cd4  1  0.998822  0.001103  0.000000  1
  Cd  Cd5  1  0.501103  0.498822  0.000000  1
  Au  Au6  1  0.125328  0.625328  0.000000  1
  Au  Au7  1  0.868383  0.368383  0.000000  1
  Au  Au8  1  0.629916  0.878452  0.000000  1
  Au  Au9  1  0.378452  0.129916  0.000000  1
