# generated using pymatgen
data_LiV2FeF12
_symmetry_space_group_name_H-M   'P 1'
_cell_length_a   5.53354700
_cell_length_b   5.36531282
_cell_length_c   9.37002000
_cell_angle_alpha   55.51678713
_cell_angle_beta   90.00000000
_cell_angle_gamma   90.00000000
_symmetry_Int_Tables_number   1
_chemical_formula_structural   LiV2FeF12
_chemical_formula_sum   'Li1 V2 Fe1 F12'
_cell_volume   229.30858241
_cell_formula_units_Z   1
loop_
 _symmetry_equiv_pos_site_id
 _symmetry_equiv_pos_as_xyz
  1  'x, y, z'
loop_
 _atom_site_type_symbol
 _atom_site_label
 _atom_site_symmetry_multiplicity
 _atom_site_fract_x
 _atom_site_fract_y
 _atom_site_fract_z
 _atom_site_occupancy
  Li  Li0  1  0.500000  0.500000  0.000000  1
  V  V1  1  0.000000  0.000000  0.000000  1
  V  V2  1  0.500000  0.000000  0.500000  1
  Fe  Fe3  1  0.000000  0.500000  0.500000  1
  F  F4  1  0.005806  0.193941  0.745218  1
  F  F5  1  0.260916  0.762180  0.025401  1
  F  F6  1  0.284462  0.312985  0.468445  1
  F  F7  1  0.785771  0.715733  0.025606  1
  F  F8  1  0.779055  0.245232  0.469085  1
  F  F9  1  0.505759  0.832246  0.727616  1
  F  F10  1  0.494241  0.167754  0.272384  1
  F  F11  1  0.220945  0.754768  0.530915  1
  F  F12  1  0.214229  0.284267  0.974394  1
  F  F13  1  0.715538  0.687015  0.531555  1
  F  F14  1  0.739084  0.237820  0.974599  1
  F  F15  1  0.994194  0.806059  0.254782  1
