# generated using pymatgen
data_Tb7Dy(InRu)2
_symmetry_space_group_name_H-M   'P 1'
_cell_length_a   9.67853046
_cell_length_b   9.69619793
_cell_length_c   9.67837682
_cell_angle_alpha   59.93906519
_cell_angle_beta   59.84596750
_cell_angle_gamma   59.93960064
_symmetry_Int_Tables_number   1
_chemical_formula_structural   Tb7Dy(InRu)2
_chemical_formula_sum   'Tb14 Dy2 In4 Ru4'
_cell_volume   640.90311979
_cell_formula_units_Z   2
loop_
 _symmetry_equiv_pos_site_id
 _symmetry_equiv_pos_as_xyz
  1  'x, y, z'
loop_
 _atom_site_type_symbol
 _atom_site_label
 _atom_site_symmetry_multiplicity
 _atom_site_fract_x
 _atom_site_fract_y
 _atom_site_fract_z
 _atom_site_occupancy
  Tb  Tb0  1  0.691922  0.306921  0.309680  1
  Tb  Tb1  1  0.691922  0.691478  0.309680  1
  Tb  Tb2  1  0.308536  0.691496  0.308472  1
  Tb  Tb3  1  0.941044  0.941619  0.559493  1
  Tb  Tb4  1  0.151316  0.153035  0.542613  1
  Tb  Tb5  1  0.556897  0.943033  0.557036  1
  Tb  Tb6  1  0.152461  0.152682  0.152211  1
  Tb  Tb7  1  0.309730  0.307080  0.691929  1
  Tb  Tb8  1  0.941044  0.557845  0.559493  1
  Tb  Tb9  1  0.558957  0.557425  0.941633  1
  Tb  Tb10  1  0.558957  0.941986  0.941633  1
  Tb  Tb11  1  0.940991  0.558819  0.941369  1
  Tb  Tb12  1  0.152461  0.542645  0.152211  1
  Tb  Tb13  1  0.309730  0.691260  0.691929  1
  Dy  Dy14  1  0.692070  0.307872  0.692186  1
  Dy  Dy15  1  0.542947  0.152961  0.151132  1
  In  In16  1  0.917647  0.917515  0.247322  1
  In  In17  1  0.247239  0.917333  0.918097  1
  In  In18  1  0.917573  0.246468  0.917754  1
  In  In19  1  0.917573  0.918204  0.917754  1
  Ru  Ru20  1  0.361404  0.362424  0.360168  1
  Ru  Ru21  1  0.916433  0.362250  0.359069  1
  Ru  Ru22  1  0.359739  0.361645  0.916972  1
  Ru  Ru23  1  0.361404  0.916005  0.360168  1
