# generated using pymatgen
data_TaPSe6
_symmetry_space_group_name_H-M   'P 1'
_cell_length_a   13.94357969
_cell_length_b   13.94357964
_cell_length_c   13.94357900
_cell_angle_alpha   105.14400223
_cell_angle_beta   105.14400218
_cell_angle_gamma   118.52278445
_symmetry_Int_Tables_number   1
_chemical_formula_structural   TaPSe6
_chemical_formula_sum   'Ta8 P8 Se48'
_cell_volume   2047.28106714
_cell_formula_units_Z   8
loop_
 _symmetry_equiv_pos_site_id
 _symmetry_equiv_pos_as_xyz
  1  'x, y, z'
loop_
 _atom_site_type_symbol
 _atom_site_label
 _atom_site_symmetry_multiplicity
 _atom_site_fract_x
 _atom_site_fract_y
 _atom_site_fract_z
 _atom_site_occupancy
  Ta  Ta0  1  0.072853  0.572853  0.645705  1
  Ta  Ta1  1  0.822852  0.677147  0.000000  1
  Ta  Ta2  1  0.677147  0.822852  0.000000  1
  Ta  Ta3  1  0.927148  0.427148  0.354295  1
  Ta  Ta4  1  0.177147  0.177147  0.854295  1
  Ta  Ta5  1  0.427148  0.072853  0.500000  1
  Ta  Ta6  1  0.572853  0.927148  0.500000  1
  Ta  Ta7  1  0.322852  0.322852  0.145705  1
  P  P8  1  0.875001  0.555571  0.180572  1
  P  P9  1  0.874999  0.055571  0.680571  1
  P  P10  1  0.305574  0.125000  0.680574  1
  P  P11  1  0.444426  0.625000  0.319426  1
  P  P12  1  0.374999  0.194429  0.319428  1
  P  P13  1  0.375001  0.694429  0.819429  1
  P  P14  1  0.944426  0.625000  0.819426  1
  P  P15  1  0.805574  0.125000  0.180574  1
  Se  Se16  1  0.178408  0.081165  0.999273  1
  Se  Se17  1  0.214158  0.498675  0.717690  1
  Se  Se18  1  0.748677  0.530986  0.784518  1
  Se  Se19  1  0.746467  0.964158  0.215482  1
  Se  Se20  1  0.780985  0.496467  0.282310  1
  Se  Se21  1  0.001324  0.285842  0.282309  1
  Se  Se22  1  0.969015  0.751325  0.215482  1
  Se  Se23  1  0.535843  0.753533  0.784518  1
  Se  Se24  1  0.168108  0.570866  0.499273  1
  Se  Se25  1  0.820866  0.821593  0.902757  1
  Se  Se26  1  0.918838  0.918108  0.097245  1
  Se  Se27  1  0.071592  0.668835  0.500727  1
  Se  Se28  1  0.929136  0.331892  0.500730  1
  Se  Se29  1  0.678408  0.679134  0.097243  1
  Se  Se30  1  0.581892  0.581165  0.902757  1
  Se  Se31  1  0.831164  0.428407  0.499273  1
  Se  Se32  1  0.081892  0.179134  0.000727  1
  Se  Se33  1  0.429134  0.928407  0.597243  1
  Se  Se34  1  0.331162  0.831892  0.402755  1
  Se  Se35  1  0.003532  0.719014  0.717691  1
  Se  Se36  1  0.320864  0.418108  0.999270  1
  Se  Se37  1  0.571592  0.070866  0.402757  1
  Se  Se38  1  0.668108  0.168835  0.597243  1
  Se  Se39  1  0.418836  0.321593  0.000727  1
  Se  Se40  1  0.508676  0.718753  0.502856  1
  Se  Se41  1  0.968753  0.965897  0.710077  1
  Se  Se42  1  0.255821  0.258676  0.289924  1
  Se  Se43  1  0.215896  0.005820  0.497143  1
  Se  Se44  1  0.781247  0.991324  0.497145  1
  Se  Se45  1  0.534104  0.531247  0.289924  1
  Se  Se46  1  0.241323  0.244180  0.710075  1
  Se  Se47  1  0.494179  0.284103  0.502855  1
  Se  Se48  1  0.741324  0.031247  0.997144  1
  Se  Se49  1  0.281247  0.784103  0.789923  1
  Se  Se50  1  0.994179  0.491324  0.210076  1
  Se  Se51  1  0.034104  0.744180  0.002857  1
  Se  Se52  1  0.468753  0.758676  0.002855  1
  Se  Se53  1  0.715896  0.218753  0.210076  1
  Se  Se54  1  0.008677  0.505820  0.789925  1
  Se  Se55  1  0.755821  0.465897  0.997145  1
  Se  Se56  1  0.246468  0.030986  0.782309  1
  Se  Se57  1  0.501323  0.219014  0.715482  1
  Se  Se58  1  0.503533  0.785842  0.284518  1
  Se  Se59  1  0.469015  0.253533  0.217690  1
  Se  Se60  1  0.248676  0.464158  0.217691  1
  Se  Se61  1  0.280985  0.998675  0.284518  1
  Se  Se62  1  0.714157  0.996467  0.715482  1
  Se  Se63  1  0.035842  0.251325  0.782310  1
