# generated using pymatgen
data_Nd8Tm9Si16Ag3
_symmetry_space_group_name_H-M   'P 1'
_cell_length_a   7.73118402
_cell_length_b   7.73118402
_cell_length_c   13.68675387
_cell_angle_alpha   90.23410513
_cell_angle_beta   89.76589487
_cell_angle_gamma   89.94517541
_symmetry_Int_Tables_number   1
_chemical_formula_structural   Nd8Tm9Si16Ag3
_chemical_formula_sum   'Nd8 Tm9 Si16 Ag3'
_cell_volume   818.05974411
_cell_formula_units_Z   1
loop_
 _symmetry_equiv_pos_site_id
 _symmetry_equiv_pos_as_xyz
  1  'x, y, z'
loop_
 _atom_site_type_symbol
 _atom_site_label
 _atom_site_symmetry_multiplicity
 _atom_site_fract_x
 _atom_site_fract_y
 _atom_site_fract_z
 _atom_site_occupancy
  Nd  Nd0  1  0.638605  0.000201  0.460235  1
  Nd  Nd1  1  0.354756  0.005393  0.958682  1
  Nd  Nd2  1  0.000201  0.638605  0.539765  1
  Nd  Nd3  1  0.498578  0.865152  0.216059  1
  Nd  Nd4  1  0.499398  0.137984  0.707376  1
  Nd  Nd5  1  0.865152  0.498578  0.783941  1
  Nd  Nd6  1  0.137984  0.499398  0.292624  1
  Nd  Nd7  1  0.005393  0.354756  0.041318  1
  Tm  Tm8  1  0.504931  0.362146  0.128131  1
  Tm  Tm9  1  0.004955  0.129072  0.623936  1
  Tm  Tm10  1  0.872157  0.000707  0.870036  1
  Tm  Tm11  1  0.129072  0.004955  0.376064  1
  Tm  Tm12  1  0.493052  0.633148  0.622770  1
  Tm  Tm13  1  0.362146  0.504931  0.871869  1
  Tm  Tm14  1  0.633148  0.493052  0.377230  1
  Tm  Tm15  1  0.000707  0.872157  0.129964  1
  Tm  Tm16  1  0.684000  0.684000  0.000000  1
  Si  Si17  1  0.286950  0.919448  0.560153  1
  Si  Si18  1  0.708211  0.067136  0.058892  1
  Si  Si19  1  0.919448  0.286950  0.439847  1
  Si  Si20  1  0.417067  0.216047  0.314319  1
  Si  Si21  1  0.578417  0.790588  0.809947  1
  Si  Si22  1  0.216047  0.417067  0.685681  1
  Si  Si23  1  0.790588  0.578417  0.190053  1
  Si  Si24  1  0.067136  0.708211  0.941108  1
  Si  Si25  1  0.777590  0.855946  0.677007  1
  Si  Si26  1  0.221513  0.146455  0.183516  1
  Si  Si27  1  0.855946  0.777590  0.322993  1
  Si  Si28  1  0.354930  0.719659  0.429858  1
  Si  Si29  1  0.649816  0.292263  0.934093  1
  Si  Si30  1  0.719659  0.354930  0.570142  1
  Si  Si31  1  0.292263  0.649816  0.065907  1
  Si  Si32  1  0.146455  0.221513  0.816484  1
  Ag  Ag33  1  0.313823  0.313823  0.500000  1
  Ag  Ag34  1  0.183387  0.816519  0.749693  1
  Ag  Ag35  1  0.816519  0.183387  0.250307  1
