# generated using pymatgen
data_GdHo(SBr)2
_symmetry_space_group_name_H-M   'P 1'
_cell_length_a   4.04313800
_cell_length_b   5.36571800
_cell_length_c   9.70901100
_cell_angle_alpha   90.00000000
_cell_angle_beta   90.00000000
_cell_angle_gamma   90.00000000
_symmetry_Int_Tables_number   1
_chemical_formula_structural   GdHo(SBr)2
_chemical_formula_sum   'Gd1 Ho1 S2 Br2'
_cell_volume   210.63056961
_cell_formula_units_Z   1
loop_
 _symmetry_equiv_pos_site_id
 _symmetry_equiv_pos_as_xyz
  1  'x, y, z'
loop_
 _atom_site_type_symbol
 _atom_site_label
 _atom_site_symmetry_multiplicity
 _atom_site_fract_x
 _atom_site_fract_y
 _atom_site_fract_z
 _atom_site_occupancy
  Gd  Gd0  1  0.500000  0.000000  0.878901  1
  Ho  Ho1  1  0.000000  0.500000  0.120729  1
  S  S2  1  0.500000  0.500000  0.931061  1
  S  S3  1  0.000000  0.000000  0.074810  1
  Br  Br4  1  0.000000  0.000000  0.671749  1
  Br  Br5  1  0.500000  0.500000  0.322750  1
