# generated using pymatgen
data_DyHf(Al3Rh)3
_symmetry_space_group_name_H-M   'P 1'
_cell_length_a   7.51154797
_cell_length_b   7.49354533
_cell_length_c   9.33968600
_cell_angle_alpha   90.00000000
_cell_angle_beta   90.00000000
_cell_angle_gamma   119.70052101
_symmetry_Int_Tables_number   1
_chemical_formula_structural   DyHf(Al3Rh)3
_chemical_formula_sum   'Dy2 Hf2 Al18 Rh6'
_cell_volume   456.64887152
_cell_formula_units_Z   2
loop_
 _symmetry_equiv_pos_site_id
 _symmetry_equiv_pos_as_xyz
  1  'x, y, z'
loop_
 _atom_site_type_symbol
 _atom_site_label
 _atom_site_symmetry_multiplicity
 _atom_site_fract_x
 _atom_site_fract_y
 _atom_site_fract_z
 _atom_site_occupancy
  Dy  Dy0  1  0.670246  0.994167  0.750000  1
  Dy  Dy1  1  0.329754  0.005833  0.250000  1
  Hf  Hf2  1  0.995013  0.670603  0.750000  1
  Hf  Hf3  1  0.004987  0.329397  0.250000  1
  Al  Al4  1  0.124984  0.122761  0.750000  1
  Al  Al5  1  0.875016  0.877239  0.250000  1
  Al  Al6  1  0.999626  0.337502  0.575275  1
  Al  Al7  1  0.000374  0.662498  0.424725  1
  Al  Al8  1  0.000374  0.662498  0.075275  1
  Al  Al9  1  0.331435  0.997391  0.921264  1
  Al  Al10  1  0.999626  0.337502  0.924725  1
  Al  Al11  1  0.668565  0.002609  0.078736  1
  Al  Al12  1  0.668565  0.002609  0.421264  1
  Al  Al13  1  0.331435  0.997391  0.578736  1
  Al  Al14  1  0.330765  0.333690  0.056576  1
  Al  Al15  1  0.669235  0.666310  0.943424  1
  Al  Al16  1  0.669235  0.666310  0.556576  1
  Al  Al17  1  0.330765  0.333690  0.443424  1
  Al  Al18  1  0.333450  0.548036  0.750000  1
  Al  Al19  1  0.666550  0.451964  0.250000  1
  Al  Al20  1  0.555365  0.343854  0.750000  1
  Al  Al21  1  0.444635  0.656146  0.250000  1
  Rh  Rh22  1  0.672871  0.327809  0.499486  1
  Rh  Rh23  1  0.327129  0.672191  0.500514  1
  Rh  Rh24  1  0.327129  0.672191  0.999486  1
  Rh  Rh25  1  0.672871  0.327809  0.000514  1
  Rh  Rh26  1  0.000000  0.000000  0.500000  1
  Rh  Rh27  1  0.000000  0.000000  0.000000  1
