# generated using pymatgen
data_La2Tb(LuSi2)2
_symmetry_space_group_name_H-M   'P 1'
_cell_length_a   7.77461612
_cell_length_b   7.77284099
_cell_length_c   14.33501399
_cell_angle_alpha   89.76898512
_cell_angle_beta   89.99359201
_cell_angle_gamma   90.01917138
_symmetry_Int_Tables_number   1
_chemical_formula_structural   La2Tb(LuSi2)2
_chemical_formula_sum   'La8 Tb4 Lu8 Si16'
_cell_volume   866.27005478
_cell_formula_units_Z   4
loop_
 _symmetry_equiv_pos_site_id
 _symmetry_equiv_pos_as_xyz
  1  'x, y, z'
loop_
 _atom_site_type_symbol
 _atom_site_label
 _atom_site_symmetry_multiplicity
 _atom_site_fract_x
 _atom_site_fract_y
 _atom_site_fract_z
 _atom_site_occupancy
  La  La0  1  0.991208  0.644481  0.038857  1
  La  La1  1  0.008999  0.355994  0.541693  1
  La  La2  1  0.644556  0.992639  0.959563  1
  La  La3  1  0.145180  0.508997  0.789993  1
  La  La4  1  0.856173  0.491822  0.290462  1
  La  La5  1  0.506695  0.144145  0.208057  1
  La  La6  1  0.492983  0.855232  0.711113  1
  La  La7  1  0.356439  0.006424  0.459588  1
  Tb  Tb8  1  0.360312  0.491623  0.375514  1
  Tb  Tb9  1  0.858472  0.006986  0.374491  1
  Tb  Tb10  1  0.992502  0.139693  0.123203  1
  Tb  Tb11  1  0.006434  0.859746  0.626621  1
  Lu  Lu12  1  0.639544  0.505889  0.874364  1
  Lu  Lu13  1  0.493550  0.359491  0.626402  1
  Lu  Lu14  1  0.505360  0.640893  0.123622  1
  Lu  Lu15  1  0.140695  0.995156  0.875473  1
  Lu  Lu16  1  0.682511  0.680450  0.500596  1
  Lu  Lu17  1  0.819039  0.183081  0.750588  1
  Lu  Lu18  1  0.182832  0.817159  0.249586  1
  Lu  Lu19  1  0.319610  0.319963  0.999436  1
  Si  Si20  1  0.062263  0.710112  0.437100  1
  Si  Si21  1  0.936568  0.290704  0.934616  1
  Si  Si22  1  0.709595  0.064887  0.564544  1
  Si  Si23  1  0.211966  0.438574  0.185380  1
  Si  Si24  1  0.786421  0.560241  0.687682  1
  Si  Si25  1  0.436957  0.213019  0.813779  1
  Si  Si26  1  0.561981  0.786799  0.311463  1
  Si  Si27  1  0.289223  0.935661  0.062029  1
  Si  Si28  1  0.850154  0.796174  0.812917  1
  Si  Si29  1  0.152149  0.201787  0.307860  1
  Si  Si30  1  0.793031  0.846371  0.188967  1
  Si  Si31  1  0.299075  0.649112  0.561243  1
  Si  Si32  1  0.699761  0.352511  0.057786  1
  Si  Si33  1  0.651358  0.297437  0.444093  1
  Si  Si34  1  0.350940  0.704584  0.939127  1
  Si  Si35  1  0.205466  0.152164  0.692193  1
