# generated using pymatgen
data_Ta4TiGa2SiB
_symmetry_space_group_name_H-M   'P 1'
_cell_length_a   7.70392052
_cell_length_b   7.73280668
_cell_length_c   5.26426512
_cell_angle_alpha   90.06196326
_cell_angle_beta   89.87560130
_cell_angle_gamma   119.87650627
_symmetry_Int_Tables_number   1
_chemical_formula_structural   Ta4TiGa2SiB
_chemical_formula_sum   'Ta8 Ti2 Ga4 Si2 B2'
_cell_volume   271.92892220
_cell_formula_units_Z   2
loop_
 _symmetry_equiv_pos_site_id
 _symmetry_equiv_pos_as_xyz
  1  'x, y, z'
loop_
 _atom_site_type_symbol
 _atom_site_label
 _atom_site_symmetry_multiplicity
 _atom_site_fract_x
 _atom_site_fract_y
 _atom_site_fract_z
 _atom_site_occupancy
  Ta  Ta0  1  0.247864  0.000000  0.250548  1
  Ta  Ta1  1  0.752136  0.000000  0.749452  1
  Ta  Ta2  1  0.994451  0.239059  0.252617  1
  Ta  Ta3  1  0.005549  0.760941  0.747383  1
  Ta  Ta4  1  0.755392  0.760941  0.252617  1
  Ta  Ta5  1  0.244608  0.239059  0.747383  1
  Ta  Ta6  1  0.662275  0.324550  0.500000  1
  Ta  Ta7  1  0.337725  0.675450  0.500000  1
  Ti  Ti8  1  0.337583  0.675166  0.000000  1
  Ti  Ti9  1  0.662417  0.324834  0.000000  1
  Ga  Ga10  1  0.997234  0.595718  0.242694  1
  Ga  Ga11  1  0.002766  0.404282  0.757306  1
  Ga  Ga12  1  0.401516  0.404282  0.242694  1
  Ga  Ga13  1  0.598484  0.595718  0.757306  1
  Si  Si14  1  0.595759  0.000000  0.243301  1
  Si  Si15  1  0.404241  0.000000  0.756699  1
  B  B16  1  0.000000  0.000000  0.000000  1
  B  B17  1  0.000000  0.000000  0.500000  1
