# generated using pymatgen
data_MgZr4(Re7Tc)3
_symmetry_space_group_name_H-M   'P 1'
_cell_length_a   8.49007245
_cell_length_b   8.47773776
_cell_length_c   8.47773700
_cell_angle_alpha   109.44172855
_cell_angle_beta   109.50069860
_cell_angle_gamma   109.50069506
_symmetry_Int_Tables_number   1
_chemical_formula_structural   MgZr4(Re7Tc)3
_chemical_formula_sum   'Mg1 Zr4 Re21 Tc3'
_cell_volume   469.56023080
_cell_formula_units_Z   1
loop_
 _symmetry_equiv_pos_site_id
 _symmetry_equiv_pos_as_xyz
  1  'x, y, z'
loop_
 _atom_site_type_symbol
 _atom_site_label
 _atom_site_symmetry_multiplicity
 _atom_site_fract_x
 _atom_site_fract_y
 _atom_site_fract_z
 _atom_site_occupancy
  Mg  Mg0  1  0.999007  0.000000  0.000000  1
  Zr  Zr1  1  0.631339  0.000000  0.000000  1
  Zr  Zr2  1  0.999631  0.633092  0.000000  1
  Zr  Zr3  1  0.999631  0.000000  0.633092  1
  Zr  Zr4  1  0.366538  0.366908  0.366908  1
  Re  Re5  1  0.674752  0.395011  0.000000  1
  Re  Re6  1  0.001105  0.396315  0.675645  1
  Re  Re7  1  0.325459  0.720670  0.324355  1
  Re  Re8  1  0.325459  0.324355  0.720670  1
  Re  Re9  1  0.001105  0.675645  0.396315  1
  Re  Re10  1  0.674752  0.000000  0.395011  1
  Re  Re11  1  0.604789  0.603685  0.279330  1
  Re  Re12  1  0.279742  0.604989  0.604989  1
  Re  Re13  1  0.604789  0.279330  0.603685  1
  Re  Re14  1  0.375053  0.193924  0.000000  1
  Re  Re15  1  0.181129  0.806076  0.806076  1
  Re  Re16  1  0.375053  0.000000  0.193924  1
  Re  Re17  1  0.193569  0.376899  0.000000  1
  Re  Re18  1  0.000590  0.376178  0.193175  1
  Re  Re19  1  0.807415  0.183002  0.806825  1
  Re  Re20  1  0.807415  0.806825  0.183002  1
  Re  Re21  1  0.000590  0.193175  0.376178  1
  Re  Re22  1  0.193569  0.000000  0.376899  1
  Re  Re23  1  0.624413  0.623822  0.816998  1
  Re  Re24  1  0.816671  0.623101  0.623101  1
  Re  Re25  1  0.624413  0.816998  0.623822  1
  Tc  Tc26  1  0.396194  0.676562  0.000000  1
  Tc  Tc27  1  0.719633  0.323438  0.323438  1
  Tc  Tc28  1  0.396194  0.000000  0.676562  1
