# generated using pymatgen
data_La8Nd11SmSi16
_symmetry_space_group_name_H-M   'P 1'
_cell_length_a   7.93628214
_cell_length_b   7.93628214
_cell_length_c   15.35296948
_cell_angle_alpha   89.97983356
_cell_angle_beta   90.02016644
_cell_angle_gamma   90.00824641
_symmetry_Int_Tables_number   1
_chemical_formula_structural   La8Nd11SmSi16
_chemical_formula_sum   'La8 Nd11 Sm1 Si16'
_cell_volume   967.00011625
_cell_formula_units_Z   1
loop_
 _symmetry_equiv_pos_site_id
 _symmetry_equiv_pos_as_xyz
  1  'x, y, z'
loop_
 _atom_site_type_symbol
 _atom_site_label
 _atom_site_symmetry_multiplicity
 _atom_site_fract_x
 _atom_site_fract_y
 _atom_site_fract_z
 _atom_site_occupancy
  La  La0  1  0.986923  0.622194  0.052381  1
  La  La1  1  0.013252  0.377733  0.552370  1
  La  La2  1  0.622194  0.986923  0.947619  1
  La  La3  1  0.122262  0.513006  0.802375  1
  La  La4  1  0.877703  0.487094  0.302570  1
  La  La5  1  0.513006  0.122262  0.197625  1
  La  La6  1  0.487094  0.877703  0.697430  1
  La  La7  1  0.377733  0.013252  0.447630  1
  Nd  Nd8  1  0.373101  0.481218  0.373488  1
  Nd  Nd9  1  0.873230  0.018874  0.376747  1
  Nd  Nd10  1  0.981148  0.126784  0.123395  1
  Nd  Nd11  1  0.018874  0.873230  0.623253  1
  Nd  Nd12  1  0.626706  0.518958  0.873274  1
  Nd  Nd13  1  0.481218  0.373101  0.626512  1
  Nd  Nd14  1  0.518958  0.626706  0.126726  1
  Nd  Nd15  1  0.126784  0.981148  0.876605  1
  Nd  Nd16  1  0.808488  0.191415  0.749977  1
  Nd  Nd17  1  0.191415  0.808488  0.250023  1
  Nd  Nd18  1  0.308442  0.308442  0.000000  1
  Sm  Sm19  1  0.690919  0.690919  0.500000  1
  Si  Si20  1  0.078427  0.713663  0.439727  1
  Si  Si21  1  0.920513  0.286174  0.939472  1
  Si  Si22  1  0.713663  0.078427  0.560273  1
  Si  Si23  1  0.213921  0.420562  0.189529  1
  Si  Si24  1  0.785793  0.580207  0.688587  1
  Si  Si25  1  0.420562  0.213921  0.810471  1
  Si  Si26  1  0.580207  0.785793  0.311413  1
  Si  Si27  1  0.286174  0.920513  0.060528  1
  Si  Si28  1  0.830787  0.805867  0.796010  1
  Si  Si29  1  0.169189  0.194212  0.296196  1
  Si  Si30  1  0.805867  0.830787  0.203990  1
  Si  Si31  1  0.306784  0.669474  0.545917  1
  Si  Si32  1  0.694075  0.330906  0.046217  1
  Si  Si33  1  0.669474  0.306784  0.454083  1
  Si  Si34  1  0.330906  0.694075  0.953783  1
  Si  Si35  1  0.194212  0.169189  0.703804  1
