# generated using pymatgen
data_YbPr(CoN3)2
_symmetry_space_group_name_H-M   'P 1'
_cell_length_a   5.77253889
_cell_length_b   5.77253979
_cell_length_c   7.45574662
_cell_angle_alpha   104.56256632
_cell_angle_beta   104.56256694
_cell_angle_gamma   38.95745155
_symmetry_Int_Tables_number   1
_chemical_formula_structural   YbPr(CoN3)2
_chemical_formula_sum   'Yb1 Pr1 Co2 N6'
_cell_volume   150.54824571
_cell_formula_units_Z   1
loop_
 _symmetry_equiv_pos_site_id
 _symmetry_equiv_pos_as_xyz
  1  'x, y, z'
loop_
 _atom_site_type_symbol
 _atom_site_label
 _atom_site_symmetry_multiplicity
 _atom_site_fract_x
 _atom_site_fract_y
 _atom_site_fract_z
 _atom_site_occupancy
  Yb  Yb0  1  0.168816  0.168816  0.798078  1
  Pr  Pr1  1  0.830022  0.830022  0.195337  1
  Co  Co2  1  0.544510  0.544510  0.155045  1
  Co  Co3  1  0.457772  0.457772  0.846691  1
  N  N4  1  0.370609  0.370609  0.025373  1
  N  N5  1  0.609090  0.609090  0.389447  1
  N  N6  1  0.351304  0.351304  0.451955  1
  N  N7  1  0.647527  0.647527  0.552567  1
  N  N8  1  0.392175  0.392175  0.615138  1
  N  N9  1  0.628172  0.628172  0.970372  1
