# generated using pymatgen
data_Er19LuSn16
_symmetry_space_group_name_H-M   'P 1'
_cell_length_a   8.00957727
_cell_length_b   8.09106727
_cell_length_c   15.35091100
_cell_angle_alpha   90.00000000
_cell_angle_beta   90.00000000
_cell_angle_gamma   89.97049919
_symmetry_Int_Tables_number   1
_chemical_formula_structural   Er19LuSn16
_chemical_formula_sum   'Er19 Lu1 Sn16'
_cell_volume   994.83144304
_cell_formula_units_Z   1
loop_
 _symmetry_equiv_pos_site_id
 _symmetry_equiv_pos_as_xyz
  1  'x, y, z'
loop_
 _atom_site_type_symbol
 _atom_site_label
 _atom_site_symmetry_multiplicity
 _atom_site_fract_x
 _atom_site_fract_y
 _atom_site_fract_z
 _atom_site_occupancy
  Er  Er0  1  0.377774  0.839379  0.879062  1
  Er  Er1  1  0.878115  0.660369  0.620947  1
  Er  Er2  1  0.622104  0.160507  0.379047  1
  Er  Er3  1  0.122118  0.339479  0.120909  1
  Er  Er4  1  0.622104  0.160507  0.120953  1
  Er  Er5  1  0.122118  0.339479  0.379091  1
  Er  Er6  1  0.377774  0.839379  0.620938  1
  Er  Er7  1  0.878115  0.660369  0.879053  1
  Er  Er8  1  0.533639  0.322887  0.900073  1
  Er  Er9  1  0.033793  0.177291  0.599903  1
  Er  Er10  1  0.466268  0.677192  0.400132  1
  Er  Er11  1  0.966260  0.822803  0.099886  1
  Er  Er12  1  0.466268  0.677192  0.099868  1
  Er  Er13  1  0.966260  0.822803  0.400114  1
  Er  Er14  1  0.533639  0.322887  0.599927  1
  Er  Er15  1  0.033793  0.177291  0.900097  1
  Er  Er16  1  0.709110  0.995740  0.750000  1
  Er  Er17  1  0.790818  0.495731  0.250000  1
  Er  Er18  1  0.290807  0.004330  0.250000  1
  Lu  Lu19  1  0.209341  0.504395  0.750000  1
  Sn  Sn20  1  0.282776  0.033080  0.042470  1
  Sn  Sn21  1  0.782757  0.466873  0.457535  1
  Sn  Sn22  1  0.717232  0.966925  0.542489  1
  Sn  Sn23  1  0.217251  0.533079  0.957294  1
  Sn  Sn24  1  0.717232  0.966925  0.957511  1
  Sn  Sn25  1  0.217251  0.533079  0.542706  1
  Sn  Sn26  1  0.282776  0.033080  0.457530  1
  Sn  Sn27  1  0.782757  0.466873  0.042465  1
  Sn  Sn28  1  0.574712  0.622431  0.750000  1
  Sn  Sn29  1  0.075296  0.877123  0.750000  1
  Sn  Sn30  1  0.424775  0.377420  0.250000  1
  Sn  Sn31  1  0.924834  0.122625  0.250000  1
  Sn  Sn32  1  0.342594  0.149049  0.750000  1
  Sn  Sn33  1  0.842838  0.351582  0.750000  1
  Sn  Sn34  1  0.657324  0.851418  0.250000  1
  Sn  Sn35  1  0.157375  0.648428  0.250000  1
