# generated using pymatgen
data_DyY4Tm7Co5Bi
_symmetry_space_group_name_H-M   'P 1'
_cell_length_a   8.24843076
_cell_length_b   8.24994004
_cell_length_c   8.25001181
_cell_angle_alpha   110.64847112
_cell_angle_beta   110.90860808
_cell_angle_gamma   106.89423334
_symmetry_Int_Tables_number   1
_chemical_formula_structural   DyY4Tm7Co5Bi
_chemical_formula_sum   'Dy1 Y4 Tm7 Co5 Bi1'
_cell_volume   431.47653518
_cell_formula_units_Z   1
loop_
 _symmetry_equiv_pos_site_id
 _symmetry_equiv_pos_as_xyz
  1  'x, y, z'
loop_
 _atom_site_type_symbol
 _atom_site_label
 _atom_site_symmetry_multiplicity
 _atom_site_fract_x
 _atom_site_fract_y
 _atom_site_fract_z
 _atom_site_occupancy
  Dy  Dy0  1  0.012444  0.206275  0.806144  1
  Y  Y1  1  0.813591  0.709678  0.524015  1
  Y  Y2  1  0.185960  0.289254  0.474593  1
  Y  Y3  1  0.185946  0.711352  0.896675  1
  Y  Y4  1  0.813610  0.289596  0.103941  1
  Tm  Tm5  1  0.687862  0.378262  0.689200  1
  Tm  Tm6  1  0.312091  0.622617  0.311212  1
  Tm  Tm7  1  0.687865  0.998651  0.309595  1
  Tm  Tm8  1  0.312096  0.000887  0.689483  1
  Tm  Tm9  1  0.599770  0.793729  0.806036  1
  Tm  Tm10  1  0.400677  0.205938  0.194746  1
  Tm  Tm11  1  0.988197  0.794184  0.194028  1
  Co  Co12  1  0.622677  0.999486  0.623223  1
  Co  Co13  1  0.376493  0.000237  0.376232  1
  Co  Co14  1  0.112641  0.612579  0.500072  1
  Co  Co15  1  0.887213  0.387651  0.499555  1
  Co  Co16  1  0.000109  0.999195  0.000920  1
  Bi  Bi17  1  0.500758  0.500429  0.000330  1
