# generated using pymatgen
data_La5Nd2Er3Si8O3
_symmetry_space_group_name_H-M   'P 1'
_cell_length_a   10.70756700
_cell_length_b   10.73441740
_cell_length_c   4.50360100
_cell_angle_alpha   90.00000000
_cell_angle_beta   90.00000000
_cell_angle_gamma   119.91729395
_symmetry_Int_Tables_number   1
_chemical_formula_structural   La5Nd2Er3Si8O3
_chemical_formula_sum   'La5 Nd2 Er3 Si8 O3'
_cell_volume   448.66392987
_cell_formula_units_Z   1
loop_
 _symmetry_equiv_pos_site_id
 _symmetry_equiv_pos_as_xyz
  1  'x, y, z'
loop_
 _atom_site_type_symbol
 _atom_site_label
 _atom_site_symmetry_multiplicity
 _atom_site_fract_x
 _atom_site_fract_y
 _atom_site_fract_z
 _atom_site_occupancy
  La  La0  1  0.787915  0.575831  0.000000  1
  La  La1  1  0.999599  0.999198  0.000000  1
  La  La2  1  0.212448  0.424895  0.000000  1
  La  La3  1  0.424156  0.211203  0.000000  1
  La  La4  1  0.787046  0.211203  0.000000  1
  Nd  Nd5  1  0.212222  0.789429  0.000000  1
  Nd  Nd6  1  0.577207  0.789429  0.000000  1
  Er  Er7  1  0.001544  0.501886  0.500000  1
  Er  Er8  1  0.500343  0.501886  0.500000  1
  Er  Er9  1  0.498321  0.996642  0.500000  1
  Si  Si10  1  0.000381  0.775156  0.500000  1
  Si  Si11  1  0.999405  0.223525  0.500000  1
  Si  Si12  1  0.224121  0.223525  0.500000  1
  Si  Si13  1  0.774496  0.999073  0.500000  1
  Si  Si14  1  0.334418  0.668837  0.500000  1
  Si  Si15  1  0.224576  0.999073  0.500000  1
  Si  Si16  1  0.666548  0.333094  0.500000  1
  Si  Si17  1  0.774776  0.775156  0.500000  1
  O  O18  1  0.001406  0.501134  0.000000  1
  O  O19  1  0.499728  0.501134  0.000000  1
  O  O20  1  0.499344  0.998688  0.000000  1
