# generated using pymatgen
data_NdThNi2(P2Ru)2
_symmetry_space_group_name_H-M   'P 1'
_cell_length_a   4.13064600
_cell_length_b   4.13064600
_cell_length_c   9.26606200
_cell_angle_alpha   90.00000000
_cell_angle_beta   90.00000000
_cell_angle_gamma   90.00000000
_symmetry_Int_Tables_number   1
_chemical_formula_structural   NdThNi2(P2Ru)2
_chemical_formula_sum   'Nd1 Th1 Ni2 P4 Ru2'
_cell_volume   158.09974013
_cell_formula_units_Z   1
loop_
 _symmetry_equiv_pos_site_id
 _symmetry_equiv_pos_as_xyz
  1  'x, y, z'
loop_
 _atom_site_type_symbol
 _atom_site_label
 _atom_site_symmetry_multiplicity
 _atom_site_fract_x
 _atom_site_fract_y
 _atom_site_fract_z
 _atom_site_occupancy
  Nd  Nd0  1  0.000000  0.500000  0.738135  1
  Th  Th1  1  0.500000  0.000000  0.258637  1
  Ni  Ni2  1  0.000000  0.500000  0.388706  1
  Ni  Ni3  1  0.500000  0.000000  0.608295  1
  P  P4  1  0.500000  0.000000  0.865865  1
  P  P5  1  0.000000  0.500000  0.132879  1
  P  P6  1  0.000000  0.000000  0.500861  1
  P  P7  1  0.500000  0.500000  0.500861  1
  Ru  Ru8  1  0.500000  0.500000  0.002880  1
  Ru  Ru9  1  0.000000  0.000000  0.002880  1
