# generated using pymatgen
data_TlTc12Br25
_symmetry_space_group_name_H-M   'P 1'
_cell_length_a   10.12909865
_cell_length_b   11.07509984
_cell_length_c   11.87171925
_cell_angle_alpha   82.41209696
_cell_angle_beta   73.95088768
_cell_angle_gamma   86.94683417
_symmetry_Int_Tables_number   1
_chemical_formula_structural   TlTc12Br25
_chemical_formula_sum   'Tl1 Tc12 Br25'
_cell_volume   1268.46916463
_cell_formula_units_Z   1
loop_
 _symmetry_equiv_pos_site_id
 _symmetry_equiv_pos_as_xyz
  1  'x, y, z'
loop_
 _atom_site_type_symbol
 _atom_site_label
 _atom_site_symmetry_multiplicity
 _atom_site_fract_x
 _atom_site_fract_y
 _atom_site_fract_z
 _atom_site_occupancy
  Tl  Tl0  1  0.500000  0.000000  0.000000  1
  Tc  Tc1  1  0.831911  0.256822  0.125838  1
  Tc  Tc2  1  0.168089  0.743178  0.874162  1
  Tc  Tc3  1  0.759366  0.122694  0.282304  1
  Tc  Tc4  1  0.240634  0.877306  0.717696  1
  Tc  Tc5  1  0.064446  0.275555  0.191286  1
  Tc  Tc6  1  0.935554  0.724445  0.808714  1
  Tc  Tc7  1  0.848008  0.426892  0.263499  1
  Tc  Tc8  1  0.151992  0.573108  0.736501  1
  Tc  Tc9  1  0.773075  0.294262  0.421778  1
  Tc  Tc10  1  0.226925  0.705738  0.578222  1
  Tc  Tc11  1  0.989739  0.143680  0.349910  1
  Tc  Tc12  1  0.010261  0.856320  0.650090  1
  Br  Br13  1  0.943385  0.962022  0.263348  1
  Br  Br14  1  0.056615  0.037978  0.736652  1
  Br  Br15  1  0.967811  0.271440  0.512778  1
  Br  Br16  1  0.032189  0.728560  0.487222  1
  Br  Br17  1  0.655848  0.424650  0.167584  1
  Br  Br18  1  0.344152  0.575350  0.832416  1
  Br  Br19  1  0.085439  0.466024  0.276113  1
  Br  Br20  1  0.914561  0.533976  0.723887  1
  Br  Br21  1  0.000000  0.500000  0.000000  1
  Br  Br22  1  0.605746  0.967508  0.248060  1
  Br  Br23  1  0.394254  0.032492  0.751940  1
  Br  Br24  1  0.194312  0.033833  0.402819  1
  Br  Br25  1  0.805688  0.966167  0.597181  1
  Br  Br26  1  0.551999  0.220015  0.404978  1
  Br  Br27  1  0.448001  0.779985  0.595022  1
  Br  Br28  1  0.056869  0.163388  0.024293  1
  Br  Br29  1  0.943131  0.836612  0.975707  1
  Br  Br30  1  0.776353  0.636900  0.311682  1
  Br  Br31  1  0.223647  0.363100  0.688318  1
  Br  Br32  1  0.740563  0.218199  0.955601  1
  Br  Br33  1  0.259437  0.781801  0.044399  1
  Br  Br34  1  0.322800  0.261312  0.121012  1
  Br  Br35  1  0.677200  0.738688  0.878988  1
  Br  Br36  1  0.642022  0.401678  0.589818  1
  Br  Br37  1  0.357978  0.598322  0.410182  1
