# generated using pymatgen
data_LiHf7(Si4Ru3)4
_symmetry_space_group_name_H-M   'P 1'
_cell_length_a   9.88508135
_cell_length_b   9.88375425
_cell_length_c   13.32407598
_cell_angle_alpha   54.05012656
_cell_angle_beta   53.92477948
_cell_angle_gamma   31.24992170
_symmetry_Int_Tables_number   1
_chemical_formula_structural   LiHf7(Si4Ru3)4
_chemical_formula_sum   'Li1 Hf7 Si16 Ru12'
_cell_volume   534.85518016
_cell_formula_units_Z   1
loop_
 _symmetry_equiv_pos_site_id
 _symmetry_equiv_pos_as_xyz
  1  'x, y, z'
loop_
 _atom_site_type_symbol
 _atom_site_label
 _atom_site_symmetry_multiplicity
 _atom_site_fract_x
 _atom_site_fract_y
 _atom_site_fract_z
 _atom_site_occupancy
  Li  Li0  1  0.304274  0.558466  0.641833  1
  Hf  Hf1  1  0.440991  0.706158  0.851676  1
  Hf  Hf2  1  0.699924  0.442491  0.357735  1
  Hf  Hf3  1  0.557781  0.293185  0.148483  1
  Hf  Hf4  1  0.037231  0.296813  0.636653  1
  Hf  Hf5  1  0.707098  0.960846  0.861656  1
  Hf  Hf6  1  0.962235  0.703471  0.365589  1
  Hf  Hf7  1  0.292660  0.041782  0.135172  1
  Si  Si8  1  0.875126  0.124018  0.250534  1
  Si  Si9  1  0.127054  0.868085  0.748417  1
  Si  Si10  1  0.383485  0.614873  0.249840  1
  Si  Si11  1  0.616525  0.381363  0.747848  1
  Si  Si12  1  0.969527  0.256583  0.894189  1
  Si  Si13  1  0.739451  0.034157  0.607407  1
  Si  Si14  1  0.027554  0.744237  0.107667  1
  Si  Si15  1  0.248331  0.978982  0.391581  1
  Si  Si16  1  0.575351  0.080881  0.065852  1
  Si  Si17  1  0.912647  0.428162  0.437235  1
  Si  Si18  1  0.421923  0.923125  0.934026  1
  Si  Si19  1  0.091896  0.572054  0.569749  1
  Si  Si20  1  0.386083  0.143089  0.397483  1
  Si  Si21  1  0.856742  0.610767  0.104747  1
  Si  Si22  1  0.618067  0.852170  0.603467  1
  Si  Si23  1  0.150025  0.394088  0.886192  1
  Ru  Ru24  1  0.647419  0.826630  0.282502  1
  Ru  Ru25  1  0.171663  0.350829  0.219562  1
  Ru  Ru26  1  0.758953  0.482458  0.071192  1
  Ru  Ru27  1  0.824781  0.648901  0.784044  1
  Ru  Ru28  1  0.901997  0.139699  0.583704  1
  Ru  Ru29  1  0.858984  0.099274  0.915170  1
  Ru  Ru30  1  0.101768  0.858741  0.411678  1
  Ru  Ru31  1  0.143355  0.897712  0.084048  1
  Ru  Ru32  1  0.242116  0.515025  0.933279  1
  Ru  Ru33  1  0.481912  0.763063  0.569695  1
  Ru  Ru34  1  0.516881  0.238765  0.431092  1
  Ru  Ru35  1  0.348191  0.169057  0.719006  1
