# generated using pymatgen
data_Y12Th4MnCd4Ir3
_symmetry_space_group_name_H-M   'P 1'
_cell_length_a   9.75430287
_cell_length_b   9.75430292
_cell_length_c   9.75430347
_cell_angle_alpha   59.81299857
_cell_angle_beta   59.81299898
_cell_angle_gamma   59.81299941
_symmetry_Int_Tables_number   1
_chemical_formula_structural   Y12Th4MnCd4Ir3
_chemical_formula_sum   'Y12 Th4 Mn1 Cd4 Ir3'
_cell_volume   653.47104464
_cell_formula_units_Z   1
loop_
 _symmetry_equiv_pos_site_id
 _symmetry_equiv_pos_as_xyz
  1  'x, y, z'
loop_
 _atom_site_type_symbol
 _atom_site_label
 _atom_site_symmetry_multiplicity
 _atom_site_fract_x
 _atom_site_fract_y
 _atom_site_fract_z
 _atom_site_occupancy
  Y  Y0  1  0.817409  0.187862  0.187862  1
  Y  Y1  1  0.188117  0.810285  0.810285  1
  Y  Y2  1  0.187862  0.817409  0.187862  1
  Y  Y3  1  0.810285  0.188117  0.810285  1
  Y  Y4  1  0.187862  0.187862  0.817409  1
  Y  Y5  1  0.810285  0.810285  0.188117  1
  Y  Y6  1  0.937034  0.562651  0.562651  1
  Y  Y7  1  0.561690  0.935600  0.935600  1
  Y  Y8  1  0.562651  0.937034  0.562651  1
  Y  Y9  1  0.935600  0.561690  0.935600  1
  Y  Y10  1  0.562651  0.562651  0.937034  1
  Y  Y11  1  0.935600  0.935600  0.561690  1
  Th  Th12  1  0.349857  0.349857  0.349857  1
  Th  Th13  1  0.342755  0.342755  0.960418  1
  Th  Th14  1  0.342755  0.960418  0.342755  1
  Th  Th15  1  0.960418  0.342755  0.342755  1
  Mn  Mn16  1  0.147612  0.147612  0.147612  1
  Cd  Cd17  1  0.580301  0.580301  0.580301  1
  Cd  Cd18  1  0.581846  0.581846  0.252696  1
  Cd  Cd19  1  0.581846  0.252696  0.581846  1
  Cd  Cd20  1  0.252696  0.581846  0.581846  1
  Ir  Ir21  1  0.145203  0.145203  0.572462  1
  Ir  Ir22  1  0.145203  0.572462  0.145203  1
  Ir  Ir23  1  0.572462  0.145203  0.145203  1
