# generated using pymatgen
data_Pr16Cd4Ir3Rh
_symmetry_space_group_name_H-M   'P 1'
_cell_length_a   10.05475813
_cell_length_b   10.05475826
_cell_length_c   10.05475800
_cell_angle_alpha   59.76189001
_cell_angle_beta   59.76188959
_cell_angle_gamma   59.76189264
_symmetry_Int_Tables_number   1
_chemical_formula_structural   Pr16Cd4Ir3Rh
_chemical_formula_sum   'Pr16 Cd4 Ir3 Rh1'
_cell_volume   714.90029486
_cell_formula_units_Z   1
loop_
 _symmetry_equiv_pos_site_id
 _symmetry_equiv_pos_as_xyz
  1  'x, y, z'
loop_
 _atom_site_type_symbol
 _atom_site_label
 _atom_site_symmetry_multiplicity
 _atom_site_fract_x
 _atom_site_fract_y
 _atom_site_fract_z
 _atom_site_occupancy
  Pr  Pr0  1  0.347993  0.347993  0.347993  1
  Pr  Pr1  1  0.348941  0.348941  0.953899  1
  Pr  Pr2  1  0.348941  0.953899  0.348941  1
  Pr  Pr3  1  0.953899  0.348941  0.348941  1
  Pr  Pr4  1  0.809265  0.190383  0.190383  1
  Pr  Pr5  1  0.190060  0.808863  0.808863  1
  Pr  Pr6  1  0.190383  0.809265  0.190383  1
  Pr  Pr7  1  0.808863  0.190060  0.808863  1
  Pr  Pr8  1  0.190383  0.190383  0.809265  1
  Pr  Pr9  1  0.808863  0.808863  0.190060  1
  Pr  Pr10  1  0.939249  0.561536  0.561536  1
  Pr  Pr11  1  0.561404  0.938631  0.938631  1
  Pr  Pr12  1  0.561536  0.939249  0.561536  1
  Pr  Pr13  1  0.938631  0.561404  0.938631  1
  Pr  Pr14  1  0.561536  0.561536  0.939249  1
  Pr  Pr15  1  0.938631  0.938631  0.561404  1
  Cd  Cd16  1  0.579571  0.579571  0.579571  1
  Cd  Cd17  1  0.579769  0.579769  0.260128  1
  Cd  Cd18  1  0.579769  0.260128  0.579769  1
  Cd  Cd19  1  0.260128  0.579769  0.579769  1
  Ir  Ir20  1  0.142779  0.142779  0.575365  1
  Ir  Ir21  1  0.142779  0.575365  0.142779  1
  Ir  Ir22  1  0.575365  0.142779  0.142779  1
  Rh  Rh23  1  0.141259  0.141259  0.141259  1
