# generated using pymatgen
data_BaNaCo3TcP4
_symmetry_space_group_name_H-M   'P 1'
_cell_length_a   6.78460066
_cell_length_b   6.78567314
_cell_length_c   5.40997500
_cell_angle_alpha   90.00000000
_cell_angle_beta   90.00000000
_cell_angle_gamma   133.04169970
_symmetry_Int_Tables_number   1
_chemical_formula_structural   BaNaCo3TcP4
_chemical_formula_sum   'Ba1 Na1 Co3 Tc1 P4'
_cell_volume   182.03084532
_cell_formula_units_Z   1
loop_
 _symmetry_equiv_pos_site_id
 _symmetry_equiv_pos_as_xyz
  1  'x, y, z'
loop_
 _atom_site_type_symbol
 _atom_site_label
 _atom_site_symmetry_multiplicity
 _atom_site_fract_x
 _atom_site_fract_y
 _atom_site_fract_z
 _atom_site_occupancy
  Ba  Ba0  1  0.500000  0.500000  0.498551  1
  Na  Na1  1  0.000000  0.000000  0.001022  1
  Co  Co2  1  0.000000  0.500000  0.249232  1
  Co  Co3  1  0.000000  0.500000  0.750122  1
  Co  Co4  1  0.500000  0.000000  0.249570  1
  Tc  Tc5  1  0.500000  0.000000  0.751935  1
  P  P6  1  0.338421  0.647447  0.005957  1
  P  P7  1  0.850048  0.160032  0.493828  1
  P  P8  1  0.149952  0.839968  0.493828  1
  P  P9  1  0.661579  0.352553  0.005957  1
