# generated using pymatgen
data_Sr20Si11Ge
_symmetry_space_group_name_H-M   'P 1'
_cell_length_a   8.06634000
_cell_length_b   8.06634000
_cell_length_c   15.93926500
_cell_angle_alpha   90.00000000
_cell_angle_beta   90.00000000
_cell_angle_gamma   90.00000000
_symmetry_Int_Tables_number   1
_chemical_formula_structural   Sr20Si11Ge
_chemical_formula_sum   'Sr20 Si11 Ge1'
_cell_volume   1037.10168208
_cell_formula_units_Z   1
loop_
 _symmetry_equiv_pos_site_id
 _symmetry_equiv_pos_as_xyz
  1  'x, y, z'
loop_
 _atom_site_type_symbol
 _atom_site_label
 _atom_site_symmetry_multiplicity
 _atom_site_fract_x
 _atom_site_fract_y
 _atom_site_fract_z
 _atom_site_occupancy
  Sr  Sr0  1  0.315962  0.676179  0.109612  1
  Sr  Sr1  1  0.176179  0.184038  0.109612  1
  Sr  Sr2  1  0.500000  0.000000  0.741481  1
  Sr  Sr3  1  0.324822  0.684329  0.390884  1
  Sr  Sr4  1  0.675450  0.684474  0.890549  1
  Sr  Sr5  1  0.184329  0.175178  0.390884  1
  Sr  Sr6  1  0.675178  0.315671  0.390884  1
  Sr  Sr7  1  0.175977  0.816177  0.609024  1
  Sr  Sr8  1  0.324550  0.315526  0.890549  1
  Sr  Sr9  1  0.184474  0.824550  0.890549  1
  Sr  Sr10  1  0.500000  0.000000  0.241593  1
  Sr  Sr11  1  0.824023  0.183823  0.609024  1
  Sr  Sr12  1  0.316177  0.324023  0.609024  1
  Sr  Sr13  1  0.815671  0.824822  0.390884  1
  Sr  Sr14  1  0.815526  0.175450  0.890549  1
  Sr  Sr15  1  0.823821  0.815962  0.109612  1
  Sr  Sr16  1  0.000000  0.500000  0.259795  1
  Sr  Sr17  1  0.000000  0.500000  0.757547  1
  Sr  Sr18  1  0.684038  0.323821  0.109612  1
  Sr  Sr19  1  0.683823  0.675977  0.609024  1
  Si  Si20  1  0.107917  0.107829  0.749769  1
  Si  Si21  1  0.392171  0.607917  0.749769  1
  Si  Si22  1  0.608143  0.608112  0.250164  1
  Si  Si23  1  0.500000  0.000000  0.003737  1
  Si  Si24  1  0.108112  0.891857  0.250164  1
  Si  Si25  1  0.607829  0.392083  0.749769  1
  Si  Si26  1  0.892083  0.892171  0.749769  1
  Si  Si27  1  0.391857  0.391888  0.250164  1
  Si  Si28  1  0.891888  0.108143  0.250164  1
  Si  Si29  1  0.500000  0.000000  0.503465  1
  Si  Si30  1  0.000000  0.500000  0.496355  1
  Ge  Ge31  1  0.000000  0.500000  0.996022  1
