# generated using pymatgen
data_Hf9Nb2Re2Se
_symmetry_space_group_name_H-M   'P 1'
_cell_length_a   8.76668160
_cell_length_b   8.76668123
_cell_length_c   8.70994500
_cell_angle_alpha   90.00000000
_cell_angle_beta   90.00000000
_cell_angle_gamma   120.34872858
_symmetry_Int_Tables_number   1
_chemical_formula_structural   Hf9Nb2Re2Se
_chemical_formula_sum   'Hf18 Nb4 Re4 Se2'
_cell_volume   577.66974493
_cell_formula_units_Z   2
loop_
 _symmetry_equiv_pos_site_id
 _symmetry_equiv_pos_as_xyz
  1  'x, y, z'
loop_
 _atom_site_type_symbol
 _atom_site_label
 _atom_site_symmetry_multiplicity
 _atom_site_fract_x
 _atom_site_fract_y
 _atom_site_fract_z
 _atom_site_occupancy
  Hf  Hf0  1  0.194650  0.805350  0.454989  1
  Hf  Hf1  1  0.194243  0.387910  0.458325  1
  Hf  Hf2  1  0.612090  0.805757  0.458325  1
  Hf  Hf3  1  0.807889  0.192111  0.554275  1
  Hf  Hf4  1  0.805185  0.613757  0.552706  1
  Hf  Hf5  1  0.386243  0.194815  0.552706  1
  Hf  Hf6  1  0.807889  0.192111  0.945725  1
  Hf  Hf7  1  0.805185  0.613757  0.947294  1
  Hf  Hf8  1  0.386243  0.194815  0.947294  1
  Hf  Hf9  1  0.194650  0.805350  0.045011  1
  Hf  Hf10  1  0.194243  0.387910  0.041675  1
  Hf  Hf11  1  0.612090  0.805757  0.041675  1
  Hf  Hf12  1  0.538474  0.461526  0.250000  1
  Hf  Hf13  1  0.540753  0.080678  0.250000  1
  Hf  Hf14  1  0.919322  0.459247  0.250000  1
  Hf  Hf15  1  0.456222  0.543778  0.750000  1
  Hf  Hf16  1  0.458422  0.912188  0.750000  1
  Hf  Hf17  1  0.087812  0.541578  0.750000  1
  Nb  Nb18  1  0.889369  0.110631  0.250000  1
  Nb  Nb19  1  0.888733  0.777900  0.250000  1
  Nb  Nb20  1  0.222100  0.111267  0.250000  1
  Nb  Nb21  1  0.108793  0.891207  0.750000  1
  Re  Re22  1  0.110058  0.221332  0.750000  1
  Re  Re23  1  0.778668  0.889942  0.750000  1
  Re  Re24  1  0.999125  0.000875  0.500264  1
  Re  Re25  1  0.999125  0.000875  0.999736  1
  Se  Se26  1  0.334414  0.665586  0.250000  1
  Se  Se27  1  0.668007  0.331993  0.750000  1
