# generated using pymatgen
data_SmTh7VSe17
_symmetry_space_group_name_H-M   'P 1'
_cell_length_a   8.44850801
_cell_length_b   8.44216456
_cell_length_c   11.18961792
_cell_angle_alpha   80.54749336
_cell_angle_beta   80.50957826
_cell_angle_gamma   64.81518945
_symmetry_Int_Tables_number   1
_chemical_formula_structural   SmTh7VSe17
_chemical_formula_sum   'Sm1 Th7 V1 Se17'
_cell_volume   708.36700255
_cell_formula_units_Z   1
loop_
 _symmetry_equiv_pos_site_id
 _symmetry_equiv_pos_as_xyz
  1  'x, y, z'
loop_
 _atom_site_type_symbol
 _atom_site_label
 _atom_site_symmetry_multiplicity
 _atom_site_fract_x
 _atom_site_fract_y
 _atom_site_fract_z
 _atom_site_occupancy
  Sm  Sm0  1  0.814124  0.302889  0.296079  1
  Th  Th1  1  0.302137  0.814582  0.294283  1
  Th  Th2  1  0.184926  0.698596  0.704110  1
  Th  Th3  1  0.698185  0.186312  0.703004  1
  Th  Th4  1  0.203368  0.204271  0.542657  1
  Th  Th5  1  0.795668  0.796985  0.454589  1
  Th  Th6  1  0.683197  0.679549  0.981729  1
  Th  Th7  1  0.317232  0.317954  0.022002  1
  V  V8  1  0.000352  0.001340  0.001639  1
  Se  Se9  1  0.822560  0.431892  0.532671  1
  Se  Se10  1  0.432177  0.820800  0.531798  1
  Se  Se11  1  0.178447  0.567820  0.468577  1
  Se  Se12  1  0.568257  0.176892  0.469938  1
  Se  Se13  1  0.946027  0.320627  0.026307  1
  Se  Se14  1  0.321438  0.945537  0.026878  1
  Se  Se15  1  0.054585  0.679513  0.971819  1
  Se  Se16  1  0.678931  0.055237  0.971790  1
  Se  Se17  1  0.211377  0.207608  0.277876  1
  Se  Se18  1  0.790534  0.790091  0.722568  1
  Se  Se19  1  0.059641  0.059464  0.775751  1
  Se  Se20  1  0.940869  0.939733  0.224295  1
  Se  Se21  1  0.302654  0.303057  0.755526  1
  Se  Se22  1  0.695368  0.699332  0.244062  1
  Se  Se23  1  0.519884  0.521001  0.832204  1
  Se  Se24  1  0.476903  0.481701  0.165946  1
  Se  Se25  1  0.001157  0.997216  0.501900  1
