# generated using pymatgen
data_Er15Th5Sn16
_symmetry_space_group_name_H-M   'P 1'
_cell_length_a   8.06918715
_cell_length_b   8.16145598
_cell_length_c   15.43451476
_cell_angle_alpha   90.17890921
_cell_angle_beta   89.56225583
_cell_angle_gamma   89.83058278
_symmetry_Int_Tables_number   1
_chemical_formula_structural   Er15Th5Sn16
_chemical_formula_sum   'Er15 Th5 Sn16'
_cell_volume   1016.42114006
_cell_formula_units_Z   1
loop_
 _symmetry_equiv_pos_site_id
 _symmetry_equiv_pos_as_xyz
  1  'x, y, z'
loop_
 _atom_site_type_symbol
 _atom_site_label
 _atom_site_symmetry_multiplicity
 _atom_site_fract_x
 _atom_site_fract_y
 _atom_site_fract_z
 _atom_site_occupancy
  Er  Er0  1  0.359670  0.834775  0.875912  1
  Er  Er1  1  0.863646  0.663836  0.623315  1
  Er  Er2  1  0.635846  0.165119  0.377214  1
  Er  Er3  1  0.136535  0.335956  0.123475  1
  Er  Er4  1  0.639358  0.162068  0.124241  1
  Er  Er5  1  0.133954  0.337288  0.377712  1
  Er  Er6  1  0.366262  0.838645  0.623812  1
  Er  Er7  1  0.862512  0.661187  0.875166  1
  Er  Er8  1  0.525977  0.323550  0.899383  1
  Er  Er9  1  0.029373  0.175484  0.601059  1
  Er  Er10  1  0.470243  0.675988  0.400123  1
  Er  Er11  1  0.193638  0.500501  0.749411  1
  Er  Er12  1  0.694028  0.999254  0.750385  1
  Er  Er13  1  0.806721  0.499780  0.250481  1
  Er  Er14  1  0.306701  0.000303  0.250844  1
  Th  Th15  1  0.979750  0.820539  0.096583  1
  Th  Th16  1  0.481919  0.678272  0.095618  1
  Th  Th17  1  0.980792  0.823062  0.403779  1
  Th  Th18  1  0.517843  0.322415  0.596033  1
  Th  Th19  1  0.015723  0.177759  0.905288  1
  Sn  Sn20  1  0.300587  0.037470  0.042293  1
  Sn  Sn21  1  0.789425  0.470048  0.456025  1
  Sn  Sn22  1  0.710225  0.969862  0.543985  1
  Sn  Sn23  1  0.205675  0.533166  0.956964  1
  Sn  Sn24  1  0.695860  0.958516  0.958362  1
  Sn  Sn25  1  0.202058  0.542599  0.540734  1
  Sn  Sn26  1  0.296906  0.040397  0.459531  1
  Sn  Sn27  1  0.797677  0.457166  0.039797  1
  Sn  Sn28  1  0.559813  0.622001  0.748799  1
  Sn  Sn29  1  0.059750  0.877840  0.750042  1
  Sn  Sn30  1  0.439486  0.376306  0.249425  1
  Sn  Sn31  1  0.940497  0.123147  0.250633  1
  Sn  Sn32  1  0.328560  0.145999  0.752843  1
  Sn  Sn33  1  0.829234  0.352888  0.747639  1
  Sn  Sn34  1  0.669273  0.854273  0.252798  1
  Sn  Sn35  1  0.174480  0.642543  0.250295  1
