# generated using pymatgen
data_Lu2Zr3(TlS5)2
_symmetry_space_group_name_H-M   'P 1'
_cell_length_a   6.41600627
_cell_length_b   10.86507157
_cell_length_c   8.68412100
_cell_angle_alpha   59.50398200
_cell_angle_beta   68.34524763
_cell_angle_gamma   89.95378053
_symmetry_Int_Tables_number   1
_chemical_formula_structural   Lu2Zr3(TlS5)2
_chemical_formula_sum   'Lu2 Zr3 Tl2 S10'
_cell_volume   471.49078473
_cell_formula_units_Z   1
loop_
 _symmetry_equiv_pos_site_id
 _symmetry_equiv_pos_as_xyz
  1  'x, y, z'
loop_
 _atom_site_type_symbol
 _atom_site_label
 _atom_site_symmetry_multiplicity
 _atom_site_fract_x
 _atom_site_fract_y
 _atom_site_fract_z
 _atom_site_occupancy
  Lu  Lu0  1  0.799187  0.600155  0.403676  1
  Lu  Lu1  1  0.202675  0.399192  0.593248  1
  Zr  Zr2  1  0.397997  0.796511  0.202268  1
  Zr  Zr3  1  0.600179  0.203920  0.804196  1
  Zr  Zr4  1  0.000180  0.999209  0.997072  1
  Tl  Tl5  1  0.786142  0.075521  0.426198  1
  Tl  Tl6  1  0.011875  0.524663  0.975169  1
  S  S7  1  0.000560  0.844040  0.342705  1
  S  S8  1  0.594535  0.035873  0.150152  1
  S  S9  1  0.189252  0.231908  0.957135  1
  S  S10  1  0.780341  0.430370  0.762366  1
  S  S11  1  0.385998  0.644803  0.544386  1
  S  S12  1  0.405265  0.964918  0.852338  1
  S  S13  1  0.998805  0.154670  0.656368  1
  S  S14  1  0.617526  0.353074  0.454971  1
  S  S15  1  0.222064  0.571173  0.235637  1
  S  S16  1  0.807419  0.769999  0.042115  1
