# generated using pymatgen
data_Y6TmSn23Os6
_symmetry_space_group_name_H-M   'P 1'
_cell_length_a   9.87509657
_cell_length_b   9.90882200
_cell_length_c   10.10315949
_cell_angle_alpha   90.00000117
_cell_angle_beta   89.96923978
_cell_angle_gamma   120.11304684
_symmetry_Int_Tables_number   1
_chemical_formula_structural   Y6TmSn23Os6
_chemical_formula_sum   'Y6 Tm1 Sn23 Os6'
_cell_volume   855.17557327
_cell_formula_units_Z   1
loop_
 _symmetry_equiv_pos_site_id
 _symmetry_equiv_pos_as_xyz
  1  'x, y, z'
loop_
 _atom_site_type_symbol
 _atom_site_label
 _atom_site_symmetry_multiplicity
 _atom_site_fract_x
 _atom_site_fract_y
 _atom_site_fract_z
 _atom_site_occupancy
  Y  Y0  1  0.000279  0.000140  0.000052  1
  Y  Y1  1  0.484831  0.969594  0.304047  1
  Y  Y2  1  0.484831  0.515237  0.304047  1
  Y  Y3  1  0.968731  0.484366  0.695042  1
  Y  Y4  1  0.515485  0.030595  0.695926  1
  Y  Y5  1  0.515485  0.484891  0.695926  1
  Tm  Tm6  1  0.028044  0.514022  0.303357  1
  Sn  Sn7  1  0.000025  0.000012  0.499955  1
  Sn  Sn8  1  0.117258  0.882271  0.277341  1
  Sn  Sn9  1  0.765723  0.882862  0.275264  1
  Sn  Sn10  1  0.117258  0.234988  0.277341  1
  Sn  Sn11  1  0.883024  0.117159  0.723033  1
  Sn  Sn12  1  0.234602  0.117301  0.724549  1
  Sn  Sn13  1  0.883024  0.765865  0.723033  1
  Sn  Sn14  1  0.349455  0.000259  0.000083  1
  Sn  Sn15  1  0.650880  0.650894  0.000275  1
  Sn  Sn16  1  0.000284  0.349318  0.999949  1
  Sn  Sn17  1  0.349455  0.349196  0.000083  1
  Sn  Sn18  1  0.000284  0.650966  0.999949  1
  Sn  Sn19  1  0.650880  0.999986  0.000275  1
  Sn  Sn20  1  0.780831  0.558799  0.462761  1
  Sn  Sn21  1  0.780831  0.222033  0.462761  1
  Sn  Sn22  1  0.441162  0.220581  0.463054  1
  Sn  Sn23  1  0.219342  0.441169  0.536475  1
  Sn  Sn24  1  0.219342  0.778171  0.536475  1
  Sn  Sn25  1  0.559055  0.779527  0.536928  1
  Sn  Sn26  1  0.666814  0.333406  0.175573  1
  Sn  Sn27  1  0.333232  0.666616  0.824489  1
  Sn  Sn28  1  0.666706  0.333353  0.872071  1
  Sn  Sn29  1  0.331208  0.665605  0.129085  1
  Os  Os30  1  0.170583  0.830428  0.797769  1
  Os  Os31  1  0.660294  0.830147  0.798511  1
  Os  Os32  1  0.170583  0.340156  0.797769  1
  Os  Os33  1  0.830349  0.171052  0.202471  1
  Os  Os34  1  0.339479  0.169739  0.201811  1
  Os  Os35  1  0.830349  0.659297  0.202471  1
