# generated using pymatgen
data_CaYP7(Ru5Rh)2
_symmetry_space_group_name_H-M   'P 1'
_cell_length_a   9.41946862
_cell_length_b   9.48591416
_cell_length_c   3.95148900
_cell_angle_alpha   90.00000000
_cell_angle_beta   90.00000000
_cell_angle_gamma   120.14201454
_symmetry_Int_Tables_number   1
_chemical_formula_structural   CaYP7(Ru5Rh)2
_chemical_formula_sum   'Ca1 Y1 P7 Ru10 Rh2'
_cell_volume   305.33299158
_cell_formula_units_Z   1
loop_
 _symmetry_equiv_pos_site_id
 _symmetry_equiv_pos_as_xyz
  1  'x, y, z'
loop_
 _atom_site_type_symbol
 _atom_site_label
 _atom_site_symmetry_multiplicity
 _atom_site_fract_x
 _atom_site_fract_y
 _atom_site_fract_z
 _atom_site_occupancy
  Ca  Ca0  1  0.667648  0.332345  0.500000  1
  Y  Y1  1  0.329610  0.665077  0.000000  1
  P  P2  1  0.603074  0.715027  0.500000  1
  P  P3  1  0.999665  0.002058  0.000000  1
  P  P4  1  0.280089  0.883498  0.500000  1
  P  P5  1  0.110856  0.399524  0.500000  1
  P  P6  1  0.883574  0.575661  0.000000  1
  P  P7  1  0.426049  0.302510  0.000000  1
  P  P8  1  0.697771  0.120266  0.000000  1
  Ru  Ru9  1  0.914979  0.123648  0.500000  1
  Ru  Ru10  1  0.212361  0.087885  0.500000  1
  Ru  Ru11  1  0.877666  0.793653  0.500000  1
  Ru  Ru12  1  0.726043  0.891509  0.000000  1
  Ru  Ru13  1  0.106726  0.838387  0.000000  1
  Ru  Ru14  1  0.166714  0.272652  0.000000  1
  Ru  Ru15  1  0.427278  0.060297  0.000000  1
  Ru  Ru16  1  0.940330  0.363908  0.000000  1
  Ru  Ru17  1  0.636218  0.573681  0.000000  1
  Ru  Ru18  1  0.051434  0.611159  0.500000  1
  Rh  Rh19  1  0.552299  0.941735  0.500000  1
  Rh  Rh20  1  0.389616  0.445518  0.500000  1
