# generated using pymatgen
data_SrNdAl3O7
_symmetry_space_group_name_H-M   'P 1'
_cell_length_a   7.92376650
_cell_length_b   7.92376721
_cell_length_c   5.24033200
_cell_angle_alpha   90.00000000
_cell_angle_beta   90.00000000
_cell_angle_gamma   90.19680719
_symmetry_Int_Tables_number   1
_chemical_formula_structural   SrNdAl3O7
_chemical_formula_sum   'Sr2 Nd2 Al6 O14'
_cell_volume   329.01796920
_cell_formula_units_Z   2
loop_
 _symmetry_equiv_pos_site_id
 _symmetry_equiv_pos_as_xyz
  1  'x, y, z'
loop_
 _atom_site_type_symbol
 _atom_site_label
 _atom_site_symmetry_multiplicity
 _atom_site_fract_x
 _atom_site_fract_y
 _atom_site_fract_z
 _atom_site_occupancy
  Sr  Sr0  1  0.161109  0.838891  0.489900  1
  Sr  Sr1  1  0.838891  0.161109  0.489900  1
  Nd  Nd2  1  0.661889  0.661889  0.514211  1
  Nd  Nd3  1  0.338111  0.338111  0.514211  1
  Al  Al4  1  0.358495  0.641505  0.039689  1
  Al  Al5  1  0.854397  0.854397  0.962053  1
  Al  Al6  1  0.641505  0.358495  0.039689  1
  Al  Al7  1  0.145603  0.145603  0.962053  1
  Al  Al8  1  0.500000  0.000000  0.997176  1
  Al  Al9  1  0.000000  0.500000  0.997176  1
  O  O10  1  0.000000  0.000000  0.839740  1
  O  O11  1  0.500000  0.500000  0.192766  1
  O  O12  1  0.416740  0.834722  0.186760  1
  O  O13  1  0.906358  0.660350  0.804061  1
  O  O14  1  0.583260  0.165278  0.186760  1
  O  O15  1  0.093642  0.339650  0.804061  1
  O  O16  1  0.339650  0.093642  0.804061  1
  O  O17  1  0.834722  0.416740  0.186760  1
  O  O18  1  0.660350  0.906358  0.804061  1
  O  O19  1  0.165278  0.583260  0.186760  1
  O  O20  1  0.369732  0.630268  0.705265  1
  O  O21  1  0.845950  0.845950  0.293812  1
  O  O22  1  0.630268  0.369732  0.705265  1
  O  O23  1  0.154050  0.154050  0.293812  1
