# generated using pymatgen
data_LuZr3(Co5As3)4
_symmetry_space_group_name_H-M   'P 1'
_cell_length_a   3.72021700
_cell_length_b   12.06333168
_cell_length_c   10.58818421
_cell_angle_alpha   90.09223702
_cell_angle_beta   90.00000000
_cell_angle_gamma   90.00000000
_symmetry_Int_Tables_number   1
_chemical_formula_structural   LuZr3(Co5As3)4
_chemical_formula_sum   'Lu1 Zr3 Co20 As12'
_cell_volume   475.17815527
_cell_formula_units_Z   1
loop_
 _symmetry_equiv_pos_site_id
 _symmetry_equiv_pos_as_xyz
  1  'x, y, z'
loop_
 _atom_site_type_symbol
 _atom_site_label
 _atom_site_symmetry_multiplicity
 _atom_site_fract_x
 _atom_site_fract_y
 _atom_site_fract_z
 _atom_site_occupancy
  Lu  Lu0  1  0.750000  0.702808  0.081128  1
  Zr  Zr1  1  0.250000  0.298400  0.920645  1
  Zr  Zr2  1  0.250000  0.798335  0.579037  1
  Zr  Zr3  1  0.750000  0.201762  0.421134  1
  Co  Co4  1  0.750000  0.697701  0.386968  1
  Co  Co5  1  0.250000  0.301768  0.613840  1
  Co  Co6  1  0.250000  0.802803  0.884298  1
  Co  Co7  1  0.750000  0.198260  0.114337  1
  Co  Co8  1  0.750000  0.992852  0.216170  1
  Co  Co9  1  0.250000  0.007023  0.783398  1
  Co  Co10  1  0.250000  0.506081  0.716115  1
  Co  Co11  1  0.750000  0.492566  0.284343  1
  Co  Co12  1  0.750000  0.679114  0.782786  1
  Co  Co13  1  0.250000  0.319937  0.216921  1
  Co  Co14  1  0.250000  0.821338  0.284438  1
  Co  Co15  1  0.750000  0.179324  0.716690  1
  Co  Co16  1  0.750000  0.932201  0.967953  1
  Co  Co17  1  0.250000  0.070796  0.030369  1
  Co  Co18  1  0.250000  0.569405  0.470399  1
  Co  Co19  1  0.750000  0.429860  0.530325  1
  Co  Co20  1  0.750000  0.986938  0.590510  1
  Co  Co21  1  0.250000  0.013658  0.409692  1
  Co  Co22  1  0.250000  0.511336  0.090591  1
  Co  Co23  1  0.750000  0.485188  0.907578  1
  As  As24  1  0.750000  0.615224  0.586009  1
  As  As25  1  0.250000  0.384488  0.414046  1
  As  As26  1  0.250000  0.886396  0.085700  1
  As  As27  1  0.750000  0.116259  0.913984  1
  As  As28  1  0.750000  0.888880  0.401154  1
  As  As29  1  0.250000  0.111068  0.599130  1
  As  As30  1  0.250000  0.610932  0.900596  1
  As  As31  1  0.750000  0.388893  0.099147  1
  As  As32  1  0.750000  0.870643  0.765475  1
  As  As33  1  0.250000  0.129025  0.234350  1
  As  As34  1  0.250000  0.628805  0.267502  1
  As  As35  1  0.750000  0.369932  0.733241  1
