# generated using pymatgen
data_KTa2MoSe6
_symmetry_space_group_name_H-M   'P 1'
_cell_length_a   5.90721100
_cell_length_b   5.90721006
_cell_length_c   16.44334700
_cell_angle_alpha   90.00000000
_cell_angle_beta   90.00000000
_cell_angle_gamma   119.99999964
_symmetry_Int_Tables_number   1
_chemical_formula_structural   KTa2MoSe6
_chemical_formula_sum   'K2 Ta4 Mo2 Se12'
_cell_volume   496.91917286
_cell_formula_units_Z   2
loop_
 _symmetry_equiv_pos_site_id
 _symmetry_equiv_pos_as_xyz
  1  'x, y, z'
loop_
 _atom_site_type_symbol
 _atom_site_label
 _atom_site_symmetry_multiplicity
 _atom_site_fract_x
 _atom_site_fract_y
 _atom_site_fract_z
 _atom_site_occupancy
  K  K0  1  0.000000  0.000000  0.500000  1
  K  K1  1  0.000000  0.000000  0.000000  1
  Ta  Ta2  1  0.333333  0.666667  0.250000  1
  Ta  Ta3  1  0.666667  0.333333  0.750000  1
  Ta  Ta4  1  0.666667  0.333333  0.250000  1
  Ta  Ta5  1  0.333333  0.666667  0.750000  1
  Mo  Mo6  1  0.000000  0.000000  0.250000  1
  Mo  Mo7  1  0.000000  0.000000  0.750000  1
  Se  Se8  1  0.332237  0.000000  0.148733  1
  Se  Se9  1  0.000000  0.332237  0.148733  1
  Se  Se10  1  0.667763  0.667763  0.148733  1
  Se  Se11  1  0.332237  0.332237  0.648733  1
  Se  Se12  1  0.667763  0.667763  0.351267  1
  Se  Se13  1  0.667763  0.000000  0.648733  1
  Se  Se14  1  0.000000  0.667763  0.648733  1
  Se  Se15  1  0.000000  0.667763  0.851267  1
  Se  Se16  1  0.332237  0.332237  0.851267  1
  Se  Se17  1  0.000000  0.332237  0.351267  1
  Se  Se18  1  0.332237  0.000000  0.351267  1
  Se  Se19  1  0.667763  0.000000  0.851267  1
