# generated using pymatgen
data_Li3Zr5ScOs3
_symmetry_space_group_name_H-M   'P 1'
_cell_length_a   4.64121800
_cell_length_b   6.64968500
_cell_length_c   13.98357500
_cell_angle_alpha   90.00005044
_cell_angle_beta   90.00068984
_cell_angle_gamma   89.99920861
_symmetry_Int_Tables_number   1
_chemical_formula_structural   Li3Zr5ScOs3
_chemical_formula_sum   'Li6 Zr10 Sc2 Os6'
_cell_volume   431.57000917
_cell_formula_units_Z   2
loop_
 _symmetry_equiv_pos_site_id
 _symmetry_equiv_pos_as_xyz
  1  'x, y, z'
loop_
 _atom_site_type_symbol
 _atom_site_label
 _atom_site_symmetry_multiplicity
 _atom_site_fract_x
 _atom_site_fract_y
 _atom_site_fract_z
 _atom_site_occupancy
  Li  Li0  1  0.000006  0.500000  0.999036  1
  Li  Li1  1  0.499957  0.000003  0.166473  1
  Li  Li2  1  0.999944  0.499994  0.333318  1
  Li  Li3  1  0.500000  0.999997  0.500233  1
  Li  Li4  1  0.000053  0.500004  0.667650  1
  Li  Li5  1  0.500007  0.999996  0.833307  1
  Zr  Zr6  1  0.499995  0.249760  0.997752  1
  Zr  Zr7  1  0.499998  0.750242  0.997752  1
  Zr  Zr8  1  0.999782  0.250045  0.166237  1
  Zr  Zr9  1  0.999790  0.749952  0.166234  1
  Zr  Zr10  1  0.499795  0.250238  0.333328  1
  Zr  Zr11  1  0.499799  0.749758  0.333330  1
  Zr  Zr12  1  0.999999  0.250047  0.500426  1
  Zr  Zr13  1  0.999993  0.749950  0.500427  1
  Zr  Zr14  1  0.500215  0.249771  0.668928  1
  Zr  Zr15  1  0.500223  0.750224  0.668929  1
  Sc  Sc16  1  0.000224  0.251153  0.833311  1
  Sc  Sc17  1  0.000225  0.748870  0.833305  1
  Os  Os18  1  0.999998  0.999995  0.004682  1
  Os  Os19  1  0.499655  0.500006  0.166287  1
  Os  Os20  1  0.999662  0.999998  0.333330  1
  Os  Os21  1  0.500004  0.499996  0.500392  1
  Os  Os22  1  0.000336  0.000003  0.661993  1
  Os  Os23  1  0.500342  0.499999  0.833339  1
