# generated using pymatgen
data_NdHoRe2F14
_symmetry_space_group_name_H-M   'P 1'
_cell_length_a   5.68024600
_cell_length_b   9.07215353
_cell_length_c   12.22307845
_cell_angle_alpha   62.38901466
_cell_angle_beta   90.00000000
_cell_angle_gamma   90.00000000
_symmetry_Int_Tables_number   1
_chemical_formula_structural   NdHoRe2F14
_chemical_formula_sum   'Nd2 Ho2 Re4 F28'
_cell_volume   558.14635562
_cell_formula_units_Z   2
loop_
 _symmetry_equiv_pos_site_id
 _symmetry_equiv_pos_as_xyz
  1  'x, y, z'
loop_
 _atom_site_type_symbol
 _atom_site_label
 _atom_site_symmetry_multiplicity
 _atom_site_fract_x
 _atom_site_fract_y
 _atom_site_fract_z
 _atom_site_occupancy
  Nd  Nd0  1  0.758625  0.811239  0.764597  1
  Nd  Nd1  1  0.258625  0.188761  0.735403  1
  Ho  Ho2  1  0.242117  0.184616  0.235408  1
  Ho  Ho3  1  0.742117  0.815384  0.264592  1
  Re  Re4  1  0.754363  0.269929  0.963770  1
  Re  Re5  1  0.254363  0.730071  0.536230  1
  Re  Re6  1  0.242292  0.722768  0.049553  1
  Re  Re7  1  0.742292  0.277232  0.450447  1
  F  F8  1  0.449756  0.706404  0.925645  1
  F  F9  1  0.949756  0.293596  0.574355  1
  F  F10  1  0.547633  0.291503  0.085883  1
  F  F11  1  0.047633  0.708497  0.414117  1
  F  F12  1  0.459766  0.287067  0.542025  1
  F  F13  1  0.959766  0.712933  0.957975  1
  F  F14  1  0.545475  0.721292  0.447872  1
  F  F15  1  0.045475  0.278708  0.052128  1
  F  F16  1  0.767121  0.514381  0.863156  1
  F  F17  1  0.267121  0.485619  0.636844  1
  F  F18  1  0.234806  0.476701  0.145888  1
  F  F19  1  0.734806  0.523299  0.354112  1
  F  F20  1  0.755764  0.024385  0.058130  1
  F  F21  1  0.255764  0.975615  0.441870  1
  F  F22  1  0.238609  0.967665  0.951097  1
  F  F23  1  0.738609  0.032335  0.548903  1
  F  F24  1  0.973888  0.729733  0.631968  1
  F  F25  1  0.473888  0.270267  0.868032  1
  F  F26  1  0.015874  0.267258  0.352944  1
  F  F27  1  0.515874  0.732742  0.147056  1
  F  F28  1  0.035159  0.744497  0.172747  1
  F  F29  1  0.535159  0.255503  0.327253  1
  F  F30  1  0.950571  0.253957  0.835279  1
  F  F31  1  0.450571  0.746043  0.664721  1
  F  F32  1  0.431097  0.976473  0.234686  1
  F  F33  1  0.931097  0.023527  0.265314  1
  F  F34  1  0.597085  0.036268  0.770335  1
  F  F35  1  0.097085  0.963732  0.729665  1
