# generated using pymatgen
data_Tm2GeB2IrRh4
_symmetry_space_group_name_H-M   'P 1'
_cell_length_a   9.35947400
_cell_length_b   9.35947400
_cell_length_c   3.25842900
_cell_angle_alpha   90.00000000
_cell_angle_beta   90.00000000
_cell_angle_gamma   90.00000000
_symmetry_Int_Tables_number   1
_chemical_formula_structural   Tm2GeB2IrRh4
_chemical_formula_sum   'Tm4 Ge2 B4 Ir2 Rh8'
_cell_volume   285.43757738
_cell_formula_units_Z   2
loop_
 _symmetry_equiv_pos_site_id
 _symmetry_equiv_pos_as_xyz
  1  'x, y, z'
loop_
 _atom_site_type_symbol
 _atom_site_label
 _atom_site_symmetry_multiplicity
 _atom_site_fract_x
 _atom_site_fract_y
 _atom_site_fract_z
 _atom_site_occupancy
  Tm  Tm0  1  0.823178  0.323178  0.000000  1
  Tm  Tm1  1  0.323178  0.176822  0.000000  1
  Tm  Tm2  1  0.676822  0.823178  0.000000  1
  Tm  Tm3  1  0.176822  0.676822  0.000000  1
  Ge  Ge4  1  0.000000  0.000000  0.000000  1
  Ge  Ge5  1  0.500000  0.500000  0.000000  1
  B  B6  1  0.619916  0.119916  0.000000  1
  B  B7  1  0.119916  0.380084  0.000000  1
  B  B8  1  0.880084  0.619916  0.000000  1
  B  B9  1  0.380084  0.880084  0.000000  1
  Ir  Ir10  1  0.500000  0.000000  0.500000  1
  Ir  Ir11  1  0.000000  0.500000  0.500000  1
  Rh  Rh12  1  0.070304  0.216751  0.500000  1
  Rh  Rh13  1  0.216751  0.929696  0.500000  1
  Rh  Rh14  1  0.783249  0.070304  0.500000  1
  Rh  Rh15  1  0.929696  0.783249  0.500000  1
  Rh  Rh16  1  0.429696  0.716751  0.500000  1
  Rh  Rh17  1  0.570304  0.283249  0.500000  1
  Rh  Rh18  1  0.716751  0.570304  0.500000  1
  Rh  Rh19  1  0.283249  0.429696  0.500000  1
