# generated using pymatgen
data_CaTbDy5NiI12
_symmetry_space_group_name_H-M   'P 1'
_cell_length_a   9.75803449
_cell_length_b   9.76069167
_cell_length_c   9.75946761
_cell_angle_alpha   106.85433620
_cell_angle_beta   106.83476891
_cell_angle_gamma   106.84626190
_symmetry_Int_Tables_number   1
_chemical_formula_structural   CaTbDy5NiI12
_chemical_formula_sum   'Ca1 Tb1 Dy5 Ni1 I12'
_cell_volume   777.37898021
_cell_formula_units_Z   1
loop_
 _symmetry_equiv_pos_site_id
 _symmetry_equiv_pos_as_xyz
  1  'x, y, z'
loop_
 _atom_site_type_symbol
 _atom_site_label
 _atom_site_symmetry_multiplicity
 _atom_site_fract_x
 _atom_site_fract_y
 _atom_site_fract_z
 _atom_site_occupancy
  Ca  Ca0  1  0.499994  0.499979  0.499995  1
  Tb  Tb1  1  0.024937  0.294206  0.095723  1
  Dy  Dy2  1  0.904620  0.974898  0.706694  1
  Dy  Dy3  1  0.706685  0.904397  0.975009  1
  Dy  Dy4  1  0.975080  0.706771  0.904612  1
  Dy  Dy5  1  0.095373  0.024791  0.293209  1
  Dy  Dy6  1  0.293263  0.095214  0.024876  1
  Ni  Ni7  1  0.999980  0.999819  0.999941  1
  I  I8  1  0.926516  0.320733  0.775809  1
  I  I9  1  0.776515  0.926730  0.320816  1
  I  I10  1  0.320857  0.776493  0.926727  1
  I  I11  1  0.073327  0.679526  0.223588  1
  I  I12  1  0.223478  0.073259  0.679181  1
  I  I13  1  0.678602  0.223194  0.073165  1
  I  I14  1  0.542632  0.850271  0.620567  1
  I  I15  1  0.620537  0.542593  0.850262  1
  I  I16  1  0.850278  0.620535  0.542617  1
  I  I17  1  0.457364  0.149713  0.379436  1
  I  I18  1  0.379986  0.457447  0.149777  1
  I  I19  1  0.149976  0.379431  0.457997  1
