# generated using pymatgen
data_Yb3Hg3Pd2Au
_symmetry_space_group_name_H-M   'P 1'
_cell_length_a   7.78542800
_cell_length_b   7.78542850
_cell_length_c   3.78451400
_cell_angle_alpha   90.00000000
_cell_angle_beta   90.00000000
_cell_angle_gamma   119.99999789
_symmetry_Int_Tables_number   1
_chemical_formula_structural   Yb3Hg3Pd2Au
_chemical_formula_sum   'Yb3 Hg3 Pd2 Au1'
_cell_volume   198.65786791
_cell_formula_units_Z   1
loop_
 _symmetry_equiv_pos_site_id
 _symmetry_equiv_pos_as_xyz
  1  'x, y, z'
loop_
 _atom_site_type_symbol
 _atom_site_label
 _atom_site_symmetry_multiplicity
 _atom_site_fract_x
 _atom_site_fract_y
 _atom_site_fract_z
 _atom_site_occupancy
  Yb  Yb0  1  0.388415  0.398699  0.500000  1
  Yb  Yb1  1  0.601301  0.989716  0.500000  1
  Yb  Yb2  1  0.010284  0.611585  0.500000  1
  Hg  Hg3  1  0.728183  0.734495  0.000000  1
  Hg  Hg4  1  0.265505  0.993688  0.000000  1
  Hg  Hg5  1  0.006312  0.271817  0.000000  1
  Pd  Pd6  1  0.333333  0.666667  0.000000  1
  Pd  Pd7  1  0.000000  0.000000  0.500000  1
  Au  Au8  1  0.666667  0.333333  0.000000  1
