# generated using pymatgen
data_Nd6Ho10Cd4PdRu3
_symmetry_space_group_name_H-M   'P 1'
_cell_length_a   9.67185373
_cell_length_b   9.79482299
_cell_length_c   9.79482300
_cell_angle_alpha   60.00000333
_cell_angle_beta   59.57852435
_cell_angle_gamma   59.57853222
_symmetry_Int_Tables_number   1
_chemical_formula_structural   Nd6Ho10Cd4PdRu3
_chemical_formula_sum   'Nd6 Ho10 Cd4 Pd1 Ru3'
_cell_volume   651.91601211
_cell_formula_units_Z   1
loop_
 _symmetry_equiv_pos_site_id
 _symmetry_equiv_pos_as_xyz
  1  'x, y, z'
loop_
 _atom_site_type_symbol
 _atom_site_label
 _atom_site_symmetry_multiplicity
 _atom_site_fract_x
 _atom_site_fract_y
 _atom_site_fract_z
 _atom_site_occupancy
  Nd  Nd0  1  0.935880  0.561661  0.561661  1
  Nd  Nd1  1  0.555996  0.940381  0.940381  1
  Nd  Nd2  1  0.555996  0.940381  0.563244  1
  Nd  Nd3  1  0.935880  0.561661  0.940798  1
  Nd  Nd4  1  0.555996  0.563244  0.940381  1
  Nd  Nd5  1  0.935880  0.940798  0.561661  1
  Ho  Ho6  1  0.342492  0.350037  0.350037  1
  Ho  Ho7  1  0.342492  0.350037  0.957435  1
  Ho  Ho8  1  0.342492  0.957435  0.350037  1
  Ho  Ho9  1  0.969545  0.343485  0.343485  1
  Ho  Ho10  1  0.818939  0.187083  0.187083  1
  Ho  Ho11  1  0.184800  0.814019  0.814019  1
  Ho  Ho12  1  0.184800  0.814019  0.187162  1
  Ho  Ho13  1  0.818939  0.187083  0.806896  1
  Ho  Ho14  1  0.184800  0.187162  0.814019  1
  Ho  Ho15  1  0.818939  0.806896  0.187083  1
  Cd  Cd16  1  0.579873  0.578292  0.578292  1
  Cd  Cd17  1  0.579873  0.578292  0.263542  1
  Cd  Cd18  1  0.579873  0.263542  0.578292  1
  Cd  Cd19  1  0.260198  0.579934  0.579934  1
  Pd  Pd20  1  0.574998  0.141667  0.141667  1
  Ru  Ru21  1  0.147108  0.137295  0.137295  1
  Ru  Ru22  1  0.147108  0.137295  0.578301  1
  Ru  Ru23  1  0.147108  0.578301  0.137295  1
