# generated using pymatgen
data_Tb7Th7(Ru2Rh)2
_symmetry_space_group_name_H-M   'P 1'
_cell_length_a   9.86527845
_cell_length_b   9.75534618
_cell_length_c   6.37870762
_cell_angle_alpha   90.52824992
_cell_angle_beta   89.78039082
_cell_angle_gamma   120.37601312
_symmetry_Int_Tables_number   1
_chemical_formula_structural   Tb7Th7(Ru2Rh)2
_chemical_formula_sum   'Tb7 Th7 Ru4 Rh2'
_cell_volume   529.58865976
_cell_formula_units_Z   1
loop_
 _symmetry_equiv_pos_site_id
 _symmetry_equiv_pos_as_xyz
  1  'x, y, z'
loop_
 _atom_site_type_symbol
 _atom_site_label
 _atom_site_symmetry_multiplicity
 _atom_site_fract_x
 _atom_site_fract_y
 _atom_site_fract_z
 _atom_site_occupancy
  Tb  Tb0  1  0.875404  0.748642  0.734063  1
  Tb  Tb1  1  0.537108  0.462946  0.448947  1
  Tb  Tb2  1  0.923533  0.463863  0.448845  1
  Tb  Tb3  1  0.537596  0.076264  0.444520  1
  Tb  Tb4  1  0.464116  0.535665  0.948867  1
  Tb  Tb5  1  0.076469  0.540090  0.946089  1
  Tb  Tb6  1  0.462235  0.924980  0.945247  1
  Th  Th7  1  0.329458  0.666963  0.470462  1
  Th  Th8  1  0.668407  0.334648  0.978317  1
  Th  Th9  1  0.123186  0.872430  0.232422  1
  Th  Th10  1  0.750615  0.874490  0.231004  1
  Th  Th11  1  0.125840  0.249848  0.228020  1
  Th  Th12  1  0.868436  0.127550  0.735078  1
  Th  Th13  1  0.253363  0.119598  0.732885  1
  Ru  Ru14  1  0.820061  0.181560  0.196371  1
  Ru  Ru15  1  0.364210  0.184061  0.191889  1
  Ru  Ru16  1  0.813485  0.633318  0.199799  1
  Ru  Ru17  1  0.196421  0.820072  0.686217  1
  Rh  Rh18  1  0.623828  0.815212  0.689624  1
  Rh  Rh19  1  0.186231  0.367799  0.697897  1
