# generated using pymatgen
data_Dy5Th4Sc(In2Rh)4
_symmetry_space_group_name_H-M   'P 1'
_cell_length_a   3.77512100
_cell_length_b   8.02276753
_cell_length_c   18.01319436
_cell_angle_alpha   90.13437108
_cell_angle_beta   90.00000000
_cell_angle_gamma   90.00000000
_symmetry_Int_Tables_number   1
_chemical_formula_structural   Dy5Th4Sc(In2Rh)4
_chemical_formula_sum   'Dy5 Th4 Sc1 In8 Rh4'
_cell_volume   545.56264320
_cell_formula_units_Z   1
loop_
 _symmetry_equiv_pos_site_id
 _symmetry_equiv_pos_as_xyz
  1  'x, y, z'
loop_
 _atom_site_type_symbol
 _atom_site_label
 _atom_site_symmetry_multiplicity
 _atom_site_fract_x
 _atom_site_fract_y
 _atom_site_fract_z
 _atom_site_occupancy
  Dy  Dy0  1  0.000000  0.000946  0.001436  1
  Dy  Dy1  1  0.000000  0.499750  0.499648  1
  Dy  Dy2  1  0.000000  0.891887  0.585864  1
  Dy  Dy3  1  0.000000  0.107731  0.413301  1
  Dy  Dy4  1  0.000000  0.393125  0.915184  1
  Th  Th5  1  0.000000  0.762954  0.782780  1
  Th  Th6  1  0.000000  0.235177  0.216339  1
  Th  Th7  1  0.000000  0.263756  0.718606  1
  Th  Th8  1  0.000000  0.735675  0.280099  1
  Sc  Sc9  1  0.000000  0.605432  0.088571  1
  In  In10  1  0.500000  0.792372  0.438647  1
  In  In11  1  0.500000  0.206925  0.560792  1
  In  In12  1  0.500000  0.305286  0.060369  1
  In  In13  1  0.500000  0.703829  0.944718  1
  In  In14  1  0.500000  0.902158  0.143049  1
  In  In15  1  0.500000  0.088293  0.855671  1
  In  In16  1  0.500000  0.412651  0.353447  1
  In  In17  1  0.500000  0.587540  0.645129  1
  Rh  Rh18  1  0.500000  0.984158  0.699997  1
  Rh  Rh19  1  0.500000  0.015737  0.299211  1
  Rh  Rh20  1  0.500000  0.485662  0.801288  1
  Rh  Rh21  1  0.500000  0.518957  0.195855  1
