# generated using pymatgen
data_Na(PRh)2
_symmetry_space_group_name_H-M   'P 1'
_cell_length_a   5.61959875
_cell_length_b   5.61959839
_cell_length_c   5.61959780
_cell_angle_alpha   137.96871068
_cell_angle_beta   137.96870379
_cell_angle_gamma   60.95092734
_symmetry_Int_Tables_number   1
_chemical_formula_structural   Na(PRh)2
_chemical_formula_sum   'Na1 P2 Rh2'
_cell_volume   78.68314042
_cell_formula_units_Z   1
loop_
 _symmetry_equiv_pos_site_id
 _symmetry_equiv_pos_as_xyz
  1  'x, y, z'
loop_
 _atom_site_type_symbol
 _atom_site_label
 _atom_site_symmetry_multiplicity
 _atom_site_fract_x
 _atom_site_fract_y
 _atom_site_fract_z
 _atom_site_occupancy
  Na  Na0  1  0.000000  0.000000  0.000000  1
  P  P1  1  0.379888  0.379888  0.000000  1
  P  P2  1  0.620112  0.620112  0.000000  1
  Rh  Rh3  1  0.750000  0.250000  0.500000  1
  Rh  Rh4  1  0.250000  0.750000  0.500000  1
