# generated using pymatgen
data_Tb4CeNd11(CdRu)4
_symmetry_space_group_name_H-M   'P 1'
_cell_length_a   9.89870401
_cell_length_b   9.91635042
_cell_length_c   9.91639579
_cell_angle_alpha   59.27932899
_cell_angle_beta   59.17159670
_cell_angle_gamma   59.17198863
_symmetry_Int_Tables_number   1
_chemical_formula_structural   Tb4CeNd11(CdRu)4
_chemical_formula_sum   'Tb4 Ce1 Nd11 Cd4 Ru4'
_cell_volume   675.85957382
_cell_formula_units_Z   1
loop_
 _symmetry_equiv_pos_site_id
 _symmetry_equiv_pos_as_xyz
  1  'x, y, z'
loop_
 _atom_site_type_symbol
 _atom_site_label
 _atom_site_symmetry_multiplicity
 _atom_site_fract_x
 _atom_site_fract_y
 _atom_site_fract_z
 _atom_site_occupancy
  Tb  Tb0  1  0.810432  0.191542  0.191538  1
  Tb  Tb1  1  0.343468  0.344145  0.964256  1
  Tb  Tb2  1  0.343449  0.964264  0.344167  1
  Tb  Tb3  1  0.962828  0.343600  0.343611  1
  Ce  Ce4  1  0.340486  0.337797  0.337771  1
  Nd  Nd5  1  0.561849  0.559526  0.940241  1
  Nd  Nd6  1  0.939346  0.558717  0.941421  1
  Nd  Nd7  1  0.559819  0.940227  0.940228  1
  Nd  Nd8  1  0.939345  0.941409  0.558728  1
  Nd  Nd9  1  0.561836  0.940247  0.559531  1
  Nd  Nd10  1  0.940061  0.560407  0.560379  1
  Nd  Nd11  1  0.189951  0.192192  0.810927  1
  Nd  Nd12  1  0.809918  0.191671  0.810894  1
  Nd  Nd13  1  0.191539  0.809285  0.809312  1
  Nd  Nd14  1  0.809883  0.810930  0.191667  1
  Nd  Nd15  1  0.189954  0.810937  0.192192  1
  Cd  Cd16  1  0.579411  0.577374  0.262181  1
  Cd  Cd17  1  0.579408  0.262179  0.577380  1
  Cd  Cd18  1  0.262489  0.578647  0.578646  1
  Cd  Cd19  1  0.578744  0.578917  0.578920  1
  Ru  Ru20  1  0.147117  0.146529  0.572383  1
  Ru  Ru21  1  0.147130  0.572372  0.146533  1
  Ru  Ru22  1  0.573150  0.147977  0.147979  1
  Ru  Ru23  1  0.138387  0.139112  0.139116  1
