# generated using pymatgen
data_K4Mn3Cr5F24
_symmetry_space_group_name_H-M   'P 1'
_cell_length_a   10.11372936
_cell_length_b   7.22731755
_cell_length_c   7.47229294
_cell_angle_alpha   89.26665392
_cell_angle_beta   89.49291741
_cell_angle_gamma   89.75271828
_symmetry_Int_Tables_number   1
_chemical_formula_structural   K4Mn3Cr5F24
_chemical_formula_sum   'K4 Mn3 Cr5 F24'
_cell_volume   546.11730063
_cell_formula_units_Z   1
loop_
 _symmetry_equiv_pos_site_id
 _symmetry_equiv_pos_as_xyz
  1  'x, y, z'
loop_
 _atom_site_type_symbol
 _atom_site_label
 _atom_site_symmetry_multiplicity
 _atom_site_fract_x
 _atom_site_fract_y
 _atom_site_fract_z
 _atom_site_occupancy
  K  K0  1  0.112012  0.495173  0.246451  1
  K  K1  1  0.612725  0.008235  0.756187  1
  K  K2  1  0.889375  0.513636  0.752060  1
  K  K3  1  0.387894  0.990335  0.243593  1
  Mn  Mn4  1  0.732687  0.186902  0.251220  1
  Mn  Mn5  1  0.230079  0.312652  0.750042  1
  Mn  Mn6  1  0.268926  0.813539  0.750018  1
  Cr  Cr7  1  0.000661  0.000320  0.502118  1
  Cr  Cr8  1  0.498952  0.499163  0.497354  1
  Cr  Cr9  1  0.998705  0.999411  0.002558  1
  Cr  Cr10  1  0.500374  0.498753  0.996984  1
  Cr  Cr11  1  0.764753  0.681126  0.251264  1
  F  F12  1  0.824987  0.113438  0.992325  1
  F  F13  1  0.325182  0.390446  0.009819  1
  F  F14  1  0.172889  0.886745  0.012503  1
  F  F15  1  0.674301  0.606988  0.978724  1
  F  F16  1  0.180557  0.905548  0.495228  1
  F  F17  1  0.677010  0.599989  0.500680  1
  F  F18  1  0.821464  0.099403  0.507288  1
  F  F19  1  0.321563  0.400007  0.492829  1
  F  F20  1  0.661222  0.917110  0.248119  1
  F  F21  1  0.154817  0.579088  0.755209  1
  F  F22  1  0.345974  0.078280  0.755931  1
  F  F23  1  0.844932  0.427542  0.247346  1
  F  F24  1  0.987028  0.920173  0.753346  1
  F  F25  1  0.487107  0.580552  0.246719  1
  F  F26  1  0.011442  0.081454  0.250969  1
  F  F27  1  0.512230  0.416914  0.747606  1
  F  F28  1  0.919593  0.762691  0.065840  1
  F  F29  1  0.425301  0.738303  0.934265  1
  F  F30  1  0.075178  0.236996  0.937696  1
  F  F31  1  0.575377  0.259749  0.064221  1
  F  F32  1  0.429728  0.740146  0.562973  1
  F  F33  1  0.936715  0.757846  0.441842  1
  F  F34  1  0.569969  0.258061  0.432800  1
  F  F35  1  0.068292  0.243282  0.565874  1
