# generated using pymatgen
data_Dy5HoReBi2
_symmetry_space_group_name_H-M   'P 1'
_cell_length_a   8.27608000
_cell_length_b   8.27620321
_cell_length_c   4.34403100
_cell_angle_alpha   90.00000000
_cell_angle_beta   90.00000000
_cell_angle_gamma   120.00049469
_symmetry_Int_Tables_number   1
_chemical_formula_structural   Dy5HoReBi2
_chemical_formula_sum   'Dy5 Ho1 Re1 Bi2'
_cell_volume   257.67792130
_cell_formula_units_Z   1
loop_
 _symmetry_equiv_pos_site_id
 _symmetry_equiv_pos_as_xyz
  1  'x, y, z'
loop_
 _atom_site_type_symbol
 _atom_site_label
 _atom_site_symmetry_multiplicity
 _atom_site_fract_x
 _atom_site_fract_y
 _atom_site_fract_z
 _atom_site_occupancy
  Dy  Dy0  1  0.232345  0.000027  0.000000  1
  Dy  Dy1  1  0.000000  0.610964  0.500000  1
  Dy  Dy2  1  0.388883  0.388933  0.500000  1
  Dy  Dy3  1  0.767655  0.767682  0.000000  1
  Dy  Dy4  1  0.611117  0.000050  0.500000  1
  Ho  Ho5  1  0.000000  0.232299  0.000000  1
  Re  Re6  1  0.000000  0.000138  0.500000  1
  Bi  Bi7  1  0.333255  0.666582  0.000000  1
  Bi  Bi8  1  0.666745  0.333326  0.000000  1
