# generated using pymatgen
data_Sr5CrWN7
_symmetry_space_group_name_H-M   'P 1'
_cell_length_a   6.46568914
_cell_length_b   9.13257078
_cell_length_c   9.25466403
_cell_angle_alpha   114.58919640
_cell_angle_beta   96.63229981
_cell_angle_gamma   89.60854421
_symmetry_Int_Tables_number   1
_chemical_formula_structural   Sr5CrWN7
_chemical_formula_sum   'Sr10 Cr2 W2 N14'
_cell_volume   493.07576420
_cell_formula_units_Z   2
loop_
 _symmetry_equiv_pos_site_id
 _symmetry_equiv_pos_as_xyz
  1  'x, y, z'
loop_
 _atom_site_type_symbol
 _atom_site_label
 _atom_site_symmetry_multiplicity
 _atom_site_fract_x
 _atom_site_fract_y
 _atom_site_fract_z
 _atom_site_occupancy
  Sr  Sr0  1  0.845827  0.584459  0.334161  1
  Sr  Sr1  1  0.267216  0.978098  0.559361  1
  Sr  Sr2  1  0.702641  0.412684  0.843731  1
  Sr  Sr3  1  0.297359  0.587316  0.156269  1
  Sr  Sr4  1  0.402248  0.787230  0.913700  1
  Sr  Sr5  1  0.597752  0.212770  0.086300  1
  Sr  Sr6  1  0.154173  0.415541  0.665839  1
  Sr  Sr7  1  0.889880  0.838795  0.756669  1
  Sr  Sr8  1  0.110120  0.161205  0.243331  1
  Sr  Sr9  1  0.732784  0.021902  0.440639  1
  Cr  Cr10  1  0.571822  0.365523  0.476591  1
  Cr  Cr11  1  0.428178  0.634477  0.523409  1
  W  W12  1  0.119838  0.215057  0.912269  1
  W  W13  1  0.880162  0.784943  0.087731  1
  N  N14  1  0.539245  0.550969  0.666850  1
  N  N15  1  0.460755  0.449031  0.333150  1
  N  N16  1  0.174829  0.688382  0.555899  1
  N  N17  1  0.825171  0.311618  0.444101  1
  N  N18  1  0.418519  0.207100  0.472188  1
  N  N19  1  0.581481  0.792900  0.527812  1
  N  N20  1  0.949004  0.131766  0.711900  1
  N  N21  1  0.050996  0.868234  0.288100  1
  N  N22  1  0.233552  0.048669  0.960828  1
  N  N23  1  0.766448  0.951331  0.039172  1
  N  N24  1  0.351573  0.330956  0.898726  1
  N  N25  1  0.967667  0.346772  0.080239  1
  N  N26  1  0.032333  0.653228  0.919761  1
  N  N27  1  0.648427  0.669044  0.101274  1
