# generated using pymatgen
data_PrInGa3Co
_symmetry_space_group_name_H-M   'P 1'
_cell_length_a   8.37433205
_cell_length_b   8.37433247
_cell_length_c   6.56288200
_cell_angle_alpha   90.00000000
_cell_angle_beta   90.00000000
_cell_angle_gamma   150.06471783
_symmetry_Int_Tables_number   1
_chemical_formula_structural   PrInGa3Co
_chemical_formula_sum   'Pr2 In2 Ga6 Co2'
_cell_volume   229.67525348
_cell_formula_units_Z   2
loop_
 _symmetry_equiv_pos_site_id
 _symmetry_equiv_pos_as_xyz
  1  'x, y, z'
loop_
 _atom_site_type_symbol
 _atom_site_label
 _atom_site_symmetry_multiplicity
 _atom_site_fract_x
 _atom_site_fract_y
 _atom_site_fract_z
 _atom_site_occupancy
  Pr  Pr0  1  0.877754  0.122246  0.750000  1
  Pr  Pr1  1  0.122246  0.877754  0.250000  1
  In  In2  1  0.500000  0.500000  0.000000  1
  In  In3  1  0.500000  0.500000  0.500000  1
  Ga  Ga4  1  0.079219  0.920781  0.750000  1
  Ga  Ga5  1  0.920781  0.079219  0.250000  1
  Ga  Ga6  1  0.692234  0.307766  0.946358  1
  Ga  Ga7  1  0.307766  0.692234  0.053642  1
  Ga  Ga8  1  0.692234  0.307766  0.553642  1
  Ga  Ga9  1  0.307766  0.692234  0.446358  1
  Co  Co10  1  0.223005  0.776995  0.750000  1
  Co  Co11  1  0.776995  0.223005  0.250000  1
