# generated using pymatgen
data_Sr3BI3N2
_symmetry_space_group_name_H-M   'P 1'
_cell_length_a   11.16231592
_cell_length_b   11.16231672
_cell_length_c   11.16231675
_cell_angle_alpha   106.00390004
_cell_angle_beta   106.00390203
_cell_angle_gamma   106.00389200
_symmetry_Int_Tables_number   1
_chemical_formula_structural   Sr3BI3N2
_chemical_formula_sum   'Sr12 B4 I12 N8'
_cell_volume   1188.33655066
_cell_formula_units_Z   4
loop_
 _symmetry_equiv_pos_site_id
 _symmetry_equiv_pos_as_xyz
  1  'x, y, z'
loop_
 _atom_site_type_symbol
 _atom_site_label
 _atom_site_symmetry_multiplicity
 _atom_site_fract_x
 _atom_site_fract_y
 _atom_site_fract_z
 _atom_site_occupancy
  Sr  Sr0  1  0.979205  0.761082  0.736653  1
  Sr  Sr1  1  0.761082  0.736653  0.979205  1
  Sr  Sr2  1  0.736653  0.979205  0.761082  1
  Sr  Sr3  1  0.020795  0.263347  0.238918  1
  Sr  Sr4  1  0.238918  0.020795  0.263346  1
  Sr  Sr5  1  0.263347  0.238918  0.020795  1
  Sr  Sr6  1  0.500000  0.223559  0.776441  1
  Sr  Sr7  1  0.223559  0.776441  0.500000  1
  Sr  Sr8  1  0.776441  0.500000  0.223559  1
  Sr  Sr9  1  0.500000  0.012698  0.987302  1
  Sr  Sr10  1  0.012698  0.987302  0.500000  1
  Sr  Sr11  1  0.987302  0.500000  0.012698  1
  B  B12  1  0.000000  0.762706  0.237294  1
  B  B13  1  0.762706  0.237294  0.000000  1
  B  B14  1  0.237294  0.000000  0.762706  1
  B  B15  1  0.000000  0.000000  0.000000  1
  I  I16  1  0.747035  0.472092  0.736259  1
  I  I17  1  0.472092  0.736259  0.747035  1
  I  I18  1  0.736259  0.747035  0.472092  1
  I  I19  1  0.252965  0.263741  0.527908  1
  I  I20  1  0.527908  0.252965  0.263741  1
  I  I21  1  0.263741  0.527908  0.252965  1
  I  I22  1  0.000000  0.502649  0.497351  1
  I  I23  1  0.502649  0.497351  0.000000  1
  I  I24  1  0.497351  0.000000  0.502649  1
  I  I25  1  0.000000  0.228370  0.771630  1
  I  I26  1  0.228370  0.771630  0.000000  1
  I  I27  1  0.771630  0.000000  0.228370  1
  N  N28  1  0.898540  0.656701  0.133078  1
  N  N29  1  0.656701  0.133078  0.898540  1
  N  N30  1  0.133078  0.898540  0.656701  1
  N  N31  1  0.101460  0.866922  0.343299  1
  N  N32  1  0.343299  0.101460  0.866922  1
  N  N33  1  0.866922  0.343299  0.101460  1
  N  N34  1  0.895442  0.895442  0.895442  1
  N  N35  1  0.104558  0.104558  0.104558  1
