# generated using pymatgen
data_Lu4Nb(ReN4)3
_symmetry_space_group_name_H-M   'P 1'
_cell_length_a   7.32768695
_cell_length_b   7.38279517
_cell_length_c   6.22290809
_cell_angle_alpha   71.98969237
_cell_angle_beta   72.71447397
_cell_angle_gamma   80.61335724
_symmetry_Int_Tables_number   1
_chemical_formula_structural   Lu4Nb(ReN4)3
_chemical_formula_sum   'Lu4 Nb1 Re3 N12'
_cell_volume   304.75486326
_cell_formula_units_Z   1
loop_
 _symmetry_equiv_pos_site_id
 _symmetry_equiv_pos_as_xyz
  1  'x, y, z'
loop_
 _atom_site_type_symbol
 _atom_site_label
 _atom_site_symmetry_multiplicity
 _atom_site_fract_x
 _atom_site_fract_y
 _atom_site_fract_z
 _atom_site_occupancy
  Lu  Lu0  1  0.908707  0.090259  0.752956  1
  Lu  Lu1  1  0.093839  0.908606  0.247874  1
  Lu  Lu2  1  0.713744  0.273587  0.256234  1
  Lu  Lu3  1  0.280428  0.717448  0.751187  1
  Nb  Nb4  1  0.622300  0.798526  0.284181  1
  Re  Re5  1  0.200377  0.380231  0.213877  1
  Re  Re6  1  0.379311  0.203191  0.715271  1
  Re  Re7  1  0.796043  0.616902  0.789191  1
  N  N8  1  0.670150  0.607362  0.093855  1
  N  N9  1  0.364070  0.879444  0.349357  1
  N  N10  1  0.368346  0.328496  0.407125  1
  N  N11  1  0.127227  0.633696  0.156742  1
  N  N12  1  0.003413  0.221509  0.336511  1
  N  N13  1  0.794226  0.005064  0.147243  1
  N  N14  1  0.222339  0.004336  0.837756  1
  N  N15  1  0.635586  0.132863  0.656982  1
  N  N16  1  0.327662  0.369553  0.906377  1
  N  N17  1  0.887938  0.376065  0.819512  1
  N  N18  1  0.616369  0.668134  0.616748  1
  N  N19  1  0.987924  0.784730  0.661022  1
