# generated using pymatgen
data_La3Pr13Cd4CoPt3
_symmetry_space_group_name_H-M   'P 1'
_cell_length_a   10.05854874
_cell_length_b   10.08131090
_cell_length_c   10.08131015
_cell_angle_alpha   60.07675670
_cell_angle_beta   60.09388618
_cell_angle_gamma   60.09388779
_symmetry_Int_Tables_number   1
_chemical_formula_structural   La3Pr13Cd4CoPt3
_chemical_formula_sum   'La3 Pr13 Cd4 Co1 Pt3'
_cell_volume   724.30448302
_cell_formula_units_Z   1
loop_
 _symmetry_equiv_pos_site_id
 _symmetry_equiv_pos_as_xyz
  1  'x, y, z'
loop_
 _atom_site_type_symbol
 _atom_site_label
 _atom_site_symmetry_multiplicity
 _atom_site_fract_x
 _atom_site_fract_y
 _atom_site_fract_z
 _atom_site_occupancy
  La  La0  1  0.349697  0.350278  0.350278  1
  La  La1  1  0.342527  0.343773  0.956146  1
  La  La2  1  0.342527  0.956146  0.343773  1
  Pr  Pr3  1  0.951504  0.346044  0.346044  1
  Pr  Pr4  1  0.820771  0.189096  0.189096  1
  Pr  Pr5  1  0.191589  0.808753  0.808753  1
  Pr  Pr6  1  0.189504  0.819853  0.188905  1
  Pr  Pr7  1  0.809094  0.190947  0.808280  1
  Pr  Pr8  1  0.189504  0.188905  0.819853  1
  Pr  Pr9  1  0.809094  0.808280  0.190947  1
  Pr  Pr10  1  0.937822  0.562839  0.562839  1
  Pr  Pr11  1  0.563320  0.934945  0.934945  1
  Pr  Pr12  1  0.562776  0.937536  0.562762  1
  Pr  Pr13  1  0.934789  0.563472  0.934772  1
  Pr  Pr14  1  0.562776  0.562762  0.937536  1
  Pr  Pr15  1  0.934789  0.934772  0.563472  1
  Cd  Cd16  1  0.580116  0.579610  0.579610  1
  Cd  Cd17  1  0.581669  0.580530  0.258991  1
  Cd  Cd18  1  0.581669  0.258991  0.580530  1
  Cd  Cd19  1  0.258857  0.580892  0.580892  1
  Co  Co20  1  0.145087  0.142036  0.142036  1
  Pt  Pt21  1  0.144287  0.143779  0.571785  1
  Pt  Pt22  1  0.144287  0.571785  0.143779  1
  Pt  Pt23  1  0.571944  0.143974  0.143974  1
