# generated using pymatgen
data_NaLa2As3P3Pd20
_symmetry_space_group_name_H-M   'P 1'
_cell_length_a   8.77990226
_cell_length_b   8.83702447
_cell_length_c   8.86981902
_cell_angle_alpha   59.45101316
_cell_angle_beta   60.08864320
_cell_angle_gamma   60.46033225
_symmetry_Int_Tables_number   1
_chemical_formula_structural   NaLa2As3P3Pd20
_chemical_formula_sum   'Na1 La2 As3 P3 Pd20'
_cell_volume   486.54911582
_cell_formula_units_Z   1
loop_
 _symmetry_equiv_pos_site_id
 _symmetry_equiv_pos_as_xyz
  1  'x, y, z'
loop_
 _atom_site_type_symbol
 _atom_site_label
 _atom_site_symmetry_multiplicity
 _atom_site_fract_x
 _atom_site_fract_y
 _atom_site_fract_z
 _atom_site_occupancy
  Na  Na0  1  0.000117  0.999883  0.000117  1
  La  La1  1  0.249264  0.250736  0.249264  1
  La  La2  1  0.749264  0.750736  0.749264  1
  As  As3  1  0.738843  0.261157  0.258370  1
  As  As4  1  0.258370  0.741630  0.738843  1
  As  As5  1  0.259830  0.740170  0.259830  1
  P  P6  1  0.738688  0.261312  0.738688  1
  P  P7  1  0.259996  0.262013  0.737987  1
  P  P8  1  0.737987  0.740004  0.259996  1
  Pd  Pd9  1  0.382566  0.381847  0.392886  1
  Pd  Pd10  1  0.620391  0.609318  0.611907  1
  Pd  Pd11  1  0.390682  0.379609  0.841617  1
  Pd  Pd12  1  0.392886  0.842702  0.382566  1
  Pd  Pd13  1  0.618153  0.617434  0.157298  1
  Pd  Pd14  1  0.611907  0.158383  0.620391  1
  Pd  Pd15  1  0.841617  0.388093  0.390682  1
  Pd  Pd16  1  0.157298  0.607114  0.618153  1
  Pd  Pd17  1  0.349256  0.009089  0.990911  1
  Pd  Pd18  1  0.655001  0.999135  0.000865  1
  Pd  Pd19  1  0.000865  0.344999  0.655001  1
  Pd  Pd20  1  0.990911  0.650744  0.349256  1
  Pd  Pd21  1  0.010290  0.348639  0.989472  1
  Pd  Pd22  1  0.651361  0.989710  0.348402  1
  Pd  Pd23  1  0.989472  0.651598  0.010290  1
  Pd  Pd24  1  0.348402  0.010528  0.651361  1
  Pd  Pd25  1  0.000968  0.999032  0.352721  1
  Pd  Pd26  1  0.989478  0.010522  0.653413  1
  Pd  Pd27  1  0.653413  0.346587  0.989478  1
  Pd  Pd28  1  0.352721  0.647279  0.000968  1
