# generated using pymatgen
data_Er2Pa(ZnPd)3
_symmetry_space_group_name_H-M   'P 1'
_cell_length_a   7.40177400
_cell_length_b   7.32488751
_cell_length_c   3.76192900
_cell_angle_alpha   90.00000000
_cell_angle_beta   90.00000000
_cell_angle_gamma   120.34784585
_symmetry_Int_Tables_number   1
_chemical_formula_structural   Er2Pa(ZnPd)3
_chemical_formula_sum   'Er2 Pa1 Zn3 Pd3'
_cell_volume   176.01312497
_cell_formula_units_Z   1
loop_
 _symmetry_equiv_pos_site_id
 _symmetry_equiv_pos_as_xyz
  1  'x, y, z'
loop_
 _atom_site_type_symbol
 _atom_site_label
 _atom_site_symmetry_multiplicity
 _atom_site_fract_x
 _atom_site_fract_y
 _atom_site_fract_z
 _atom_site_occupancy
  Er  Er0  1  0.004125  0.600649  0.000000  1
  Er  Er1  1  0.403476  0.399351  0.000000  1
  Pa  Pa2  1  0.593191  0.000000  0.000000  1
  Zn  Zn3  1  0.247013  0.000000  0.500000  1
  Zn  Zn4  1  0.006405  0.262785  0.500000  1
  Zn  Zn5  1  0.743620  0.737215  0.500000  1
  Pd  Pd6  1  0.992467  0.000000  0.000000  1
  Pd  Pd7  1  0.344473  0.679243  0.500000  1
  Pd  Pd8  1  0.665231  0.320757  0.500000  1
