# generated using pymatgen
data_Dy7ErHg4
_symmetry_space_group_name_H-M   'P 1'
_cell_length_a   7.05982125
_cell_length_b   5.10482900
_cell_length_c   9.27526033
_cell_angle_alpha   90.00000000
_cell_angle_beta   89.96952970
_cell_angle_gamma   90.00000000
_symmetry_Int_Tables_number   1
_chemical_formula_structural   Dy7ErHg4
_chemical_formula_sum   'Dy7 Er1 Hg4'
_cell_volume   334.27273155
_cell_formula_units_Z   1
loop_
 _symmetry_equiv_pos_site_id
 _symmetry_equiv_pos_as_xyz
  1  'x, y, z'
loop_
 _atom_site_type_symbol
 _atom_site_label
 _atom_site_symmetry_multiplicity
 _atom_site_fract_x
 _atom_site_fract_y
 _atom_site_fract_z
 _atom_site_occupancy
  Dy  Dy0  1  0.331052  0.250000  0.074340  1
  Dy  Dy1  1  0.016630  0.750000  0.193943  1
  Dy  Dy2  1  0.516915  0.750000  0.305882  1
  Dy  Dy3  1  0.830466  0.250000  0.425473  1
  Dy  Dy4  1  0.169412  0.750000  0.574545  1
  Dy  Dy5  1  0.483315  0.250000  0.694139  1
  Dy  Dy6  1  0.982828  0.250000  0.806111  1
  Er  Er7  1  0.669040  0.750000  0.925394  1
  Hg  Hg8  1  0.762822  0.250000  0.102014  1
  Hg  Hg9  1  0.263007  0.250000  0.397570  1
  Hg  Hg10  1  0.736881  0.750000  0.602946  1
  Hg  Hg11  1  0.237631  0.750000  0.897641  1
