# generated using pymatgen
data_NpPBr9
_symmetry_space_group_name_H-M   'P 1'
_cell_length_a   8.40787025
_cell_length_b   10.98244349
_cell_length_c   10.79984400
_cell_angle_alpha   104.19251718
_cell_angle_beta   98.23761714
_cell_angle_gamma   89.44430927
_symmetry_Int_Tables_number   1
_chemical_formula_structural   NpPBr9
_chemical_formula_sum   'Np2 P2 Br18'
_cell_volume   956.49647978
_cell_formula_units_Z   2
loop_
 _symmetry_equiv_pos_site_id
 _symmetry_equiv_pos_as_xyz
  1  'x, y, z'
loop_
 _atom_site_type_symbol
 _atom_site_label
 _atom_site_symmetry_multiplicity
 _atom_site_fract_x
 _atom_site_fract_y
 _atom_site_fract_z
 _atom_site_occupancy
  Np  Np0  1  0.603991  0.651117  0.661113  1
  Np  Np1  1  0.396009  0.348883  0.338887  1
  P  P2  1  0.068715  0.189625  0.787828  1
  P  P3  1  0.931285  0.810375  0.212172  1
  Br  Br4  1  0.352881  0.520568  0.184941  1
  Br  Br5  1  0.647119  0.479432  0.815059  1
  Br  Br6  1  0.450058  0.184919  0.488657  1
  Br  Br7  1  0.549942  0.815081  0.511343  1
  Br  Br8  1  0.083304  0.271692  0.267503  1
  Br  Br9  1  0.916696  0.728308  0.732497  1
  Br  Br10  1  0.530749  0.184775  0.148807  1
  Br  Br11  1  0.469251  0.815225  0.851193  1
  Br  Br12  1  0.294487  0.533533  0.551311  1
  Br  Br13  1  0.705513  0.466467  0.448689  1
  Br  Br14  1  0.816130  0.653779  0.058715  1
  Br  Br15  1  0.183870  0.346221  0.941285  1
  Br  Br16  1  0.005719  0.240637  0.605123  1
  Br  Br17  1  0.994281  0.759363  0.394877  1
  Br  Br18  1  0.232327  0.032546  0.769600  1
  Br  Br19  1  0.767673  0.967454  0.230400  1
  Br  Br20  1  0.850583  0.130510  0.845809  1
  Br  Br21  1  0.149417  0.869490  0.154191  1
