# generated using pymatgen
data_Ho5Er3In4
_symmetry_space_group_name_H-M   'P 1'
_cell_length_a   5.16406900
_cell_length_b   6.75012677
_cell_length_c   9.68465573
_cell_angle_alpha   89.97487631
_cell_angle_beta   90.00000000
_cell_angle_gamma   90.00000000
_symmetry_Int_Tables_number   1
_chemical_formula_structural   Ho5Er3In4
_chemical_formula_sum   'Ho5 Er3 In4'
_cell_volume   337.58886309
_cell_formula_units_Z   1
loop_
 _symmetry_equiv_pos_site_id
 _symmetry_equiv_pos_as_xyz
  1  'x, y, z'
loop_
 _atom_site_type_symbol
 _atom_site_label
 _atom_site_symmetry_multiplicity
 _atom_site_fract_x
 _atom_site_fract_y
 _atom_site_fract_z
 _atom_site_occupancy
  Ho  Ho0  1  0.250000  0.815290  0.928734  1
  Ho  Ho1  1  0.750000  0.531565  0.785942  1
  Ho  Ho2  1  0.250000  0.468264  0.213984  1
  Ho  Ho3  1  0.750000  0.031684  0.714198  1
  Ho  Ho4  1  0.250000  0.968364  0.285908  1
  Er  Er5  1  0.750000  0.684920  0.428627  1
  Er  Er6  1  0.250000  0.315133  0.571274  1
  Er  Er7  1  0.750000  0.184647  0.071367  1
  In  In8  1  0.750000  0.213173  0.395101  1
  In  In9  1  0.250000  0.786681  0.604504  1
  In  In10  1  0.750000  0.712732  0.105341  1
  In  In11  1  0.250000  0.287545  0.895016  1
