# generated using pymatgen
data_Tb5YMn16(CoP6)2
_symmetry_space_group_name_H-M   'P 1'
_cell_length_a   3.64838400
_cell_length_b   10.86745100
_cell_length_c   12.64850300
_cell_angle_alpha   90.00223659
_cell_angle_beta   90.00000000
_cell_angle_gamma   90.00000000
_symmetry_Int_Tables_number   1
_chemical_formula_structural   Tb5YMn16(CoP6)2
_chemical_formula_sum   'Tb5 Y1 Mn16 Co2 P12'
_cell_volume   501.49587032
_cell_formula_units_Z   1
loop_
 _symmetry_equiv_pos_site_id
 _symmetry_equiv_pos_as_xyz
  1  'x, y, z'
loop_
 _atom_site_type_symbol
 _atom_site_label
 _atom_site_symmetry_multiplicity
 _atom_site_fract_x
 _atom_site_fract_y
 _atom_site_fract_z
 _atom_site_occupancy
  Tb  Tb0  1  0.000000  0.499936  0.532205  1
  Tb  Tb1  1  0.500000  0.000053  0.467721  1
  Tb  Tb2  1  0.500000  0.822777  0.206591  1
  Tb  Tb3  1  0.500000  0.177275  0.206664  1
  Tb  Tb4  1  0.000000  0.677202  0.793448  1
  Y  Y5  1  0.000000  0.322544  0.793451  1
  Mn  Mn6  1  0.500000  0.499973  0.166695  1
  Mn  Mn7  1  0.000000  0.999978  0.833286  1
  Mn  Mn8  1  0.000000  0.499956  0.992524  1
  Mn  Mn9  1  0.500000  0.000069  0.007360  1
  Mn  Mn10  1  0.500000  0.332748  0.997409  1
  Mn  Mn11  1  0.500000  0.667234  0.997515  1
  Mn  Mn12  1  0.000000  0.167425  0.002458  1
  Mn  Mn13  1  0.000000  0.832609  0.002505  1
  Mn  Mn14  1  0.500000  0.297994  0.432428  1
  Mn  Mn15  1  0.500000  0.701988  0.432357  1
  Mn  Mn16  1  0.000000  0.202112  0.567714  1
  Mn  Mn17  1  0.000000  0.797954  0.567586  1
  Mn  Mn18  1  0.500000  0.881853  0.702409  1
  Mn  Mn19  1  0.500000  0.118341  0.702419  1
  Mn  Mn20  1  0.000000  0.618113  0.297598  1
  Mn  Mn21  1  0.000000  0.381851  0.297662  1
  Co  Co22  1  0.500000  0.499930  0.705826  1
  Co  Co23  1  0.000000  0.000032  0.294185  1
  P  P24  1  0.500000  0.499912  0.881518  1
  P  P25  1  0.000000  0.000001  0.118342  1
  P  P26  1  0.500000  0.499971  0.359109  1
  P  P27  1  0.000000  0.000024  0.640897  1
  P  P28  1  0.500000  0.317453  0.618752  1
  P  P29  1  0.500000  0.682635  0.618546  1
  P  P30  1  0.000000  0.182706  0.381449  1
  P  P31  1  0.000000  0.817339  0.381426  1
  P  P32  1  0.500000  0.845842  0.885269  1
  P  P33  1  0.500000  0.154212  0.885140  1
  P  P34  1  0.000000  0.654129  0.114734  1
  P  P35  1  0.000000  0.345828  0.114804  1
