# generated using pymatgen
data_LaNdSb2PtRh
_symmetry_space_group_name_H-M   'P 1'
_cell_length_a   4.69393200
_cell_length_b   7.58627450
_cell_length_c   7.95950840
_cell_angle_alpha   89.76635752
_cell_angle_beta   90.00000000
_cell_angle_gamma   90.00000000
_symmetry_Int_Tables_number   1
_chemical_formula_structural   LaNdSb2PtRh
_chemical_formula_sum   'La2 Nd2 Sb4 Pt2 Rh2'
_cell_volume   283.43141239
_cell_formula_units_Z   2
loop_
 _symmetry_equiv_pos_site_id
 _symmetry_equiv_pos_as_xyz
  1  'x, y, z'
loop_
 _atom_site_type_symbol
 _atom_site_label
 _atom_site_symmetry_multiplicity
 _atom_site_fract_x
 _atom_site_fract_y
 _atom_site_fract_z
 _atom_site_occupancy
  La  La0  1  0.750000  0.985490  0.699466  1
  La  La1  1  0.250000  0.014510  0.300534  1
  Nd  Nd2  1  0.250000  0.509640  0.199077  1
  Nd  Nd3  1  0.750000  0.490360  0.800923  1
  Sb  Sb4  1  0.250000  0.684128  0.584931  1
  Sb  Sb5  1  0.750000  0.315872  0.415069  1
  Sb  Sb6  1  0.750000  0.808654  0.096833  1
  Sb  Sb7  1  0.250000  0.191346  0.903167  1
  Pt  Pt8  1  0.250000  0.792386  0.918742  1
  Pt  Pt9  1  0.750000  0.207614  0.081258  1
  Rh  Rh10  1  0.750000  0.692405  0.419246  1
  Rh  Rh11  1  0.250000  0.307595  0.580754  1
