# generated using pymatgen
data_Sr5Tc2N7
_symmetry_space_group_name_H-M   'P 1'
_cell_length_a   6.44942394
_cell_length_b   9.25152656
_cell_length_c   9.33041936
_cell_angle_alpha   65.01358354
_cell_angle_beta   81.70073544
_cell_angle_gamma   89.78323400
_symmetry_Int_Tables_number   1
_chemical_formula_structural   Sr5Tc2N7
_chemical_formula_sum   'Sr10 Tc4 N14'
_cell_volume   498.31336387
_cell_formula_units_Z   2
loop_
 _symmetry_equiv_pos_site_id
 _symmetry_equiv_pos_as_xyz
  1  'x, y, z'
loop_
 _atom_site_type_symbol
 _atom_site_label
 _atom_site_symmetry_multiplicity
 _atom_site_fract_x
 _atom_site_fract_y
 _atom_site_fract_z
 _atom_site_occupancy
  Sr  Sr0  1  0.402509  0.791178  0.085182  1
  Sr  Sr1  1  0.702660  0.413676  0.146351  1
  Sr  Sr2  1  0.887886  0.847716  0.239258  1
  Sr  Sr3  1  0.145174  0.405459  0.330377  1
  Sr  Sr4  1  0.269220  0.986651  0.433703  1
  Sr  Sr5  1  0.730780  0.013349  0.566298  1
  Sr  Sr6  1  0.854827  0.594541  0.669623  1
  Sr  Sr7  1  0.112113  0.152284  0.760742  1
  Sr  Sr8  1  0.297341  0.586324  0.853649  1
  Sr  Sr9  1  0.597490  0.208822  0.914818  1
  Tc  Tc10  1  0.119795  0.218511  0.084261  1
  Tc  Tc11  1  0.420723  0.639270  0.476377  1
  Tc  Tc12  1  0.579278  0.360730  0.523624  1
  Tc  Tc13  1  0.880206  0.781489  0.915739  1
  N  N14  1  0.227215  0.052001  0.040107  1
  N  N15  1  0.023845  0.648772  0.077413  1
  N  N16  1  0.354279  0.327326  0.096688  1
  N  N17  1  0.950634  0.143530  0.282726  1
  N  N18  1  0.534950  0.551557  0.326004  1
  N  N19  1  0.159392  0.711678  0.427057  1
  N  N20  1  0.582754  0.805547  0.478884  1
  N  N21  1  0.417245  0.194453  0.521116  1
  N  N22  1  0.840608  0.288322  0.572943  1
  N  N23  1  0.465051  0.448444  0.673996  1
  N  N24  1  0.049367  0.856471  0.717274  1
  N  N25  1  0.645720  0.672674  0.903312  1
  N  N26  1  0.976154  0.351228  0.922587  1
  N  N27  1  0.772786  0.947999  0.959892  1
