# generated using pymatgen
data_Y2TmLu17(Cd3Ru)2
_symmetry_space_group_name_H-M   'P 1'
_cell_length_a   9.40160200
_cell_length_b   9.40160247
_cell_length_c   9.69584300
_cell_angle_alpha   90.00000000
_cell_angle_beta   90.00000000
_cell_angle_gamma   119.97353018
_symmetry_Int_Tables_number   1
_chemical_formula_structural   Y2TmLu17(Cd3Ru)2
_chemical_formula_sum   'Y2 Tm1 Lu17 Cd6 Ru2'
_cell_volume   742.39618042
_cell_formula_units_Z   1
loop_
 _symmetry_equiv_pos_site_id
 _symmetry_equiv_pos_as_xyz
  1  'x, y, z'
loop_
 _atom_site_type_symbol
 _atom_site_label
 _atom_site_symmetry_multiplicity
 _atom_site_fract_x
 _atom_site_fract_y
 _atom_site_fract_z
 _atom_site_occupancy
  Y  Y0  1  0.460200  0.919059  0.750000  1
  Y  Y1  1  0.080941  0.539800  0.750000  1
  Tm  Tm2  1  0.541232  0.458768  0.250000  1
  Lu  Lu3  1  0.999780  0.000220  0.499692  1
  Lu  Lu4  1  0.999780  0.000220  0.000308  1
  Lu  Lu5  1  0.209708  0.790292  0.440232  1
  Lu  Lu6  1  0.211014  0.420028  0.440770  1
  Lu  Lu7  1  0.579972  0.788986  0.440770  1
  Lu  Lu8  1  0.789272  0.210728  0.557295  1
  Lu  Lu9  1  0.788632  0.579535  0.557402  1
  Lu  Lu10  1  0.420465  0.211368  0.557402  1
  Lu  Lu11  1  0.789272  0.210728  0.942705  1
  Lu  Lu12  1  0.788632  0.579535  0.942598  1
  Lu  Lu13  1  0.420465  0.211368  0.942598  1
  Lu  Lu14  1  0.209708  0.790292  0.059768  1
  Lu  Lu15  1  0.211014  0.420028  0.059230  1
  Lu  Lu16  1  0.579972  0.788986  0.059230  1
  Lu  Lu17  1  0.540804  0.080764  0.250000  1
  Lu  Lu18  1  0.919236  0.459196  0.250000  1
  Lu  Lu19  1  0.461262  0.538738  0.750000  1
  Cd  Cd20  1  0.886178  0.113822  0.250000  1
  Cd  Cd21  1  0.885505  0.772352  0.250000  1
  Cd  Cd22  1  0.227648  0.114495  0.250000  1
  Cd  Cd23  1  0.112636  0.887364  0.750000  1
  Cd  Cd24  1  0.115067  0.226516  0.750000  1
  Cd  Cd25  1  0.773484  0.884933  0.750000  1
  Ru  Ru26  1  0.332295  0.667705  0.250000  1
  Ru  Ru27  1  0.665825  0.334175  0.750000  1
