# generated using pymatgen
data_LiTa3(PRh)4
_symmetry_space_group_name_H-M   'P 1'
_cell_length_a   3.71316300
_cell_length_b   6.32065267
_cell_length_c   7.26747153
_cell_angle_alpha   90.65222319
_cell_angle_beta   90.00000000
_cell_angle_gamma   90.00000000
_symmetry_Int_Tables_number   1
_chemical_formula_structural   LiTa3(PRh)4
_chemical_formula_sum   'Li1 Ta3 P4 Rh4'
_cell_volume   170.55369804
_cell_formula_units_Z   1
loop_
 _symmetry_equiv_pos_site_id
 _symmetry_equiv_pos_as_xyz
  1  'x, y, z'
loop_
 _atom_site_type_symbol
 _atom_site_label
 _atom_site_symmetry_multiplicity
 _atom_site_fract_x
 _atom_site_fract_y
 _atom_site_fract_z
 _atom_site_occupancy
  Li  Li0  1  0.250000  0.034255  0.824121  1
  Ta  Ta1  1  0.250000  0.526819  0.672315  1
  Ta  Ta2  1  0.750000  0.968926  0.173116  1
  Ta  Ta3  1  0.750000  0.469114  0.326746  1
  P  P4  1  0.250000  0.762061  0.374790  1
  P  P5  1  0.250000  0.250838  0.120665  1
  P  P6  1  0.750000  0.239066  0.627912  1
  P  P7  1  0.750000  0.753580  0.876915  1
  Rh  Rh8  1  0.250000  0.148922  0.436350  1
  Rh  Rh9  1  0.250000  0.642021  0.062304  1
  Rh  Rh10  1  0.750000  0.851926  0.566623  1
  Rh  Rh11  1  0.750000  0.352473  0.938143  1
