# generated using pymatgen
data_Mg2SnB2Ir5
_symmetry_space_group_name_H-M   'P 1'
_cell_length_a   9.68117200
_cell_length_b   9.68117200
_cell_length_c   3.00369300
_cell_angle_alpha   90.00000000
_cell_angle_beta   90.00000000
_cell_angle_gamma   90.00000000
_symmetry_Int_Tables_number   1
_chemical_formula_structural   Mg2SnB2Ir5
_chemical_formula_sum   'Mg4 Sn2 B4 Ir10'
_cell_volume   281.52140064
_cell_formula_units_Z   2
loop_
 _symmetry_equiv_pos_site_id
 _symmetry_equiv_pos_as_xyz
  1  'x, y, z'
loop_
 _atom_site_type_symbol
 _atom_site_label
 _atom_site_symmetry_multiplicity
 _atom_site_fract_x
 _atom_site_fract_y
 _atom_site_fract_z
 _atom_site_occupancy
  Mg  Mg0  1  0.824245  0.324245  0.000000  1
  Mg  Mg1  1  0.175755  0.675755  0.000000  1
  Mg  Mg2  1  0.324245  0.175755  0.000000  1
  Mg  Mg3  1  0.675755  0.824245  0.000000  1
  Sn  Sn4  1  0.500000  0.500000  0.000000  1
  Sn  Sn5  1  0.000000  0.000000  0.000000  1
  B  B6  1  0.622503  0.122503  0.000000  1
  B  B7  1  0.377497  0.877497  0.000000  1
  B  B8  1  0.122503  0.377497  0.000000  1
  B  B9  1  0.877497  0.622503  0.000000  1
  Ir  Ir10  1  0.500000  0.000000  0.500000  1
  Ir  Ir11  1  0.000000  0.500000  0.500000  1
  Ir  Ir12  1  0.722797  0.572098  0.500000  1
  Ir  Ir13  1  0.277203  0.427902  0.500000  1
  Ir  Ir14  1  0.222797  0.927902  0.500000  1
  Ir  Ir15  1  0.777203  0.072098  0.500000  1
  Ir  Ir16  1  0.427902  0.722797  0.500000  1
  Ir  Ir17  1  0.572098  0.277203  0.500000  1
  Ir  Ir18  1  0.072098  0.222797  0.500000  1
  Ir  Ir19  1  0.927902  0.777203  0.500000  1
