# generated using pymatgen
data_Y8HoZr(In2Rh)4
_symmetry_space_group_name_H-M   'P 1'
_cell_length_a   3.63237300
_cell_length_b   8.02350918
_cell_length_c   18.22456158
_cell_angle_alpha   90.02836352
_cell_angle_beta   90.00000000
_cell_angle_gamma   90.00000000
_symmetry_Int_Tables_number   1
_chemical_formula_structural   Y8HoZr(In2Rh)4
_chemical_formula_sum   'Y8 Ho1 Zr1 In8 Rh4'
_cell_volume   531.14344860
_cell_formula_units_Z   1
loop_
 _symmetry_equiv_pos_site_id
 _symmetry_equiv_pos_as_xyz
  1  'x, y, z'
loop_
 _atom_site_type_symbol
 _atom_site_label
 _atom_site_symmetry_multiplicity
 _atom_site_fract_x
 _atom_site_fract_y
 _atom_site_fract_z
 _atom_site_occupancy
  Y  Y0  1  0.000000  0.753434  0.781592  1
  Y  Y1  1  0.000000  0.622661  0.588858  1
  Y  Y2  1  0.000000  0.254336  0.723069  1
  Y  Y3  1  0.000000  0.378180  0.411108  1
  Y  Y4  1  0.000000  0.249441  0.217433  1
  Y  Y5  1  0.000000  0.000683  0.499261  1
  Y  Y6  1  0.000000  0.743879  0.277971  1
  Y  Y7  1  0.000000  0.499865  0.002144  1
  Ho  Ho8  1  0.000000  0.122618  0.912557  1
  Zr  Zr9  1  0.000000  0.878372  0.089591  1
  In  In10  1  0.500000  0.802468  0.938212  1
  In  In11  1  0.500000  0.574727  0.148842  1
  In  In12  1  0.500000  0.438496  0.852347  1
  In  In13  1  0.500000  0.063910  0.346166  1
  In  In14  1  0.500000  0.296558  0.568867  1
  In  In15  1  0.500000  0.937227  0.650921  1
  In  In16  1  0.500000  0.703770  0.431114  1
  In  In17  1  0.500000  0.193076  0.065315  1
  Rh  Rh18  1  0.500000  0.529106  0.696711  1
  Rh  Rh19  1  0.500000  0.468868  0.302872  1
  Rh  Rh20  1  0.500000  0.028022  0.806985  1
  Rh  Rh21  1  0.500000  0.960303  0.188066  1
