# generated using pymatgen
data_CaDyTaIr3
_symmetry_space_group_name_H-M   'P 1'
_cell_length_a   5.66957750
_cell_length_b   5.25265189
_cell_length_c   5.66958000
_cell_angle_alpha   57.33765212
_cell_angle_beta   59.99999709
_cell_angle_gamma   57.33765320
_symmetry_Int_Tables_number   1
_chemical_formula_structural   CaDyTaIr3
_chemical_formula_sum   'Ca1 Dy1 Ta1 Ir3'
_cell_volume   114.35691383
_cell_formula_units_Z   1
loop_
 _symmetry_equiv_pos_site_id
 _symmetry_equiv_pos_as_xyz
  1  'x, y, z'
loop_
 _atom_site_type_symbol
 _atom_site_label
 _atom_site_symmetry_multiplicity
 _atom_site_fract_x
 _atom_site_fract_y
 _atom_site_fract_z
 _atom_site_occupancy
  Ca  Ca0  1  0.750309  0.749071  0.750309  1
  Dy  Dy1  1  0.499376  0.501873  0.499376  1
  Ta  Ta2  1  0.125573  0.623281  0.125573  1
  Ir  Ir3  1  0.124483  0.125258  0.625775  1
  Ir  Ir4  1  0.625775  0.125258  0.124483  1
  Ir  Ir5  1  0.124483  0.125258  0.124483  1
