# generated using pymatgen
data_Nd4RuBr6
_symmetry_space_group_name_H-M   'P 1'
_cell_length_a   4.16005700
_cell_length_b   13.98494200
_cell_length_c   14.47840700
_cell_angle_alpha   90.00000000
_cell_angle_beta   90.00000000
_cell_angle_gamma   90.00000000
_symmetry_Int_Tables_number   1
_chemical_formula_structural   Nd4RuBr6
_chemical_formula_sum   'Nd8 Ru2 Br12'
_cell_volume   842.32701908
_cell_formula_units_Z   2
loop_
 _symmetry_equiv_pos_site_id
 _symmetry_equiv_pos_as_xyz
  1  'x, y, z'
loop_
 _atom_site_type_symbol
 _atom_site_label
 _atom_site_symmetry_multiplicity
 _atom_site_fract_x
 _atom_site_fract_y
 _atom_site_fract_z
 _atom_site_occupancy
  Nd  Nd0  1  0.500000  0.108827  0.350300  1
  Nd  Nd1  1  0.500000  0.891173  0.649700  1
  Nd  Nd2  1  0.500000  0.608827  0.149700  1
  Nd  Nd3  1  0.500000  0.391173  0.850300  1
  Nd  Nd4  1  0.000000  0.125703  0.585806  1
  Nd  Nd5  1  0.000000  0.874297  0.414194  1
  Nd  Nd6  1  0.000000  0.625703  0.914194  1
  Nd  Nd7  1  0.000000  0.374297  0.085806  1
  Ru  Ru8  1  0.500000  0.000000  0.500000  1
  Ru  Ru9  1  0.500000  0.500000  0.000000  1
  Br  Br10  1  0.500000  0.237266  0.173284  1
  Br  Br11  1  0.500000  0.762734  0.826716  1
  Br  Br12  1  0.500000  0.737266  0.326716  1
  Br  Br13  1  0.500000  0.262734  0.673284  1
  Br  Br14  1  0.000000  0.249250  0.415006  1
  Br  Br15  1  0.000000  0.750750  0.584994  1
  Br  Br16  1  0.000000  0.749250  0.084994  1
  Br  Br17  1  0.000000  0.250750  0.915006  1
  Br  Br18  1  0.000000  0.999142  0.244390  1
  Br  Br19  1  0.000000  0.000858  0.755610  1
  Br  Br20  1  0.000000  0.499142  0.255610  1
  Br  Br21  1  0.000000  0.500858  0.744390  1
