# generated using pymatgen
data_NbNi6W
_symmetry_space_group_name_H-M   'P 1'
_cell_length_a   4.26736700
_cell_length_b   4.50308700
_cell_length_c   5.07391500
_cell_angle_alpha   90.00000000
_cell_angle_beta   90.00000000
_cell_angle_gamma   90.00000000
_symmetry_Int_Tables_number   1
_chemical_formula_structural   NbNi6W
_chemical_formula_sum   'Nb1 Ni6 W1'
_cell_volume   97.50199896
_cell_formula_units_Z   1
loop_
 _symmetry_equiv_pos_site_id
 _symmetry_equiv_pos_as_xyz
  1  'x, y, z'
loop_
 _atom_site_type_symbol
 _atom_site_label
 _atom_site_symmetry_multiplicity
 _atom_site_fract_x
 _atom_site_fract_y
 _atom_site_fract_z
 _atom_site_occupancy
  Nb  Nb0  1  0.000000  0.346326  0.000000  1
  Ni  Ni1  1  0.500000  0.157403  0.746005  1
  Ni  Ni2  1  0.500000  0.157403  0.253995  1
  Ni  Ni3  1  0.000000  0.838403  0.743473  1
  Ni  Ni4  1  0.000000  0.838403  0.256527  1
  Ni  Ni5  1  0.000000  0.332819  0.500000  1
  Ni  Ni6  1  0.500000  0.678838  0.000000  1
  W  W7  1  0.500000  0.650404  0.500000  1
