# generated using pymatgen
data_NaEu4Mg3Pb4
_symmetry_space_group_name_H-M   'P 1'
_cell_length_a   8.11372789
_cell_length_b   4.86934300
_cell_length_c   9.11446491
_cell_angle_alpha   90.00000000
_cell_angle_beta   89.64884721
_cell_angle_gamma   90.00000000
_symmetry_Int_Tables_number   1
_chemical_formula_structural   NaEu4Mg3Pb4
_chemical_formula_sum   'Na1 Eu4 Mg3 Pb4'
_cell_volume   360.09229369
_cell_formula_units_Z   1
loop_
 _symmetry_equiv_pos_site_id
 _symmetry_equiv_pos_as_xyz
  1  'x, y, z'
loop_
 _atom_site_type_symbol
 _atom_site_label
 _atom_site_symmetry_multiplicity
 _atom_site_fract_x
 _atom_site_fract_y
 _atom_site_fract_z
 _atom_site_occupancy
  Na  Na0  1  0.151666  0.250000  0.932533  1
  Eu  Eu1  1  0.018381  0.250000  0.310589  1
  Eu  Eu2  1  0.514736  0.250000  0.195080  1
  Eu  Eu3  1  0.983139  0.750000  0.686158  1
  Eu  Eu4  1  0.483799  0.750000  0.809871  1
  Mg  Mg5  1  0.647283  0.250000  0.565815  1
  Mg  Mg6  1  0.854179  0.750000  0.063823  1
  Mg  Mg7  1  0.350171  0.750000  0.433026  1
  Pb  Pb8  1  0.272351  0.250000  0.604782  1
  Pb  Pb9  1  0.759669  0.250000  0.888218  1
  Pb  Pb10  1  0.731483  0.750000  0.388048  1
  Pb  Pb11  1  0.233144  0.750000  0.122058  1
