# generated using pymatgen
data_Co6ReGeMo5
_symmetry_space_group_name_H-M   'P 1'
_cell_length_a   8.91719544
_cell_length_b   8.91719506
_cell_length_c   8.91719669
_cell_angle_alpha   31.08055532
_cell_angle_beta   31.08056059
_cell_angle_gamma   31.08056075
_symmetry_Int_Tables_number   1
_chemical_formula_structural   Co6ReGeMo5
_chemical_formula_sum   'Co6 Re1 Ge1 Mo5'
_cell_volume   167.65906768
_cell_formula_units_Z   1
loop_
 _symmetry_equiv_pos_site_id
 _symmetry_equiv_pos_as_xyz
  1  'x, y, z'
loop_
 _atom_site_type_symbol
 _atom_site_label
 _atom_site_symmetry_multiplicity
 _atom_site_fract_x
 _atom_site_fract_y
 _atom_site_fract_z
 _atom_site_occupancy
  Co  Co0  1  0.089931  0.089931  0.585316  1
  Co  Co1  1  0.416566  0.909080  0.909080  1
  Co  Co2  1  0.585316  0.089931  0.089931  1
  Co  Co3  1  0.909080  0.909080  0.416566  1
  Co  Co4  1  0.909080  0.416566  0.909080  1
  Co  Co5  1  0.089931  0.585316  0.089931  1
  Re  Re6  1  0.831836  0.831836  0.831836  1
  Ge  Ge7  1  0.000156  0.000156  0.000156  1
  Mo  Mo8  1  0.652202  0.652202  0.652202  1
  Mo  Mo9  1  0.451393  0.451393  0.451393  1
  Mo  Mo10  1  0.548738  0.548738  0.548738  1
  Mo  Mo11  1  0.168092  0.168092  0.168092  1
  Mo  Mo12  1  0.347680  0.347680  0.347680  1
