# generated using pymatgen
data_Sc2CoSn2Pt
_symmetry_space_group_name_H-M   'P 1'
_cell_length_a   7.48635000
_cell_length_b   7.48635026
_cell_length_c   6.87399600
_cell_angle_alpha   90.00000000
_cell_angle_beta   90.00000000
_cell_angle_gamma   120.00000771
_symmetry_Int_Tables_number   1
_chemical_formula_structural   Sc2CoSn2Pt
_chemical_formula_sum   'Sc6 Co3 Sn6 Pt3'
_cell_volume   333.64155949
_cell_formula_units_Z   3
loop_
 _symmetry_equiv_pos_site_id
 _symmetry_equiv_pos_as_xyz
  1  'x, y, z'
loop_
 _atom_site_type_symbol
 _atom_site_label
 _atom_site_symmetry_multiplicity
 _atom_site_fract_x
 _atom_site_fract_y
 _atom_site_fract_z
 _atom_site_occupancy
  Sc  Sc0  1  0.398701  0.008328  0.246584  1
  Sc  Sc1  1  0.609627  0.601299  0.246584  1
  Sc  Sc2  1  0.991672  0.390373  0.246584  1
  Sc  Sc3  1  0.396294  0.003819  0.753690  1
  Sc  Sc4  1  0.607525  0.603706  0.753690  1
  Sc  Sc5  1  0.996181  0.392475  0.753690  1
  Co  Co6  1  0.000000  0.000000  0.768602  1
  Co  Co7  1  0.000000  0.000000  0.231039  1
  Co  Co8  1  0.666667  0.333333  0.996160  1
  Sn  Sn9  1  0.277910  0.268833  0.000035  1
  Sn  Sn10  1  0.990924  0.722090  0.000035  1
  Sn  Sn11  1  0.002979  0.745705  0.499489  1
  Sn  Sn12  1  0.742726  0.997021  0.499489  1
  Sn  Sn13  1  0.254295  0.257274  0.499489  1
  Sn  Sn14  1  0.731167  0.009076  0.000035  1
  Pt  Pt15  1  0.333333  0.666667  0.496267  1
  Pt  Pt16  1  0.333333  0.666667  0.004375  1
  Pt  Pt17  1  0.666667  0.333333  0.504163  1
