# generated using pymatgen
data_Sc4FeB8Ru8W
_symmetry_space_group_name_H-M   'P 1'
_cell_length_a   3.01539400
_cell_length_b   8.49577052
_cell_length_c   9.98749470
_cell_angle_alpha   90.78575558
_cell_angle_beta   90.00000000
_cell_angle_gamma   90.00000000
_symmetry_Int_Tables_number   1
_chemical_formula_structural   Sc4FeB8Ru8W
_chemical_formula_sum   'Sc4 Fe1 B8 Ru8 W1'
_cell_volume   255.83653255
_cell_formula_units_Z   1
loop_
 _symmetry_equiv_pos_site_id
 _symmetry_equiv_pos_as_xyz
  1  'x, y, z'
loop_
 _atom_site_type_symbol
 _atom_site_label
 _atom_site_symmetry_multiplicity
 _atom_site_fract_x
 _atom_site_fract_y
 _atom_site_fract_z
 _atom_site_occupancy
  Sc  Sc0  1  0.500000  0.843676  0.173077  1
  Sc  Sc1  1  0.500000  0.158509  0.826923  1
  Sc  Sc2  1  0.500000  0.660737  0.685490  1
  Sc  Sc3  1  0.500000  0.342235  0.313510  1
  Fe  Fe4  1  0.000000  0.002202  0.999928  1
  B  B5  1  0.500000  0.966232  0.590880  1
  B  B6  1  0.500000  0.034714  0.407781  1
  B  B7  1  0.500000  0.858254  0.906759  1
  B  B8  1  0.500000  0.139596  0.093198  1
  B  B9  1  0.500000  0.646282  0.399715  1
  B  B10  1  0.500000  0.350339  0.601373  1
  B  B11  1  0.500000  0.464533  0.913436  1
  B  B12  1  0.500000  0.532935  0.088315  1
  Ru  Ru13  1  0.000000  0.330790  0.047170  1
  Ru  Ru14  1  0.000000  0.841597  0.453124  1
  Ru  Ru15  1  0.000000  0.158990  0.544498  1
  Ru  Ru16  1  0.000000  0.403712  0.761447  1
  Ru  Ru17  1  0.000000  0.597531  0.239217  1
  Ru  Ru18  1  0.000000  0.499615  0.500765  1
  Ru  Ru19  1  0.000000  0.911340  0.741901  1
  Ru  Ru20  1  0.000000  0.092501  0.256351  1
  W  W21  1  0.000000  0.663679  0.955142  1
