# generated using pymatgen
data_TbDy5Al24ZnOs7
_symmetry_space_group_name_H-M   'P 1'
_cell_length_a   8.87125920
_cell_length_b   8.87006135
_cell_length_c   9.55608103
_cell_angle_alpha   89.93517360
_cell_angle_beta   90.05554065
_cell_angle_gamma   119.98296532
_symmetry_Int_Tables_number   1
_chemical_formula_structural   TbDy5Al24ZnOs7
_chemical_formula_sum   'Tb1 Dy5 Al24 Zn1 Os7'
_cell_volume   651.32319536
_cell_formula_units_Z   1
loop_
 _symmetry_equiv_pos_site_id
 _symmetry_equiv_pos_as_xyz
  1  'x, y, z'
loop_
 _atom_site_type_symbol
 _atom_site_label
 _atom_site_symmetry_multiplicity
 _atom_site_fract_x
 _atom_site_fract_y
 _atom_site_fract_z
 _atom_site_occupancy
  Tb  Tb0  1  0.191052  0.385479  0.248114  1
  Dy  Dy1  1  0.808797  0.614001  0.751730  1
  Dy  Dy2  1  0.614125  0.808921  0.248294  1
  Dy  Dy3  1  0.385983  0.191183  0.751707  1
  Dy  Dy4  1  0.194290  0.805799  0.253578  1
  Dy  Dy5  1  0.805710  0.194358  0.746393  1
  Al  Al6  1  0.329610  0.670558  0.020276  1
  Al  Al7  1  0.670422  0.329590  0.979559  1
  Al  Al8  1  0.666150  0.333898  0.517345  1
  Al  Al9  1  0.333930  0.666244  0.482787  1
  Al  Al10  1  0.162579  0.325849  0.573941  1
  Al  Al11  1  0.837457  0.674152  0.426241  1
  Al  Al12  1  0.674177  0.837437  0.573827  1
  Al  Al13  1  0.848778  0.677277  0.080870  1
  Al  Al14  1  0.325889  0.162478  0.426251  1
  Al  Al15  1  0.151208  0.322730  0.918983  1
  Al  Al16  1  0.162938  0.837057  0.575192  1
  Al  Al17  1  0.322748  0.151129  0.080836  1
  Al  Al18  1  0.836938  0.162890  0.424864  1
  Al  Al19  1  0.677317  0.848825  0.919095  1
  Al  Al20  1  0.836563  0.163196  0.076057  1
  Al  Al21  1  0.163294  0.836749  0.923869  1
  Al  Al22  1  0.561517  0.121326  0.249297  1
  Al  Al23  1  0.438483  0.878652  0.750712  1
  Al  Al24  1  0.878463  0.438540  0.249305  1
  Al  Al25  1  0.121366  0.561541  0.750675  1
  Al  Al26  1  0.563812  0.436477  0.254610  1
  Al  Al27  1  0.436429  0.563593  0.745451  1
  Al  Al28  1  0.998940  0.000633  0.250572  1
  Al  Al29  1  0.000907  0.999071  0.749452  1
  Zn  Zn30  1  0.500029  0.500026  0.999980  1
  Os  Os31  1  0.500047  0.000056  0.999970  1
  Os  Os32  1  0.999899  0.500066  0.999845  1
  Os  Os33  1  0.500044  0.000083  0.500054  1
  Os  Os34  1  0.999937  0.500057  0.500126  1
  Os  Os35  1  0.500168  0.500064  0.500131  1
  Os  Os36  1  0.000010  0.000012  0.999978  1
  Os  Os37  1  0.999995  0.000000  0.500035  1
