# generated using pymatgen
data_PrEu3(Re2C3)2
_symmetry_space_group_name_H-M   'P 1'
_cell_length_a   6.56283400
_cell_length_b   5.78537517
_cell_length_c   12.00801600
_cell_angle_alpha   66.21500057
_cell_angle_beta   90.00000000
_cell_angle_gamma   90.00000000
_symmetry_Int_Tables_number   1
_chemical_formula_structural   PrEu3(Re2C3)2
_chemical_formula_sum   'Pr2 Eu6 Re8 C12'
_cell_volume   417.20190817
_cell_formula_units_Z   2
loop_
 _symmetry_equiv_pos_site_id
 _symmetry_equiv_pos_as_xyz
  1  'x, y, z'
loop_
 _atom_site_type_symbol
 _atom_site_label
 _atom_site_symmetry_multiplicity
 _atom_site_fract_x
 _atom_site_fract_y
 _atom_site_fract_z
 _atom_site_occupancy
  Pr  Pr0  1  0.000637  0.274960  0.362557  1
  Pr  Pr1  1  0.500637  0.725040  0.137443  1
  Eu  Eu2  1  0.794841  0.656059  0.906261  1
  Eu  Eu3  1  0.294841  0.343941  0.593739  1
  Eu  Eu4  1  0.199544  0.333558  0.084267  1
  Eu  Eu5  1  0.699544  0.666442  0.415733  1
  Eu  Eu6  1  0.996535  0.734668  0.631511  1
  Eu  Eu7  1  0.496535  0.265332  0.868489  1
  Re  Re8  1  0.988738  0.826174  0.118595  1
  Re  Re9  1  0.488738  0.173826  0.381405  1
  Re  Re10  1  0.012495  0.171683  0.876590  1
  Re  Re11  1  0.512495  0.828317  0.623410  1
  Re  Re12  1  0.763034  0.184262  0.667225  1
  Re  Re13  1  0.233140  0.819781  0.334830  1
  Re  Re14  1  0.733140  0.180219  0.165170  1
  Re  Re15  1  0.263034  0.815738  0.832775  1
  C  C16  1  0.641976  0.514284  0.652574  1
  C  C17  1  0.141976  0.485716  0.847426  1
  C  C18  1  0.362125  0.486384  0.357741  1
  C  C19  1  0.862125  0.513616  0.142259  1
  C  C20  1  0.208679  0.885097  0.986943  1
  C  C21  1  0.708679  0.114903  0.513057  1
  C  C22  1  0.804047  0.129101  0.008959  1
  C  C23  1  0.304047  0.870899  0.491041  1
  C  C24  1  0.467005  0.039423  0.242372  1
  C  C25  1  0.027204  0.027767  0.740625  1
  C  C26  1  0.967005  0.960577  0.257628  1
  C  C27  1  0.527204  0.972233  0.759375  1
