# generated using pymatgen
data_Na4PaBiO6
_symmetry_space_group_name_H-M   'P 1'
_cell_length_a   6.04273188
_cell_length_b   6.04273220
_cell_length_c   5.95083453
_cell_angle_alpha   99.89732676
_cell_angle_beta   99.89733125
_cell_angle_gamma   119.98549302
_symmetry_Int_Tables_number   1
_chemical_formula_structural   Na4PaBiO6
_chemical_formula_sum   'Na4 Pa1 Bi1 O6'
_cell_volume   176.74312561
_cell_formula_units_Z   1
loop_
 _symmetry_equiv_pos_site_id
 _symmetry_equiv_pos_as_xyz
  1  'x, y, z'
loop_
 _atom_site_type_symbol
 _atom_site_label
 _atom_site_symmetry_multiplicity
 _atom_site_fract_x
 _atom_site_fract_y
 _atom_site_fract_z
 _atom_site_occupancy
  Na  Na0  1  0.499058  0.500942  0.000000  1
  Na  Na1  1  0.662231  0.337768  0.500000  1
  Na  Na2  1  0.343831  0.656168  0.500000  1
  Na  Na3  1  0.998380  0.001620  0.500000  1
  Pa  Pa4  1  0.166241  0.833759  0.000000  1
  Bi  Bi5  1  0.831431  0.168569  0.000000  1
  O  O6  1  0.942494  0.596949  0.217407  1
  O  O7  1  0.549305  0.920649  0.222765  1
  O  O8  1  0.229171  0.204543  0.226440  1
  O  O9  1  0.795459  0.770831  0.773562  1
  O  O10  1  0.079351  0.450695  0.777237  1
  O  O11  1  0.403051  0.057506  0.782595  1
