# generated using pymatgen
data_Gd(ZrS2)3
_symmetry_space_group_name_H-M   'P 1'
_cell_length_a   6.28913177
_cell_length_b   6.28913799
_cell_length_c   6.90356237
_cell_angle_alpha   98.66083318
_cell_angle_beta   98.66115350
_cell_angle_gamma   119.95066932
_symmetry_Int_Tables_number   1
_chemical_formula_structural   Gd(ZrS2)3
_chemical_formula_sum   'Gd1 Zr3 S6'
_cell_volume   225.62416406
_cell_formula_units_Z   1
loop_
 _symmetry_equiv_pos_site_id
 _symmetry_equiv_pos_as_xyz
  1  'x, y, z'
loop_
 _atom_site_type_symbol
 _atom_site_label
 _atom_site_symmetry_multiplicity
 _atom_site_fract_x
 _atom_site_fract_y
 _atom_site_fract_z
 _atom_site_occupancy
  Gd  Gd0  1  0.000000  0.000000  0.500000  1
  Zr  Zr1  1  0.832017  0.167975  0.000000  1
  Zr  Zr2  1  0.500000  0.500000  0.000000  1
  Zr  Zr3  1  0.167983  0.832025  0.000000  1
  S  S4  1  0.248533  0.248532  0.234489  1
  S  S5  1  0.911734  0.573514  0.237681  1
  S  S6  1  0.573517  0.911737  0.237684  1
  S  S7  1  0.426483  0.088263  0.762317  1
  S  S8  1  0.088266  0.426486  0.762320  1
  S  S9  1  0.751469  0.751470  0.765512  1
