# generated using pymatgen
data_NiHg4Ir3O14
_symmetry_space_group_name_H-M   'P 1'
_cell_length_a   7.31749405
_cell_length_b   7.31749304
_cell_length_c   7.31749400
_cell_angle_alpha   60.22333567
_cell_angle_beta   60.22334918
_cell_angle_gamma   60.22333078
_symmetry_Int_Tables_number   1
_chemical_formula_structural   NiHg4Ir3O14
_chemical_formula_sum   'Ni1 Hg4 Ir3 O14'
_cell_volume   278.45981788
_cell_formula_units_Z   1
loop_
 _symmetry_equiv_pos_site_id
 _symmetry_equiv_pos_as_xyz
  1  'x, y, z'
loop_
 _atom_site_type_symbol
 _atom_site_label
 _atom_site_symmetry_multiplicity
 _atom_site_fract_x
 _atom_site_fract_y
 _atom_site_fract_z
 _atom_site_occupancy
  Ni  Ni0  1  0.625000  0.625000  0.625000  1
  Hg  Hg1  1  0.625000  0.125000  0.125000  1
  Hg  Hg2  1  0.125000  0.625000  0.125000  1
  Hg  Hg3  1  0.125000  0.125000  0.625000  1
  Hg  Hg4  1  0.125000  0.125000  0.125000  1
  Ir  Ir5  1  0.125000  0.625000  0.625000  1
  Ir  Ir6  1  0.625000  0.125000  0.625000  1
  Ir  Ir7  1  0.625000  0.625000  0.125000  1
  O  O8  1  0.696350  0.696350  0.292847  1
  O  O9  1  0.305285  0.305285  0.705660  1
  O  O10  1  0.696350  0.292847  0.696350  1
  O  O11  1  0.305285  0.705660  0.305285  1
  O  O12  1  0.292847  0.696350  0.696350  1
  O  O13  1  0.705660  0.305285  0.305285  1
  O  O14  1  0.553650  0.553650  0.957153  1
  O  O15  1  0.944715  0.944715  0.544340  1
  O  O16  1  0.553650  0.957153  0.553650  1
  O  O17  1  0.944715  0.544340  0.944715  1
  O  O18  1  0.957153  0.553650  0.553650  1
  O  O19  1  0.544340  0.944715  0.944715  1
  O  O20  1  0.252666  0.252666  0.252666  1
  O  O21  1  0.997334  0.997334  0.997334  1
