# generated using pymatgen
data_Li2Co4P7Ir5Ru3
_symmetry_space_group_name_H-M   'P 1'
_cell_length_a   9.25898114
_cell_length_b   9.21613617
_cell_length_c   3.76413500
_cell_angle_alpha   90.00000000
_cell_angle_beta   90.00000000
_cell_angle_gamma   119.89794301
_symmetry_Int_Tables_number   1
_chemical_formula_structural   Li2Co4P7Ir5Ru3
_chemical_formula_sum   'Li2 Co4 P7 Ir5 Ru3'
_cell_volume   278.45409757
_cell_formula_units_Z   1
loop_
 _symmetry_equiv_pos_site_id
 _symmetry_equiv_pos_as_xyz
  1  'x, y, z'
loop_
 _atom_site_type_symbol
 _atom_site_label
 _atom_site_symmetry_multiplicity
 _atom_site_fract_x
 _atom_site_fract_y
 _atom_site_fract_z
 _atom_site_occupancy
  Li  Li0  1  0.000684  0.001167  0.000000  1
  Li  Li1  1  0.331849  0.665105  0.500000  1
  Co  Co2  1  0.092708  0.390915  0.000000  1
  Co  Co3  1  0.782035  0.175105  0.000000  1
  Co  Co4  1  0.390554  0.221683  0.000000  1
  Co  Co5  1  0.830927  0.606499  0.000000  1
  P  P6  1  0.554415  0.924978  0.000000  1
  P  P7  1  0.359401  0.448912  0.000000  1
  P  P8  1  0.076883  0.617479  0.000000  1
  P  P9  1  0.950475  0.215186  0.500000  1
  P  P10  1  0.262744  0.055259  0.500000  1
  P  P11  1  0.790806  0.735742  0.500000  1
  P  P12  1  0.665283  0.332903  0.000000  1
  Ir  Ir13  1  0.298941  0.897284  0.000000  1
  Ir  Ir14  1  0.599191  0.697186  0.000000  1
  Ir  Ir15  1  0.723416  0.947487  0.500000  1
  Ir  Ir16  1  0.225674  0.287373  0.500000  1
  Ir  Ir17  1  0.055977  0.775243  0.500000  1
  Ru  Ru18  1  0.540768  0.123861  0.500000  1
  Ru  Ru19  1  0.582217  0.456786  0.500000  1
  Ru  Ru20  1  0.885053  0.423851  0.500000  1
