# generated using pymatgen
data_Li2Ac2Ge3
_symmetry_space_group_name_H-M   'P 1'
_cell_length_a   10.09071696
_cell_length_b   10.09071593
_cell_length_c   7.22271100
_cell_angle_alpha   90.00000000
_cell_angle_beta   90.00000000
_cell_angle_gamma   152.93454297
_symmetry_Int_Tables_number   1
_chemical_formula_structural   Li2Ac2Ge3
_chemical_formula_sum   'Li4 Ac4 Ge6'
_cell_volume   334.62886067
_cell_formula_units_Z   2
loop_
 _symmetry_equiv_pos_site_id
 _symmetry_equiv_pos_as_xyz
  1  'x, y, z'
loop_
 _atom_site_type_symbol
 _atom_site_label
 _atom_site_symmetry_multiplicity
 _atom_site_fract_x
 _atom_site_fract_y
 _atom_site_fract_z
 _atom_site_occupancy
  Li  Li0  1  0.809899  0.190101  0.437891  1
  Li  Li1  1  0.190101  0.809899  0.562109  1
  Li  Li2  1  0.809899  0.190101  0.062109  1
  Li  Li3  1  0.190101  0.809899  0.937891  1
  Ac  Ac4  1  0.551997  0.448003  0.750000  1
  Ac  Ac5  1  0.448003  0.551997  0.250000  1
  Ac  Ac6  1  0.341216  0.658784  0.750000  1
  Ac  Ac7  1  0.658784  0.341216  0.250000  1
  Ge  Ge8  1  0.939521  0.060479  0.929882  1
  Ge  Ge9  1  0.060479  0.939521  0.070118  1
  Ge  Ge10  1  0.939521  0.060479  0.570118  1
  Ge  Ge11  1  0.060479  0.939521  0.429882  1
  Ge  Ge12  1  0.720069  0.279931  0.750000  1
  Ge  Ge13  1  0.279931  0.720069  0.250000  1
