# generated using pymatgen
data_PuU4C3
_symmetry_space_group_name_H-M   'P 1'
_cell_length_a   6.08304887
_cell_length_b   6.08304869
_cell_length_c   6.08304851
_cell_angle_alpha   130.85166485
_cell_angle_beta   130.85166421
_cell_angle_gamma   72.04885825
_symmetry_Int_Tables_number   1
_chemical_formula_structural   PuU4C3
_chemical_formula_sum   'Pu1 U4 C3'
_cell_volume   125.94003314
_cell_formula_units_Z   1
loop_
 _symmetry_equiv_pos_site_id
 _symmetry_equiv_pos_as_xyz
  1  'x, y, z'
loop_
 _atom_site_type_symbol
 _atom_site_label
 _atom_site_symmetry_multiplicity
 _atom_site_fract_x
 _atom_site_fract_y
 _atom_site_fract_z
 _atom_site_occupancy
  Pu  Pu0  1  0.500000  0.500000  0.000000  1
  U  U1  1  0.000000  0.500000  0.500000  1
  U  U2  1  0.255784  0.255784  0.000000  1
  U  U3  1  0.500000  0.000000  0.500000  1
  U  U4  1  0.744216  0.744216  0.000000  1
  C  C5  1  0.750000  0.250000  0.500000  1
  C  C6  1  0.000000  0.000000  0.000000  1
  C  C7  1  0.250000  0.750000  0.500000  1
