# generated using pymatgen
data_Er3Th2Sn3Bi
_symmetry_space_group_name_H-M   'P 1'
_cell_length_a   8.16347000
_cell_length_b   8.19287000
_cell_length_c   15.48882200
_cell_angle_alpha   90.00000000
_cell_angle_beta   90.00000000
_cell_angle_gamma   90.00000000
_symmetry_Int_Tables_number   1
_chemical_formula_structural   Er3Th2Sn3Bi
_chemical_formula_sum   'Er12 Th8 Sn12 Bi4'
_cell_volume   1035.92724134
_cell_formula_units_Z   4
loop_
 _symmetry_equiv_pos_site_id
 _symmetry_equiv_pos_as_xyz
  1  'x, y, z'
loop_
 _atom_site_type_symbol
 _atom_site_label
 _atom_site_symmetry_multiplicity
 _atom_site_fract_x
 _atom_site_fract_y
 _atom_site_fract_z
 _atom_site_occupancy
  Er  Er0  1  0.365923  0.839441  0.874074  1
  Er  Er1  1  0.865923  0.660559  0.625926  1
  Er  Er2  1  0.634077  0.160559  0.374074  1
  Er  Er3  1  0.134077  0.339441  0.125926  1
  Er  Er4  1  0.640578  0.163705  0.124148  1
  Er  Er5  1  0.140578  0.336295  0.375852  1
  Er  Er6  1  0.359422  0.836295  0.624148  1
  Er  Er7  1  0.859422  0.663705  0.875852  1
  Er  Er8  1  0.191387  0.496110  0.747561  1
  Er  Er9  1  0.691387  0.003890  0.752439  1
  Er  Er10  1  0.808613  0.503890  0.247561  1
  Er  Er11  1  0.308613  0.996110  0.252439  1
  Th  Th12  1  0.525209  0.320164  0.902680  1
  Th  Th13  1  0.025209  0.179836  0.597320  1
  Th  Th14  1  0.474791  0.679836  0.402680  1
  Th  Th15  1  0.974791  0.820164  0.097320  1
  Th  Th16  1  0.485487  0.677500  0.096935  1
  Th  Th17  1  0.985487  0.822500  0.403065  1
  Th  Th18  1  0.514513  0.322500  0.596935  1
  Th  Th19  1  0.014513  0.177500  0.903065  1
  Sn  Sn20  1  0.702810  0.960496  0.957558  1
  Sn  Sn21  1  0.202810  0.539504  0.542442  1
  Sn  Sn22  1  0.297190  0.039504  0.457558  1
  Sn  Sn23  1  0.797190  0.460496  0.042442  1
  Sn  Sn24  1  0.557942  0.622498  0.749557  1
  Sn  Sn25  1  0.057942  0.877502  0.750443  1
  Sn  Sn26  1  0.442058  0.377502  0.249557  1
  Sn  Sn27  1  0.942058  0.122498  0.250443  1
  Sn  Sn28  1  0.326252  0.142431  0.750386  1
  Sn  Sn29  1  0.826252  0.357569  0.749614  1
  Sn  Sn30  1  0.673748  0.857569  0.250386  1
  Sn  Sn31  1  0.173748  0.642431  0.249614  1
  Bi  Bi32  1  0.297891  0.040700  0.042330  1
  Bi  Bi33  1  0.797891  0.459300  0.457670  1
  Bi  Bi34  1  0.702109  0.959300  0.542330  1
  Bi  Bi35  1  0.202109  0.540700  0.957670  1
