# generated using pymatgen
data_Er5Zn2B4Rh13
_symmetry_space_group_name_H-M   'P 1'
_cell_length_a   4.20772500
_cell_length_b   4.20772500
_cell_length_c   20.46622500
_cell_angle_alpha   90.00000000
_cell_angle_beta   90.00000000
_cell_angle_gamma   90.00000000
_symmetry_Int_Tables_number   1
_chemical_formula_structural   Er5Zn2B4Rh13
_chemical_formula_sum   'Er5 Zn2 B4 Rh13'
_cell_volume   362.35348368
_cell_formula_units_Z   1
loop_
 _symmetry_equiv_pos_site_id
 _symmetry_equiv_pos_as_xyz
  1  'x, y, z'
loop_
 _atom_site_type_symbol
 _atom_site_label
 _atom_site_symmetry_multiplicity
 _atom_site_fract_x
 _atom_site_fract_y
 _atom_site_fract_z
 _atom_site_occupancy
  Er  Er0  1  0.000000  0.000000  0.893135  1
  Er  Er1  1  0.000000  0.000000  0.106865  1
  Er  Er2  1  0.000000  0.000000  0.299392  1
  Er  Er3  1  0.000000  0.000000  0.500000  1
  Er  Er4  1  0.000000  0.000000  0.700608  1
  Zn  Zn5  1  0.500000  0.000000  0.000000  1
  Zn  Zn6  1  0.000000  0.500000  0.000000  1
  B  B7  1  0.500000  0.500000  0.185870  1
  B  B8  1  0.500000  0.500000  0.396322  1
  B  B9  1  0.500000  0.500000  0.603678  1
  B  B10  1  0.500000  0.500000  0.814130  1
  Rh  Rh11  1  0.500000  0.500000  0.917383  1
  Rh  Rh12  1  0.500000  0.500000  0.082617  1
  Rh  Rh13  1  0.500000  0.500000  0.293793  1
  Rh  Rh14  1  0.500000  0.500000  0.500000  1
  Rh  Rh15  1  0.500000  0.500000  0.706207  1
  Rh  Rh16  1  0.500000  0.000000  0.196595  1
  Rh  Rh17  1  0.500000  0.000000  0.398106  1
  Rh  Rh18  1  0.500000  0.000000  0.601894  1
  Rh  Rh19  1  0.500000  0.000000  0.803405  1
  Rh  Rh20  1  0.000000  0.500000  0.196595  1
  Rh  Rh21  1  0.000000  0.500000  0.398106  1
  Rh  Rh22  1  0.000000  0.500000  0.601894  1
  Rh  Rh23  1  0.000000  0.500000  0.803405  1
