# generated using pymatgen
data_SbAsPdF12
_symmetry_space_group_name_H-M   'P 1'
_cell_length_a   11.30482181
_cell_length_b   5.74241579
_cell_length_c   5.76172100
_cell_angle_alpha   57.32826867
_cell_angle_beta   56.44103216
_cell_angle_gamma   56.71739883
_symmetry_Int_Tables_number   1
_chemical_formula_structural   SbAsPdF12
_chemical_formula_sum   'Sb1 As1 Pd1 F12'
_cell_volume   245.09286621
_cell_formula_units_Z   1
loop_
 _symmetry_equiv_pos_site_id
 _symmetry_equiv_pos_as_xyz
  1  'x, y, z'
loop_
 _atom_site_type_symbol
 _atom_site_label
 _atom_site_symmetry_multiplicity
 _atom_site_fract_x
 _atom_site_fract_y
 _atom_site_fract_z
 _atom_site_occupancy
  Sb  Sb0  1  0.001470  0.987643  0.010026  1
  As  As1  1  0.501909  0.010093  0.987088  1
  Pd  Pd2  1  0.740189  0.506466  0.507375  1
  F  F3  1  0.162907  0.129140  0.772728  1
  F  F4  1  0.677303  0.099250  0.781931  1
  F  F5  1  0.042901  0.780496  0.360852  1
  F  F6  1  0.562069  0.788959  0.307932  1
  F  F7  1  0.101499  0.655977  0.892435  1
  F  F8  1  0.625221  0.672944  0.882256  1
  F  F9  1  0.467038  0.198910  0.661120  1
  F  F10  1  0.926417  0.231543  0.679554  1
  F  F11  1  0.351782  0.885777  0.195519  1
  F  F12  1  0.813652  0.892136  0.236353  1
  F  F13  1  0.406135  0.318365  0.092217  1
  F  F14  1  0.869510  0.342301  0.132618  1
