# generated using pymatgen
data_Dy9Y(Bi2Ru)2
_symmetry_space_group_name_H-M   'P 1'
_cell_length_a   7.97949904
_cell_length_b   9.01310800
_cell_length_c   12.48057906
_cell_angle_alpha   90.00000000
_cell_angle_beta   89.98832746
_cell_angle_gamma   90.00000000
_symmetry_Int_Tables_number   1
_chemical_formula_structural   Dy9Y(Bi2Ru)2
_chemical_formula_sum   'Dy18 Y2 Bi8 Ru4'
_cell_volume   897.60430910
_cell_formula_units_Z   2
loop_
 _symmetry_equiv_pos_site_id
 _symmetry_equiv_pos_as_xyz
  1  'x, y, z'
loop_
 _atom_site_type_symbol
 _atom_site_label
 _atom_site_symmetry_multiplicity
 _atom_site_fract_x
 _atom_site_fract_y
 _atom_site_fract_z
 _atom_site_occupancy
  Dy  Dy0  1  0.342298  0.250000  0.706643  1
  Dy  Dy1  1  0.657702  0.750000  0.293357  1
  Dy  Dy2  1  0.375578  0.750000  0.691888  1
  Dy  Dy3  1  0.624422  0.250000  0.308112  1
  Dy  Dy4  1  0.875712  0.250000  0.808148  1
  Dy  Dy5  1  0.124288  0.750000  0.191852  1
  Dy  Dy6  1  0.946277  0.750000  0.504126  1
  Dy  Dy7  1  0.053723  0.250000  0.495874  1
  Dy  Dy8  1  0.446132  0.250000  0.995734  1
  Dy  Dy9  1  0.553868  0.750000  0.004266  1
  Dy  Dy10  1  0.675318  0.041336  0.564131  1
  Dy  Dy11  1  0.324682  0.958664  0.435869  1
  Dy  Dy12  1  0.175249  0.958763  0.935992  1
  Dy  Dy13  1  0.324682  0.541336  0.435869  1
  Dy  Dy14  1  0.824751  0.041237  0.064008  1
  Dy  Dy15  1  0.675318  0.458664  0.564131  1
  Dy  Dy16  1  0.824751  0.458763  0.064008  1
  Dy  Dy17  1  0.175249  0.541237  0.935992  1
  Y  Y18  1  0.842042  0.750000  0.792437  1
  Y  Y19  1  0.157958  0.250000  0.207563  1
  Bi  Bi20  1  0.569036  0.493127  0.827465  1
  Bi  Bi21  1  0.430964  0.506873  0.172535  1
  Bi  Bi22  1  0.069207  0.506844  0.672504  1
  Bi  Bi23  1  0.430964  0.993127  0.172535  1
  Bi  Bi24  1  0.930793  0.493156  0.327496  1
  Bi  Bi25  1  0.569036  0.006873  0.827465  1
  Bi  Bi26  1  0.930793  0.006844  0.327496  1
  Bi  Bi27  1  0.069207  0.993156  0.672504  1
  Ru  Ru28  1  0.573382  0.750000  0.510979  1
  Ru  Ru29  1  0.426618  0.250000  0.489021  1
  Ru  Ru30  1  0.073079  0.250000  0.988200  1
  Ru  Ru31  1  0.926921  0.750000  0.011800  1
