# generated using pymatgen
data_YEr2In3RhAu2
_symmetry_space_group_name_H-M   'P 1'
_cell_length_a   7.73725600
_cell_length_b   7.75703901
_cell_length_c   3.87367100
_cell_angle_alpha   90.00000000
_cell_angle_beta   90.00000000
_cell_angle_gamma   119.91567157
_symmetry_Int_Tables_number   1
_chemical_formula_structural   YEr2In3RhAu2
_chemical_formula_sum   'Y1 Er2 In3 Rh1 Au2'
_cell_volume   201.51376645
_cell_formula_units_Z   1
loop_
 _symmetry_equiv_pos_site_id
 _symmetry_equiv_pos_as_xyz
  1  'x, y, z'
loop_
 _atom_site_type_symbol
 _atom_site_label
 _atom_site_symmetry_multiplicity
 _atom_site_fract_x
 _atom_site_fract_y
 _atom_site_fract_z
 _atom_site_occupancy
  Y  Y0  1  0.599138  0.000000  0.500000  1
  Er  Er1  1  0.399687  0.399745  0.500000  1
  Er  Er2  1  0.999941  0.600255  0.500000  1
  In  In3  1  0.999955  0.255414  0.000000  1
  In  In4  1  0.744540  0.744586  0.000000  1
  In  In5  1  0.256182  0.000000  0.000000  1
  Rh  Rh6  1  0.002003  0.000000  0.500000  1
  Au  Au7  1  0.667566  0.336576  0.000000  1
  Au  Au8  1  0.330989  0.663424  0.000000  1
