# generated using pymatgen
data_Ta7Nb(AlTe4)2
_symmetry_space_group_name_H-M   'P 1'
_cell_length_a   4.86787900
_cell_length_b   11.07807876
_cell_length_c   19.37718628
_cell_angle_alpha   89.83326525
_cell_angle_beta   90.00000000
_cell_angle_gamma   90.00000000
_symmetry_Int_Tables_number   1
_chemical_formula_structural   Ta7Nb(AlTe4)2
_chemical_formula_sum   'Ta14 Nb2 Al4 Te16'
_cell_volume   1044.94419609
_cell_formula_units_Z   2
loop_
 _symmetry_equiv_pos_site_id
 _symmetry_equiv_pos_as_xyz
  1  'x, y, z'
loop_
 _atom_site_type_symbol
 _atom_site_label
 _atom_site_symmetry_multiplicity
 _atom_site_fract_x
 _atom_site_fract_y
 _atom_site_fract_z
 _atom_site_occupancy
  Ta  Ta0  1  0.500000  0.435143  0.617186  1
  Ta  Ta1  1  0.500000  0.065188  0.116850  1
  Ta  Ta2  1  0.500000  0.934807  0.883008  1
  Ta  Ta3  1  0.500000  0.706563  0.536148  1
  Ta  Ta4  1  0.500000  0.294255  0.463661  1
  Ta  Ta5  1  0.500000  0.205586  0.963535  1
  Ta  Ta6  1  0.500000  0.794335  0.036480  1
  Ta  Ta7  1  0.000000  0.308888  0.557026  1
  Ta  Ta8  1  0.000000  0.190825  0.056800  1
  Ta  Ta9  1  0.000000  0.809056  0.943094  1
  Ta  Ta10  1  0.000000  0.399859  0.391201  1
  Ta  Ta11  1  0.000000  0.599044  0.608868  1
  Ta  Ta12  1  0.000000  0.900481  0.108800  1
  Ta  Ta13  1  0.000000  0.099219  0.891099  1
  Nb  Nb14  1  0.500000  0.566152  0.382368  1
  Nb  Nb15  1  0.000000  0.692377  0.442645  1
  Al  Al16  1  0.250018  0.500502  0.499671  1
  Al  Al17  1  0.750018  0.999904  0.000003  1
  Al  Al18  1  0.749982  0.500502  0.499671  1
  Al  Al19  1  0.249982  0.999904  0.000003  1
  Te  Te20  1  0.000000  0.844896  0.562537  1
  Te  Te21  1  0.000000  0.153856  0.438489  1
  Te  Te22  1  0.000000  0.345403  0.937726  1
  Te  Te23  1  0.000000  0.654364  0.062154  1
  Te  Te24  1  0.500000  0.332909  0.317648  1
  Te  Te25  1  0.500000  0.667035  0.682510  1
  Te  Te26  1  0.500000  0.833091  0.182853  1
  Te  Te27  1  0.500000  0.166895  0.817122  1
  Te  Te28  1  0.500000  0.822862  0.404546  1
  Te  Te29  1  0.500000  0.178617  0.596277  1
  Te  Te30  1  0.500000  0.321835  0.095647  1
  Te  Te31  1  0.500000  0.678236  0.904267  1
  Te  Te32  1  0.000000  0.606599  0.302944  1
  Te  Te33  1  0.000000  0.391092  0.697293  1
  Te  Te34  1  0.000000  0.107984  0.197069  1
  Te  Te35  1  0.000000  0.891735  0.802805  1
