# generated using pymatgen
data_Hf6Co17TcP12
_symmetry_space_group_name_H-M   'P 1'
_cell_length_a   3.61943400
_cell_length_b   10.27410400
_cell_length_c   11.92033900
_cell_angle_alpha   90.00000000
_cell_angle_beta   90.00000000
_cell_angle_gamma   90.00000000
_symmetry_Int_Tables_number   1
_chemical_formula_structural   Hf6Co17TcP12
_chemical_formula_sum   'Hf6 Co17 Tc1 P12'
_cell_volume   443.27498694
_cell_formula_units_Z   1
loop_
 _symmetry_equiv_pos_site_id
 _symmetry_equiv_pos_as_xyz
  1  'x, y, z'
loop_
 _atom_site_type_symbol
 _atom_site_label
 _atom_site_symmetry_multiplicity
 _atom_site_fract_x
 _atom_site_fract_y
 _atom_site_fract_z
 _atom_site_occupancy
  Hf  Hf0  1  0.000000  0.500000  0.531072  1
  Hf  Hf1  1  0.500000  0.000000  0.472807  1
  Hf  Hf2  1  0.500000  0.822143  0.209347  1
  Hf  Hf3  1  0.500000  0.177857  0.209347  1
  Hf  Hf4  1  0.000000  0.679126  0.791949  1
  Hf  Hf5  1  0.000000  0.320874  0.791949  1
  Co  Co6  1  0.000000  0.000000  0.834230  1
  Co  Co7  1  0.500000  0.500000  0.702819  1
  Co  Co8  1  0.000000  0.000000  0.296476  1
  Co  Co9  1  0.000000  0.500000  0.988374  1
  Co  Co10  1  0.500000  0.000000  0.014707  1
  Co  Co11  1  0.500000  0.331774  0.989421  1
  Co  Co12  1  0.500000  0.668226  0.989421  1
  Co  Co13  1  0.000000  0.166920  0.006274  1
  Co  Co14  1  0.000000  0.833080  0.006274  1
  Co  Co15  1  0.500000  0.299981  0.433109  1
  Co  Co16  1  0.500000  0.700019  0.433109  1
  Co  Co17  1  0.000000  0.199782  0.566940  1
  Co  Co18  1  0.000000  0.800218  0.566940  1
  Co  Co19  1  0.500000  0.875071  0.707209  1
  Co  Co20  1  0.500000  0.124929  0.707209  1
  Co  Co21  1  0.000000  0.624713  0.294111  1
  Co  Co22  1  0.000000  0.375287  0.294111  1
  Tc  Tc23  1  0.500000  0.500000  0.160909  1
  P  P24  1  0.500000  0.500000  0.877772  1
  P  P25  1  0.000000  0.000000  0.120925  1
  P  P26  1  0.500000  0.500000  0.357633  1
  P  P27  1  0.000000  0.000000  0.646818  1
  P  P28  1  0.500000  0.317102  0.617914  1
  P  P29  1  0.500000  0.682898  0.617914  1
  P  P30  1  0.000000  0.181619  0.383151  1
  P  P31  1  0.000000  0.818381  0.383151  1
  P  P32  1  0.500000  0.847302  0.887912  1
  P  P33  1  0.500000  0.152698  0.887912  1
  P  P34  1  0.000000  0.659759  0.110390  1
  P  P35  1  0.000000  0.340241  0.110390  1
