# generated using pymatgen
data_DyEr2Tm(Co5P3)4
_symmetry_space_group_name_H-M   'P 1'
_cell_length_a   3.63923000
_cell_length_b   10.24544212
_cell_length_c   11.71325641
_cell_angle_alpha   90.01948408
_cell_angle_beta   90.00000000
_cell_angle_gamma   90.00000000
_symmetry_Int_Tables_number   1
_chemical_formula_structural   DyEr2Tm(Co5P3)4
_chemical_formula_sum   'Dy1 Er2 Tm1 Co20 P12'
_cell_volume   436.73483468
_cell_formula_units_Z   1
loop_
 _symmetry_equiv_pos_site_id
 _symmetry_equiv_pos_as_xyz
  1  'x, y, z'
loop_
 _atom_site_type_symbol
 _atom_site_label
 _atom_site_symmetry_multiplicity
 _atom_site_fract_x
 _atom_site_fract_y
 _atom_site_fract_z
 _atom_site_occupancy
  Dy  Dy0  1  0.750000  0.082707  0.797060  1
  Er  Er1  1  0.250000  0.582900  0.702811  1
  Er  Er2  1  0.750000  0.417366  0.297448  1
  Tm  Tm3  1  0.250000  0.917207  0.202362  1
  Co  Co4  1  0.250000  0.717025  0.992673  1
  Co  Co5  1  0.250000  0.782899  0.491992  1
  Co  Co6  1  0.750000  0.283145  0.008328  1
  Co  Co7  1  0.750000  0.216904  0.507838  1
  Co  Co8  1  0.250000  0.407093  0.487655  1
  Co  Co9  1  0.250000  0.092647  0.988669  1
  Co  Co10  1  0.750000  0.592784  0.512350  1
  Co  Co11  1  0.750000  0.906715  0.013066  1
  Co  Co12  1  0.250000  0.221538  0.176891  1
  Co  Co13  1  0.250000  0.279022  0.676542  1
  Co  Co14  1  0.750000  0.778574  0.823432  1
  Co  Co15  1  0.750000  0.721413  0.323197  1
  Co  Co16  1  0.250000  0.882267  0.698427  1
  Co  Co17  1  0.250000  0.617321  0.199215  1
  Co  Co18  1  0.750000  0.116904  0.300568  1
  Co  Co19  1  0.750000  0.383343  0.801202  1
  Co  Co20  1  0.250000  0.468424  0.931865  1
  Co  Co21  1  0.250000  0.031853  0.430441  1
  Co  Co22  1  0.750000  0.532491  0.068773  1
  Co  Co23  1  0.750000  0.967275  0.567406  1
  P  P24  1  0.250000  0.418720  0.112610  1
  P  P25  1  0.250000  0.081421  0.611143  1
  P  P26  1  0.750000  0.581689  0.887811  1
  P  P27  1  0.750000  0.918535  0.386589  1
  P  P28  1  0.250000  0.270649  0.870783  1
  P  P29  1  0.250000  0.230134  0.370232  1
  P  P30  1  0.750000  0.730389  0.130207  1
  P  P31  1  0.750000  0.769889  0.629759  1
  P  P32  1  0.250000  0.601227  0.391212  1
  P  P33  1  0.250000  0.897880  0.891415  1
  P  P34  1  0.750000  0.398641  0.608999  1
  P  P35  1  0.750000  0.101017  0.109028  1
