# generated using pymatgen
data_Sr7La3Pt8
_symmetry_space_group_name_H-M   'P 1'
_cell_length_a   7.97944200
_cell_length_b   8.08259358
_cell_length_c   15.58848489
_cell_angle_alpha   90.07078670
_cell_angle_beta   90.00000000
_cell_angle_gamma   90.00000000
_symmetry_Int_Tables_number   1
_chemical_formula_structural   Sr7La3Pt8
_chemical_formula_sum   'Sr14 La6 Pt16'
_cell_volume   1005.37212347
_cell_formula_units_Z   2
loop_
 _symmetry_equiv_pos_site_id
 _symmetry_equiv_pos_as_xyz
  1  'x, y, z'
loop_
 _atom_site_type_symbol
 _atom_site_label
 _atom_site_symmetry_multiplicity
 _atom_site_fract_x
 _atom_site_fract_y
 _atom_site_fract_z
 _atom_site_occupancy
  Sr  Sr0  1  0.341578  0.830359  0.618892  1
  Sr  Sr1  1  0.841578  0.669641  0.881108  1
  Sr  Sr2  1  0.496046  0.322810  0.903405  1
  Sr  Sr3  1  0.996046  0.177190  0.596595  1
  Sr  Sr4  1  0.504324  0.681301  0.405198  1
  Sr  Sr5  1  0.004324  0.818699  0.094802  1
  Sr  Sr6  1  0.503727  0.679624  0.095694  1
  Sr  Sr7  1  0.003727  0.820376  0.404306  1
  Sr  Sr8  1  0.496410  0.319108  0.596443  1
  Sr  Sr9  1  0.996410  0.180892  0.903557  1
  Sr  Sr10  1  0.179558  0.487018  0.749941  1
  Sr  Sr11  1  0.679558  0.012982  0.750059  1
  Sr  Sr12  1  0.818287  0.517188  0.250528  1
  Sr  Sr13  1  0.318287  0.982812  0.249472  1
  La  La14  1  0.340434  0.833760  0.878448  1
  La  La15  1  0.840434  0.666240  0.621552  1
  La  La16  1  0.659468  0.168947  0.378295  1
  La  La17  1  0.159468  0.331053  0.121705  1
  La  La18  1  0.659062  0.167541  0.122217  1
  La  La19  1  0.159062  0.332459  0.377783  1
  Pt  Pt20  1  0.328485  0.040840  0.039850  1
  Pt  Pt21  1  0.828485  0.459160  0.460150  1
  Pt  Pt22  1  0.678962  0.959781  0.536830  1
  Pt  Pt23  1  0.178962  0.540219  0.963170  1
  Pt  Pt24  1  0.656009  0.972630  0.962172  1
  Pt  Pt25  1  0.156009  0.527370  0.537828  1
  Pt  Pt26  1  0.339732  0.048974  0.454473  1
  Pt  Pt27  1  0.839732  0.451026  0.045527  1
  Pt  Pt28  1  0.550035  0.621436  0.752110  1
  Pt  Pt29  1  0.050035  0.878564  0.747890  1
  Pt  Pt30  1  0.450559  0.369365  0.249297  1
  Pt  Pt31  1  0.950559  0.130635  0.250703  1
  Pt  Pt32  1  0.298173  0.120514  0.756265  1
  Pt  Pt33  1  0.798173  0.379486  0.743735  1
  Pt  Pt34  1  0.699152  0.887079  0.249833  1
  Pt  Pt35  1  0.199152  0.612921  0.250167  1
