# generated using pymatgen
data_Sr2Al20IrOs3
_symmetry_space_group_name_H-M   'P 1'
_cell_length_a   6.93049610
_cell_length_b   6.93334857
_cell_length_c   9.24297204
_cell_angle_alpha   90.13959675
_cell_angle_beta   89.97015015
_cell_angle_gamma   96.34735084
_symmetry_Int_Tables_number   1
_chemical_formula_structural   Sr2Al20IrOs3
_chemical_formula_sum   'Sr2 Al20 Ir1 Os3'
_cell_volume   441.41516027
_cell_formula_units_Z   1
loop_
 _symmetry_equiv_pos_site_id
 _symmetry_equiv_pos_as_xyz
  1  'x, y, z'
loop_
 _atom_site_type_symbol
 _atom_site_label
 _atom_site_symmetry_multiplicity
 _atom_site_fract_x
 _atom_site_fract_y
 _atom_site_fract_z
 _atom_site_occupancy
  Sr  Sr0  1  0.622571  0.378191  0.750622  1
  Sr  Sr1  1  0.377429  0.621809  0.249378  1
  Al  Al2  1  0.279325  0.018365  0.747797  1
  Al  Al3  1  0.018471  0.281435  0.249334  1
  Al  Al4  1  0.720675  0.981635  0.252203  1
  Al  Al5  1  0.981529  0.718565  0.750666  1
  Al  Al6  1  0.879557  0.123707  0.952433  1
  Al  Al7  1  0.120443  0.876293  0.047567  1
  Al  Al8  1  0.877345  0.123175  0.546512  1
  Al  Al9  1  0.122655  0.876825  0.453488  1
  Al  Al10  1  0.644624  0.914298  0.749063  1
  Al  Al11  1  0.914647  0.644134  0.250226  1
  Al  Al12  1  0.355376  0.085702  0.250937  1
  Al  Al13  1  0.085353  0.355866  0.749774  1
  Al  Al14  1  0.337386  0.660734  0.896920  1
  Al  Al15  1  0.662614  0.339266  0.103080  1
  Al  Al16  1  0.338389  0.662537  0.601567  1
  Al  Al17  1  0.661611  0.337463  0.398433  1
  Al  Al18  1  0.726006  0.724313  0.998709  1
  Al  Al19  1  0.726526  0.725954  0.500316  1
  Al  Al20  1  0.273994  0.275687  0.001291  1
  Al  Al21  1  0.273474  0.274046  0.499684  1
  Ir  Ir22  1  0.500000  0.000000  0.000000  1
  Os  Os23  1  0.000000  0.500000  0.000000  1
  Os  Os24  1  0.500000  0.000000  0.500000  1
  Os  Os25  1  0.000000  0.500000  0.500000  1
