# generated using pymatgen
data_TbPr3Y4(CdIr)2
_symmetry_space_group_name_H-M   'P 1'
_cell_length_a   9.80752182
_cell_length_b   9.80752101
_cell_length_c   9.81649800
_cell_angle_alpha   59.96972370
_cell_angle_beta   59.96972642
_cell_angle_gamma   59.93815844
_symmetry_Int_Tables_number   1
_chemical_formula_structural   TbPr3Y4(CdIr)2
_chemical_formula_sum   'Tb2 Pr6 Y8 Cd4 Ir4'
_cell_volume   667.04944531
_cell_formula_units_Z   2
loop_
 _symmetry_equiv_pos_site_id
 _symmetry_equiv_pos_as_xyz
  1  'x, y, z'
loop_
 _atom_site_type_symbol
 _atom_site_label
 _atom_site_symmetry_multiplicity
 _atom_site_fract_x
 _atom_site_fract_y
 _atom_site_fract_z
 _atom_site_occupancy
  Tb  Tb0  1  0.347420  0.347420  0.347075  1
  Tb  Tb1  1  0.347420  0.347420  0.958086  1
  Pr  Pr2  1  0.941063  0.558911  0.559137  1
  Pr  Pr3  1  0.558911  0.941063  0.940888  1
  Pr  Pr4  1  0.558911  0.941063  0.559137  1
  Pr  Pr5  1  0.941063  0.558911  0.940888  1
  Pr  Pr6  1  0.559181  0.559181  0.940819  1
  Pr  Pr7  1  0.941012  0.941012  0.558988  1
  Y  Y8  1  0.347959  0.956808  0.347616  1
  Y  Y9  1  0.956808  0.347959  0.347616  1
  Y  Y10  1  0.811889  0.187507  0.188310  1
  Y  Y11  1  0.187507  0.811889  0.812294  1
  Y  Y12  1  0.187507  0.811889  0.188310  1
  Y  Y13  1  0.811889  0.187507  0.812294  1
  Y  Y14  1  0.187918  0.187918  0.812082  1
  Y  Y15  1  0.812154  0.812154  0.187846  1
  Cd  Cd16  1  0.579317  0.579317  0.579106  1
  Cd  Cd17  1  0.579317  0.579317  0.262261  1
  Cd  Cd18  1  0.579443  0.262018  0.579269  1
  Cd  Cd19  1  0.262018  0.579443  0.579269  1
  Ir  Ir20  1  0.141623  0.141623  0.140559  1
  Ir  Ir21  1  0.141623  0.141623  0.576195  1
  Ir  Ir22  1  0.142081  0.575966  0.140977  1
  Ir  Ir23  1  0.575966  0.142081  0.140977  1
