# generated using pymatgen
data_TbTh2(CoSn)3
_symmetry_space_group_name_H-M   'P 1'
_cell_length_a   7.38734455
_cell_length_b   7.28713249
_cell_length_c   4.01337900
_cell_angle_alpha   90.00000000
_cell_angle_beta   90.00000000
_cell_angle_gamma   119.55226623
_symmetry_Int_Tables_number   1
_chemical_formula_structural   TbTh2(CoSn)3
_chemical_formula_sum   'Tb1 Th2 Co3 Sn3'
_cell_volume   187.94362076
_cell_formula_units_Z   1
loop_
 _symmetry_equiv_pos_site_id
 _symmetry_equiv_pos_as_xyz
  1  'x, y, z'
loop_
 _atom_site_type_symbol
 _atom_site_label
 _atom_site_symmetry_multiplicity
 _atom_site_fract_x
 _atom_site_fract_y
 _atom_site_fract_z
 _atom_site_occupancy
  Tb  Tb0  1  0.000000  0.591747  0.500000  1
  Th  Th1  1  0.414226  0.415745  0.500000  1
  Th  Th2  1  0.585774  0.001519  0.500000  1
  Co  Co3  1  0.349693  0.666922  0.000000  1
  Co  Co4  1  0.000000  0.006727  0.500000  1
  Co  Co5  1  0.650307  0.317228  0.000000  1
  Sn  Sn6  1  0.759471  0.750040  0.000000  1
  Sn  Sn7  1  0.000000  0.259504  0.000000  1
  Sn  Sn8  1  0.240529  0.990569  0.000000  1
