# generated using pymatgen
data_CeHo3CdRu
_symmetry_space_group_name_H-M   'P 1'
_cell_length_a   9.58591087
_cell_length_b   9.58591022
_cell_length_c   9.58591000
_cell_angle_alpha   59.99999387
_cell_angle_beta   59.99999608
_cell_angle_gamma   59.99998920
_symmetry_Int_Tables_number   1
_chemical_formula_structural   CeHo3CdRu
_chemical_formula_sum   'Ce4 Ho12 Cd4 Ru4'
_cell_volume   622.85223144
_cell_formula_units_Z   4
loop_
 _symmetry_equiv_pos_site_id
 _symmetry_equiv_pos_as_xyz
  1  'x, y, z'
loop_
 _atom_site_type_symbol
 _atom_site_label
 _atom_site_symmetry_multiplicity
 _atom_site_fract_x
 _atom_site_fract_y
 _atom_site_fract_z
 _atom_site_occupancy
  Ce  Ce0  1  0.346545  0.346545  0.960367  1
  Ce  Ce1  1  0.346545  0.960367  0.346545  1
  Ce  Ce2  1  0.960367  0.346545  0.346545  1
  Ce  Ce3  1  0.346545  0.346545  0.346545  1
  Ho  Ho4  1  0.563097  0.563097  0.936903  1
  Ho  Ho5  1  0.936903  0.563097  0.936903  1
  Ho  Ho6  1  0.563097  0.936903  0.936903  1
  Ho  Ho7  1  0.936903  0.936903  0.563097  1
  Ho  Ho8  1  0.563097  0.936903  0.563097  1
  Ho  Ho9  1  0.936903  0.563097  0.563097  1
  Ho  Ho10  1  0.187963  0.187963  0.812037  1
  Ho  Ho11  1  0.812037  0.187963  0.812037  1
  Ho  Ho12  1  0.187962  0.812038  0.812037  1
  Ho  Ho13  1  0.812037  0.812038  0.187963  1
  Ho  Ho14  1  0.187962  0.812037  0.187962  1
  Ho  Ho15  1  0.812037  0.187963  0.187963  1
  Cd  Cd16  1  0.581362  0.581362  0.255913  1
  Cd  Cd17  1  0.581362  0.255913  0.581362  1
  Cd  Cd18  1  0.255913  0.581362  0.581362  1
  Cd  Cd19  1  0.581362  0.581362  0.581362  1
  Ru  Ru20  1  0.144313  0.144313  0.567063  1
  Ru  Ru21  1  0.144313  0.567063  0.144313  1
  Ru  Ru22  1  0.567063  0.144313  0.144313  1
  Ru  Ru23  1  0.144313  0.144313  0.144313  1
