# generated using pymatgen
data_HoPa2(CoGe)3
_symmetry_space_group_name_H-M   'P 1'
_cell_length_a   6.82638254
_cell_length_b   6.76886831
_cell_length_c   3.85440700
_cell_angle_alpha   90.00000000
_cell_angle_beta   90.00000000
_cell_angle_gamma   119.72168443
_symmetry_Int_Tables_number   1
_chemical_formula_structural   HoPa2(CoGe)3
_chemical_formula_sum   'Ho1 Pa2 Co3 Ge3'
_cell_volume   154.66998593
_cell_formula_units_Z   1
loop_
 _symmetry_equiv_pos_site_id
 _symmetry_equiv_pos_as_xyz
  1  'x, y, z'
loop_
 _atom_site_type_symbol
 _atom_site_label
 _atom_site_symmetry_multiplicity
 _atom_site_fract_x
 _atom_site_fract_y
 _atom_site_fract_z
 _atom_site_occupancy
  Ho  Ho0  1  0.000000  0.590653  0.499999  1
  Pa  Pa1  1  0.583670  0.999040  0.499999  1
  Pa  Pa2  1  0.416329  0.415369  0.499999  1
  Co  Co3  1  0.640010  0.311354  0.000000  1
  Co  Co4  1  0.359990  0.671345  0.000000  1
  Co  Co5  1  0.000000  0.015700  0.499999  1
  Ge  Ge6  1  0.240028  0.989421  0.000000  1
  Ge  Ge7  1  0.000000  0.257722  0.000000  1
  Ge  Ge8  1  0.759972  0.749393  0.000000  1
