# generated using pymatgen
data_Ho2Er2MoOs7
_symmetry_space_group_name_H-M   'P 1'
_cell_length_a   5.27643048
_cell_length_b   5.27653792
_cell_length_c   8.86009400
_cell_angle_alpha   89.99919625
_cell_angle_beta   90.00130479
_cell_angle_gamma   117.87854015
_symmetry_Int_Tables_number   1
_chemical_formula_structural   Ho2Er2MoOs7
_chemical_formula_sum   'Ho2 Er2 Mo1 Os7'
_cell_volume   218.04734730
_cell_formula_units_Z   1
loop_
 _symmetry_equiv_pos_site_id
 _symmetry_equiv_pos_as_xyz
  1  'x, y, z'
loop_
 _atom_site_type_symbol
 _atom_site_label
 _atom_site_symmetry_multiplicity
 _atom_site_fract_x
 _atom_site_fract_y
 _atom_site_fract_z
 _atom_site_occupancy
  Ho  Ho0  1  0.329871  0.670127  0.437459  1
  Ho  Ho1  1  0.666578  0.333428  0.566148  1
  Er  Er2  1  0.666659  0.333348  0.933932  1
  Er  Er3  1  0.329782  0.670225  0.062488  1
  Mo  Mo4  1  0.832157  0.167827  0.249700  1
  Os  Os5  1  0.994567  0.005422  0.502027  1
  Os  Os6  1  0.994575  0.005421  0.997956  1
  Os  Os7  1  0.826711  0.653126  0.249615  1
  Os  Os8  1  0.346880  0.173290  0.249626  1
  Os  Os9  1  0.177972  0.822036  0.750361  1
  Os  Os10  1  0.172908  0.338678  0.750350  1
  Os  Os11  1  0.661343  0.827070  0.750338  1
