# generated using pymatgen
data_Ho5TmTiMn5O18
_symmetry_space_group_name_H-M   'P 1'
_cell_length_a   6.18529154
_cell_length_b   6.17855656
_cell_length_c   11.65844817
_cell_angle_alpha   90.23311038
_cell_angle_beta   89.55907061
_cell_angle_gamma   120.04487928
_symmetry_Int_Tables_number   1
_chemical_formula_structural   Ho5TmTiMn5O18
_chemical_formula_sum   'Ho5 Tm1 Ti1 Mn5 O18'
_cell_volume   385.66402167
_cell_formula_units_Z   1
loop_
 _symmetry_equiv_pos_site_id
 _symmetry_equiv_pos_as_xyz
  1  'x, y, z'
loop_
 _atom_site_type_symbol
 _atom_site_label
 _atom_site_symmetry_multiplicity
 _atom_site_fract_x
 _atom_site_fract_y
 _atom_site_fract_z
 _atom_site_occupancy
  Ho  Ho0  1  0.334942  0.667092  0.733843  1
  Ho  Ho1  1  0.668540  0.333264  0.733656  1
  Ho  Ho2  1  0.329985  0.665114  0.227628  1
  Ho  Ho3  1  0.002575  0.999633  0.775862  1
  Ho  Ho4  1  0.998322  0.999701  0.271804  1
  Tm  Tm5  1  0.665768  0.335414  0.227453  1
  Ti  Ti6  1  0.665225  0.000118  0.498935  1
  Mn  Mn7  1  0.667015  0.666092  0.999799  1
  Mn  Mn8  1  0.998539  0.332769  0.999859  1
  Mn  Mn9  1  0.998960  0.665100  0.497928  1
  Mn  Mn10  1  0.334813  0.334000  0.497972  1
  Mn  Mn11  1  0.334039  0.001302  0.000014  1
  O  O12  1  0.667138  0.333634  0.021404  1
  O  O13  1  0.360360  0.692446  0.518190  1
  O  O14  1  0.664825  0.306163  0.519077  1
  O  O15  1  0.333472  0.666512  0.021238  1
  O  O16  1  0.000544  0.000004  0.974371  1
  O  O17  1  0.973293  0.001512  0.474497  1
  O  O18  1  0.360741  0.000509  0.836409  1
  O  O19  1  0.358822  0.356330  0.331025  1
  O  O20  1  0.996664  0.640927  0.329880  1
  O  O21  1  0.001092  0.360528  0.836795  1
  O  O22  1  0.640466  0.639080  0.836755  1
  O  O23  1  0.636503  0.002699  0.333047  1
  O  O24  1  0.308320  0.003033  0.163118  1
  O  O25  1  0.311384  0.311109  0.665403  1
  O  O26  1  0.000804  0.689029  0.666421  1
  O  O27  1  0.995912  0.304976  0.163227  1
  O  O28  1  0.693354  0.691920  0.163185  1
  O  O29  1  0.697583  0.999987  0.667208  1
