# generated using pymatgen
data_SrCd9Ag2
_symmetry_space_group_name_H-M   'P 1'
_cell_length_a   9.40308682
_cell_length_b   9.40217255
_cell_length_c   9.40308744
_cell_angle_alpha   99.50152984
_cell_angle_beta   99.47287764
_cell_angle_gamma   132.09999375
_symmetry_Int_Tables_number   1
_chemical_formula_structural   SrCd9Ag2
_chemical_formula_sum   'Sr2 Cd18 Ag4'
_cell_volume   563.68503976
_cell_formula_units_Z   2
loop_
 _symmetry_equiv_pos_site_id
 _symmetry_equiv_pos_as_xyz
  1  'x, y, z'
loop_
 _atom_site_type_symbol
 _atom_site_label
 _atom_site_symmetry_multiplicity
 _atom_site_fract_x
 _atom_site_fract_y
 _atom_site_fract_z
 _atom_site_occupancy
  Sr  Sr0  1  0.750014  0.249975  0.499961  1
  Sr  Sr1  1  0.499986  0.500025  0.000039  1
  Cd  Cd2  1  0.992621  0.315641  0.918875  1
  Cd  Cd3  1  0.684405  0.603224  0.676930  1
  Cd  Cd4  1  0.396765  0.315641  0.323020  1
  Cd  Cd5  1  0.684371  0.007365  0.081168  1
  Cd  Cd6  1  0.853235  0.434359  0.176980  1
  Cd  Cd7  1  0.396730  0.073661  0.081173  1
  Cd  Cd8  1  0.000104  0.000117  0.000014  1
  Cd  Cd9  1  0.853270  0.676339  0.418827  1
  Cd  Cd10  1  0.249896  0.749883  0.499986  1
  Cd  Cd11  1  0.323804  0.742635  0.177006  1
  Cd  Cd12  1  0.257379  0.434359  0.581125  1
  Cd  Cd13  1  0.565629  0.742635  0.418832  1
  Cd  Cd14  1  0.992487  0.073661  0.676930  1
  Cd  Cd15  1  0.926196  0.007365  0.322994  1
  Cd  Cd16  1  0.323706  0.146776  0.581181  1
  Cd  Cd17  1  0.257513  0.676339  0.823070  1
  Cd  Cd18  1  0.565595  0.146776  0.823070  1
  Cd  Cd19  1  0.926294  0.603224  0.918819  1
  Ag  Ag20  1  0.125000  0.875000  0.750000  1
  Ag  Ag21  1  0.125000  0.875000  0.250000  1
  Ag  Ag22  1  0.625000  0.875000  0.750000  1
  Ag  Ag23  1  0.125000  0.375000  0.250000  1
