# generated using pymatgen
data_Tb8Hf12Si15Au
_symmetry_space_group_name_H-M   'P 1'
_cell_length_a   7.29796338
_cell_length_b   7.33819609
_cell_length_c   13.44078450
_cell_angle_alpha   89.93900548
_cell_angle_beta   89.96582061
_cell_angle_gamma   89.98577205
_symmetry_Int_Tables_number   1
_chemical_formula_structural   Tb8Hf12Si15Au
_chemical_formula_sum   'Tb8 Hf12 Si15 Au1'
_cell_volume   719.80568816
_cell_formula_units_Z   1
loop_
 _symmetry_equiv_pos_site_id
 _symmetry_equiv_pos_as_xyz
  1  'x, y, z'
loop_
 _atom_site_type_symbol
 _atom_site_label
 _atom_site_symmetry_multiplicity
 _atom_site_fract_x
 _atom_site_fract_y
 _atom_site_fract_z
 _atom_site_occupancy
  Tb  Tb0  1  0.991745  0.346560  0.214097  1
  Tb  Tb1  1  0.004180  0.655504  0.715263  1
  Tb  Tb2  1  0.154779  0.498875  0.466928  1
  Tb  Tb3  1  0.504288  0.842761  0.033555  1
  Tb  Tb4  1  0.843862  0.502614  0.964893  1
  Tb  Tb5  1  0.497275  0.154389  0.537465  1
  Tb  Tb6  1  0.342958  0.997632  0.784914  1
  Tb  Tb7  1  0.662149  0.997286  0.283646  1
  Hf  Hf8  1  0.174962  0.176361  0.998934  1
  Hf  Hf9  1  0.826170  0.825150  0.500516  1
  Hf  Hf10  1  0.325440  0.680313  0.249237  1
  Hf  Hf11  1  0.675373  0.324606  0.750191  1
  Hf  Hf12  1  0.146930  0.996403  0.374786  1
  Hf  Hf13  1  0.850838  0.003961  0.874464  1
  Hf  Hf14  1  0.504886  0.650288  0.624883  1
  Hf  Hf15  1  0.350897  0.495150  0.874956  1
  Hf  Hf16  1  0.495107  0.350331  0.121882  1
  Hf  Hf17  1  0.652296  0.509877  0.379872  1
  Hf  Hf18  1  0.995746  0.148801  0.626446  1
  Hf  Hf19  1  0.001884  0.849338  0.123768  1
  Si  Si20  1  0.637171  0.705775  0.817917  1
  Si  Si21  1  0.204830  0.863474  0.567889  1
  Si  Si22  1  0.137281  0.795657  0.932326  1
  Si  Si23  1  0.795257  0.136995  0.066381  1
  Si  Si24  1  0.861034  0.201153  0.434909  1
  Si  Si25  1  0.295598  0.363318  0.682964  1
  Si  Si26  1  0.704577  0.637998  0.181871  1
  Si  Si27  1  0.292351  0.045153  0.181969  1
  Si  Si28  1  0.705450  0.950959  0.685745  1
  Si  Si29  1  0.449061  0.794611  0.435651  1
  Si  Si30  1  0.204987  0.549623  0.063853  1
  Si  Si31  1  0.548560  0.204928  0.934640  1
  Si  Si32  1  0.794496  0.450093  0.566519  1
  Si  Si33  1  0.047966  0.295355  0.814969  1
  Si  Si34  1  0.951635  0.704607  0.313597  1
  Au  Au35  1  0.367983  0.294101  0.318103  1
