# generated using pymatgen
data_Tb9LuSi5Sn
_symmetry_space_group_name_H-M   'P 1'
_cell_length_a   8.53946221
_cell_length_b   8.57016043
_cell_length_c   6.40584038
_cell_angle_alpha   89.98203675
_cell_angle_beta   89.97861860
_cell_angle_gamma   119.89570228
_symmetry_Int_Tables_number   1
_chemical_formula_structural   Tb9LuSi5Sn
_chemical_formula_sum   'Tb9 Lu1 Si5 Sn1'
_cell_volume   406.42609805
_cell_formula_units_Z   1
loop_
 _symmetry_equiv_pos_site_id
 _symmetry_equiv_pos_as_xyz
  1  'x, y, z'
loop_
 _atom_site_type_symbol
 _atom_site_label
 _atom_site_symmetry_multiplicity
 _atom_site_fract_x
 _atom_site_fract_y
 _atom_site_fract_z
 _atom_site_occupancy
  Tb  Tb0  1  0.673826  0.342528  0.003135  1
  Tb  Tb1  1  0.331250  0.657478  0.496846  1
  Tb  Tb2  1  0.330972  0.657409  0.002920  1
  Tb  Tb3  1  0.764616  0.000201  0.748844  1
  Tb  Tb4  1  0.754863  0.756104  0.251466  1
  Tb  Tb5  1  0.997918  0.243328  0.251273  1
  Tb  Tb6  1  0.989877  0.748009  0.748472  1
  Tb  Tb7  1  0.241852  0.252064  0.749070  1
  Tb  Tb8  1  0.242708  0.000273  0.250736  1
  Lu  Lu9  1  0.674222  0.343114  0.497061  1
  Si  Si10  1  0.395160  0.391053  0.253382  1
  Si  Si11  1  0.999055  0.606682  0.254014  1
  Si  Si12  1  0.996019  0.393399  0.746309  1
  Si  Si13  1  0.604995  0.604098  0.746355  1
  Si  Si14  1  0.605959  0.002323  0.253130  1
  Sn  Sn15  1  0.396708  0.001938  0.746987  1
