# generated using pymatgen
data_Sr8Li4Si11Pb
_symmetry_space_group_name_H-M   'P 1'
_cell_length_a   11.85859513
_cell_length_b   10.14264818
_cell_length_c   8.65323247
_cell_angle_alpha   77.86127182
_cell_angle_beta   56.63124654
_cell_angle_gamma   45.76387768
_symmetry_Int_Tables_number   1
_chemical_formula_structural   Sr8Li4Si11Pb
_chemical_formula_sum   'Sr8 Li4 Si11 Pb1'
_cell_volume   596.03421286
_cell_formula_units_Z   1
loop_
 _symmetry_equiv_pos_site_id
 _symmetry_equiv_pos_as_xyz
  1  'x, y, z'
loop_
 _atom_site_type_symbol
 _atom_site_label
 _atom_site_symmetry_multiplicity
 _atom_site_fract_x
 _atom_site_fract_y
 _atom_site_fract_z
 _atom_site_occupancy
  Sr  Sr0  1  0.122551  0.120551  0.879093  1
  Sr  Sr1  1  0.874042  0.884267  0.117359  1
  Sr  Sr2  1  0.130845  0.117248  0.373369  1
  Sr  Sr3  1  0.386104  0.367808  0.119300  1
  Sr  Sr4  1  0.619735  0.625523  0.374499  1
  Sr  Sr5  1  0.375095  0.377625  0.623743  1
  Sr  Sr6  1  0.623069  0.628501  0.879878  1
  Sr  Sr7  1  0.871433  0.877498  0.631003  1
  Li  Li8  1  0.094087  0.405069  0.060022  1
  Li  Li9  1  0.835055  0.169781  0.829223  1
  Li  Li10  1  0.164342  0.830392  0.170361  1
  Li  Li11  1  0.416373  0.083228  0.418944  1
  Si  Si12  1  0.076911  0.412374  0.608151  1
  Si  Si13  1  0.423536  0.069458  0.920922  1
  Si  Si14  1  0.591735  0.915338  0.070800  1
  Si  Si15  1  0.338267  0.657909  0.822004  1
  Si  Si16  1  0.657008  0.337090  0.182899  1
  Si  Si17  1  0.822847  0.183831  0.337044  1
  Si  Si18  1  0.182827  0.822264  0.657659  1
  Si  Si19  1  0.906853  0.594116  0.917189  1
  Si  Si20  1  0.563690  0.935528  0.603453  1
  Si  Si21  1  0.339572  0.659509  0.339143  1
  Si  Si22  1  0.659523  0.340979  0.660487  1
  Pb  Pb23  1  0.924504  0.584118  0.403454  1
