# generated using pymatgen
data_Sm2Y6Co3Si12Rh
_symmetry_space_group_name_H-M   'P 1'
_cell_length_a   8.05684500
_cell_length_b   8.05684573
_cell_length_c   8.02535900
_cell_angle_alpha   90.00000000
_cell_angle_beta   90.00000000
_cell_angle_gamma   120.00000110
_symmetry_Int_Tables_number   1
_chemical_formula_structural   Sm2Y6Co3Si12Rh
_chemical_formula_sum   'Sm2 Y6 Co3 Si12 Rh1'
_cell_volume   451.15435341
_cell_formula_units_Z   1
loop_
 _symmetry_equiv_pos_site_id
 _symmetry_equiv_pos_as_xyz
  1  'x, y, z'
loop_
 _atom_site_type_symbol
 _atom_site_label
 _atom_site_symmetry_multiplicity
 _atom_site_fract_x
 _atom_site_fract_y
 _atom_site_fract_z
 _atom_site_occupancy
  Sm  Sm0  1  0.000000  0.000000  0.248894  1
  Sm  Sm1  1  0.000000  0.000000  0.751423  1
  Y  Y2  1  0.012404  0.506202  0.248435  1
  Y  Y3  1  0.493798  0.506202  0.248435  1
  Y  Y4  1  0.503683  0.007369  0.750078  1
  Y  Y5  1  0.493798  0.987596  0.248435  1
  Y  Y6  1  0.503683  0.496317  0.750078  1
  Y  Y7  1  0.992631  0.496317  0.750078  1
  Co  Co8  1  0.333333  0.666667  0.971897  1
  Co  Co9  1  0.333333  0.666667  0.528418  1
  Co  Co10  1  0.666667  0.333333  0.028695  1
  Si  Si11  1  0.172037  0.344076  0.000438  1
  Si  Si12  1  0.655924  0.827963  0.000438  1
  Si  Si13  1  0.172676  0.345353  0.498933  1
  Si  Si14  1  0.345382  0.172691  0.999106  1
  Si  Si15  1  0.172037  0.827963  0.000438  1
  Si  Si16  1  0.654647  0.827324  0.498933  1
  Si  Si17  1  0.827309  0.654618  0.999106  1
  Si  Si18  1  0.333899  0.166950  0.502398  1
  Si  Si19  1  0.172676  0.827324  0.498933  1
  Si  Si20  1  0.833050  0.666101  0.502398  1
  Si  Si21  1  0.827309  0.172691  0.999106  1
  Si  Si22  1  0.833050  0.166950  0.502398  1
  Rh  Rh23  1  0.666667  0.333333  0.472511  1
