# generated using pymatgen
data_TiBi6(PtO9)2
_symmetry_space_group_name_H-M   'P 1'
_cell_length_a   9.28338300
_cell_length_b   9.28338650
_cell_length_c   5.16183000
_cell_angle_alpha   90.00001234
_cell_angle_beta   90.00000000
_cell_angle_gamma   119.99996970
_symmetry_Int_Tables_number   1
_chemical_formula_structural   TiBi6(PtO9)2
_chemical_formula_sum   'Ti1 Bi6 Pt2 O18'
_cell_volume   385.25400495
_cell_formula_units_Z   1
loop_
 _symmetry_equiv_pos_site_id
 _symmetry_equiv_pos_as_xyz
  1  'x, y, z'
loop_
 _atom_site_type_symbol
 _atom_site_label
 _atom_site_symmetry_multiplicity
 _atom_site_fract_x
 _atom_site_fract_y
 _atom_site_fract_z
 _atom_site_occupancy
  Ti  Ti0  1  0.000000  0.000000  0.499952  1
  Bi  Bi1  1  0.000020  0.368322  0.499998  1
  Bi  Bi2  1  0.293323  0.293348  0.000018  1
  Bi  Bi3  1  0.000026  0.706677  0.000018  1
  Bi  Bi4  1  0.631678  0.631697  0.499998  1
  Bi  Bi5  1  0.368303  0.999980  0.499998  1
  Bi  Bi6  1  0.706651  0.999975  0.000018  1
  Pt  Pt7  1  0.333333  0.666667  0.001243  1
  Pt  Pt8  1  0.666667  0.333333  0.998684  1
  O  O9  1  0.088259  0.202584  0.717271  1
  O  O10  1  0.226668  0.457188  0.217834  1
  O  O11  1  0.129768  0.591127  0.786288  1
  O  O12  1  0.408873  0.538641  0.786287  1
  O  O13  1  0.230520  0.773332  0.217834  1
  O  O14  1  0.114323  0.911740  0.717271  1
  O  O15  1  0.542812  0.769480  0.217835  1
  O  O16  1  0.202596  0.088263  0.282696  1
  O  O17  1  0.461359  0.870232  0.786288  1
  O  O18  1  0.797417  0.885677  0.717271  1
  O  O19  1  0.457167  0.226699  0.782263  1
  O  O20  1  0.591144  0.129786  0.213673  1
  O  O21  1  0.538643  0.408856  0.213674  1
  O  O22  1  0.773301  0.230468  0.782263  1
  O  O23  1  0.911737  0.114333  0.282696  1
  O  O24  1  0.769532  0.542832  0.782263  1
  O  O25  1  0.870214  0.461357  0.213672  1
  O  O26  1  0.885667  0.797405  0.282696  1
