# generated using pymatgen
data_MgZr7(Si4Mo3)4
_symmetry_space_group_name_H-M   'P 1'
_cell_length_a   6.59051068
_cell_length_b   6.77944544
_cell_length_c   12.71064224
_cell_angle_alpha   89.99215622
_cell_angle_beta   90.04841279
_cell_angle_gamma   89.91697343
_symmetry_Int_Tables_number   1
_chemical_formula_structural   MgZr7(Si4Mo3)4
_chemical_formula_sum   'Mg1 Zr7 Si16 Mo12'
_cell_volume   567.91078691
_cell_formula_units_Z   1
loop_
 _symmetry_equiv_pos_site_id
 _symmetry_equiv_pos_as_xyz
  1  'x, y, z'
loop_
 _atom_site_type_symbol
 _atom_site_label
 _atom_site_symmetry_multiplicity
 _atom_site_fract_x
 _atom_site_fract_y
 _atom_site_fract_z
 _atom_site_occupancy
  Mg  Mg0  1  0.514458  0.664214  0.587572  1
  Zr  Zr1  1  0.995352  0.170538  0.093361  1
  Zr  Zr2  1  0.005504  0.829293  0.906308  1
  Zr  Zr3  1  0.502278  0.670933  0.908779  1
  Zr  Zr4  1  0.000430  0.829309  0.594579  1
  Zr  Zr5  1  0.496736  0.329678  0.094196  1
  Zr  Zr6  1  0.995945  0.171848  0.406861  1
  Zr  Zr7  1  0.495182  0.326507  0.406245  1
  Si  Si8  1  0.033708  0.124489  0.750230  1
  Si  Si9  1  0.966140  0.876598  0.249981  1
  Si  Si10  1  0.466342  0.625838  0.251345  1
  Si  Si11  1  0.531579  0.376730  0.749425  1
  Si  Si12  1  0.306629  0.858106  0.746320  1
  Si  Si13  1  0.700489  0.136360  0.251102  1
  Si  Si14  1  0.199953  0.364151  0.249705  1
  Si  Si15  1  0.795988  0.637770  0.748822  1
  Si  Si16  1  0.170004  0.463795  0.544050  1
  Si  Si17  1  0.835831  0.540194  0.456756  1
  Si  Si18  1  0.333204  0.958492  0.456983  1
  Si  Si19  1  0.833456  0.541956  0.042550  1
  Si  Si20  1  0.662877  0.038279  0.545002  1
  Si  Si21  1  0.166165  0.457530  0.957101  1
  Si  Si22  1  0.665839  0.041917  0.957515  1
  Si  Si23  1  0.333600  0.958848  0.043329  1
  Mo  Mo24  1  0.166011  0.510713  0.749859  1
  Mo  Mo25  1  0.832167  0.489633  0.250104  1
  Mo  Mo26  1  0.332207  0.013333  0.251641  1
  Mo  Mo27  1  0.666509  0.992707  0.750615  1
  Mo  Mo28  1  0.329432  0.166608  0.624177  1
  Mo  Mo29  1  0.668622  0.835929  0.377307  1
  Mo  Mo30  1  0.165451  0.664324  0.375467  1
  Mo  Mo31  1  0.667742  0.835333  0.124251  1
  Mo  Mo32  1  0.833769  0.334408  0.623666  1
  Mo  Mo33  1  0.331327  0.162790  0.875744  1
  Mo  Mo34  1  0.832534  0.336238  0.875900  1
  Mo  Mo35  1  0.166539  0.664611  0.123153  1
