# generated using pymatgen
data_Pr19DySi15Br
_symmetry_space_group_name_H-M   'P 1'
_cell_length_a   7.95969521
_cell_length_b   7.91166559
_cell_length_c   15.38063328
_cell_angle_alpha   89.56158025
_cell_angle_beta   89.19653519
_cell_angle_gamma   90.14936631
_symmetry_Int_Tables_number   1
_chemical_formula_structural   Pr19DySi15Br
_chemical_formula_sum   'Pr19 Dy1 Si15 Br1'
_cell_volume   968.45971549
_cell_formula_units_Z   1
loop_
 _symmetry_equiv_pos_site_id
 _symmetry_equiv_pos_as_xyz
  1  'x, y, z'
loop_
 _atom_site_type_symbol
 _atom_site_label
 _atom_site_symmetry_multiplicity
 _atom_site_fract_x
 _atom_site_fract_y
 _atom_site_fract_z
 _atom_site_occupancy
  Pr  Pr0  1  0.186126  0.807100  0.248996  1
  Pr  Pr1  1  0.794422  0.189485  0.753594  1
  Pr  Pr2  1  0.688195  0.689599  0.496772  1
  Pr  Pr3  1  0.380571  0.005133  0.442625  1
  Pr  Pr4  1  0.496376  0.869031  0.699668  1
  Pr  Pr5  1  0.509366  0.121828  0.195980  1
  Pr  Pr6  1  0.876772  0.485427  0.300134  1
  Pr  Pr7  1  0.123141  0.516946  0.805177  1
  Pr  Pr8  1  0.631791  0.986463  0.952667  1
  Pr  Pr9  1  0.995923  0.383384  0.545368  1
  Pr  Pr10  1  0.992310  0.622729  0.052862  1
  Pr  Pr11  1  0.139681  0.986946  0.875370  1
  Pr  Pr12  1  0.518257  0.630050  0.125379  1
  Pr  Pr13  1  0.481675  0.372058  0.631359  1
  Pr  Pr14  1  0.635920  0.522450  0.877354  1
  Pr  Pr15  1  0.368735  0.477184  0.373759  1
  Pr  Pr16  1  0.870054  0.019941  0.376017  1
  Pr  Pr17  1  0.982995  0.127455  0.123769  1
  Pr  Pr18  1  0.012904  0.863088  0.621273  1
  Dy  Dy19  1  0.313541  0.311190  0.999790  1
  Si  Si20  1  0.330854  0.694120  0.952089  1
  Si  Si21  1  0.660590  0.303981  0.453949  1
  Si  Si22  1  0.698689  0.334027  0.049439  1
  Si  Si23  1  0.304478  0.667070  0.549395  1
  Si  Si24  1  0.803393  0.831540  0.202184  1
  Si  Si25  1  0.167053  0.194420  0.295796  1
  Si  Si26  1  0.842599  0.805172  0.797541  1
  Si  Si27  1  0.289909  0.926969  0.057669  1
  Si  Si28  1  0.575295  0.785100  0.307745  1
  Si  Si29  1  0.448219  0.213015  0.829101  1
  Si  Si30  1  0.790453  0.577091  0.689150  1
  Si  Si31  1  0.213841  0.419231  0.186585  1
  Si  Si32  1  0.703234  0.075673  0.561351  1
  Si  Si33  1  0.932653  0.291712  0.941567  1
  Si  Si34  1  0.077934  0.711249  0.440261  1
  Br  Br35  1  0.162050  0.182141  0.688263  1
