# generated using pymatgen
data_TbEr2P4Rh7
_symmetry_space_group_name_H-M   'P 1'
_cell_length_a   7.73403165
_cell_length_b   7.73403098
_cell_length_c   9.19306590
_cell_angle_alpha   56.71874407
_cell_angle_beta   56.71874885
_cell_angle_gamma   29.46129450
_symmetry_Int_Tables_number   1
_chemical_formula_structural   TbEr2P4Rh7
_chemical_formula_sum   'Tb1 Er2 P4 Rh7'
_cell_volume   222.70284161
_cell_formula_units_Z   1
loop_
 _symmetry_equiv_pos_site_id
 _symmetry_equiv_pos_as_xyz
  1  'x, y, z'
loop_
 _atom_site_type_symbol
 _atom_site_label
 _atom_site_symmetry_multiplicity
 _atom_site_fract_x
 _atom_site_fract_y
 _atom_site_fract_z
 _atom_site_occupancy
  Tb  Tb0  1  0.500000  0.500000  0.500000  1
  Er  Er1  1  0.828280  0.828280  0.168886  1
  Er  Er2  1  0.171720  0.171720  0.831114  1
  P  P3  1  0.391042  0.391042  0.323778  1
  P  P4  1  0.608958  0.608958  0.676222  1
  P  P5  1  0.832619  0.832619  0.774690  1
  P  P6  1  0.167381  0.167381  0.225310  1
  Rh  Rh7  1  0.668784  0.668784  0.076753  1
  Rh  Rh8  1  0.006860  0.006860  0.228027  1
  Rh  Rh9  1  0.993140  0.993140  0.771973  1
  Rh  Rh10  1  0.500000  0.500000  0.000000  1
  Rh  Rh11  1  0.197667  0.197667  0.453965  1
  Rh  Rh12  1  0.802333  0.802333  0.546035  1
  Rh  Rh13  1  0.331216  0.331216  0.923247  1
