# generated using pymatgen
data_LiCa2PrCd2Sn3
_symmetry_space_group_name_H-M   'P 1'
_cell_length_a   7.65515519
_cell_length_b   7.59819092
_cell_length_c   4.74047600
_cell_angle_alpha   90.00000000
_cell_angle_beta   90.00000000
_cell_angle_gamma   119.60168805
_symmetry_Int_Tables_number   1
_chemical_formula_structural   LiCa2PrCd2Sn3
_chemical_formula_sum   'Li1 Ca2 Pr1 Cd2 Sn3'
_cell_volume   239.74300164
_cell_formula_units_Z   1
loop_
 _symmetry_equiv_pos_site_id
 _symmetry_equiv_pos_as_xyz
  1  'x, y, z'
loop_
 _atom_site_type_symbol
 _atom_site_label
 _atom_site_symmetry_multiplicity
 _atom_site_fract_x
 _atom_site_fract_y
 _atom_site_fract_z
 _atom_site_occupancy
  Li  Li0  1  0.236085  0.999881  0.000000  1
  Ca  Ca1  1  0.570574  0.999573  0.500000  1
  Ca  Ca2  1  0.432448  0.433131  0.500000  1
  Pr  Pr3  1  0.998848  0.567285  0.500000  1
  Cd  Cd4  1  0.756122  0.755426  0.000000  1
  Cd  Cd5  1  0.000831  0.242837  0.000000  1
  Sn  Sn6  1  0.013282  0.000487  0.500000  1
  Sn  Sn7  1  0.658111  0.325782  0.000000  1
  Sn  Sn8  1  0.333698  0.675598  0.000000  1
