# generated using pymatgen
data_La10Sn5BiCl2
_symmetry_space_group_name_H-M   'P 1'
_cell_length_a   9.72483370
_cell_length_b   9.72483399
_cell_length_c   6.88024900
_cell_angle_alpha   90.00000000
_cell_angle_beta   90.00000000
_cell_angle_gamma   120.25827328
_symmetry_Int_Tables_number   1
_chemical_formula_structural   La10Sn5BiCl2
_chemical_formula_sum   'La10 Sn5 Bi1 Cl2'
_cell_volume   562.03454285
_cell_formula_units_Z   1
loop_
 _symmetry_equiv_pos_site_id
 _symmetry_equiv_pos_as_xyz
  1  'x, y, z'
loop_
 _atom_site_type_symbol
 _atom_site_label
 _atom_site_symmetry_multiplicity
 _atom_site_fract_x
 _atom_site_fract_y
 _atom_site_fract_z
 _atom_site_occupancy
  La  La0  1  0.667098  0.331198  0.000738  1
  La  La1  1  0.331198  0.667098  0.499262  1
  La  La2  1  0.667098  0.331198  0.499262  1
  La  La3  1  0.331198  0.667098  0.000738  1
  La  La4  1  0.738647  0.004132  0.750000  1
  La  La5  1  0.738633  0.738633  0.250000  1
  La  La6  1  0.000039  0.262866  0.250000  1
  La  La7  1  0.004132  0.738647  0.750000  1
  La  La8  1  0.259975  0.259975  0.750000  1
  La  La9  1  0.262866  0.000039  0.250000  1
  Sn  Sn10  1  0.999564  0.613079  0.250000  1
  Sn  Sn11  1  0.613079  0.999564  0.250000  1
  Sn  Sn12  1  0.387220  0.000122  0.750000  1
  Sn  Sn13  1  0.000122  0.387220  0.750000  1
  Sn  Sn14  1  0.386833  0.386833  0.250000  1
  Bi  Bi15  1  0.613645  0.613645  0.750000  1
  Cl  Cl16  1  0.999325  0.999325  0.500610  1
  Cl  Cl17  1  0.999325  0.999325  0.999390  1
