# generated using pymatgen
data_Er5In2Bi
_symmetry_space_group_name_H-M   'P 1'
_cell_length_a   8.97783003
_cell_length_b   8.96504326
_cell_length_c   6.56880500
_cell_angle_alpha   90.00000000
_cell_angle_beta   90.00000000
_cell_angle_gamma   119.95289777
_symmetry_Int_Tables_number   1
_chemical_formula_structural   Er5In2Bi
_chemical_formula_sum   'Er10 In4 Bi2'
_cell_volume   458.08566905
_cell_formula_units_Z   2
loop_
 _symmetry_equiv_pos_site_id
 _symmetry_equiv_pos_as_xyz
  1  'x, y, z'
loop_
 _atom_site_type_symbol
 _atom_site_label
 _atom_site_symmetry_multiplicity
 _atom_site_fract_x
 _atom_site_fract_y
 _atom_site_fract_z
 _atom_site_occupancy
  Er  Er0  1  0.670918  0.338140  0.006607  1
  Er  Er1  1  0.329082  0.667223  0.006607  1
  Er  Er2  1  0.329082  0.667223  0.493393  1
  Er  Er3  1  0.670918  0.338140  0.493393  1
  Er  Er4  1  0.769646  0.760794  0.750000  1
  Er  Er5  1  0.230354  0.991148  0.750000  1
  Er  Er6  1  0.000000  0.242393  0.750000  1
  Er  Er7  1  0.237105  0.237573  0.250000  1
  Er  Er8  1  0.762895  0.000468  0.250000  1
  Er  Er9  1  0.000000  0.761218  0.250000  1
  In  In10  1  0.000000  0.597766  0.750000  1
  In  In11  1  0.605176  0.606899  0.250000  1
  In  In12  1  0.394824  0.001723  0.250000  1
  In  In13  1  0.000000  0.395514  0.250000  1
  Bi  Bi14  1  0.395161  0.394469  0.750000  1
  Bi  Bi15  1  0.604839  0.999308  0.750000  1
