# generated using pymatgen
data_Dy7Ho(C2Cl3)2
_symmetry_space_group_name_H-M   'P 1'
_cell_length_a   3.64816600
_cell_length_b   10.48698200
_cell_length_c   19.63183400
_cell_angle_alpha   90.00000000
_cell_angle_beta   90.00000000
_cell_angle_gamma   90.00000000
_symmetry_Int_Tables_number   1
_chemical_formula_structural   Dy7Ho(C2Cl3)2
_chemical_formula_sum   'Dy14 Ho2 C8 Cl12'
_cell_volume   751.07963620
_cell_formula_units_Z   2
loop_
 _symmetry_equiv_pos_site_id
 _symmetry_equiv_pos_as_xyz
  1  'x, y, z'
loop_
 _atom_site_type_symbol
 _atom_site_label
 _atom_site_symmetry_multiplicity
 _atom_site_fract_x
 _atom_site_fract_y
 _atom_site_fract_z
 _atom_site_occupancy
  Dy  Dy0  1  0.250000  0.138846  0.573011  1
  Dy  Dy1  1  0.250000  0.638846  0.926989  1
  Dy  Dy2  1  0.750000  0.861345  0.427065  1
  Dy  Dy3  1  0.750000  0.361345  0.072935  1
  Dy  Dy4  1  0.250000  0.637911  0.755933  1
  Dy  Dy5  1  0.250000  0.137911  0.744067  1
  Dy  Dy6  1  0.750000  0.362167  0.244027  1
  Dy  Dy7  1  0.750000  0.862167  0.255973  1
  Dy  Dy8  1  0.250000  0.100433  0.332092  1
  Dy  Dy9  1  0.250000  0.600433  0.167908  1
  Dy  Dy10  1  0.750000  0.899615  0.668171  1
  Dy  Dy11  1  0.750000  0.399615  0.831829  1
  Dy  Dy12  1  0.250000  0.124104  0.164018  1
  Dy  Dy13  1  0.250000  0.624104  0.335982  1
  Ho  Ho14  1  0.750000  0.875376  0.835671  1
  Ho  Ho15  1  0.750000  0.375376  0.664329  1
  C  C16  1  0.250000  0.863671  0.348119  1
  C  C17  1  0.250000  0.363671  0.151881  1
  C  C18  1  0.750000  0.136776  0.651977  1
  C  C19  1  0.750000  0.636776  0.848023  1
  C  C20  1  0.250000  0.388318  0.749362  1
  C  C21  1  0.250000  0.888318  0.750638  1
  C  C22  1  0.750000  0.611665  0.250266  1
  C  C23  1  0.750000  0.111665  0.249734  1
  Cl  Cl24  1  0.250000  0.377850  0.952209  1
  Cl  Cl25  1  0.250000  0.877850  0.547791  1
  Cl  Cl26  1  0.750000  0.622225  0.047607  1
  Cl  Cl27  1  0.750000  0.122225  0.452393  1
  Cl  Cl28  1  0.250000  0.887826  0.945192  1
  Cl  Cl29  1  0.250000  0.387826  0.554808  1
  Cl  Cl30  1  0.750000  0.112549  0.053951  1
  Cl  Cl31  1  0.750000  0.612549  0.446049  1
  Cl  Cl32  1  0.250000  0.360479  0.354699  1
  Cl  Cl33  1  0.250000  0.860479  0.145301  1
  Cl  Cl34  1  0.750000  0.638844  0.645291  1
  Cl  Cl35  1  0.750000  0.138844  0.854709  1
