# generated using pymatgen
data_Li2ZrRh4W
_symmetry_space_group_name_H-M   'P 1'
_cell_length_a   4.37540600
_cell_length_b   6.23746900
_cell_length_c   13.04492500
_cell_angle_alpha   89.99931754
_cell_angle_beta   89.99973745
_cell_angle_gamma   90.00010749
_symmetry_Int_Tables_number   1
_chemical_formula_structural   Li2ZrRh4W
_chemical_formula_sum   'Li6 Zr3 Rh12 W3'
_cell_volume   356.01503953
_cell_formula_units_Z   3
loop_
 _symmetry_equiv_pos_site_id
 _symmetry_equiv_pos_as_xyz
  1  'x, y, z'
loop_
 _atom_site_type_symbol
 _atom_site_label
 _atom_site_symmetry_multiplicity
 _atom_site_fract_x
 _atom_site_fract_y
 _atom_site_fract_z
 _atom_site_occupancy
  Li  Li0  1  0.999983  0.000000  0.004111  1
  Li  Li1  1  0.499888  0.500001  0.166625  1
  Li  Li2  1  0.999924  0.000000  0.329176  1
  Li  Li3  1  0.500010  0.499996  0.495974  1
  Li  Li4  1  0.000096  0.000002  0.666650  1
  Li  Li5  1  0.500121  0.500000  0.837432  1
  Zr  Zr6  1  0.500003  0.999999  0.496676  1
  Zr  Zr7  1  0.000108  0.499999  0.666678  1
  Zr  Zr8  1  0.500096  0.999999  0.836665  1
  Rh  Rh9  1  0.499975  0.259692  0.010111  1
  Rh  Rh10  1  0.499969  0.740309  0.010111  1
  Rh  Rh11  1  0.999909  0.246797  0.166648  1
  Rh  Rh12  1  0.999901  0.753202  0.166648  1
  Rh  Rh13  1  0.499910  0.259722  0.323195  1
  Rh  Rh14  1  0.499906  0.740283  0.323196  1
  Rh  Rh15  1  0.999999  0.257384  0.490192  1
  Rh  Rh16  1  0.999999  0.742617  0.490191  1
  Rh  Rh17  1  0.500110  0.248288  0.666677  1
  Rh  Rh18  1  0.500120  0.751711  0.666677  1
  Rh  Rh19  1  0.000092  0.257380  0.843154  1
  Rh  Rh20  1  0.000094  0.742618  0.843153  1
  W  W21  1  0.999972  0.500000  0.003836  1
  W  W22  1  0.499906  0.999999  0.166687  1
  W  W23  1  0.999911  0.500000  0.329535  1
