# generated using pymatgen
data_Yb3U(Pt2O7)2
_symmetry_space_group_name_H-M   'P 1'
_cell_length_a   7.19464719
_cell_length_b   7.25552784
_cell_length_c   7.19464700
_cell_angle_alpha   60.27718014
_cell_angle_beta   59.99999626
_cell_angle_gamma   60.27717875
_symmetry_Int_Tables_number   1
_chemical_formula_structural   Yb3U(Pt2O7)2
_chemical_formula_sum   'Yb3 U1 Pt4 O14'
_cell_volume   266.67349431
_cell_formula_units_Z   1
loop_
 _symmetry_equiv_pos_site_id
 _symmetry_equiv_pos_as_xyz
  1  'x, y, z'
loop_
 _atom_site_type_symbol
 _atom_site_label
 _atom_site_symmetry_multiplicity
 _atom_site_fract_x
 _atom_site_fract_y
 _atom_site_fract_z
 _atom_site_occupancy
  Yb  Yb0  1  0.125000  0.125000  0.125000  1
  Yb  Yb1  1  0.625000  0.125000  0.125000  1
  Yb  Yb2  1  0.125000  0.125000  0.625000  1
  U  U3  1  0.125000  0.625000  0.125000  1
  Pt  Pt4  1  0.625000  0.625000  0.625000  1
  Pt  Pt5  1  0.125000  0.625000  0.625000  1
  Pt  Pt6  1  0.625000  0.625000  0.125000  1
  Pt  Pt7  1  0.625000  0.125000  0.625000  1
  O  O8  1  0.015355  0.953933  0.015355  1
  O  O9  1  0.234645  0.296067  0.234645  1
  O  O10  1  0.523773  0.543445  0.966391  1
  O  O11  1  0.280525  0.285098  0.717189  1
  O  O12  1  0.966391  0.543445  0.966391  1
  O  O13  1  0.966391  0.543445  0.523773  1
  O  O14  1  0.532811  0.964902  0.969475  1
  O  O15  1  0.532811  0.964902  0.532811  1
  O  O16  1  0.969475  0.964902  0.532811  1
  O  O17  1  0.717189  0.285098  0.280525  1
  O  O18  1  0.283609  0.706555  0.726227  1
  O  O19  1  0.726227  0.706555  0.283609  1
  O  O20  1  0.717189  0.285098  0.717189  1
  O  O21  1  0.283609  0.706555  0.283609  1
