# generated using pymatgen
data_Cs5Rb3Y4Ga4(SiO3)16
_symmetry_space_group_name_H-M   'P 1'
_cell_length_a   7.36449772
_cell_length_b   14.12553846
_cell_length_c   14.17544100
_cell_angle_alpha   64.24741140
_cell_angle_beta   74.94402447
_cell_angle_gamma   74.88957057
_symmetry_Int_Tables_number   1
_chemical_formula_structural   Cs5Rb3Y4Ga4(SiO3)16
_chemical_formula_sum   'Cs5 Rb3 Y4 Ga4 Si16 O48'
_cell_volume   1263.92152383
_cell_formula_units_Z   1
loop_
 _symmetry_equiv_pos_site_id
 _symmetry_equiv_pos_as_xyz
  1  'x, y, z'
loop_
 _atom_site_type_symbol
 _atom_site_label
 _atom_site_symmetry_multiplicity
 _atom_site_fract_x
 _atom_site_fract_y
 _atom_site_fract_z
 _atom_site_occupancy
  Cs  Cs0  1  0.731151  0.119762  0.447485  1
  Cs  Cs1  1  0.193023  0.079903  0.039915  1
  Cs  Cs2  1  0.187184  0.580075  0.539805  1
  Cs  Cs3  1  0.797862  0.380683  0.052376  1
  Cs  Cs4  1  0.269474  0.880342  0.552553  1
  Rb  Rb5  1  0.201164  0.617705  0.951468  1
  Rb  Rb6  1  0.813034  0.416809  0.466007  1
  Rb  Rb7  1  0.804350  0.916415  0.965931  1
  Y  Y8  1  0.451330  0.785952  0.249707  1
  Y  Y9  1  0.550270  0.213649  0.748982  1
  Y  Y10  1  0.987540  0.713358  0.248829  1
  Y  Y11  1  0.012927  0.286333  0.750100  1
  Ga  Ga12  1  0.133276  0.413541  0.226110  1
  Ga  Ga13  1  0.727196  0.913288  0.726507  1
  Ga  Ga14  1  0.867962  0.586532  0.775040  1
  Ga  Ga15  1  0.272689  0.086789  0.274288  1
  Si  Si16  1  0.313094  0.029544  0.796142  1
  Si  Si17  1  0.361854  0.529729  0.295802  1
  Si  Si18  1  0.693925  0.172684  0.988198  1
  Si  Si19  1  0.018326  0.079214  0.662006  1
  Si  Si20  1  0.982124  0.920290  0.338059  1
  Si  Si21  1  0.356831  0.327866  0.510325  1
  Si  Si22  1  0.664953  0.702500  0.922667  1
  Si  Si23  1  0.259281  0.421717  0.838389  1
  Si  Si24  1  0.741099  0.579528  0.161297  1
  Si  Si25  1  0.790906  0.797559  0.578170  1
  Si  Si26  1  0.207342  0.203485  0.422538  1
  Si  Si27  1  0.645306  0.672531  0.488077  1
  Si  Si28  1  0.304174  0.826100  0.010149  1
  Si  Si29  1  0.640644  0.470294  0.703417  1
  Si  Si30  1  0.333395  0.298325  0.077785  1
  Si  Si31  1  0.686935  0.970060  0.203010  1
  O  O32  1  0.664198  0.888436  0.622186  1
  O  O33  1  0.704084  0.351669  0.702827  1
  O  O34  1  0.934809  0.849711  0.467118  1
  O  O35  1  0.547005  0.011375  0.770760  1
  O  O36  1  0.427443  0.846604  0.076565  1
  O  O37  1  0.067798  0.294431  0.342222  1
  O  O38  1  0.927688  0.708490  0.660892  1
  O  O39  1  0.083161  0.520201  0.834498  1
  O  O40  1  0.203377  0.209250  0.161118  1
  O  O41  1  0.766831  0.057080  0.085820  1
  O  O42  1  0.931898  0.981978  0.667540  1
  O  O43  1  0.792928  0.794094  0.842919  1
  O  O44  1  0.774971  0.976419  0.294967  1
  O  O45  1  0.297933  0.648893  0.294964  1
  O  O46  1  0.642080  0.744002  0.556801  1
  O  O47  1  0.258277  0.148783  0.795391  1
  O  O48  1  0.068336  0.017729  0.332288  1
  O  O49  1  0.226906  0.023517  0.703368  1
  O  O50  1  0.472618  0.729863  0.420896  1
  O  O51  1  0.171501  0.511164  0.270757  1
  O  O52  1  0.741930  0.851515  0.202353  1
  O  O53  1  0.114050  0.848029  0.274807  1
  O  O54  1  0.575671  0.150827  0.920728  1
  O  O55  1  0.248402  0.349372  0.967017  1
  O  O56  1  0.360126  0.255477  0.442701  1
  O  O57  1  0.415996  0.442385  0.412048  1
  O  O58  1  0.454371  0.476895  0.795347  1
  O  O59  1  0.438171  0.751849  0.943625  1
  O  O60  1  0.852812  0.650607  0.420571  1
  O  O61  1  0.529993  0.272308  0.577373  1
  O  O62  1  0.886541  0.151146  0.725656  1
  O  O63  1  0.753702  0.650492  0.032430  1
  O  O64  1  0.829012  0.488399  0.730961  1
  O  O65  1  0.546985  0.523485  0.203141  1
  O  O66  1  0.063794  0.150668  0.533217  1
  O  O67  1  0.876443  0.230027  0.921123  1
  O  O68  1  0.920176  0.482894  0.166241  1
  O  O69  1  0.736512  0.651224  0.225342  1
  O  O70  1  0.453200  0.988612  0.230408  1
  O  O71  1  0.147040  0.348445  0.576871  1
  O  O72  1  0.557056  0.244192  0.057014  1
  O  O73  1  0.674869  0.611943  0.877935  1
  O  O74  1  0.590835  0.556988  0.586058  1
  O  O75  1  0.230685  0.941425  0.912014  1
  O  O76  1  0.118809  0.771047  0.076850  1
  O  O77  1  0.260622  0.350028  0.774863  1
  O  O78  1  0.333454  0.112854  0.378015  1
  O  O79  1  0.324281  0.390615  0.120260  1
