# generated using pymatgen
data_Co3SiW2
_symmetry_space_group_name_H-M   'P 1'
_cell_length_a   4.76270000
_cell_length_b   4.76314758
_cell_length_c   7.38967600
_cell_angle_alpha   90.00000000
_cell_angle_beta   90.00000000
_cell_angle_gamma   119.99689166
_symmetry_Int_Tables_number   1
_chemical_formula_structural   Co3SiW2
_chemical_formula_sum   'Co6 Si2 W4'
_cell_volume   145.18337727
_cell_formula_units_Z   2
loop_
 _symmetry_equiv_pos_site_id
 _symmetry_equiv_pos_as_xyz
  1  'x, y, z'
loop_
 _atom_site_type_symbol
 _atom_site_label
 _atom_site_symmetry_multiplicity
 _atom_site_fract_x
 _atom_site_fract_y
 _atom_site_fract_z
 _atom_site_occupancy
  Co  Co0  1  0.170671  0.341342  0.750000  1
  Co  Co1  1  0.658813  0.829408  0.750000  1
  Co  Co2  1  0.170596  0.829408  0.750000  1
  Co  Co3  1  0.829329  0.658658  0.250000  1
  Co  Co4  1  0.341187  0.170592  0.250000  1
  Co  Co5  1  0.829404  0.170592  0.250000  1
  Si  Si6  1  0.000000  0.000000  0.000000  1
  Si  Si7  1  0.000000  0.000000  0.500000  1
  W  W8  1  0.666603  0.333205  0.564754  1
  W  W9  1  0.333397  0.666795  0.435246  1
  W  W10  1  0.333397  0.666795  0.064754  1
  W  W11  1  0.666603  0.333205  0.935246  1
