# generated using pymatgen
data_LaPr9(Zn2Ru3)2
_symmetry_space_group_name_H-M   'P 1'
_cell_length_a   8.62335871
_cell_length_b   8.53791459
_cell_length_c   8.53791590
_cell_angle_alpha   108.84793256
_cell_angle_beta   109.72393367
_cell_angle_gamma   109.43556512
_symmetry_Int_Tables_number   1
_chemical_formula_structural   LaPr9(Zn2Ru3)2
_chemical_formula_sum   'La1 Pr9 Zn4 Ru6'
_cell_volume   486.29164585
_cell_formula_units_Z   1
loop_
 _symmetry_equiv_pos_site_id
 _symmetry_equiv_pos_as_xyz
  1  'x, y, z'
loop_
 _atom_site_type_symbol
 _atom_site_label
 _atom_site_symmetry_multiplicity
 _atom_site_fract_x
 _atom_site_fract_y
 _atom_site_fract_z
 _atom_site_occupancy
  La  La0  1  0.250000  0.690528  0.440528  1
  Pr  Pr1  1  0.750000  0.814391  0.064391  1
  Pr  Pr2  1  0.435157  0.251181  0.685874  1
  Pr  Pr3  1  0.683650  0.434721  0.249458  1
  Pr  Pr4  1  0.064843  0.750716  0.816024  1
  Pr  Pr5  1  0.816350  0.065806  0.751070  1
  Pr  Pr6  1  0.220474  0.220306  0.222059  1
  Pr  Pr7  1  0.501783  0.000278  0.280222  1
  Pr  Pr8  1  0.279526  0.501584  0.999831  1
  Pr  Pr9  1  0.998217  0.278439  0.498495  1
  Zn  Zn10  1  0.589970  0.589147  0.587439  1
  Zn  Zn11  1  0.499865  0.001469  0.913941  1
  Zn  Zn12  1  0.910030  0.497469  0.999177  1
  Zn  Zn13  1  0.000135  0.914076  0.501603  1
  Ru  Ru14  1  0.250000  0.127963  0.877963  1
  Ru  Ru15  1  0.750000  0.373813  0.623813  1
  Ru  Ru16  1  0.872458  0.243536  0.123849  1
  Ru  Ru17  1  0.131143  0.869420  0.254908  1
  Ru  Ru18  1  0.627541  0.751390  0.371077  1
  Ru  Ru19  1  0.368857  0.623765  0.738278  1
