# generated using pymatgen
data_Nd2DyTm(Ir2O7)2
_symmetry_space_group_name_H-M   'P 1'
_cell_length_a   7.36470407
_cell_length_b   7.31309906
_cell_length_c   7.30355597
_cell_angle_alpha   59.50349043
_cell_angle_beta   59.72265425
_cell_angle_gamma   59.76630561
_symmetry_Int_Tables_number   1
_chemical_formula_structural   Nd2DyTm(Ir2O7)2
_chemical_formula_sum   'Nd2 Dy1 Tm1 Ir4 O14'
_cell_volume   276.02234699
_cell_formula_units_Z   1
loop_
 _symmetry_equiv_pos_site_id
 _symmetry_equiv_pos_as_xyz
  1  'x, y, z'
loop_
 _atom_site_type_symbol
 _atom_site_label
 _atom_site_symmetry_multiplicity
 _atom_site_fract_x
 _atom_site_fract_y
 _atom_site_fract_z
 _atom_site_occupancy
  Nd  Nd0  1  0.625000  0.125000  0.125000  1
  Nd  Nd1  1  0.125000  0.125000  0.125000  1
  Dy  Dy2  1  0.125000  0.625000  0.125000  1
  Tm  Tm3  1  0.125000  0.125000  0.625000  1
  Ir  Ir4  1  0.125000  0.625000  0.625000  1
  Ir  Ir5  1  0.625000  0.125000  0.625000  1
  Ir  Ir6  1  0.625000  0.625000  0.125000  1
  Ir  Ir7  1  0.625000  0.625000  0.625000  1
  O  O8  1  0.718613  0.701777  0.290266  1
  O  O9  1  0.289451  0.289829  0.699303  1
  O  O10  1  0.721417  0.289829  0.699303  1
  O  O11  1  0.289343  0.701777  0.290266  1
  O  O12  1  0.290065  0.712446  0.707424  1
  O  O13  1  0.710475  0.289207  0.289844  1
  O  O14  1  0.531387  0.548223  0.959734  1
  O  O15  1  0.960549  0.960171  0.550697  1
  O  O16  1  0.528583  0.960171  0.550697  1
  O  O17  1  0.960657  0.548223  0.959734  1
  O  O18  1  0.959935  0.537554  0.542576  1
  O  O19  1  0.539525  0.960793  0.960156  1
  O  O20  1  0.242344  0.254628  0.260684  1
  O  O21  1  0.007656  0.995372  0.989316  1
