# generated using pymatgen
data_YScInB2Ir5
_symmetry_space_group_name_H-M   'P 1'
_cell_length_a   3.16019700
_cell_length_b   9.69014064
_cell_length_c   9.69014064
_cell_angle_alpha   88.03087263
_cell_angle_beta   90.00000000
_cell_angle_gamma   90.00000000
_symmetry_Int_Tables_number   1
_chemical_formula_structural   YScInB2Ir5
_chemical_formula_sum   'Y2 Sc2 In2 B4 Ir10'
_cell_volume   296.56355915
_cell_formula_units_Z   2
loop_
 _symmetry_equiv_pos_site_id
 _symmetry_equiv_pos_as_xyz
  1  'x, y, z'
loop_
 _atom_site_type_symbol
 _atom_site_label
 _atom_site_symmetry_multiplicity
 _atom_site_fract_x
 _atom_site_fract_y
 _atom_site_fract_z
 _atom_site_occupancy
  Y  Y0  1  0.000000  0.178379  0.678379  1
  Y  Y1  1  0.000000  0.821621  0.321621  1
  Sc  Sc2  1  0.000000  0.324419  0.175581  1
  Sc  Sc3  1  0.000000  0.675581  0.824419  1
  In  In4  1  0.000000  0.000000  0.000000  1
  In  In5  1  0.000000  0.500000  0.500000  1
  B  B6  1  0.000000  0.619560  0.119560  1
  B  B7  1  0.000000  0.380440  0.880440  1
  B  B8  1  0.000000  0.875758  0.624242  1
  B  B9  1  0.000000  0.124242  0.375758  1
  Ir  Ir10  1  0.500000  0.078792  0.222509  1
  Ir  Ir11  1  0.500000  0.921208  0.777491  1
  Ir  Ir12  1  0.500000  0.770061  0.061320  1
  Ir  Ir13  1  0.500000  0.438680  0.729939  1
  Ir  Ir14  1  0.500000  0.229939  0.938680  1
  Ir  Ir15  1  0.500000  0.561320  0.270061  1
  Ir  Ir16  1  0.500000  0.722509  0.578792  1
  Ir  Ir17  1  0.500000  0.277491  0.421208  1
  Ir  Ir18  1  0.500000  0.000000  0.500000  1
  Ir  Ir19  1  0.500000  0.500000  0.000000  1
