# generated using pymatgen
data_Lu4Sc2TcSn2
_symmetry_space_group_name_H-M   'P 1'
_cell_length_a   7.79196900
_cell_length_b   7.73258356
_cell_length_c   4.31191500
_cell_angle_alpha   90.00000000
_cell_angle_beta   90.00000000
_cell_angle_gamma   120.25437147
_symmetry_Int_Tables_number   1
_chemical_formula_structural   Lu4Sc2TcSn2
_chemical_formula_sum   'Lu4 Sc2 Tc1 Sn2'
_cell_volume   224.41596735
_cell_formula_units_Z   1
loop_
 _symmetry_equiv_pos_site_id
 _symmetry_equiv_pos_as_xyz
  1  'x, y, z'
loop_
 _atom_site_type_symbol
 _atom_site_label
 _atom_site_symmetry_multiplicity
 _atom_site_fract_x
 _atom_site_fract_y
 _atom_site_fract_z
 _atom_site_occupancy
  Lu  Lu0  1  0.606203  0.000000  0.500000  1
  Lu  Lu1  1  0.401114  0.404011  0.500000  1
  Lu  Lu2  1  0.997103  0.595989  0.500000  1
  Lu  Lu3  1  0.237395  0.000000  0.000000  1
  Sc  Sc4  1  0.997137  0.236272  0.000000  1
  Sc  Sc5  1  0.760864  0.763728  0.000000  1
  Tc  Tc6  1  0.993058  0.000000  0.500000  1
  Sn  Sn7  1  0.671987  0.336846  0.000000  1
  Sn  Sn8  1  0.335140  0.663154  0.000000  1
