# generated using pymatgen
data_NaSn6Ir3Rh
_symmetry_space_group_name_H-M   'P 1'
_cell_length_a   6.97427831
_cell_length_b   6.96531598
_cell_length_c   6.96663845
_cell_angle_alpha   119.50110472
_cell_angle_beta   119.54408213
_cell_angle_gamma   90.85449813
_symmetry_Int_Tables_number   1
_chemical_formula_structural   NaSn6Ir3Rh
_chemical_formula_sum   'Na1 Sn6 Ir3 Rh1'
_cell_volume   240.94792616
_cell_formula_units_Z   1
loop_
 _symmetry_equiv_pos_site_id
 _symmetry_equiv_pos_as_xyz
  1  'x, y, z'
loop_
 _atom_site_type_symbol
 _atom_site_label
 _atom_site_symmetry_multiplicity
 _atom_site_fract_x
 _atom_site_fract_y
 _atom_site_fract_z
 _atom_site_occupancy
  Na  Na0  1  0.997911  0.003791  0.000000  1
  Sn  Sn1  1  0.877830  0.537264  0.000000  1
  Sn  Sn2  1  0.539247  0.875812  0.000000  1
  Sn  Sn3  1  0.123330  0.123132  0.661446  1
  Sn  Sn4  1  0.001143  0.500263  0.500288  1
  Sn  Sn5  1  0.461884  0.461686  0.338554  1
  Sn  Sn6  1  0.500855  0.999975  0.499712  1
  Ir  Ir7  1  0.403769  0.403922  0.649726  1
  Ir  Ir8  1  0.594442  0.245674  0.000000  1
  Ir  Ir9  1  0.754042  0.754196  0.350274  1
  Rh  Rh10  1  0.245548  0.594285  0.000000  1
