# generated using pymatgen
data_PrYAl20(RuRh)2
_symmetry_space_group_name_H-M   'P 1'
_cell_length_a   6.87758163
_cell_length_b   6.87180404
_cell_length_c   9.19793500
_cell_angle_alpha   90.00000000
_cell_angle_beta   90.00000000
_cell_angle_gamma   97.18174625
_symmetry_Int_Tables_number   1
_chemical_formula_structural   PrYAl20(RuRh)2
_chemical_formula_sum   'Pr1 Y1 Al20 Ru2 Rh2'
_cell_volume   431.29676259
_cell_formula_units_Z   1
loop_
 _symmetry_equiv_pos_site_id
 _symmetry_equiv_pos_as_xyz
  1  'x, y, z'
loop_
 _atom_site_type_symbol
 _atom_site_label
 _atom_site_symmetry_multiplicity
 _atom_site_fract_x
 _atom_site_fract_y
 _atom_site_fract_z
 _atom_site_occupancy
  Pr  Pr0  1  0.871913  0.124026  0.750000  1
  Y  Y1  1  0.131309  0.874333  0.250000  1
  Al  Al2  1  0.620192  0.376179  0.548388  1
  Al  Al3  1  0.378587  0.624725  0.450229  1
  Al  Al4  1  0.378587  0.624725  0.049771  1
  Al  Al5  1  0.620192  0.376179  0.951612  1
  Al  Al6  1  0.226340  0.223996  0.497539  1
  Al  Al7  1  0.774081  0.775432  0.499540  1
  Al  Al8  1  0.774081  0.775432  0.000460  1
  Al  Al9  1  0.226340  0.223996  0.002461  1
  Al  Al10  1  0.843532  0.155207  0.103109  1
  Al  Al11  1  0.157983  0.843155  0.898839  1
  Al  Al12  1  0.157983  0.843155  0.601161  1
  Al  Al13  1  0.843532  0.155207  0.396891  1
  Al  Al14  1  0.857549  0.591415  0.750000  1
  Al  Al15  1  0.143202  0.412112  0.250000  1
  Al  Al16  1  0.409359  0.140527  0.750000  1
  Al  Al17  1  0.587353  0.858854  0.250000  1
  Al  Al18  1  0.225409  0.482606  0.750000  1
  Al  Al19  1  0.776304  0.519303  0.250000  1
  Al  Al20  1  0.516541  0.776908  0.750000  1
  Al  Al21  1  0.481517  0.221701  0.250000  1
  Ru  Ru22  1  0.499242  0.999888  0.001462  1
  Ru  Ru23  1  0.499242  0.999888  0.498538  1
  Rh  Rh24  1  0.999814  0.500524  0.498878  1
  Rh  Rh25  1  0.999814  0.500524  0.001122  1
