# generated using pymatgen
data_Y19HoIr11Au
_symmetry_space_group_name_H-M   'P 1'
_cell_length_a   11.01138826
_cell_length_b   11.01330499
_cell_length_c   6.38467454
_cell_angle_alpha   89.94160031
_cell_angle_beta   89.90484635
_cell_angle_gamma   89.45717824
_symmetry_Int_Tables_number   1
_chemical_formula_structural   Y19HoIr11Au
_chemical_formula_sum   'Y19 Ho1 Ir11 Au1'
_cell_volume   774.24462224
_cell_formula_units_Z   1
loop_
 _symmetry_equiv_pos_site_id
 _symmetry_equiv_pos_as_xyz
  1  'x, y, z'
loop_
 _atom_site_type_symbol
 _atom_site_label
 _atom_site_symmetry_multiplicity
 _atom_site_fract_x
 _atom_site_fract_y
 _atom_site_fract_z
 _atom_site_occupancy
  Y  Y0  1  0.290178  0.087852  0.376874  1
  Y  Y1  1  0.293449  0.910568  0.875811  1
  Y  Y2  1  0.703665  0.084295  0.865072  1
  Y  Y3  1  0.705096  0.904595  0.380311  1
  Y  Y4  1  0.587886  0.790747  0.879523  1
  Y  Y5  1  0.578581  0.210283  0.377882  1
  Y  Y6  1  0.411021  0.790921  0.377457  1
  Y  Y7  1  0.409772  0.208096  0.878027  1
  Y  Y8  1  0.209380  0.412648  0.620729  1
  Y  Y9  1  0.208884  0.589406  0.122461  1
  Y  Y10  1  0.789888  0.421046  0.122150  1
  Y  Y11  1  0.791751  0.589706  0.621863  1
  Y  Y12  1  0.912014  0.709911  0.123283  1
  Y  Y13  1  0.915972  0.296294  0.634691  1
  Y  Y14  1  0.089166  0.706561  0.624028  1
  Y  Y15  1  0.095668  0.294857  0.119901  1
  Y  Y16  1  0.003217  0.995627  0.501449  1
  Y  Y17  1  0.004284  0.996818  0.998728  1
  Y  Y18  1  0.498915  0.499195  0.998817  1
  Ho  Ho19  1  0.500808  0.500981  0.501396  1
  Ir  Ir20  1  0.846524  0.848293  0.749783  1
  Ir  Ir21  1  0.151797  0.153349  0.750325  1
  Ir  Ir22  1  0.155570  0.844338  0.249899  1
  Ir  Ir23  1  0.654759  0.345648  0.747760  1
  Ir  Ir24  1  0.652640  0.651085  0.250177  1
  Ir  Ir25  1  0.349143  0.347108  0.253786  1
  Ir  Ir26  1  0.347125  0.652593  0.747815  1
  Ir  Ir27  1  0.500443  0.000035  0.126898  1
  Ir  Ir28  1  0.499369  0.000278  0.622380  1
  Ir  Ir29  1  0.999647  0.500662  0.877868  1
  Ir  Ir30  1  0.999950  0.499568  0.372834  1
  Au  Au31  1  0.843435  0.156637  0.250022  1
