# generated using pymatgen
data_Hg(BrO3)2
_symmetry_space_group_name_H-M   'P 1'
_cell_length_a   7.38520395
_cell_length_b   7.38520341
_cell_length_c   6.84754420
_cell_angle_alpha   76.93086425
_cell_angle_beta   76.93086401
_cell_angle_gamma   121.32600219
_symmetry_Int_Tables_number   1
_chemical_formula_structural   Hg(BrO3)2
_chemical_formula_sum   'Hg2 Br4 O12'
_cell_volume   283.01834849
_cell_formula_units_Z   2
loop_
 _symmetry_equiv_pos_site_id
 _symmetry_equiv_pos_as_xyz
  1  'x, y, z'
loop_
 _atom_site_type_symbol
 _atom_site_label
 _atom_site_symmetry_multiplicity
 _atom_site_fract_x
 _atom_site_fract_y
 _atom_site_fract_z
 _atom_site_occupancy
  Hg  Hg0  1  0.595406  0.382774  0.998680  1
  Hg  Hg1  1  0.382774  0.595406  0.498680  1
  Br  Br2  1  0.401767  0.775123  0.949424  1
  Br  Br3  1  0.775123  0.401767  0.449424  1
  Br  Br4  1  0.966525  0.103352  0.025790  1
  Br  Br5  1  0.103352  0.966525  0.525790  1
  O  O6  1  0.461210  0.629470  0.129245  1
  O  O7  1  0.629470  0.461210  0.629245  1
  O  O8  1  0.782063  0.544094  0.211621  1
  O  O9  1  0.544094  0.782063  0.711621  1
  O  O10  1  0.582594  0.053292  0.909827  1
  O  O11  1  0.053292  0.582594  0.409827  1
  O  O12  1  0.071969  0.384802  0.889667  1
  O  O13  1  0.384802  0.071969  0.389667  1
  O  O14  1  0.022726  0.776048  0.775832  1
  O  O15  1  0.776048  0.022726  0.275832  1
  O  O16  1  0.189355  0.120031  0.076215  1
  O  O17  1  0.120031  0.189355  0.576215  1
