# generated using pymatgen
data_Nd4Y2Zn4Pd9Pt4
_symmetry_space_group_name_H-M   'P 1'
_cell_length_a   8.35802330
_cell_length_b   8.36088143
_cell_length_c   8.34476602
_cell_angle_alpha   109.44048796
_cell_angle_beta   109.43492751
_cell_angle_gamma   109.51303060
_symmetry_Int_Tables_number   1
_chemical_formula_structural   Nd4Y2Zn4Pd9Pt4
_chemical_formula_sum   'Nd4 Y2 Zn4 Pd9 Pt4'
_cell_volume   449.03769996
_cell_formula_units_Z   1
loop_
 _symmetry_equiv_pos_site_id
 _symmetry_equiv_pos_as_xyz
  1  'x, y, z'
loop_
 _atom_site_type_symbol
 _atom_site_label
 _atom_site_symmetry_multiplicity
 _atom_site_fract_x
 _atom_site_fract_y
 _atom_site_fract_z
 _atom_site_occupancy
  Nd  Nd0  1  0.000000  0.298646  0.300725  1
  Nd  Nd1  1  0.298652  0.298249  0.999657  1
  Nd  Nd2  1  0.701348  0.999597  0.701005  1
  Nd  Nd3  1  0.000000  0.699727  0.699194  1
  Y  Y4  1  0.698716  0.698571  0.002634  1
  Y  Y5  1  0.301284  0.999855  0.303918  1
  Zn  Zn6  1  0.000000  0.000562  0.496025  1
  Zn  Zn7  1  0.000000  0.503569  0.999678  1
  Zn  Zn8  1  0.499987  0.000172  0.999851  1
  Zn  Zn9  1  0.500013  0.500185  0.499864  1
  Pd  Pd10  1  0.666456  0.334320  0.999883  1
  Pd  Pd11  1  0.333544  0.667864  0.333429  1
  Pd  Pd12  1  0.000000  0.332200  0.668612  1
  Pd  Pd13  1  0.332847  0.667694  0.999997  1
  Pd  Pd14  1  0.333912  0.000119  0.666606  1
  Pd  Pd15  1  0.661135  0.330575  0.330807  1
  Pd  Pd16  1  0.666088  0.666207  0.332695  1
  Pd  Pd17  1  0.667153  0.334847  0.667149  1
  Pd  Pd18  1  0.338865  0.669441  0.669672  1
  Pt  Pt19  1  0.334344  0.333579  0.664948  1
  Pt  Pt20  1  0.665656  0.999235  0.330605  1
  Pt  Pt21  1  0.000000  0.671435  0.327793  1
  Pt  Pt22  1  0.000000  0.993349  0.005249  1
