# generated using pymatgen
data_DyPaPd2Pb
_symmetry_space_group_name_H-M   'P 1'
_cell_length_a   7.92312200
_cell_length_b   7.89575200
_cell_length_c   3.65311000
_cell_angle_alpha   90.00000000
_cell_angle_beta   90.00000000
_cell_angle_gamma   90.00000000
_symmetry_Int_Tables_number   1
_chemical_formula_structural   DyPaPd2Pb
_chemical_formula_sum   'Dy2 Pa2 Pd4 Pb2'
_cell_volume   228.53493179
_cell_formula_units_Z   2
loop_
 _symmetry_equiv_pos_site_id
 _symmetry_equiv_pos_as_xyz
  1  'x, y, z'
loop_
 _atom_site_type_symbol
 _atom_site_label
 _atom_site_symmetry_multiplicity
 _atom_site_fract_x
 _atom_site_fract_y
 _atom_site_fract_z
 _atom_site_occupancy
  Dy  Dy0  1  0.827024  0.673119  0.500000  1
  Dy  Dy1  1  0.327024  0.826881  0.500000  1
  Pa  Pa2  1  0.670358  0.169805  0.500000  1
  Pa  Pa3  1  0.170358  0.330195  0.500000  1
  Pd  Pd4  1  0.372646  0.138180  0.000000  1
  Pd  Pd5  1  0.126674  0.612296  0.000000  1
  Pd  Pd6  1  0.626674  0.887704  0.000000  1
  Pd  Pd7  1  0.872646  0.361820  0.000000  1
  Pb  Pb8  1  0.003298  0.990759  0.000000  1
  Pb  Pb9  1  0.503298  0.509241  0.000000  1
