# generated using pymatgen
data_Dy5Al2GeC4
_symmetry_space_group_name_H-M   'P 1'
_cell_length_a   10.77212500
_cell_length_b   10.77212500
_cell_length_c   3.52759000
_cell_angle_alpha   90.00000000
_cell_angle_beta   90.00000000
_cell_angle_gamma   90.00000000
_symmetry_Int_Tables_number   1
_chemical_formula_structural   Dy5Al2GeC4
_chemical_formula_sum   'Dy10 Al4 Ge2 C8'
_cell_volume   409.33687665
_cell_formula_units_Z   2
loop_
 _symmetry_equiv_pos_site_id
 _symmetry_equiv_pos_as_xyz
  1  'x, y, z'
loop_
 _atom_site_type_symbol
 _atom_site_label
 _atom_site_symmetry_multiplicity
 _atom_site_fract_x
 _atom_site_fract_y
 _atom_site_fract_z
 _atom_site_occupancy
  Dy  Dy0  1  0.550993  0.725593  0.500000  1
  Dy  Dy1  1  0.449007  0.274407  0.500000  1
  Dy  Dy2  1  0.050993  0.774407  0.500000  1
  Dy  Dy3  1  0.949007  0.225593  0.500000  1
  Dy  Dy4  1  0.274407  0.550993  0.500000  1
  Dy  Dy5  1  0.725593  0.449007  0.500000  1
  Dy  Dy6  1  0.225593  0.050993  0.500000  1
  Dy  Dy7  1  0.774407  0.949007  0.500000  1
  Dy  Dy8  1  0.500000  0.000000  0.000000  1
  Dy  Dy9  1  0.000000  0.500000  0.000000  1
  Al  Al10  1  0.703666  0.203666  0.000000  1
  Al  Al11  1  0.296334  0.796334  0.000000  1
  Al  Al12  1  0.203666  0.296334  0.000000  1
  Al  Al13  1  0.796334  0.703666  0.000000  1
  Ge  Ge14  1  0.500000  0.500000  0.000000  1
  Ge  Ge15  1  0.000000  0.000000  0.000000  1
  C  C16  1  0.633912  0.133912  0.500000  1
  C  C17  1  0.366088  0.866088  0.500000  1
  C  C18  1  0.133912  0.366088  0.500000  1
  C  C19  1  0.866088  0.633912  0.500000  1
  C  C20  1  0.163135  0.663135  0.000000  1
  C  C21  1  0.836865  0.336865  0.000000  1
  C  C22  1  0.663135  0.836865  0.000000  1
  C  C23  1  0.336865  0.163135  0.000000  1
