# generated using pymatgen
data_Li6Cd5AsPd12
_symmetry_space_group_name_H-M   'P 1'
_cell_length_a   4.50417711
_cell_length_b   6.24805000
_cell_length_c   13.50191135
_cell_angle_alpha   90.00000000
_cell_angle_beta   89.97412458
_cell_angle_gamma   90.00000000
_symmetry_Int_Tables_number   1
_chemical_formula_structural   Li6Cd5AsPd12
_chemical_formula_sum   'Li6 Cd5 As1 Pd12'
_cell_volume   379.97512252
_cell_formula_units_Z   1
loop_
 _symmetry_equiv_pos_site_id
 _symmetry_equiv_pos_as_xyz
  1  'x, y, z'
loop_
 _atom_site_type_symbol
 _atom_site_label
 _atom_site_symmetry_multiplicity
 _atom_site_fract_x
 _atom_site_fract_y
 _atom_site_fract_z
 _atom_site_occupancy
  Li  Li0  1  0.000000  0.500000  0.000000  1
  Li  Li1  1  0.499799  0.000000  0.169864  1
  Li  Li2  1  0.999818  0.500000  0.330877  1
  Li  Li3  1  0.499999  0.000000  0.500000  1
  Li  Li4  1  0.000183  0.500000  0.669124  1
  Li  Li5  1  0.500202  0.000000  0.830136  1
  Cd  Cd6  1  0.499784  0.500000  0.163744  1
  Cd  Cd7  1  0.999829  0.000000  0.329939  1
  Cd  Cd8  1  0.499999  0.500000  0.500000  1
  Cd  Cd9  1  0.000170  0.000000  0.670061  1
  Cd  Cd10  1  0.500217  0.500000  0.836256  1
  As  As11  1  0.000000  0.000000  0.000000  1
  Pd  Pd12  1  0.499999  0.228628  0.000000  1
  Pd  Pd13  1  0.499999  0.771372  0.000000  1
  Pd  Pd14  1  0.999779  0.239288  0.155167  1
  Pd  Pd15  1  0.999779  0.760712  0.155167  1
  Pd  Pd16  1  0.499829  0.251375  0.332411  1
  Pd  Pd17  1  0.499829  0.748625  0.332411  1
  Pd  Pd18  1  0.000000  0.248373  0.500000  1
  Pd  Pd19  1  0.000000  0.751628  0.500000  1
  Pd  Pd20  1  0.500170  0.251375  0.667589  1
  Pd  Pd21  1  0.500170  0.748625  0.667589  1
  Pd  Pd22  1  0.000219  0.239288  0.844833  1
  Pd  Pd23  1  0.000219  0.760712  0.844833  1
