# generated using pymatgen
data_Er10Sn6GeAs
_symmetry_space_group_name_H-M   'P 1'
_cell_length_a   9.14297500
_cell_length_b   9.14297508
_cell_length_c   6.46856900
_cell_angle_alpha   90.00000000
_cell_angle_beta   90.00000000
_cell_angle_gamma   119.99999608
_symmetry_Int_Tables_number   1
_chemical_formula_structural   Er10Sn6GeAs
_chemical_formula_sum   'Er10 Sn6 Ge1 As1'
_cell_volume   468.28897408
_cell_formula_units_Z   1
loop_
 _symmetry_equiv_pos_site_id
 _symmetry_equiv_pos_as_xyz
  1  'x, y, z'
loop_
 _atom_site_type_symbol
 _atom_site_label
 _atom_site_symmetry_multiplicity
 _atom_site_fract_x
 _atom_site_fract_y
 _atom_site_fract_z
 _atom_site_occupancy
  Er  Er0  1  0.666667  0.333333  0.000000  1
  Er  Er1  1  0.333333  0.666667  0.000000  1
  Er  Er2  1  0.333333  0.666667  0.500000  1
  Er  Er3  1  0.666667  0.333333  0.500000  1
  Er  Er4  1  0.745533  0.745533  0.749732  1
  Er  Er5  1  0.254467  0.000000  0.749732  1
  Er  Er6  1  0.000000  0.254467  0.749732  1
  Er  Er7  1  0.254467  0.254467  0.250268  1
  Er  Er8  1  0.745533  0.000000  0.250268  1
  Er  Er9  1  0.000000  0.745533  0.250268  1
  Sn  Sn10  1  0.394332  0.394332  0.749436  1
  Sn  Sn11  1  0.605668  0.000000  0.749436  1
  Sn  Sn12  1  0.000000  0.605668  0.749436  1
  Sn  Sn13  1  0.605668  0.605668  0.250564  1
  Sn  Sn14  1  0.394332  0.000000  0.250564  1
  Sn  Sn15  1  0.000000  0.394332  0.250564  1
  Ge  Ge16  1  0.000000  0.000000  0.000000  1
  As  As17  1  0.000000  0.000000  0.500000  1
