# generated using pymatgen
data_BaPr(Sn2Pd)2
_symmetry_space_group_name_H-M   'P 1'
_cell_length_a   9.20836700
_cell_length_b   9.20836794
_cell_length_c   9.65015900
_cell_angle_alpha   90.00000000
_cell_angle_beta   90.00000000
_cell_angle_gamma   150.16404228
_symmetry_Int_Tables_number   1
_chemical_formula_structural   BaPr(Sn2Pd)2
_chemical_formula_sum   'Ba2 Pr2 Sn8 Pd4'
_cell_volume   407.10735534
_cell_formula_units_Z   2
loop_
 _symmetry_equiv_pos_site_id
 _symmetry_equiv_pos_as_xyz
  1  'x, y, z'
loop_
 _atom_site_type_symbol
 _atom_site_label
 _atom_site_symmetry_multiplicity
 _atom_site_fract_x
 _atom_site_fract_y
 _atom_site_fract_z
 _atom_site_occupancy
  Ba  Ba0  1  0.500000  0.500000  0.500000  1
  Ba  Ba1  1  0.500000  0.500000  0.000000  1
  Pr  Pr2  1  0.297780  0.702220  0.250000  1
  Pr  Pr3  1  0.702220  0.297780  0.750000  1
  Sn  Sn4  1  0.909515  0.090485  0.750000  1
  Sn  Sn5  1  0.924421  0.075579  0.250000  1
  Sn  Sn6  1  0.090485  0.909515  0.250000  1
  Sn  Sn7  1  0.075579  0.924421  0.750000  1
  Sn  Sn8  1  0.698113  0.301887  0.406268  1
  Sn  Sn9  1  0.301887  0.698113  0.593732  1
  Sn  Sn10  1  0.301887  0.698113  0.906268  1
  Sn  Sn11  1  0.698113  0.301887  0.093732  1
  Pd  Pd12  1  0.152440  0.847560  0.506325  1
  Pd  Pd13  1  0.847560  0.152440  0.006325  1
  Pd  Pd14  1  0.152440  0.847560  0.993675  1
  Pd  Pd15  1  0.847560  0.152440  0.493675  1
