# generated using pymatgen
data_Na3Sr(NpTe2)4
_symmetry_space_group_name_H-M   'P 1'
_cell_length_a   9.14246336
_cell_length_b   9.14246351
_cell_length_c   9.07489738
_cell_angle_alpha   59.75339762
_cell_angle_beta   59.75338973
_cell_angle_gamma   59.99999469
_symmetry_Int_Tables_number   1
_chemical_formula_structural   Na3Sr(NpTe2)4
_chemical_formula_sum   'Na3 Sr1 Np4 Te8'
_cell_volume   534.34809166
_cell_formula_units_Z   1
loop_
 _symmetry_equiv_pos_site_id
 _symmetry_equiv_pos_as_xyz
  1  'x, y, z'
loop_
 _atom_site_type_symbol
 _atom_site_label
 _atom_site_symmetry_multiplicity
 _atom_site_fract_x
 _atom_site_fract_y
 _atom_site_fract_z
 _atom_site_occupancy
  Na  Na0  1  0.125000  0.625000  0.125000  1
  Na  Na1  1  0.625000  0.125000  0.125000  1
  Na  Na2  1  0.125000  0.125000  0.125000  1
  Sr  Sr3  1  0.125000  0.125000  0.625000  1
  Np  Np4  1  0.625000  0.125000  0.625000  1
  Np  Np5  1  0.625000  0.625000  0.625000  1
  Np  Np6  1  0.125000  0.625000  0.625000  1
  Np  Np7  1  0.625000  0.625000  0.125000  1
  Te  Te8  1  0.381485  0.861200  0.375829  1
  Te  Te9  1  0.868515  0.388800  0.874171  1
  Te  Te10  1  0.870304  0.870304  0.389089  1
  Te  Te11  1  0.868515  0.868515  0.874171  1
  Te  Te12  1  0.861200  0.381485  0.375829  1
  Te  Te13  1  0.379696  0.379696  0.860911  1
  Te  Te14  1  0.381485  0.381485  0.375829  1
  Te  Te15  1  0.388800  0.868515  0.874171  1
