# generated using pymatgen
data_Zr4Ti6Ge7As
_symmetry_space_group_name_H-M   'P 1'
_cell_length_a   6.81924400
_cell_length_b   6.92748401
_cell_length_c   13.11114103
_cell_angle_alpha   89.99264136
_cell_angle_beta   90.00000000
_cell_angle_gamma   90.00000000
_symmetry_Int_Tables_number   1
_chemical_formula_structural   Zr4Ti6Ge7As
_chemical_formula_sum   'Zr8 Ti12 Ge14 As2'
_cell_volume   619.37296905
_cell_formula_units_Z   2
loop_
 _symmetry_equiv_pos_site_id
 _symmetry_equiv_pos_as_xyz
  1  'x, y, z'
loop_
 _atom_site_type_symbol
 _atom_site_label
 _atom_site_symmetry_multiplicity
 _atom_site_fract_x
 _atom_site_fract_y
 _atom_site_fract_z
 _atom_site_occupancy
  Zr  Zr0  1  0.491503  0.675748  0.093217  1
  Zr  Zr1  1  0.991503  0.824252  0.406783  1
  Zr  Zr2  1  0.509965  0.325134  0.594926  1
  Zr  Zr3  1  0.009965  0.174866  0.905074  1
  Zr  Zr4  1  0.509319  0.324201  0.906257  1
  Zr  Zr5  1  0.009319  0.175799  0.593743  1
  Zr  Zr6  1  0.489852  0.675252  0.406246  1
  Zr  Zr7  1  0.989852  0.824748  0.093754  1
  Ti  Ti8  1  0.331998  0.004853  0.249281  1
  Ti  Ti9  1  0.831998  0.495147  0.250719  1
  Ti  Ti10  1  0.668934  0.994542  0.750730  1
  Ti  Ti11  1  0.168934  0.505458  0.749270  1
  Ti  Ti12  1  0.659633  0.163351  0.124172  1
  Ti  Ti13  1  0.159633  0.336649  0.375828  1
  Ti  Ti14  1  0.339915  0.833268  0.625222  1
  Ti  Ti15  1  0.839915  0.666732  0.874778  1
  Ti  Ti16  1  0.342004  0.834289  0.875677  1
  Ti  Ti17  1  0.842004  0.665711  0.624323  1
  Ti  Ti18  1  0.659133  0.164940  0.374007  1
  Ti  Ti19  1  0.159133  0.335060  0.125993  1
  Ge  Ge20  1  0.692735  0.856839  0.250406  1
  Ge  Ge21  1  0.192735  0.643161  0.249594  1
  Ge  Ge22  1  0.307506  0.142058  0.749744  1
  Ge  Ge23  1  0.807506  0.357942  0.750256  1
  Ge  Ge24  1  0.318564  0.042370  0.458881  1
  Ge  Ge25  1  0.818564  0.457630  0.041119  1
  Ge  Ge26  1  0.311672  0.042325  0.041679  1
  Ge  Ge27  1  0.811672  0.457675  0.458321  1
  Ge  Ge28  1  0.681337  0.958407  0.541082  1
  Ge  Ge29  1  0.181337  0.541593  0.958918  1
  Ge  Ge30  1  0.462004  0.377239  0.249570  1
  Ge  Ge31  1  0.962004  0.122761  0.250430  1
  Ge  Ge32  1  0.538547  0.622655  0.750110  1
  Ge  Ge33  1  0.038547  0.877345  0.749890  1
  As  As34  1  0.685379  0.958093  0.959106  1
  As  As35  1  0.185379  0.541907  0.540894  1
