# generated using pymatgen
data_Er16TlCd2InPd4
_symmetry_space_group_name_H-M   'P 1'
_cell_length_a   9.63575800
_cell_length_b   9.63575837
_cell_length_c   9.63884540
_cell_angle_alpha   59.92328204
_cell_angle_beta   59.92328488
_cell_angle_gamma   59.95932785
_symmetry_Int_Tables_number   1
_chemical_formula_structural   Er16TlCd2InPd4
_chemical_formula_sum   'Er16 Tl1 Cd2 In1 Pd4'
_cell_volume   631.89347704
_cell_formula_units_Z   1
loop_
 _symmetry_equiv_pos_site_id
 _symmetry_equiv_pos_as_xyz
  1  'x, y, z'
loop_
 _atom_site_type_symbol
 _atom_site_label
 _atom_site_symmetry_multiplicity
 _atom_site_fract_x
 _atom_site_fract_y
 _atom_site_fract_z
 _atom_site_occupancy
  Er  Er0  1  0.351985  0.351985  0.352997  1
  Er  Er1  1  0.353775  0.353775  0.939081  1
  Er  Er2  1  0.354253  0.938417  0.354140  1
  Er  Er3  1  0.938417  0.354253  0.354140  1
  Er  Er4  1  0.810349  0.190255  0.189221  1
  Er  Er5  1  0.189093  0.810662  0.810570  1
  Er  Er6  1  0.190255  0.810349  0.189221  1
  Er  Er7  1  0.810662  0.189093  0.810570  1
  Er  Er8  1  0.188725  0.188725  0.811567  1
  Er  Er9  1  0.809766  0.809766  0.189977  1
  Er  Er10  1  0.937245  0.566216  0.565090  1
  Er  Er11  1  0.564555  0.936614  0.933801  1
  Er  Er12  1  0.566216  0.937245  0.565090  1
  Er  Er13  1  0.936614  0.564555  0.933801  1
  Er  Er14  1  0.565912  0.565912  0.934749  1
  Er  Er15  1  0.935945  0.935945  0.563509  1
  Tl  Tl16  1  0.583971  0.583971  0.585883  1
  Cd  Cd17  1  0.581661  0.249677  0.583099  1
  Cd  Cd18  1  0.249677  0.581661  0.583099  1
  In  In19  1  0.582107  0.582107  0.250397  1
  Pd  Pd20  1  0.144558  0.144558  0.144747  1
  Pd  Pd21  1  0.143499  0.143499  0.567390  1
  Pd  Pd22  1  0.143263  0.567494  0.143930  1
  Pd  Pd23  1  0.567494  0.143263  0.143930  1
