# generated using pymatgen
data_TmU3(B6Mo)2
_symmetry_space_group_name_H-M   'P 1'
_cell_length_a   3.68212900
_cell_length_b   9.27608727
_cell_length_c   11.37550155
_cell_angle_alpha   89.94010939
_cell_angle_beta   90.00000000
_cell_angle_gamma   90.00000000
_symmetry_Int_Tables_number   1
_chemical_formula_structural   TmU3(B6Mo)2
_chemical_formula_sum   'Tm2 U6 B24 Mo4'
_cell_volume   388.53857415
_cell_formula_units_Z   2
loop_
 _symmetry_equiv_pos_site_id
 _symmetry_equiv_pos_as_xyz
  1  'x, y, z'
loop_
 _atom_site_type_symbol
 _atom_site_label
 _atom_site_symmetry_multiplicity
 _atom_site_fract_x
 _atom_site_fract_y
 _atom_site_fract_z
 _atom_site_occupancy
  Tm  Tm0  1  0.000000  0.336619  0.408906  1
  Tm  Tm1  1  0.000000  0.663381  0.591094  1
  U  U2  1  0.000000  0.834643  0.092846  1
  U  U3  1  0.000000  0.165357  0.907154  1
  U  U4  1  0.000000  0.955911  0.395499  1
  U  U5  1  0.000000  0.044089  0.604501  1
  U  U6  1  0.000000  0.456322  0.105615  1
  U  U7  1  0.000000  0.543678  0.894385  1
  B  B8  1  0.500000  0.550579  0.431897  1
  B  B9  1  0.500000  0.449421  0.568103  1
  B  B10  1  0.500000  0.049816  0.066953  1
  B  B11  1  0.500000  0.950184  0.933047  1
  B  B12  1  0.500000  0.742908  0.424183  1
  B  B13  1  0.500000  0.257092  0.575817  1
  B  B14  1  0.500000  0.243361  0.075833  1
  B  B15  1  0.500000  0.756639  0.924167  1
  B  B16  1  0.500000  0.803415  0.273048  1
  B  B17  1  0.500000  0.196585  0.726952  1
  B  B18  1  0.500000  0.302756  0.225424  1
  B  B19  1  0.500000  0.697244  0.774576  1
  B  B20  1  0.500000  0.644049  0.187485  1
  B  B21  1  0.500000  0.355951  0.812515  1
  B  B22  1  0.500000  0.144120  0.311982  1
  B  B23  1  0.500000  0.855880  0.688018  1
  B  B24  1  0.500000  0.985968  0.218665  1
  B  B25  1  0.500000  0.014032  0.781335  1
  B  B26  1  0.500000  0.486528  0.281088  1
  B  B27  1  0.500000  0.513472  0.718912  1
  B  B28  1  0.500000  0.641923  0.039207  1
  B  B29  1  0.500000  0.358077  0.960793  1
  B  B30  1  0.500000  0.139546  0.460896  1
  B  B31  1  0.500000  0.860454  0.539104  1
  Mo  Mo32  1  0.000000  0.647356  0.316146  1
  Mo  Mo33  1  0.000000  0.352644  0.683854  1
  Mo  Mo34  1  0.000000  0.143398  0.177525  1
  Mo  Mo35  1  0.000000  0.856602  0.822475  1
