# generated using pymatgen
data_Ca3TmAs6Ir7
_symmetry_space_group_name_H-M   'P 1'
_cell_length_a   7.30462010
_cell_length_b   7.26046967
_cell_length_c   7.26046879
_cell_angle_alpha   109.34770246
_cell_angle_beta   109.59445091
_cell_angle_gamma   109.59445968
_symmetry_Int_Tables_number   1
_chemical_formula_structural   Ca3TmAs6Ir7
_chemical_formula_sum   'Ca3 Tm1 As6 Ir7'
_cell_volume   295.96636976
_cell_formula_units_Z   1
loop_
 _symmetry_equiv_pos_site_id
 _symmetry_equiv_pos_as_xyz
  1  'x, y, z'
loop_
 _atom_site_type_symbol
 _atom_site_label
 _atom_site_symmetry_multiplicity
 _atom_site_fract_x
 _atom_site_fract_y
 _atom_site_fract_z
 _atom_site_occupancy
  Ca  Ca0  1  0.000000  0.000000  0.500000  1
  Ca  Ca1  1  0.000000  0.500000  0.000000  1
  Ca  Ca2  1  0.500000  0.500000  0.500000  1
  Tm  Tm3  1  0.500000  0.000000  0.000000  1
  As  As4  1  0.680905  0.678495  0.000000  1
  As  As5  1  0.319095  0.321505  0.000000  1
  As  As6  1  0.997590  0.678495  0.678495  1
  As  As7  1  0.002410  0.321505  0.321505  1
  As  As8  1  0.680905  0.000000  0.678495  1
  As  As9  1  0.319095  0.000000  0.321505  1
  Ir  Ir10  1  0.000000  0.000000  0.000000  1
  Ir  Ir11  1  0.252036  0.504071  0.752036  1
  Ir  Ir12  1  0.747964  0.247964  0.495929  1
  Ir  Ir13  1  0.500000  0.247964  0.752036  1
  Ir  Ir14  1  0.500000  0.752036  0.247964  1
  Ir  Ir15  1  0.747964  0.495929  0.247964  1
  Ir  Ir16  1  0.252036  0.752036  0.504071  1
