# generated using pymatgen
data_Zr5CdBiPb2
_symmetry_space_group_name_H-M   'P 1'
_cell_length_a   8.93886719
_cell_length_b   8.92803205
_cell_length_c   6.02230700
_cell_angle_alpha   90.00000000
_cell_angle_beta   90.00000000
_cell_angle_gamma   119.95992714
_symmetry_Int_Tables_number   1
_chemical_formula_structural   Zr5CdBiPb2
_chemical_formula_sum   'Zr10 Cd2 Bi2 Pb4'
_cell_volume   416.39640823
_cell_formula_units_Z   2
loop_
 _symmetry_equiv_pos_site_id
 _symmetry_equiv_pos_as_xyz
  1  'x, y, z'
loop_
 _atom_site_type_symbol
 _atom_site_label
 _atom_site_symmetry_multiplicity
 _atom_site_fract_x
 _atom_site_fract_y
 _atom_site_fract_z
 _atom_site_occupancy
  Zr  Zr0  1  0.666720  0.333573  0.000991  1
  Zr  Zr1  1  0.333280  0.666851  0.000990  1
  Zr  Zr2  1  0.333280  0.666851  0.499010  1
  Zr  Zr3  1  0.666720  0.333573  0.499009  1
  Zr  Zr4  1  0.720461  0.719739  0.750000  1
  Zr  Zr5  1  0.279538  0.999274  0.750000  1
  Zr  Zr6  1  0.000001  0.280417  0.750000  1
  Zr  Zr7  1  0.279709  0.279455  0.250000  1
  Zr  Zr8  1  0.720291  0.999743  0.250000  1
  Zr  Zr9  1  0.000002  0.720077  0.250000  1
  Cd  Cd10  1  0.000000  0.999411  0.000383  1
  Cd  Cd11  1  0.000000  0.999411  0.499617  1
  Bi  Bi12  1  0.381099  0.381091  0.750000  1
  Bi  Bi13  1  0.618899  0.999988  0.750000  1
  Pb  Pb14  1  0.000002  0.620078  0.750000  1
  Pb  Pb15  1  0.620305  0.620185  0.250000  1
  Pb  Pb16  1  0.379695  0.999878  0.250000  1
  Pb  Pb17  1  0.999999  0.380405  0.250000  1
