# generated using pymatgen
data_Li3Hf2Ni9P7
_symmetry_space_group_name_H-M   'P 1'
_cell_length_a   9.12424910
_cell_length_b   9.11492892
_cell_length_c   3.66312200
_cell_angle_alpha   90.00000000
_cell_angle_beta   90.00000000
_cell_angle_gamma   119.88722535
_symmetry_Int_Tables_number   1
_chemical_formula_structural   Li3Hf2Ni9P7
_chemical_formula_sum   'Li3 Hf2 Ni9 P7'
_cell_volume   264.13432492
_cell_formula_units_Z   1
loop_
 _symmetry_equiv_pos_site_id
 _symmetry_equiv_pos_as_xyz
  1  'x, y, z'
loop_
 _atom_site_type_symbol
 _atom_site_label
 _atom_site_symmetry_multiplicity
 _atom_site_fract_x
 _atom_site_fract_y
 _atom_site_fract_z
 _atom_site_occupancy
  Li  Li0  1  0.441370  0.212375  0.500000  1
  Li  Li1  1  0.781474  0.224275  0.500000  1
  Li  Li2  1  0.003616  0.006313  0.500000  1
  Hf  Hf3  1  0.768033  0.554096  0.500000  1
  Hf  Hf4  1  0.327779  0.666284  0.000000  1
  Ni  Ni5  1  0.271158  0.378097  0.500000  1
  Ni  Ni6  1  0.622809  0.895562  0.500000  1
  Ni  Ni7  1  0.113835  0.726513  0.500000  1
  Ni  Ni8  1  0.496057  0.455507  0.000000  1
  Ni  Ni9  1  0.545821  0.040867  0.000000  1
  Ni  Ni10  1  0.958168  0.496727  0.000000  1
  Ni  Ni11  1  0.728274  0.766767  0.000000  1
  Ni  Ni12  1  0.243668  0.970089  0.000000  1
  Ni  Ni13  1  0.036559  0.272148  0.000000  1
  P  P14  1  0.979768  0.765030  0.000000  1
  P  P15  1  0.242562  0.213287  0.000000  1
  P  P16  1  0.788429  0.032440  0.000000  1
  P  P17  1  0.663001  0.325209  0.000000  1
  P  P18  1  0.525805  0.620375  0.500000  1
  P  P19  1  0.383134  0.919275  0.500000  1
  P  P20  1  0.078683  0.458764  0.500000  1
