# generated using pymatgen
data_Nd3Si5PPd20
_symmetry_space_group_name_H-M   'P 1'
_cell_length_a   8.78007691
_cell_length_b   8.78007662
_cell_length_c   8.78233100
_cell_angle_alpha   59.99150981
_cell_angle_beta   59.99151094
_cell_angle_gamma   60.01698873
_symmetry_Int_Tables_number   1
_chemical_formula_structural   Nd3Si5PPd20
_chemical_formula_sum   'Nd3 Si5 P1 Pd20'
_cell_volume   478.73083729
_cell_formula_units_Z   1
loop_
 _symmetry_equiv_pos_site_id
 _symmetry_equiv_pos_as_xyz
  1  'x, y, z'
loop_
 _atom_site_type_symbol
 _atom_site_label
 _atom_site_symmetry_multiplicity
 _atom_site_fract_x
 _atom_site_fract_y
 _atom_site_fract_z
 _atom_site_occupancy
  Nd  Nd0  1  0.248839  0.248839  0.251161  1
  Nd  Nd1  1  0.748839  0.748839  0.751161  1
  Nd  Nd2  1  0.000670  0.000670  0.999330  1
  Si  Si3  1  0.732528  0.265629  0.267472  1
  Si  Si4  1  0.265629  0.732528  0.734371  1
  Si  Si5  1  0.265629  0.732528  0.267472  1
  Si  Si6  1  0.732528  0.265629  0.734371  1
  Si  Si7  1  0.267650  0.267650  0.732350  1
  P  P8  1  0.734940  0.734940  0.265060  1
  Pd  Pd9  1  0.385147  0.385147  0.385021  1
  Pd  Pd10  1  0.614685  0.614685  0.612954  1
  Pd  Pd11  1  0.385147  0.385147  0.844684  1
  Pd  Pd12  1  0.387046  0.842325  0.385315  1
  Pd  Pd13  1  0.614685  0.614685  0.157675  1
  Pd  Pd14  1  0.614979  0.155316  0.614853  1
  Pd  Pd15  1  0.842325  0.387046  0.385315  1
  Pd  Pd16  1  0.155316  0.614979  0.614853  1
  Pd  Pd17  1  0.346584  0.000237  0.999763  1
  Pd  Pd18  1  0.653411  0.998373  0.001627  1
  Pd  Pd19  1  0.000237  0.346584  0.653416  1
  Pd  Pd20  1  0.998373  0.653411  0.346589  1
  Pd  Pd21  1  0.000237  0.346584  0.999763  1
  Pd  Pd22  1  0.653411  0.998373  0.346589  1
  Pd  Pd23  1  0.998373  0.653411  0.001627  1
  Pd  Pd24  1  0.346584  0.000237  0.653416  1
  Pd  Pd25  1  0.001552  0.001552  0.345426  1
  Pd  Pd26  1  0.001552  0.001552  0.651471  1
  Pd  Pd27  1  0.654574  0.348529  0.998448  1
  Pd  Pd28  1  0.348529  0.654574  0.998448  1
