# generated using pymatgen
data_Tb18Sn3Bi7O10
_symmetry_space_group_name_H-M   'P 1'
_cell_length_a   10.04454399
_cell_length_b   10.04254531
_cell_length_c   9.04029883
_cell_angle_alpha   90.02809557
_cell_angle_beta   89.89806008
_cell_angle_gamma   89.99995564
_symmetry_Int_Tables_number   1
_chemical_formula_structural   Tb18Sn3Bi7O10
_chemical_formula_sum   'Tb18 Sn3 Bi7 O10'
_cell_volume   911.91859537
_cell_formula_units_Z   1
loop_
 _symmetry_equiv_pos_site_id
 _symmetry_equiv_pos_as_xyz
  1  'x, y, z'
loop_
 _atom_site_type_symbol
 _atom_site_label
 _atom_site_symmetry_multiplicity
 _atom_site_fract_x
 _atom_site_fract_y
 _atom_site_fract_z
 _atom_site_occupancy
  Tb  Tb0  1  0.199525  0.893683  0.333252  1
  Tb  Tb1  1  0.502648  0.993144  0.682018  1
  Tb  Tb2  1  0.300660  0.606288  0.666341  1
  Tb  Tb3  1  0.703520  0.400884  0.660892  1
  Tb  Tb4  1  0.728413  0.914183  0.004026  1
  Tb  Tb5  1  0.401539  0.296872  0.333663  1
  Tb  Tb6  1  0.104893  0.205842  0.666109  1
  Tb  Tb7  1  0.611146  0.701738  0.338347  1
  Tb  Tb8  1  0.991668  0.504631  0.318295  1
  Tb  Tb9  1  0.888927  0.792386  0.660730  1
  Tb  Tb10  1  0.275978  0.083073  0.002812  1
  Tb  Tb11  1  0.770206  0.582901  0.999199  1
  Tb  Tb12  1  0.224359  0.417703  0.998794  1
  Tb  Tb13  1  0.794616  0.105192  0.332925  1
  Tb  Tb14  1  0.584890  0.227586  0.004783  1
  Tb  Tb15  1  0.916082  0.276322  0.999897  1
  Tb  Tb16  1  0.080520  0.726288  0.001354  1
  Tb  Tb17  1  0.418282  0.773191  0.000395  1
  Sn  Sn18  1  0.595259  0.696004  0.699637  1
  Sn  Sn19  1  0.903785  0.805935  0.301278  1
  Sn  Sn20  1  0.696102  0.401990  0.301007  1
  Bi  Bi21  1  0.002861  0.500037  0.679457  1
  Bi  Bi22  1  0.193277  0.904223  0.696107  1
  Bi  Bi23  1  0.805199  0.096756  0.696519  1
  Bi  Bi24  1  0.304970  0.595400  0.303696  1
  Bi  Bi25  1  0.404778  0.303666  0.696722  1
  Bi  Bi26  1  0.096790  0.196556  0.304655  1
  Bi  Bi27  1  0.498554  0.998488  0.321530  1
  O  O28  1  0.226839  0.879946  0.085172  1
  O  O29  1  0.726861  0.379004  0.911611  1
  O  O30  1  0.496989  0.002465  0.937505  1
  O  O31  1  0.618449  0.726507  0.087598  1
  O  O32  1  0.003928  0.498467  0.062121  1
  O  O33  1  0.880790  0.773236  0.912575  1
  O  O34  1  0.120002  0.225107  0.915091  1
  O  O35  1  0.378902  0.274667  0.085606  1
  O  O36  1  0.774603  0.119515  0.083737  1
  O  O37  1  0.273190  0.620124  0.914546  1
