# generated using pymatgen
data_Dy5Ho15(Cd3Ru)2
_symmetry_space_group_name_H-M   'P 1'
_cell_length_a   9.56106200
_cell_length_b   9.56155702
_cell_length_c   9.82215800
_cell_angle_alpha   90.00000000
_cell_angle_beta   90.00000000
_cell_angle_gamma   120.00171727
_symmetry_Int_Tables_number   1
_chemical_formula_structural   Dy5Ho15(Cd3Ru)2
_chemical_formula_sum   'Dy5 Ho15 Cd6 Ru2'
_cell_volume   777.61528084
_cell_formula_units_Z   1
loop_
 _symmetry_equiv_pos_site_id
 _symmetry_equiv_pos_as_xyz
  1  'x, y, z'
loop_
 _atom_site_type_symbol
 _atom_site_label
 _atom_site_symmetry_multiplicity
 _atom_site_fract_x
 _atom_site_fract_y
 _atom_site_fract_z
 _atom_site_occupancy
  Dy  Dy0  1  0.541128  0.458873  0.250000  1
  Dy  Dy1  1  0.541128  0.082255  0.250000  1
  Dy  Dy2  1  0.917734  0.458867  0.250000  1
  Dy  Dy3  1  0.458797  0.541120  0.750000  1
  Dy  Dy4  1  0.458797  0.917678  0.750000  1
  Ho  Ho5  1  0.000000  0.000000  0.499998  1
  Ho  Ho6  1  0.000000  0.000000  0.000002  1
  Ho  Ho7  1  0.209798  0.790139  0.440352  1
  Ho  Ho8  1  0.209798  0.419661  0.440352  1
  Ho  Ho9  1  0.580346  0.790173  0.440314  1
  Ho  Ho10  1  0.790246  0.209864  0.559671  1
  Ho  Ho11  1  0.790246  0.580381  0.559671  1
  Ho  Ho12  1  0.419605  0.209802  0.559672  1
  Ho  Ho13  1  0.790246  0.209864  0.940329  1
  Ho  Ho14  1  0.790246  0.580381  0.940329  1
  Ho  Ho15  1  0.419605  0.209802  0.940328  1
  Ho  Ho16  1  0.209798  0.790139  0.059648  1
  Ho  Ho17  1  0.209798  0.419661  0.059648  1
  Ho  Ho18  1  0.580346  0.790173  0.059686  1
  Ho  Ho19  1  0.082229  0.541115  0.750000  1
  Cd  Cd20  1  0.885472  0.114533  0.250000  1
  Cd  Cd21  1  0.885472  0.770941  0.250000  1
  Cd  Cd22  1  0.229070  0.114536  0.250000  1
  Cd  Cd23  1  0.114546  0.885412  0.750000  1
  Cd  Cd24  1  0.114546  0.229133  0.750000  1
  Cd  Cd25  1  0.770946  0.885472  0.750000  1
  Ru  Ru26  1  0.333361  0.666681  0.250000  1
  Ru  Ru27  1  0.666694  0.333347  0.750000  1
