# generated using pymatgen
data_LiDy4Tc3(P3Ir4)4
_symmetry_space_group_name_H-M   'P 1'
_cell_length_a   12.63788122
_cell_length_b   12.64748089
_cell_length_c   3.96883700
_cell_angle_alpha   90.00000000
_cell_angle_beta   90.00000000
_cell_angle_gamma   120.02512319
_symmetry_Int_Tables_number   1
_chemical_formula_structural   LiDy4Tc3(P3Ir4)4
_chemical_formula_sum   'Li1 Dy4 Tc3 P12 Ir16'
_cell_volume   549.24004575
_cell_formula_units_Z   1
loop_
 _symmetry_equiv_pos_site_id
 _symmetry_equiv_pos_as_xyz
  1  'x, y, z'
loop_
 _atom_site_type_symbol
 _atom_site_label
 _atom_site_symmetry_multiplicity
 _atom_site_fract_x
 _atom_site_fract_y
 _atom_site_fract_z
 _atom_site_occupancy
  Li  Li0  1  0.000000  0.819098  0.000000  1
  Dy  Dy1  1  0.334519  0.666856  0.500000  1
  Dy  Dy2  1  0.665481  0.332337  0.500000  1
  Dy  Dy3  1  0.184483  0.183418  0.000000  1
  Dy  Dy4  1  0.815517  0.998936  0.000000  1
  Tc  Tc5  1  0.000000  0.455623  0.500000  1
  Tc  Tc6  1  0.543501  0.546327  0.500000  1
  Tc  Tc7  1  0.456499  0.002826  0.500000  1
  P  P8  1  0.000000  0.641963  0.500000  1
  P  P9  1  0.361515  0.361571  0.500000  1
  P  P10  1  0.638485  0.000057  0.500000  1
  P  P11  1  0.517020  0.685148  0.000000  1
  P  P12  1  0.313254  0.830639  0.000000  1
  P  P13  1  0.168641  0.484694  0.000000  1
  P  P14  1  0.482980  0.168128  0.000000  1
  P  P15  1  0.686746  0.517385  0.000000  1
  P  P16  1  0.831359  0.316053  0.000000  1
  P  P17  1  0.000000  0.176743  0.500000  1
  P  P18  1  0.826075  0.819770  0.500000  1
  P  P19  1  0.173925  0.993695  0.500000  1
  Ir  Ir20  1  0.509041  0.868001  0.000000  1
  Ir  Ir21  1  0.130894  0.640735  0.000000  1
  Ir  Ir22  1  0.357765  0.490437  0.000000  1
  Ir  Ir23  1  0.490959  0.358959  0.000000  1
  Ir  Ir24  1  0.869106  0.509841  0.000000  1
  Ir  Ir25  1  0.642235  0.132672  0.000000  1
  Ir  Ir26  1  0.000000  0.288399  0.000000  1
  Ir  Ir27  1  0.712425  0.713216  0.000000  1
  Ir  Ir28  1  0.287575  0.000791  0.000000  1
  Ir  Ir29  1  0.626800  0.806403  0.500000  1
  Ir  Ir30  1  0.195436  0.818449  0.500000  1
  Ir  Ir31  1  0.179123  0.373836  0.500000  1
  Ir  Ir32  1  0.373200  0.179603  0.500000  1
  Ir  Ir33  1  0.804564  0.623013  0.500000  1
  Ir  Ir34  1  0.820877  0.194713  0.500000  1
  Ir  Ir35  1  0.000000  0.999663  0.500000  1
