# generated using pymatgen
data_Tb7Er(CoAg)2
_symmetry_space_group_name_H-M   'P 1'
_cell_length_a   9.41564632
_cell_length_b   9.41255049
_cell_length_c   9.41255151
_cell_angle_alpha   60.02175486
_cell_angle_beta   59.98912455
_cell_angle_gamma   59.98912300
_symmetry_Int_Tables_number   1
_chemical_formula_structural   Tb7Er(CoAg)2
_chemical_formula_sum   'Tb14 Er2 Co4 Ag4'
_cell_volume   589.86107476
_cell_formula_units_Z   2
loop_
 _symmetry_equiv_pos_site_id
 _symmetry_equiv_pos_as_xyz
  1  'x, y, z'
loop_
 _atom_site_type_symbol
 _atom_site_label
 _atom_site_symmetry_multiplicity
 _atom_site_fract_x
 _atom_site_fract_y
 _atom_site_fract_z
 _atom_site_occupancy
  Tb  Tb0  1  0.187489  0.812511  0.187489  1
  Tb  Tb1  1  0.812511  0.187489  0.812511  1
  Tb  Tb2  1  0.187489  0.187489  0.812511  1
  Tb  Tb3  1  0.812511  0.812511  0.187489  1
  Tb  Tb4  1  0.937471  0.562528  0.562529  1
  Tb  Tb5  1  0.562528  0.937471  0.937472  1
  Tb  Tb6  1  0.562422  0.937578  0.562422  1
  Tb  Tb7  1  0.937578  0.562421  0.937579  1
  Tb  Tb8  1  0.562422  0.562421  0.937579  1
  Tb  Tb9  1  0.937578  0.937578  0.562422  1
  Tb  Tb10  1  0.348536  0.348117  0.348117  1
  Tb  Tb11  1  0.348117  0.348536  0.955231  1
  Tb  Tb12  1  0.348117  0.955231  0.348536  1
  Tb  Tb13  1  0.955231  0.348117  0.348117  1
  Er  Er14  1  0.812331  0.187669  0.187669  1
  Er  Er15  1  0.187669  0.812331  0.812331  1
  Co  Co16  1  0.141243  0.141275  0.141275  1
  Co  Co17  1  0.141275  0.141243  0.576208  1
  Co  Co18  1  0.141275  0.576208  0.141243  1
  Co  Co19  1  0.576208  0.141275  0.141275  1
  Ag  Ag20  1  0.581162  0.581269  0.581269  1
  Ag  Ag21  1  0.581269  0.581162  0.256299  1
  Ag  Ag22  1  0.581269  0.256299  0.581162  1
  Ag  Ag23  1  0.256299  0.581269  0.581269  1
