# generated using pymatgen
data_Tb2Nd2Al15(GaIr2)3
_symmetry_space_group_name_H-M   'P 1'
_cell_length_a   7.57035827
_cell_length_b   7.56929718
_cell_length_c   9.60371400
_cell_angle_alpha   90.00000000
_cell_angle_beta   90.00000000
_cell_angle_gamma   119.34574137
_symmetry_Int_Tables_number   1
_chemical_formula_structural   Tb2Nd2Al15(GaIr2)3
_chemical_formula_sum   'Tb2 Nd2 Al15 Ga3 Ir6'
_cell_volume   479.69748700
_cell_formula_units_Z   1
loop_
 _symmetry_equiv_pos_site_id
 _symmetry_equiv_pos_as_xyz
  1  'x, y, z'
loop_
 _atom_site_type_symbol
 _atom_site_label
 _atom_site_symmetry_multiplicity
 _atom_site_fract_x
 _atom_site_fract_y
 _atom_site_fract_z
 _atom_site_occupancy
  Tb  Tb0  1  0.005783  0.325065  0.750000  1
  Tb  Tb1  1  0.324267  0.003991  0.750000  1
  Nd  Nd2  1  0.998188  0.674693  0.250000  1
  Nd  Nd3  1  0.669639  0.990874  0.250000  1
  Al  Al4  1  0.002765  0.335259  0.068781  1
  Al  Al5  1  0.998636  0.663630  0.924176  1
  Al  Al6  1  0.998636  0.663630  0.575824  1
  Al  Al7  1  0.336381  0.005081  0.430932  1
  Al  Al8  1  0.002765  0.335259  0.431219  1
  Al  Al9  1  0.663780  0.999188  0.575670  1
  Al  Al10  1  0.663780  0.999188  0.924330  1
  Al  Al11  1  0.336381  0.005081  0.069068  1
  Al  Al12  1  0.334154  0.334352  0.556805  1
  Al  Al13  1  0.665565  0.665066  0.454864  1
  Al  Al14  1  0.665565  0.665066  0.045136  1
  Al  Al15  1  0.334154  0.334352  0.943195  1
  Al  Al16  1  0.661726  0.449227  0.750000  1
  Al  Al17  1  0.548150  0.339696  0.250000  1
  Al  Al18  1  0.449705  0.661630  0.750000  1
  Ga  Ga19  1  0.134091  0.134878  0.250000  1
  Ga  Ga20  1  0.865322  0.865169  0.750000  1
  Ga  Ga21  1  0.338766  0.543287  0.250000  1
  Ir  Ir22  1  0.670824  0.329303  0.998507  1
  Ir  Ir23  1  0.328669  0.672101  0.996317  1
  Ir  Ir24  1  0.328669  0.672101  0.503683  1
  Ir  Ir25  1  0.670824  0.329303  0.501493  1
  Ir  Ir26  1  0.001408  0.001766  0.997576  1
  Ir  Ir27  1  0.001408  0.001766  0.502424  1
