# generated using pymatgen
data_Tb7Ho(Sc3Si4)4
_symmetry_space_group_name_H-M   'P 1'
_cell_length_a   7.09554311
_cell_length_b   7.38652319
_cell_length_c   13.99990927
_cell_angle_alpha   89.98037694
_cell_angle_beta   90.01085453
_cell_angle_gamma   90.01673611
_symmetry_Int_Tables_number   1
_chemical_formula_structural   Tb7Ho(Sc3Si4)4
_chemical_formula_sum   'Tb7 Ho1 Sc12 Si16'
_cell_volume   733.75466876
_cell_formula_units_Z   1
loop_
 _symmetry_equiv_pos_site_id
 _symmetry_equiv_pos_as_xyz
  1  'x, y, z'
loop_
 _atom_site_type_symbol
 _atom_site_label
 _atom_site_symmetry_multiplicity
 _atom_site_fract_x
 _atom_site_fract_y
 _atom_site_fract_z
 _atom_site_occupancy
  Tb  Tb0  1  0.011926  0.175035  0.097014  1
  Tb  Tb1  1  0.988086  0.824958  0.902905  1
  Tb  Tb2  1  0.488057  0.675027  0.903082  1
  Tb  Tb3  1  0.988001  0.824825  0.597025  1
  Tb  Tb4  1  0.511942  0.324993  0.097000  1
  Tb  Tb5  1  0.012008  0.175006  0.403077  1
  Tb  Tb6  1  0.511873  0.325032  0.403130  1
  Ho  Ho7  1  0.487999  0.675373  0.597152  1
  Sc  Sc8  1  0.160600  0.502399  0.749916  1
  Sc  Sc9  1  0.839585  0.497766  0.249992  1
  Sc  Sc10  1  0.339508  0.002284  0.250023  1
  Sc  Sc11  1  0.660370  0.997594  0.749883  1
  Sc  Sc12  1  0.330744  0.176715  0.625168  1
  Sc  Sc13  1  0.669212  0.823205  0.374879  1
  Sc  Sc14  1  0.169489  0.676622  0.374897  1
  Sc  Sc15  1  0.669337  0.823425  0.125184  1
  Sc  Sc16  1  0.830485  0.323594  0.625170  1
  Sc  Sc17  1  0.330608  0.176591  0.874750  1
  Sc  Sc18  1  0.830605  0.323381  0.874749  1
  Sc  Sc19  1  0.169391  0.676590  0.125184  1
  Si  Si20  1  0.033359  0.117953  0.749980  1
  Si  Si21  1  0.966611  0.882077  0.250028  1
  Si  Si22  1  0.466630  0.617903  0.250022  1
  Si  Si23  1  0.533308  0.382461  0.749844  1
  Si  Si24  1  0.285830  0.874038  0.749746  1
  Si  Si25  1  0.714502  0.125548  0.249994  1
  Si  Si26  1  0.214495  0.374392  0.250003  1
  Si  Si27  1  0.785048  0.625726  0.749725  1
  Si  Si28  1  0.158031  0.464924  0.539531  1
  Si  Si29  1  0.842452  0.535487  0.460671  1
  Si  Si30  1  0.342875  0.964152  0.460755  1
  Si  Si31  1  0.842720  0.535437  0.039388  1
  Si  Si32  1  0.657075  0.034921  0.539537  1
  Si  Si33  1  0.157208  0.464548  0.960592  1
  Si  Si34  1  0.657347  0.035425  0.960601  1
  Si  Si35  1  0.342682  0.964591  0.039404  1
