# generated using pymatgen
data_TbHo2Th3Si4
_symmetry_space_group_name_H-M   'P 1'
_cell_length_a   7.61309918
_cell_length_b   7.61310012
_cell_length_c   4.24554200
_cell_angle_alpha   90.00000000
_cell_angle_beta   90.00000000
_cell_angle_gamma   90.49659355
_symmetry_Int_Tables_number   1
_chemical_formula_structural   TbHo2Th3Si4
_chemical_formula_sum   'Tb1 Ho2 Th3 Si4'
_cell_volume   246.05934193
_cell_formula_units_Z   1
loop_
 _symmetry_equiv_pos_site_id
 _symmetry_equiv_pos_as_xyz
  1  'x, y, z'
loop_
 _atom_site_type_symbol
 _atom_site_label
 _atom_site_symmetry_multiplicity
 _atom_site_fract_x
 _atom_site_fract_y
 _atom_site_fract_z
 _atom_site_occupancy
  Tb  Tb0  1  0.676267  0.176267  0.500000  1
  Ho  Ho1  1  0.500651  0.501465  0.000000  1
  Ho  Ho2  1  0.001465  0.000651  0.000000  1
  Th  Th3  1  0.322778  0.822778  0.500000  1
  Th  Th4  1  0.178130  0.320159  0.500000  1
  Th  Th5  1  0.820159  0.678130  0.500000  1
  Si  Si6  1  0.116109  0.616109  0.000000  1
  Si  Si7  1  0.880137  0.380137  0.000000  1
  Si  Si8  1  0.618214  0.886089  0.000000  1
  Si  Si9  1  0.386089  0.118214  0.000000  1
