# generated using pymatgen
data_Ba13Dy8Mn4Zn4O37
_symmetry_space_group_name_H-M   'P 1'
_cell_length_a   13.55727819
_cell_length_b   13.55727886
_cell_length_c   13.55727864
_cell_angle_alpha   92.58573753
_cell_angle_beta   92.58573531
_cell_angle_gamma   155.47377284
_symmetry_Int_Tables_number   1
_chemical_formula_structural   Ba13Dy8Mn4Zn4O37
_chemical_formula_sum   'Ba13 Dy8 Mn4 Zn4 O37'
_cell_volume   1010.77892570
_cell_formula_units_Z   1
loop_
 _symmetry_equiv_pos_site_id
 _symmetry_equiv_pos_as_xyz
  1  'x, y, z'
loop_
 _atom_site_type_symbol
 _atom_site_label
 _atom_site_symmetry_multiplicity
 _atom_site_fract_x
 _atom_site_fract_y
 _atom_site_fract_z
 _atom_site_occupancy
  Ba  Ba0  1  0.203545  0.072433  0.275978  1
  Ba  Ba1  1  0.982946  0.607952  0.590898  1
  Ba  Ba2  1  0.638137  0.436315  0.074453  1
  Ba  Ba3  1  0.607952  0.017054  0.625005  1
  Ba  Ba4  1  0.017054  0.392048  0.409102  1
  Ba  Ba5  1  0.361863  0.563685  0.925547  1
  Ba  Ba6  1  0.436315  0.361863  0.798179  1
  Ba  Ba7  1  0.563685  0.638137  0.201821  1
  Ba  Ba8  1  0.927567  0.203545  0.131113  1
  Ba  Ba9  1  0.392048  0.982946  0.374995  1
  Ba  Ba10  1  0.000000  0.000000  0.000000  1
  Ba  Ba11  1  0.072433  0.796455  0.868887  1
  Ba  Ba12  1  0.796455  0.927567  0.724022  1
  Dy  Dy13  1  0.692064  0.237976  0.930039  1
  Dy  Dy14  1  0.818081  0.378824  0.196905  1
  Dy  Dy15  1  0.378824  0.181919  0.560744  1
  Dy  Dy16  1  0.307936  0.762024  0.069961  1
  Dy  Dy17  1  0.237976  0.307936  0.545911  1
  Dy  Dy18  1  0.621176  0.818081  0.439256  1
  Dy  Dy19  1  0.181919  0.621176  0.803095  1
  Dy  Dy20  1  0.762024  0.692064  0.454089  1
  Mn  Mn21  1  0.463006  0.800392  0.263396  1
  Mn  Mn22  1  0.800392  0.536994  0.337386  1
  Mn  Mn23  1  0.199608  0.463006  0.662614  1
  Mn  Mn24  1  0.536994  0.199608  0.736604  1
  Zn  Zn25  1  0.220846  0.900081  0.120927  1
  Zn  Zn26  1  0.099919  0.220846  0.320765  1
  Zn  Zn27  1  0.779154  0.099919  0.879073  1
  Zn  Zn28  1  0.900081  0.779154  0.679235  1
  O  O29  1  0.580539  0.297488  0.878025  1
  O  O30  1  0.534427  0.231573  0.238761  1
  O  O31  1  0.105772  0.514529  0.620301  1
  O  O32  1  0.485471  0.105772  0.591241  1
  O  O33  1  0.061711  0.841973  0.435770  1
  O  O34  1  0.017983  0.429052  0.941685  1
  O  O35  1  0.768427  0.007188  0.302854  1
  O  O36  1  0.982017  0.570948  0.058315  1
  O  O37  1  0.894228  0.485471  0.379699  1
  O  O38  1  0.938488  0.875309  0.813797  1
  O  O39  1  0.076296  0.017983  0.588930  1
  O  O40  1  0.465573  0.768427  0.761239  1
  O  O41  1  0.406203  0.625941  0.564230  1
  O  O42  1  0.593797  0.374059  0.435770  1
  O  O43  1  0.514529  0.894228  0.408759  1
  O  O44  1  0.875309  0.061512  0.936822  1
  O  O45  1  0.158027  0.593797  0.219739  1
  O  O46  1  0.704334  0.465573  0.697146  1
  O  O47  1  0.570948  0.512634  0.588930  1
  O  O48  1  0.841973  0.406203  0.780261  1
  O  O49  1  0.231573  0.992812  0.697146  1
  O  O50  1  0.061512  0.124691  0.186203  1
  O  O51  1  0.625941  0.061711  0.219739  1
  O  O52  1  0.419461  0.702512  0.121975  1
  O  O53  1  0.512634  0.923704  0.941685  1
  O  O54  1  0.702512  0.580539  0.283051  1
  O  O55  1  0.374059  0.938289  0.780261  1
  O  O56  1  0.992812  0.295666  0.761239  1
  O  O57  1  0.007188  0.704334  0.238761  1
  O  O58  1  0.429052  0.487366  0.411070  1
  O  O59  1  0.487366  0.076296  0.058315  1
  O  O60  1  0.500000  0.500000  0.000000  1
  O  O61  1  0.938289  0.158027  0.564230  1
  O  O62  1  0.295666  0.534427  0.302854  1
  O  O63  1  0.124691  0.938488  0.063178  1
  O  O64  1  0.923704  0.982017  0.411070  1
  O  O65  1  0.297488  0.419461  0.716949  1
