# generated using pymatgen
data_LaNd4Bi3C
_symmetry_space_group_name_H-M   'P 1'
_cell_length_a   9.49661040
_cell_length_b   9.50139610
_cell_length_c   6.74697700
_cell_angle_alpha   90.00000000
_cell_angle_beta   90.00000000
_cell_angle_gamma   120.01666266
_symmetry_Int_Tables_number   1
_chemical_formula_structural   LaNd4Bi3C
_chemical_formula_sum   'La2 Nd8 Bi6 C2'
_cell_volume   527.13634639
_cell_formula_units_Z   2
loop_
 _symmetry_equiv_pos_site_id
 _symmetry_equiv_pos_as_xyz
  1  'x, y, z'
loop_
 _atom_site_type_symbol
 _atom_site_label
 _atom_site_symmetry_multiplicity
 _atom_site_fract_x
 _atom_site_fract_y
 _atom_site_fract_z
 _atom_site_occupancy
  La  La0  1  0.785783  0.785929  0.750000  1
  La  La1  1  0.214217  0.000146  0.750000  1
  Nd  Nd2  1  0.666733  0.333230  0.000100  1
  Nd  Nd3  1  0.333267  0.666498  0.000100  1
  Nd  Nd4  1  0.333267  0.666498  0.499900  1
  Nd  Nd5  1  0.666733  0.333230  0.499900  1
  Nd  Nd6  1  0.000000  0.212007  0.750000  1
  Nd  Nd7  1  0.211848  0.212664  0.250000  1
  Nd  Nd8  1  0.788152  0.000816  0.250000  1
  Nd  Nd9  1  0.000000  0.789335  0.250000  1
  Bi  Bi10  1  0.401542  0.403051  0.750000  1
  Bi  Bi11  1  0.598458  0.001509  0.750000  1
  Bi  Bi12  1  0.000000  0.594565  0.750000  1
  Bi  Bi13  1  0.598006  0.597984  0.250000  1
  Bi  Bi14  1  0.401994  0.999978  0.250000  1
  Bi  Bi15  1  0.000000  0.401892  0.250000  1
  C  C16  1  0.000000  0.000334  0.001441  1
  C  C17  1  0.000000  0.000334  0.498559  1
