# generated using pymatgen
data_Pr4Nd7In9Pt4
_symmetry_space_group_name_H-M   'P 1'
_cell_length_a   13.54308704
_cell_length_b   13.54309708
_cell_length_c   3.83076600
_cell_angle_alpha   90.00000000
_cell_angle_beta   90.00000000
_cell_angle_gamma   111.34294646
_symmetry_Int_Tables_number   1
_chemical_formula_structural   Pr4Nd7In9Pt4
_chemical_formula_sum   'Pr4 Nd7 In9 Pt4'
_cell_volume   654.43457072
_cell_formula_units_Z   1
loop_
 _symmetry_equiv_pos_site_id
 _symmetry_equiv_pos_as_xyz
  1  'x, y, z'
loop_
 _atom_site_type_symbol
 _atom_site_label
 _atom_site_symmetry_multiplicity
 _atom_site_fract_x
 _atom_site_fract_y
 _atom_site_fract_z
 _atom_site_occupancy
  Pr  Pr0  1  0.128578  0.871422  0.500000  1
  Pr  Pr1  1  0.871422  0.128578  0.500000  1
  Pr  Pr2  1  0.341490  0.658510  0.500000  1
  Pr  Pr3  1  0.658510  0.341490  0.500000  1
  Nd  Nd4  1  0.500000  0.500000  0.500000  1
  Nd  Nd5  1  0.810561  0.810561  0.500000  1
  Nd  Nd6  1  0.189439  0.189439  0.500000  1
  Nd  Nd7  1  0.572735  0.917541  0.500000  1
  Nd  Nd8  1  0.427265  0.082459  0.500000  1
  Nd  Nd9  1  0.917541  0.572735  0.500000  1
  Nd  Nd10  1  0.082459  0.427265  0.500000  1
  In  In11  1  0.339275  0.866316  0.000000  1
  In  In12  1  0.660725  0.133684  0.000000  1
  In  In13  1  0.866316  0.339275  0.000000  1
  In  In14  1  0.133684  0.660725  0.000000  1
  In  In15  1  0.577316  0.718695  0.000000  1
  In  In16  1  0.422684  0.281305  0.000000  1
  In  In17  1  0.718696  0.577316  0.000000  1
  In  In18  1  0.281304  0.422684  0.000000  1
  In  In19  1  0.000000  0.000000  0.000000  1
  Pt  Pt20  1  0.746205  0.948878  0.000000  1
  Pt  Pt21  1  0.253795  0.051122  0.000000  1
  Pt  Pt22  1  0.948878  0.746205  0.000000  1
  Pt  Pt23  1  0.051122  0.253795  0.000000  1
