# generated using pymatgen
data_TaNb23(SiAs3)3
_symmetry_space_group_name_H-M   'P 1'
_cell_length_a   3.51118100
_cell_length_b   11.99780599
_cell_length_c   14.85857045
_cell_angle_alpha   89.99085461
_cell_angle_beta   90.00000000
_cell_angle_gamma   90.00000000
_symmetry_Int_Tables_number   1
_chemical_formula_structural   TaNb23(SiAs3)3
_chemical_formula_sum   'Ta1 Nb23 Si3 As9'
_cell_volume   625.93909107
_cell_formula_units_Z   1
loop_
 _symmetry_equiv_pos_site_id
 _symmetry_equiv_pos_as_xyz
  1  'x, y, z'
loop_
 _atom_site_type_symbol
 _atom_site_label
 _atom_site_symmetry_multiplicity
 _atom_site_fract_x
 _atom_site_fract_y
 _atom_site_fract_z
 _atom_site_occupancy
  Ta  Ta0  1  0.500000  0.029493  0.391398  1
  Nb  Nb1  1  0.000000  0.189255  0.297965  1
  Nb  Nb2  1  0.000000  0.526990  0.110067  1
  Nb  Nb3  1  0.500000  0.912534  0.078936  1
  Nb  Nb4  1  0.000000  0.885734  0.927031  1
  Nb  Nb5  1  0.000000  0.853383  0.479734  1
  Nb  Nb6  1  0.500000  0.688077  0.204511  1
  Nb  Nb7  1  0.500000  0.385430  0.573292  1
  Nb  Nb8  1  0.000000  0.588166  0.578228  1
  Nb  Nb9  1  0.500000  0.615732  0.428820  1
  Nb  Nb10  1  0.000000  0.084616  0.757508  1
  Nb  Nb11  1  0.500000  0.642770  0.976710  1
  Nb  Nb12  1  0.000000  0.145789  0.520259  1
  Nb  Nb13  1  0.000000  0.410153  0.423188  1
  Nb  Nb14  1  0.500000  0.412928  0.261111  1
  Nb  Nb15  1  0.500000  0.585601  0.739075  1
  Nb  Nb16  1  0.500000  0.970798  0.609091  1
  Nb  Nb17  1  0.500000  0.356560  0.022651  1
  Nb  Nb18  1  0.000000  0.113605  0.072637  1
  Nb  Nb19  1  0.500000  0.087141  0.921389  1
  Nb  Nb20  1  0.000000  0.472336  0.888270  1
  Nb  Nb21  1  0.000000  0.810827  0.702264  1
  Nb  Nb22  1  0.500000  0.314133  0.794067  1
  Nb  Nb23  1  0.000000  0.916348  0.243349  1
  Si  Si24  1  0.000000  0.427875  0.702489  1
  Si  Si25  1  0.500000  0.745039  0.584254  1
  Si  Si26  1  0.500000  0.254087  0.416469  1
  As  As27  1  0.000000  0.246501  0.914422  1
  As  As28  1  0.000000  0.310692  0.151669  1
  As  As29  1  0.000000  0.574097  0.298170  1
  As  As30  1  0.500000  0.189378  0.650687  1
  As  As31  1  0.000000  0.753317  0.083220  1
  As  As32  1  0.500000  0.811647  0.349595  1
  As  As33  1  0.000000  0.688568  0.847498  1
  As  As34  1  0.500000  0.075746  0.203999  1
  As  As35  1  0.500000  0.924653  0.795975  1
