# generated using pymatgen
data_Y3ErSc6(GaSi3)2
_symmetry_space_group_name_H-M   'P 1'
_cell_length_a   7.12620381
_cell_length_b   7.40497141
_cell_length_c   14.13513364
_cell_angle_alpha   89.95323781
_cell_angle_beta   89.83133415
_cell_angle_gamma   90.17813940
_symmetry_Int_Tables_number   1
_chemical_formula_structural   Y3ErSc6(GaSi3)2
_chemical_formula_sum   'Y6 Er2 Sc12 Ga4 Si12'
_cell_volume   745.89451827
_cell_formula_units_Z   2
loop_
 _symmetry_equiv_pos_site_id
 _symmetry_equiv_pos_as_xyz
  1  'x, y, z'
loop_
 _atom_site_type_symbol
 _atom_site_label
 _atom_site_symmetry_multiplicity
 _atom_site_fract_x
 _atom_site_fract_y
 _atom_site_fract_z
 _atom_site_occupancy
  Y  Y0  1  0.012779  0.174658  0.096700  1
  Y  Y1  1  0.988916  0.825280  0.902005  1
  Y  Y2  1  0.487764  0.676888  0.901817  1
  Y  Y3  1  0.988788  0.827681  0.600615  1
  Y  Y4  1  0.510063  0.321454  0.096758  1
  Y  Y5  1  0.008792  0.174767  0.400296  1
  Er  Er6  1  0.510290  0.324044  0.399996  1
  Er  Er7  1  0.491323  0.676067  0.601363  1
  Sc  Sc8  1  0.163732  0.500198  0.751569  1
  Sc  Sc9  1  0.835739  0.499188  0.249957  1
  Sc  Sc10  1  0.335646  0.001061  0.248268  1
  Sc  Sc11  1  0.664047  0.999143  0.750091  1
  Sc  Sc12  1  0.335347  0.174977  0.628502  1
  Sc  Sc13  1  0.667647  0.826309  0.373193  1
  Sc  Sc14  1  0.169488  0.672858  0.372385  1
  Sc  Sc15  1  0.667889  0.826378  0.125685  1
  Sc  Sc16  1  0.829502  0.325120  0.627263  1
  Sc  Sc17  1  0.331311  0.175742  0.874420  1
  Sc  Sc18  1  0.829628  0.323576  0.874200  1
  Sc  Sc19  1  0.172766  0.674914  0.124485  1
  Ga  Ga20  1  0.163414  0.460767  0.539774  1
  Ga  Ga21  1  0.837825  0.538894  0.461670  1
  Ga  Ga22  1  0.339038  0.960422  0.462145  1
  Ga  Ga23  1  0.839420  0.539081  0.038543  1
  Si  Si24  1  0.033920  0.117020  0.751632  1
  Si  Si25  1  0.966229  0.883259  0.248673  1
  Si  Si26  1  0.466719  0.613929  0.248334  1
  Si  Si27  1  0.534000  0.385952  0.751377  1
  Si  Si28  1  0.287500  0.871735  0.751054  1
  Si  Si29  1  0.713329  0.128316  0.248569  1
  Si  Si30  1  0.213562  0.371757  0.248552  1
  Si  Si31  1  0.787150  0.628759  0.751601  1
  Si  Si32  1  0.657746  0.037020  0.539143  1
  Si  Si33  1  0.157843  0.463052  0.960671  1
  Si  Si34  1  0.656682  0.036458  0.961111  1
  Si  Si35  1  0.344166  0.963275  0.037586  1
