# generated using pymatgen
data_TbY5Al24CuRu7
_symmetry_space_group_name_H-M   'P 1'
_cell_length_a   8.81408726
_cell_length_b   8.81133903
_cell_length_c   9.53185701
_cell_angle_alpha   89.75973866
_cell_angle_beta   90.23634906
_cell_angle_gamma   119.73524975
_symmetry_Int_Tables_number   1
_chemical_formula_structural   TbY5Al24CuRu7
_chemical_formula_sum   'Tb1 Y5 Al24 Cu1 Ru7'
_cell_volume   642.79845461
_cell_formula_units_Z   1
loop_
 _symmetry_equiv_pos_site_id
 _symmetry_equiv_pos_as_xyz
  1  'x, y, z'
loop_
 _atom_site_type_symbol
 _atom_site_label
 _atom_site_symmetry_multiplicity
 _atom_site_fract_x
 _atom_site_fract_y
 _atom_site_fract_z
 _atom_site_occupancy
  Tb  Tb0  1  0.191946  0.386008  0.748733  1
  Y  Y1  1  0.386083  0.192007  0.251286  1
  Y  Y2  1  0.805712  0.194323  0.248800  1
  Y  Y3  1  0.807944  0.613979  0.251287  1
  Y  Y4  1  0.613801  0.807871  0.748678  1
  Y  Y5  1  0.194313  0.805579  0.751127  1
  Al  Al6  1  0.439285  0.878181  0.251660  1
  Al  Al7  1  0.121763  0.560716  0.251620  1
  Al  Al8  1  0.438833  0.561227  0.250013  1
  Al  Al9  1  0.560694  0.121789  0.748341  1
  Al  Al10  1  0.877965  0.439285  0.748299  1
  Al  Al11  1  0.561396  0.438766  0.750024  1
  Al  Al12  1  0.163213  0.836867  0.423309  1
  Al  Al13  1  0.156526  0.323734  0.420914  1
  Al  Al14  1  0.676327  0.843543  0.420926  1
  Al  Al15  1  0.836778  0.163114  0.576683  1
  Al  Al16  1  0.843538  0.676292  0.579023  1
  Al  Al17  1  0.323683  0.156466  0.579058  1
  Al  Al18  1  0.837300  0.162595  0.922329  1
  Al  Al19  1  0.836942  0.675524  0.922270  1
  Al  Al20  1  0.324442  0.162970  0.922248  1
  Al  Al21  1  0.162698  0.837377  0.077676  1
  Al  Al22  1  0.163091  0.324456  0.077796  1
  Al  Al23  1  0.675550  0.836988  0.077777  1
  Al  Al24  1  0.331885  0.668146  0.519535  1
  Al  Al25  1  0.668132  0.331892  0.480455  1
  Al  Al26  1  0.666624  0.333391  0.014801  1
  Al  Al27  1  0.333469  0.666679  0.985227  1
  Al  Al28  1  0.000730  0.999370  0.249898  1
  Al  Al29  1  0.999331  0.000836  0.750147  1
  Cu  Cu30  1  0.499893  0.499991  0.500031  1
  Ru  Ru31  1  0.000007  0.000008  0.499941  1
  Ru  Ru32  1  0.999962  0.999911  0.000143  1
  Ru  Ru33  1  0.500028  0.000009  0.499970  1
  Ru  Ru34  1  0.999938  0.500027  0.499905  1
  Ru  Ru35  1  0.500039  0.000055  0.000048  1
  Ru  Ru36  1  0.000038  0.500004  0.999935  1
  Ru  Ru37  1  0.500102  0.500021  0.000086  1
