# generated using pymatgen
data_LiZn21(CoPt)2
_symmetry_space_group_name_H-M   'P 1'
_cell_length_a   7.86081656
_cell_length_b   7.86081764
_cell_length_c   7.83831625
_cell_angle_alpha   109.62042814
_cell_angle_beta   109.62043245
_cell_angle_gamma   109.28986967
_symmetry_Int_Tables_number   1
_chemical_formula_structural   LiZn21(CoPt)2
_chemical_formula_sum   'Li1 Zn21 Co2 Pt2'
_cell_volume   372.30906861
_cell_formula_units_Z   1
loop_
 _symmetry_equiv_pos_site_id
 _symmetry_equiv_pos_as_xyz
  1  'x, y, z'
loop_
 _atom_site_type_symbol
 _atom_site_label
 _atom_site_symmetry_multiplicity
 _atom_site_fract_x
 _atom_site_fract_y
 _atom_site_fract_z
 _atom_site_occupancy
  Li  Li0  1  0.350408  0.350408  0.000000  1
  Zn  Zn1  1  0.995000  0.640484  0.641701  1
  Zn  Zn2  1  0.353299  0.998782  0.358299  1
  Zn  Zn3  1  0.998782  0.353299  0.358299  1
  Zn  Zn4  1  0.640484  0.995000  0.641701  1
  Zn  Zn5  1  0.643395  0.643395  0.000000  1
  Zn  Zn6  1  0.205678  0.205678  0.209821  1
  Zn  Zn7  1  0.995857  0.995857  0.790179  1
  Zn  Zn8  1  0.994586  0.786073  0.000000  1
  Zn  Zn9  1  0.786073  0.994586  0.000000  1
  Zn  Zn10  1  0.385528  0.728330  0.727509  1
  Zn  Zn11  1  0.658019  0.000821  0.272491  1
  Zn  Zn12  1  0.646302  0.273265  0.000000  1
  Zn  Zn13  1  0.000821  0.658019  0.272491  1
  Zn  Zn14  1  0.728330  0.385528  0.727509  1
  Zn  Zn15  1  0.273265  0.646302  0.000000  1
  Zn  Zn16  1  0.010124  0.257794  0.648385  1
  Zn  Zn17  1  0.257794  0.010124  0.648385  1
  Zn  Zn18  1  0.740477  0.740477  0.386289  1
  Zn  Zn19  1  0.609409  0.361739  0.351615  1
  Zn  Zn20  1  0.361739  0.609409  0.351615  1
  Zn  Zn21  1  0.354188  0.354188  0.613711  1
  Co  Co22  1  0.004263  0.004263  0.346457  1
  Co  Co23  1  0.657806  0.657806  0.653543  1
  Pt  Pt24  1  0.349816  0.998556  0.000000  1
  Pt  Pt25  1  0.998556  0.349816  0.000000  1
