# generated using pymatgen
data_Nd(GaI4)3
_symmetry_space_group_name_H-M   'P 1'
_cell_length_a   11.97621300
_cell_length_b   11.97621401
_cell_length_c   20.79672400
_cell_angle_alpha   90.00000000
_cell_angle_beta   90.00000000
_cell_angle_gamma   120.00000550
_symmetry_Int_Tables_number   1
_chemical_formula_structural   Nd(GaI4)3
_chemical_formula_sum   'Nd3 Ga9 I36'
_cell_volume   2583.23903943
_cell_formula_units_Z   3
loop_
 _symmetry_equiv_pos_site_id
 _symmetry_equiv_pos_as_xyz
  1  'x, y, z'
loop_
 _atom_site_type_symbol
 _atom_site_label
 _atom_site_symmetry_multiplicity
 _atom_site_fract_x
 _atom_site_fract_y
 _atom_site_fract_z
 _atom_site_occupancy
  Nd  Nd0  1  0.000000  0.733791  0.666667  1
  Nd  Nd1  1  0.733791  0.000000  0.333333  1
  Nd  Nd2  1  0.266209  0.266209  0.000000  1
  Ga  Ga3  1  0.902825  0.902825  0.500000  1
  Ga  Ga4  1  0.341616  0.703856  0.387320  1
  Ga  Ga5  1  0.296144  0.637760  0.720654  1
  Ga  Ga6  1  0.362240  0.658384  0.053987  1
  Ga  Ga7  1  0.097175  0.000000  0.833333  1
  Ga  Ga8  1  0.000000  0.097175  0.166667  1
  Ga  Ga9  1  0.703856  0.341616  0.612680  1
  Ga  Ga10  1  0.658384  0.362240  0.946013  1
  Ga  Ga11  1  0.637760  0.296144  0.279346  1
  I  I12  1  0.291411  0.511397  0.456948  1
  I  I13  1  0.219987  0.708589  0.123615  1
  I  I14  1  0.488603  0.780013  0.790282  1
  I  I15  1  0.719649  0.491729  0.711145  1
  I  I16  1  0.508271  0.227919  0.044479  1
  I  I17  1  0.772081  0.280351  0.377812  1
  I  I18  1  0.227919  0.508271  0.955521  1
  I  I19  1  0.280351  0.772081  0.622188  1
  I  I20  1  0.491729  0.719649  0.288855  1
  I  I21  1  0.924046  0.519113  0.557289  1
  I  I22  1  0.480887  0.404933  0.890623  1
  I  I23  1  0.595067  0.075954  0.223956  1
  I  I24  1  0.404933  0.480887  0.109377  1
  I  I25  1  0.075954  0.595067  0.776044  1
  I  I26  1  0.519113  0.924046  0.442711  1
  I  I27  1  0.121862  0.924230  0.533159  1
  I  I28  1  0.075770  0.197633  0.866492  1
  I  I29  1  0.802367  0.878138  0.199825  1
  I  I30  1  0.197633  0.075770  0.133508  1
  I  I31  1  0.878138  0.802367  0.800175  1
  I  I32  1  0.924230  0.121862  0.466841  1
  I  I33  1  0.226169  0.022742  0.728833  1
  I  I34  1  0.977258  0.203428  0.062167  1
  I  I35  1  0.796572  0.773831  0.395500  1
  I  I36  1  0.203428  0.977258  0.937833  1
  I  I37  1  0.773831  0.796572  0.604500  1
  I  I38  1  0.022742  0.226169  0.271167  1
  I  I39  1  0.151704  0.723278  0.349083  1
  I  I40  1  0.276722  0.428426  0.682416  1
  I  I41  1  0.571574  0.848296  0.015750  1
  I  I42  1  0.428426  0.276722  0.317584  1
  I  I43  1  0.848296  0.571574  0.984250  1
  I  I44  1  0.723278  0.151704  0.650917  1
  I  I45  1  0.511397  0.291411  0.543051  1
  I  I46  1  0.708589  0.219987  0.876385  1
  I  I47  1  0.780013  0.488603  0.209718  1
