# generated using pymatgen
data_Tb8Ge(PdPt7)3
_symmetry_space_group_name_H-M   'P 1'
_cell_length_a   8.37440200
_cell_length_b   8.37460700
_cell_length_c   8.39628800
_cell_angle_alpha   90.00000000
_cell_angle_beta   90.00000000
_cell_angle_gamma   90.00000000
_symmetry_Int_Tables_number   1
_chemical_formula_structural   Tb8Ge(PdPt7)3
_chemical_formula_sum   'Tb8 Ge1 Pd3 Pt21'
_cell_volume   588.85120393
_cell_formula_units_Z   1
loop_
 _symmetry_equiv_pos_site_id
 _symmetry_equiv_pos_as_xyz
  1  'x, y, z'
loop_
 _atom_site_type_symbol
 _atom_site_label
 _atom_site_symmetry_multiplicity
 _atom_site_fract_x
 _atom_site_fract_y
 _atom_site_fract_z
 _atom_site_occupancy
  Tb  Tb0  1  0.253084  0.253070  0.253449  1
  Tb  Tb1  1  0.746825  0.746945  0.746558  1
  Tb  Tb2  1  0.746916  0.746930  0.253449  1
  Tb  Tb3  1  0.746825  0.253055  0.746558  1
  Tb  Tb4  1  0.253175  0.253055  0.746558  1
  Tb  Tb5  1  0.253084  0.746930  0.253449  1
  Tb  Tb6  1  0.253175  0.746945  0.746558  1
  Tb  Tb7  1  0.746916  0.253070  0.253449  1
  Ge  Ge8  1  0.000000  0.000000  0.000113  1
  Pd  Pd9  1  0.000000  0.500000  0.740152  1
  Pd  Pd10  1  0.000000  0.000000  0.289897  1
  Pd  Pd11  1  0.000000  0.000000  0.710028  1
  Pt  Pt12  1  0.259561  0.500000  0.000010  1
  Pt  Pt13  1  0.740439  0.500000  0.000010  1
  Pt  Pt14  1  0.000000  0.259590  0.499983  1
  Pt  Pt15  1  0.500000  0.259790  0.999984  1
  Pt  Pt16  1  0.000000  0.740410  0.499983  1
  Pt  Pt17  1  0.500000  0.740210  0.999984  1
  Pt  Pt18  1  0.500000  0.000000  0.259873  1
  Pt  Pt19  1  0.259382  0.000000  0.500041  1
  Pt  Pt20  1  0.500000  0.000000  0.740237  1
  Pt  Pt21  1  0.740618  0.000000  0.500041  1
  Pt  Pt22  1  0.000000  0.500000  0.259969  1
  Pt  Pt23  1  0.252925  0.500000  0.499955  1
  Pt  Pt24  1  0.747075  0.500000  0.499955  1
  Pt  Pt25  1  0.500000  0.253088  0.500040  1
  Pt  Pt26  1  0.500000  0.746912  0.500040  1
  Pt  Pt27  1  0.500000  0.500000  0.253194  1
  Pt  Pt28  1  0.500000  0.500000  0.746721  1
  Pt  Pt29  1  0.289349  0.000000  0.999956  1
  Pt  Pt30  1  0.710651  0.000000  0.999956  1
  Pt  Pt31  1  0.000000  0.289563  0.999926  1
  Pt  Pt32  1  0.000000  0.710437  0.999926  1
