# generated using pymatgen
data_Sr5(Ga2Pd)2
_symmetry_space_group_name_H-M   'P 1'
_cell_length_a   16.16137244
_cell_length_b   16.16137205
_cell_length_c   4.93795200
_cell_angle_alpha   90.00000000
_cell_angle_beta   90.00000000
_cell_angle_gamma   165.64579857
_symmetry_Int_Tables_number   1
_chemical_formula_structural   Sr5(Ga2Pd)2
_chemical_formula_sum   'Sr5 Ga4 Pd2'
_cell_volume   319.74750125
_cell_formula_units_Z   1
loop_
 _symmetry_equiv_pos_site_id
 _symmetry_equiv_pos_as_xyz
  1  'x, y, z'
loop_
 _atom_site_type_symbol
 _atom_site_label
 _atom_site_symmetry_multiplicity
 _atom_site_fract_x
 _atom_site_fract_y
 _atom_site_fract_z
 _atom_site_occupancy
  Sr  Sr0  1  0.998067  0.001933  0.000000  1
  Sr  Sr1  1  0.612902  0.387096  0.000000  1
  Sr  Sr2  1  0.386301  0.613697  0.000000  1
  Sr  Sr3  1  0.804210  0.195788  0.500001  1
  Sr  Sr4  1  0.192555  0.807443  0.500001  1
  Ga  Ga5  1  0.718306  0.281692  0.000000  1
  Ga  Ga6  1  0.279408  0.720590  0.000000  1
  Ga  Ga7  1  0.917183  0.082816  0.500001  1
  Ga  Ga8  1  0.542283  0.457715  0.500001  1
  Pd  Pd9  1  0.462074  0.537924  0.500001  1
  Pd  Pd10  1  0.086703  0.913296  0.500001  1
