# generated using pymatgen
data_Pr6Ti2MnCrC12
_symmetry_space_group_name_H-M   'P 1'
_cell_length_a   8.50351500
_cell_length_b   8.50351374
_cell_length_c   5.21650100
_cell_angle_alpha   90.00000000
_cell_angle_beta   90.00000000
_cell_angle_gamma   119.99998545
_symmetry_Int_Tables_number   1
_chemical_formula_structural   Pr6Ti2MnCrC12
_chemical_formula_sum   'Pr6 Ti2 Mn1 Cr1 C12'
_cell_volume   326.66822314
_cell_formula_units_Z   1
loop_
 _symmetry_equiv_pos_site_id
 _symmetry_equiv_pos_as_xyz
  1  'x, y, z'
loop_
 _atom_site_type_symbol
 _atom_site_label
 _atom_site_symmetry_multiplicity
 _atom_site_fract_x
 _atom_site_fract_y
 _atom_site_fract_z
 _atom_site_occupancy
  Pr  Pr0  1  0.613403  0.681657  0.750000  1
  Pr  Pr1  1  0.928868  0.610510  0.250000  1
  Pr  Pr2  1  0.681643  0.071132  0.250000  1
  Pr  Pr3  1  0.318343  0.931748  0.750000  1
  Pr  Pr4  1  0.068252  0.386597  0.750000  1
  Pr  Pr5  1  0.389490  0.318357  0.250000  1
  Ti  Ti6  1  0.000000  0.000000  0.503030  1
  Ti  Ti7  1  0.000000  0.000000  0.996970  1
  Mn  Mn8  1  0.333333  0.666667  0.250000  1
  Cr  Cr9  1  0.666667  0.333333  0.750000  1
  C  C10  1  0.952914  0.761799  0.750000  1
  C  C11  1  0.195806  0.952299  0.250000  1
  C  C12  1  0.756493  0.804194  0.250000  1
  C  C13  1  0.238201  0.191115  0.750000  1
  C  C14  1  0.808885  0.047086  0.750000  1
  C  C15  1  0.047701  0.243507  0.250000  1
  C  C16  1  0.854556  0.574154  0.750000  1
  C  C17  1  0.280345  0.850900  0.250000  1
  C  C18  1  0.570555  0.719655  0.250000  1
  C  C19  1  0.425846  0.280401  0.750000  1
  C  C20  1  0.149100  0.429445  0.250000  1
  C  C21  1  0.719599  0.145444  0.750000  1
