# generated using pymatgen
data_AlZn5W
_symmetry_space_group_name_H-M   'P 1'
_cell_length_a   5.33899057
_cell_length_b   5.46536915
_cell_length_c   5.46536987
_cell_angle_alpha   60.04061567
_cell_angle_beta   60.76201608
_cell_angle_gamma   60.76201838
_symmetry_Int_Tables_number   1
_chemical_formula_structural   AlZn5W
_chemical_formula_sum   'Al1 Zn5 W1'
_cell_volume   114.08449238
_cell_formula_units_Z   1
loop_
 _symmetry_equiv_pos_site_id
 _symmetry_equiv_pos_as_xyz
  1  'x, y, z'
loop_
 _atom_site_type_symbol
 _atom_site_label
 _atom_site_symmetry_multiplicity
 _atom_site_fract_x
 _atom_site_fract_y
 _atom_site_fract_z
 _atom_site_occupancy
  Al  Al0  1  0.500000  0.000000  0.000000  1
  Zn  Zn1  1  0.500000  0.500000  0.000000  1
  Zn  Zn2  1  0.500000  0.000000  0.500000  1
  Zn  Zn3  1  0.000000  0.000000  0.500000  1
  Zn  Zn4  1  0.000000  0.500000  0.000000  1
  Zn  Zn5  1  0.000000  0.500000  0.500000  1
  W  W6  1  0.000000  0.000000  0.000000  1
