# generated using pymatgen
data_Pa5Re(WC4)2
_symmetry_space_group_name_H-M   'P 1'
_cell_length_a   11.53862000
_cell_length_b   11.53862000
_cell_length_c   3.38682700
_cell_angle_alpha   90.00000000
_cell_angle_beta   90.00000000
_cell_angle_gamma   90.00000000
_symmetry_Int_Tables_number   1
_chemical_formula_structural   Pa5Re(WC4)2
_chemical_formula_sum   'Pa10 Re2 W4 C16'
_cell_volume   450.92130517
_cell_formula_units_Z   2
loop_
 _symmetry_equiv_pos_site_id
 _symmetry_equiv_pos_as_xyz
  1  'x, y, z'
loop_
 _atom_site_type_symbol
 _atom_site_label
 _atom_site_symmetry_multiplicity
 _atom_site_fract_x
 _atom_site_fract_y
 _atom_site_fract_z
 _atom_site_occupancy
  Pa  Pa0  1  0.000000  0.500000  0.000000  1
  Pa  Pa1  1  0.273447  0.544282  0.500000  1
  Pa  Pa2  1  0.726553  0.455718  0.500000  1
  Pa  Pa3  1  0.544282  0.726553  0.500000  1
  Pa  Pa4  1  0.773447  0.955718  0.500000  1
  Pa  Pa5  1  0.226553  0.044282  0.500000  1
  Pa  Pa6  1  0.955718  0.226553  0.500000  1
  Pa  Pa7  1  0.455718  0.273447  0.500000  1
  Pa  Pa8  1  0.500000  0.000000  0.000000  1
  Pa  Pa9  1  0.044282  0.773447  0.500000  1
  Re  Re10  1  0.500000  0.500000  0.000000  1
  Re  Re11  1  0.000000  0.000000  0.000000  1
  W  W12  1  0.203609  0.296391  0.000000  1
  W  W13  1  0.703609  0.203609  0.000000  1
  W  W14  1  0.296391  0.796391  0.000000  1
  W  W15  1  0.796391  0.703609  0.000000  1
  C  C16  1  0.348104  0.402316  0.000000  1
  C  C17  1  0.616364  0.116364  0.500000  1
  C  C18  1  0.902316  0.848104  0.000000  1
  C  C19  1  0.650620  0.849380  0.000000  1
  C  C20  1  0.349380  0.150620  0.000000  1
  C  C21  1  0.116364  0.383636  0.500000  1
  C  C22  1  0.151896  0.902316  0.000000  1
  C  C23  1  0.849380  0.349380  0.000000  1
  C  C24  1  0.651896  0.597684  0.000000  1
  C  C25  1  0.597684  0.348104  0.000000  1
  C  C26  1  0.883636  0.616364  0.500000  1
  C  C27  1  0.848104  0.097684  0.000000  1
  C  C28  1  0.383636  0.883636  0.500000  1
  C  C29  1  0.150620  0.650620  0.000000  1
  C  C30  1  0.097684  0.151896  0.000000  1
  C  C31  1  0.402316  0.651896  0.000000  1
