# generated using pymatgen
data_Lu6Zn23N
_symmetry_space_group_name_H-M   'P 1'
_cell_length_a   8.83118650
_cell_length_b   8.83118591
_cell_length_c   8.83118700
_cell_angle_alpha   59.99999967
_cell_angle_beta   60.00000188
_cell_angle_gamma   59.99999905
_symmetry_Int_Tables_number   1
_chemical_formula_structural   Lu6Zn23N
_chemical_formula_sum   'Lu6 Zn23 N1'
_cell_volume   487.01481116
_cell_formula_units_Z   1
loop_
 _symmetry_equiv_pos_site_id
 _symmetry_equiv_pos_as_xyz
  1  'x, y, z'
loop_
 _atom_site_type_symbol
 _atom_site_label
 _atom_site_symmetry_multiplicity
 _atom_site_fract_x
 _atom_site_fract_y
 _atom_site_fract_z
 _atom_site_occupancy
  Lu  Lu0  1  0.692912  0.307088  0.307088  1
  Lu  Lu1  1  0.692912  0.307088  0.692912  1
  Lu  Lu2  1  0.692912  0.692912  0.307088  1
  Lu  Lu3  1  0.307088  0.692912  0.692912  1
  Lu  Lu4  1  0.307088  0.692912  0.307088  1
  Lu  Lu5  1  0.307088  0.307088  0.692912  1
  Zn  Zn6  1  0.635631  0.121457  0.121457  1
  Zn  Zn7  1  0.121457  0.635631  0.121457  1
  Zn  Zn8  1  0.121457  0.121457  0.635631  1
  Zn  Zn9  1  0.121457  0.121457  0.121457  1
  Zn  Zn10  1  0.364369  0.878543  0.878543  1
  Zn  Zn11  1  0.878543  0.364369  0.878543  1
  Zn  Zn12  1  0.878543  0.878543  0.364369  1
  Zn  Zn13  1  0.878543  0.878543  0.878543  1
  Zn  Zn14  1  0.500000  0.000000  0.000000  1
  Zn  Zn15  1  0.500000  0.000000  0.500000  1
  Zn  Zn16  1  0.500000  0.500000  0.000000  1
  Zn  Zn17  1  0.000000  0.500000  0.500000  1
  Zn  Zn18  1  0.000000  0.500000  0.000000  1
  Zn  Zn19  1  0.000000  0.000000  0.500000  1
  Zn  Zn20  1  0.000000  0.000000  0.000000  1
  Zn  Zn21  1  0.012902  0.329033  0.329033  1
  Zn  Zn22  1  0.329033  0.012902  0.329033  1
  Zn  Zn23  1  0.329033  0.329033  0.012902  1
  Zn  Zn24  1  0.329033  0.329033  0.329033  1
  Zn  Zn25  1  0.987098  0.670967  0.670967  1
  Zn  Zn26  1  0.670967  0.987098  0.670967  1
  Zn  Zn27  1  0.670967  0.670967  0.987098  1
  Zn  Zn28  1  0.670967  0.670967  0.670967  1
  N  N29  1  0.500000  0.500000  0.500000  1
