# generated using pymatgen
data_NpAsPCl13
_symmetry_space_group_name_H-M   'P 1'
_cell_length_a   9.96088212
_cell_length_b   9.96088236
_cell_length_c   12.35895100
_cell_angle_alpha   90.00000000
_cell_angle_beta   90.00000000
_cell_angle_gamma   115.18120099
_symmetry_Int_Tables_number   1
_chemical_formula_structural   NpAsPCl13
_chemical_formula_sum   'Np2 As2 P2 Cl26'
_cell_volume   1109.71082576
_cell_formula_units_Z   2
loop_
 _symmetry_equiv_pos_site_id
 _symmetry_equiv_pos_as_xyz
  1  'x, y, z'
loop_
 _atom_site_type_symbol
 _atom_site_label
 _atom_site_symmetry_multiplicity
 _atom_site_fract_x
 _atom_site_fract_y
 _atom_site_fract_z
 _atom_site_occupancy
  Np  Np0  1  0.793543  0.206457  0.997635  1
  Np  Np1  1  0.206457  0.793543  0.497635  1
  As  As2  1  0.449984  0.550016  0.345798  1
  As  As3  1  0.550016  0.449984  0.845798  1
  P  P4  1  0.140845  0.859155  0.035715  1
  P  P5  1  0.859155  0.140845  0.535715  1
  Cl  Cl6  1  0.311399  0.019002  0.618258  1
  Cl  Cl7  1  0.862931  0.137069  0.377593  1
  Cl  Cl8  1  0.622921  0.691223  0.868768  1
  Cl  Cl9  1  0.137069  0.862931  0.877593  1
  Cl  Cl10  1  0.937931  0.763227  0.091458  1
  Cl  Cl11  1  0.691223  0.622921  0.368768  1
  Cl  Cl12  1  0.748220  0.251780  0.583065  1
  Cl  Cl13  1  0.236773  0.062069  0.091458  1
  Cl  Cl14  1  0.688601  0.980998  0.118258  1
  Cl  Cl15  1  0.251780  0.748220  0.083065  1
  Cl  Cl16  1  0.062069  0.236773  0.591458  1
  Cl  Cl17  1  0.100987  0.565478  0.377271  1
  Cl  Cl18  1  0.980998  0.688601  0.618258  1
  Cl  Cl19  1  0.019002  0.311399  0.118258  1
  Cl  Cl20  1  0.083910  0.916090  0.379389  1
  Cl  Cl21  1  0.899013  0.434522  0.877271  1
  Cl  Cl22  1  0.565478  0.100987  0.877271  1
  Cl  Cl23  1  0.434522  0.899013  0.377271  1
  Cl  Cl24  1  0.308777  0.377079  0.868768  1
  Cl  Cl25  1  0.377079  0.308777  0.368768  1
  Cl  Cl26  1  0.916090  0.083910  0.879389  1
  Cl  Cl27  1  0.554056  0.445944  0.666086  1
  Cl  Cl28  1  0.329839  0.670161  0.612509  1
  Cl  Cl29  1  0.670161  0.329839  0.112509  1
  Cl  Cl30  1  0.763227  0.937931  0.591458  1
  Cl  Cl31  1  0.445944  0.554056  0.166086  1
