# generated using pymatgen
data_Na2Sn3Pb
_symmetry_space_group_name_H-M   'P 1'
_cell_length_a   10.49248200
_cell_length_b   10.49248203
_cell_length_c   7.48270600
_cell_angle_alpha   90.00000000
_cell_angle_beta   90.00000000
_cell_angle_gamma   119.99999989
_symmetry_Int_Tables_number   1
_chemical_formula_structural   Na2Sn3Pb
_chemical_formula_sum   'Na8 Sn12 Pb4'
_cell_volume   713.42082293
_cell_formula_units_Z   4
loop_
 _symmetry_equiv_pos_site_id
 _symmetry_equiv_pos_as_xyz
  1  'x, y, z'
loop_
 _atom_site_type_symbol
 _atom_site_label
 _atom_site_symmetry_multiplicity
 _atom_site_fract_x
 _atom_site_fract_y
 _atom_site_fract_z
 _atom_site_occupancy
  Na  Na0  1  0.505576  0.011151  0.250000  1
  Na  Na1  1  0.011151  0.505576  0.750000  1
  Na  Na2  1  0.494424  0.505576  0.750000  1
  Na  Na3  1  0.505576  0.494424  0.250000  1
  Na  Na4  1  0.494424  0.988849  0.750000  1
  Na  Na5  1  0.988849  0.494424  0.250000  1
  Na  Na6  1  0.000000  0.000000  0.750000  1
  Na  Na7  1  0.000000  0.000000  0.250000  1
  Sn  Sn8  1  0.161765  0.838235  0.047157  1
  Sn  Sn9  1  0.838235  0.676470  0.547157  1
  Sn  Sn10  1  0.323530  0.161765  0.547157  1
  Sn  Sn11  1  0.838235  0.161765  0.952843  1
  Sn  Sn12  1  0.838235  0.676470  0.952843  1
  Sn  Sn13  1  0.838235  0.161765  0.547157  1
  Sn  Sn14  1  0.323530  0.161765  0.952843  1
  Sn  Sn15  1  0.676470  0.838235  0.047157  1
  Sn  Sn16  1  0.676470  0.838235  0.452843  1
  Sn  Sn17  1  0.161765  0.323530  0.452843  1
  Sn  Sn18  1  0.161765  0.838235  0.452843  1
  Sn  Sn19  1  0.161765  0.323530  0.047157  1
  Pb  Pb20  1  0.333333  0.666667  0.526800  1
  Pb  Pb21  1  0.666667  0.333333  0.473200  1
  Pb  Pb22  1  0.666667  0.333333  0.026800  1
  Pb  Pb23  1  0.333333  0.666667  0.973200  1
