# generated using pymatgen
data_TbTm2Co9(SiB2)2
_symmetry_space_group_name_H-M   'P 1'
_cell_length_a   5.10822001
_cell_length_b   5.10920494
_cell_length_c   9.34163300
_cell_angle_alpha   90.00001676
_cell_angle_beta   90.00005503
_cell_angle_gamma   119.98463766
_symmetry_Int_Tables_number   1
_chemical_formula_structural   TbTm2Co9(SiB2)2
_chemical_formula_sum   'Tb1 Tm2 Co9 Si2 B4'
_cell_volume   211.17551375
_cell_formula_units_Z   1
loop_
 _symmetry_equiv_pos_site_id
 _symmetry_equiv_pos_as_xyz
  1  'x, y, z'
loop_
 _atom_site_type_symbol
 _atom_site_label
 _atom_site_symmetry_multiplicity
 _atom_site_fract_x
 _atom_site_fract_y
 _atom_site_fract_z
 _atom_site_occupancy
  Tb  Tb0  1  0.999990  0.999999  0.999987  1
  Tm  Tm1  1  0.999997  0.000002  0.338832  1
  Tm  Tm2  1  0.999997  0.999999  0.661156  1
  Co  Co3  1  0.499996  0.999999  0.500001  1
  Co  Co4  1  0.499994  0.499999  0.500003  1
  Co  Co5  1  0.999997  0.500000  0.499993  1
  Co  Co6  1  0.499993  0.000002  0.196856  1
  Co  Co7  1  0.499992  0.500001  0.196843  1
  Co  Co8  1  0.999992  0.500000  0.196858  1
  Co  Co9  1  0.499997  0.000000  0.803145  1
  Co  Co10  1  0.499996  0.500001  0.803162  1
  Co  Co11  1  0.999995  0.499999  0.803155  1
  Si  Si12  1  0.333332  0.666635  0.000001  1
  Si  Si13  1  0.666652  0.333365  0.000001  1
  B  B14  1  0.333335  0.666670  0.345819  1
  B  B15  1  0.666652  0.333327  0.345818  1
  B  B16  1  0.666670  0.333363  0.654187  1
  B  B17  1  0.333324  0.666639  0.654187  1
