# generated using pymatgen
data_Ho3Er9TcRu3
_symmetry_space_group_name_H-M   'P 1'
_cell_length_a   6.25479097
_cell_length_b   7.30251006
_cell_length_c   9.05234000
_cell_angle_alpha   90.00000000
_cell_angle_beta   90.00000000
_cell_angle_gamma   90.03908582
_symmetry_Int_Tables_number   1
_chemical_formula_structural   Ho3Er9TcRu3
_chemical_formula_sum   'Ho3 Er9 Tc1 Ru3'
_cell_volume   413.47163444
_cell_formula_units_Z   1
loop_
 _symmetry_equiv_pos_site_id
 _symmetry_equiv_pos_as_xyz
  1  'x, y, z'
loop_
 _atom_site_type_symbol
 _atom_site_label
 _atom_site_symmetry_multiplicity
 _atom_site_fract_x
 _atom_site_fract_y
 _atom_site_fract_z
 _atom_site_occupancy
  Ho  Ho0  1  0.868283  0.540196  0.250000  1
  Ho  Ho1  1  0.627580  0.041833  0.250000  1
  Ho  Ho2  1  0.366210  0.957886  0.750000  1
  Er  Er3  1  0.333062  0.675965  0.064238  1
  Er  Er4  1  0.167324  0.176058  0.436086  1
  Er  Er5  1  0.668000  0.323859  0.564150  1
  Er  Er6  1  0.834712  0.824768  0.937125  1
  Er  Er7  1  0.668000  0.323859  0.935850  1
  Er  Er8  1  0.834712  0.824768  0.562875  1
  Er  Er9  1  0.333062  0.675965  0.435762  1
  Er  Er10  1  0.167324  0.176058  0.063914  1
  Er  Er11  1  0.134248  0.457501  0.750000  1
  Tc  Tc12  1  0.037021  0.884266  0.250000  1
  Ru  Ru13  1  0.461357  0.383831  0.250000  1
  Ru  Ru14  1  0.960573  0.117736  0.750000  1
  Ru  Ru15  1  0.538534  0.615452  0.750000  1
