# generated using pymatgen
data_TmHf8ZrSn6
_symmetry_space_group_name_H-M   'P 1'
_cell_length_a   8.55498081
_cell_length_b   8.55498178
_cell_length_c   5.77223800
_cell_angle_alpha   90.00000000
_cell_angle_beta   90.00000000
_cell_angle_gamma   121.06004652
_symmetry_Int_Tables_number   1
_chemical_formula_structural   TmHf8ZrSn6
_chemical_formula_sum   'Tm1 Hf8 Zr1 Sn6'
_cell_volume   361.88797281
_cell_formula_units_Z   1
loop_
 _symmetry_equiv_pos_site_id
 _symmetry_equiv_pos_as_xyz
  1  'x, y, z'
loop_
 _atom_site_type_symbol
 _atom_site_label
 _atom_site_symmetry_multiplicity
 _atom_site_fract_x
 _atom_site_fract_y
 _atom_site_fract_z
 _atom_site_occupancy
  Tm  Tm0  1  0.768805  0.768805  0.750000  1
  Hf  Hf1  1  0.250883  0.001101  0.750000  1
  Hf  Hf2  1  0.001101  0.250883  0.750000  1
  Hf  Hf3  1  0.750841  0.000022  0.250000  1
  Hf  Hf4  1  0.000022  0.750841  0.250000  1
  Hf  Hf5  1  0.664949  0.333297  0.000297  1
  Hf  Hf6  1  0.333297  0.664949  0.000297  1
  Hf  Hf7  1  0.333297  0.664949  0.499703  1
  Hf  Hf8  1  0.664949  0.333297  0.499703  1
  Zr  Zr9  1  0.233909  0.233909  0.250000  1
  Sn  Sn10  1  0.391769  0.391769  0.750000  1
  Sn  Sn11  1  0.606520  0.002645  0.750000  1
  Sn  Sn12  1  0.002645  0.606520  0.750000  1
  Sn  Sn13  1  0.606882  0.606882  0.250000  1
  Sn  Sn14  1  0.391868  0.998267  0.250000  1
  Sn  Sn15  1  0.998267  0.391868  0.250000  1
