# generated using pymatgen
data_PrY3IrRh3O14
_symmetry_space_group_name_H-M   'P 1'
_cell_length_a   7.31629230
_cell_length_b   7.31629399
_cell_length_c   7.31629379
_cell_angle_alpha   59.52116031
_cell_angle_beta   59.52115030
_cell_angle_gamma   59.52115856
_symmetry_Int_Tables_number   1
_chemical_formula_structural   PrY3IrRh3O14
_chemical_formula_sum   'Pr1 Y3 Ir1 Rh3 O14'
_cell_volume   273.90720655
_cell_formula_units_Z   1
loop_
 _symmetry_equiv_pos_site_id
 _symmetry_equiv_pos_as_xyz
  1  'x, y, z'
loop_
 _atom_site_type_symbol
 _atom_site_label
 _atom_site_symmetry_multiplicity
 _atom_site_fract_x
 _atom_site_fract_y
 _atom_site_fract_z
 _atom_site_occupancy
  Pr  Pr0  1  0.125000  0.125000  0.125000  1
  Y  Y1  1  0.625000  0.125000  0.125000  1
  Y  Y2  1  0.125000  0.625000  0.125000  1
  Y  Y3  1  0.125000  0.125000  0.625000  1
  Ir  Ir4  1  0.625000  0.625000  0.625000  1
  Rh  Rh5  1  0.125000  0.625000  0.625000  1
  Rh  Rh6  1  0.625000  0.125000  0.625000  1
  Rh  Rh7  1  0.625000  0.625000  0.125000  1
  O  O8  1  0.709068  0.709068  0.293747  1
  O  O9  1  0.288825  0.288825  0.702028  1
  O  O10  1  0.709068  0.293747  0.709068  1
  O  O11  1  0.288825  0.702028  0.288825  1
  O  O12  1  0.293747  0.709068  0.709068  1
  O  O13  1  0.702028  0.288825  0.288825  1
  O  O14  1  0.540932  0.540932  0.956253  1
  O  O15  1  0.961175  0.961175  0.547972  1
  O  O16  1  0.540932  0.956253  0.540932  1
  O  O17  1  0.961175  0.547972  0.961175  1
  O  O18  1  0.956253  0.540932  0.540932  1
  O  O19  1  0.547972  0.961175  0.961175  1
  O  O20  1  0.254443  0.254443  0.254443  1
  O  O21  1  0.995557  0.995557  0.995557  1
