# generated using pymatgen
data_Nd3Sn3Hg2
_symmetry_space_group_name_H-M   'P 1'
_cell_length_a   6.59815705
_cell_length_b   6.59815716
_cell_length_c   10.41244100
_cell_angle_alpha   90.00000000
_cell_angle_beta   90.00000000
_cell_angle_gamma   103.03870092
_symmetry_Int_Tables_number   1
_chemical_formula_structural   Nd3Sn3Hg2
_chemical_formula_sum   'Nd6 Sn6 Hg4'
_cell_volume   441.62531623
_cell_formula_units_Z   2
loop_
 _symmetry_equiv_pos_site_id
 _symmetry_equiv_pos_as_xyz
  1  'x, y, z'
loop_
 _atom_site_type_symbol
 _atom_site_label
 _atom_site_symmetry_multiplicity
 _atom_site_fract_x
 _atom_site_fract_y
 _atom_site_fract_z
 _atom_site_occupancy
  Nd  Nd0  1  0.625723  0.625723  0.250000  1
  Nd  Nd1  1  0.374277  0.374277  0.750000  1
  Nd  Nd2  1  0.203916  0.796084  0.500000  1
  Nd  Nd3  1  0.203916  0.796084  0.000000  1
  Nd  Nd4  1  0.796084  0.203916  0.500000  1
  Nd  Nd5  1  0.796084  0.203916  0.000000  1
  Sn  Sn6  1  0.015992  0.015992  0.250000  1
  Sn  Sn7  1  0.984008  0.984008  0.750000  1
  Sn  Sn8  1  0.492316  0.066126  0.250000  1
  Sn  Sn9  1  0.933874  0.507684  0.750000  1
  Sn  Sn10  1  0.507684  0.933874  0.750000  1
  Sn  Sn11  1  0.066126  0.492316  0.250000  1
  Hg  Hg12  1  0.313135  0.313135  0.042934  1
  Hg  Hg13  1  0.686865  0.686865  0.957066  1
  Hg  Hg14  1  0.313135  0.313135  0.457066  1
  Hg  Hg15  1  0.686865  0.686865  0.542934  1
