# generated using pymatgen
data_Li4Y4NiPt3
_symmetry_space_group_name_H-M   'P 1'
_cell_length_a   3.97308000
_cell_length_b   7.04425644
_cell_length_c   8.49298772
_cell_angle_alpha   89.86542763
_cell_angle_beta   90.00000000
_cell_angle_gamma   90.00000000
_symmetry_Int_Tables_number   1
_chemical_formula_structural   Li4Y4NiPt3
_chemical_formula_sum   'Li4 Y4 Ni1 Pt3'
_cell_volume   237.69594122
_cell_formula_units_Z   1
loop_
 _symmetry_equiv_pos_site_id
 _symmetry_equiv_pos_as_xyz
  1  'x, y, z'
loop_
 _atom_site_type_symbol
 _atom_site_label
 _atom_site_symmetry_multiplicity
 _atom_site_fract_x
 _atom_site_fract_y
 _atom_site_fract_z
 _atom_site_occupancy
  Li  Li0  1  0.250000  0.877400  0.944874  1
  Li  Li1  1  0.750000  0.122212  0.056127  1
  Li  Li2  1  0.750000  0.624926  0.445444  1
  Li  Li3  1  0.250000  0.376146  0.555810  1
  Y  Y4  1  0.250000  0.448818  0.176999  1
  Y  Y5  1  0.750000  0.553129  0.818362  1
  Y  Y6  1  0.750000  0.044812  0.678490  1
  Y  Y7  1  0.250000  0.947426  0.325316  1
  Ni  Ni8  1  0.250000  0.758531  0.628956  1
  Pt  Pt9  1  0.750000  0.245597  0.373233  1
  Pt  Pt10  1  0.750000  0.745043  0.127363  1
  Pt  Pt11  1  0.250000  0.255958  0.869030  1
