# generated using pymatgen
data_Yb2Zn2PdPt
_symmetry_space_group_name_H-M   'P 1'
_cell_length_a   4.18940800
_cell_length_b   7.13014900
_cell_length_c   7.92125800
_cell_angle_alpha   90.00000000
_cell_angle_beta   90.00000000
_cell_angle_gamma   90.00000000
_symmetry_Int_Tables_number   1
_chemical_formula_structural   Yb2Zn2PdPt
_chemical_formula_sum   'Yb4 Zn4 Pd2 Pt2'
_cell_volume   236.61671568
_cell_formula_units_Z   2
loop_
 _symmetry_equiv_pos_site_id
 _symmetry_equiv_pos_as_xyz
  1  'x, y, z'
loop_
 _atom_site_type_symbol
 _atom_site_label
 _atom_site_symmetry_multiplicity
 _atom_site_fract_x
 _atom_site_fract_y
 _atom_site_fract_z
 _atom_site_occupancy
  Yb  Yb0  1  0.750000  0.474507  0.813514  1
  Yb  Yb1  1  0.250000  0.023206  0.311461  1
  Yb  Yb2  1  0.750000  0.974507  0.686486  1
  Yb  Yb3  1  0.250000  0.523206  0.188539  1
  Zn  Zn4  1  0.250000  0.649943  0.570438  1
  Zn  Zn5  1  0.250000  0.149943  0.929562  1
  Zn  Zn6  1  0.750000  0.351387  0.427135  1
  Zn  Zn7  1  0.750000  0.851387  0.072865  1
  Pd  Pd8  1  0.250000  0.774440  0.884061  1
  Pd  Pd9  1  0.250000  0.274440  0.615939  1
  Pt  Pt10  1  0.750000  0.726518  0.385211  1
  Pt  Pt11  1  0.750000  0.226518  0.114789  1
