# generated using pymatgen
data_Ac3Al11Ag
_symmetry_space_group_name_H-M   'P 1'
_cell_length_a   8.97566539
_cell_length_b   8.97566587
_cell_length_c   8.97566416
_cell_angle_alpha   150.49502478
_cell_angle_beta   104.70396211
_cell_angle_gamma   82.86902574
_symmetry_Int_Tables_number   1
_chemical_formula_structural   Ac3Al11Ag
_chemical_formula_sum   'Ac3 Al11 Ag1'
_cell_volume   337.28222187
_cell_formula_units_Z   1
loop_
 _symmetry_equiv_pos_site_id
 _symmetry_equiv_pos_as_xyz
  1  'x, y, z'
loop_
 _atom_site_type_symbol
 _atom_site_label
 _atom_site_symmetry_multiplicity
 _atom_site_fract_x
 _atom_site_fract_y
 _atom_site_fract_z
 _atom_site_occupancy
  Ac  Ac0  1  0.998919  0.000000  0.998919  1
  Ac  Ac1  1  0.331486  0.331829  0.999657  1
  Ac  Ac2  1  0.667827  0.668171  0.999657  1
  Al  Al3  1  0.384862  0.000000  0.384862  1
  Al  Al4  1  0.249214  0.500000  0.749214  1
  Al  Al5  1  0.749814  0.500000  0.249814  1
  Al  Al6  1  0.586798  0.834867  0.751931  1
  Al  Al7  1  0.917064  0.165133  0.751931  1
  Al  Al8  1  0.289923  0.669011  0.620912  1
  Al  Al9  1  0.951901  0.330989  0.620912  1
  Al  Al10  1  0.047891  0.666846  0.381045  1
  Al  Al11  1  0.714196  0.333154  0.381045  1
  Al  Al12  1  0.084408  0.834464  0.249945  1
  Al  Al13  1  0.415480  0.165536  0.249945  1
  Ag  Ag14  1  0.621214  0.000000  0.621214  1
