# generated using pymatgen
data_La2Tb2Nd2OsI10
_symmetry_space_group_name_H-M   'P 1'
_cell_length_a   8.03335579
_cell_length_b   10.00244788
_cell_length_c   10.00144885
_cell_angle_alpha   106.61385321
_cell_angle_beta   96.65933804
_cell_angle_gamma   105.83625962
_symmetry_Int_Tables_number   1
_chemical_formula_structural   La2Tb2Nd2OsI10
_chemical_formula_sum   'La2 Tb2 Nd2 Os1 I10'
_cell_volume   724.28176092
_cell_formula_units_Z   1
loop_
 _symmetry_equiv_pos_site_id
 _symmetry_equiv_pos_as_xyz
  1  'x, y, z'
loop_
 _atom_site_type_symbol
 _atom_site_label
 _atom_site_symmetry_multiplicity
 _atom_site_fract_x
 _atom_site_fract_y
 _atom_site_fract_z
 _atom_site_occupancy
  La  La0  1  0.384144  0.954242  0.725912  1
  La  La1  1  0.615856  0.045758  0.274088  1
  Tb  Tb2  1  0.468778  0.288293  0.585075  1
  Tb  Tb3  1  0.531222  0.711707  0.414925  1
  Nd  Nd4  1  0.858444  0.134773  0.676270  1
  Nd  Nd5  1  0.141556  0.865227  0.323730  1
  Os  Os6  1  0.500000  0.000000  0.500000  1
  I  I7  1  0.418929  0.622505  0.671494  1
  I  I8  1  0.581071  0.377495  0.328506  1
  I  I9  1  0.296976  0.266062  0.842999  1
  I  I10  1  0.703024  0.733938  0.157001  1
  I  I11  1  0.842119  0.456650  0.770052  1
  I  I12  1  0.157881  0.543350  0.229948  1
  I  I13  1  0.051374  0.183665  0.413637  1
  I  I14  1  0.240010  0.913497  0.041083  1
  I  I15  1  0.759990  0.086503  0.958917  1
  I  I16  1  0.948626  0.816335  0.586363  1
